# generated using pymatgen
data_In2Te3
_symmetry_space_group_name_H-M   'P 1'
_cell_length_a   18.85297069
_cell_length_b   18.85576720
_cell_length_c   18.86661732
_cell_angle_alpha   89.99765570
_cell_angle_beta   90.04582733
_cell_angle_gamma   90.08853752
_symmetry_Int_Tables_number   1
_chemical_formula_structural   In2Te3
_chemical_formula_sum   'In72 Te108'
_cell_volume   6706.83130313
_cell_formula_units_Z   36
loop_
 _symmetry_equiv_pos_site_id
 _symmetry_equiv_pos_as_xyz
  1  'x, y, z'
loop_
 _atom_site_type_symbol
 _atom_site_label
 _atom_site_symmetry_multiplicity
 _atom_site_fract_x
 _atom_site_fract_y
 _atom_site_fract_z
 _atom_site_occupancy
  In  In0  1  0.34594192  0.48668158  0.52536772  1
  In  In1  1  0.66696083  -0.01553523  0.33572591  1
  In  In2  1  0.84569861  0.50546914  -0.00045743  1
  In  In3  1  0.83119189  0.15664972  0.32130610  1
  In  In4  1  0.19249557  0.36611445  0.87104807  1
  In  In5  1  0.15523021  -0.01899196  0.15467279  1
  In  In6  1  0.66744058  0.80068794  0.18597273  1
  In  In7  1  0.84269078  0.01891042  0.53016349  1
  In  In8  1  0.84962511  0.34469164  0.16382397  1
  In  In9  1  0.36170357  0.82812931  0.82328376  1
  In  In10  1  -0.04517552  0.50842444  0.47550194  1
  In  In11  1  0.36212684  -0.00055291  -0.03812431  1
  In  In12  1  0.31816925  0.30562248  0.32531737  1
  In  In13  1  0.81268090  0.83041915  0.00496100  1
  In  In14  1  0.82536328  0.18399014  0.01813293  1
  In  In15  1  0.33843262  0.65468030  0.33242809  1
  In  In16  1  0.15856302  0.64454980  0.85012937  1
  In  In17  1  0.49878928  0.66000114  0.84038293  1
  In  In18  1  -0.00391142  0.82045684  0.15104596  1
  In  In19  1  0.81424932  0.32820737  0.50920695  1
  In  In20  1  0.34844266  0.48721860  0.15648030  1
  In  In21  1  0.55337311  -0.02972446  0.80590614  1
  In  In22  1  0.33568985  0.66065840  0.02188821  1
  In  In23  1  0.67023763  0.15117044  0.16204438  1
  In  In24  1  0.66265228  0.15825678  0.81517671  1
  In  In25  1  0.17130325  -0.00060929  0.49259973  1
  In  In26  1  0.53050945  0.66223879  0.50480406  1
  In  In27  1  -0.01442364  0.34550546  0.34041567  1
  In  In28  1  0.65939799  0.32988131  -0.01320110  1
  In  In29  1  0.51959622  0.13802653  0.66111568  1
  In  In30  1  0.15732255  0.16938398  0.33190388  1
  In  In31  1  0.17255991  0.01387400  0.81145845  1
  In  In32  1  0.14610640  0.31670636  0.50937817  1
  In  In33  1  0.15753303  0.68410771  0.49769821  1
  In  In34  1  0.00131333  0.67429097  0.67326364  1
  In  In35  1  -0.00434261  0.50100421  0.84147123  1
  In  In36  1  0.50791832  0.51517800  0.34439804  1
  In  In37  1  -0.04400214  0.84837375  0.83195606  1
  In  In38  1  0.68529040  0.53398553  0.18473239  1
  In  In39  1  0.66345315  0.66932805  0.01590659  1
  In  In40  1  0.13074366  0.38165016  0.17466701  1
  In  In41  1  -0.00084942  0.01419342  -0.01794902  1
  In  In42  1  -0.02770973  0.21504347  0.80552190  1
  In  In43  1  0.36019733  0.18394312  0.80407850  1
  In  In44  1  0.50620251  0.31300193  0.50858171  1
  In  In45  1  0.66029956  0.66589241  0.65133227  1
  In  In46  1  0.81258038  0.00169795  0.81485732  1
  In  In47  1  0.49402873  0.35288048  0.85300122  1
  In  In48  1  0.34754617  0.31638654  0.67654377  1
  In  In49  1  0.81047376  0.82722446  0.65244953  1
  In  In50  1  0.33516607  -0.01514864  0.35451726  1
  In  In51  1  0.14480103  0.54194433  0.31597122  1
  In  In52  1  0.16594579  0.18465211  0.00614592  1
  In  In53  1  0.16413385  0.52493698  0.69073593  1
  In  In54  1  0.51051289  0.48925932  0.67810723  1
  In  In55  1  0.16175863  0.82650029  0.01306461  1
  In  In56  1  0.16714695  0.83432274  0.65075474  1
  In  In57  1  0.01337147  0.63517977  0.01620347  1
  In  In58  1  0.32997221  0.18538589  0.17799046  1
  In  In59  1  0.34079779  0.84164544  0.51535765  1
  In  In60  1  0.64146197  0.34112510  0.34120622  1
  In  In61  1  0.67546249  0.51340669  0.47842398  1
  In  In62  1  -0.01951993  0.00250019  0.31925718  1
  In  In63  1  0.50765373  -0.02418218  0.48118209  1
  In  In64  1  0.00522080  0.82998969  0.47598315  1
  In  In65  1  0.50342203  0.17271696  -0.02084555  1
  In  In66  1  0.51536847  -0.01109870  0.15303516  1
  In  In67  1  0.34728389  0.80841490  0.17220858  1
  In  In68  1  0.69908432  0.33943580  0.69022375  1
  In  In69  1  0.15762707  0.14892910  0.65209539  1
  In  In70  1  0.83281194  0.67089877  0.82187091  1
  In  In71  1  0.79906933  0.81385423  0.33200985  1
  Te  Te72  1  0.07585593  0.09245887  0.08834587  1
  Te  Te73  1  0.06756131  0.08295775  0.41729747  1
  Te  Te74  1  0.05759144  0.09282389  0.75416998  1
  Te  Te75  1  0.05459022  0.44775845  0.06889811  1
  Te  Te76  1  0.08709483  0.42703344  0.42194808  1
  Te  Te77  1  0.08963199  0.41346317  0.75906138  1
  Te  Te78  1  0.10516466  0.72126409  0.10572393  1
  Te  Te79  1  0.06265838  0.72182621  0.39134245  1
  Te  Te80  1  0.08611829  0.76011712  0.76322580  1
  Te  Te81  1  0.41022441  0.08907850  0.07869517  1
  Te  Te82  1  0.42483320  0.08110714  0.41671525  1
  Te  Te83  1  0.43256211  0.06049919  0.76207256  1
  Te  Te84  1  0.40363088  0.40899640  0.04500116  1
  Te  Te85  1  0.42137139  0.40788489  0.41830172  1
  Te  Te86  1  0.39778512  0.43125396  0.76225734  1
  Te  Te87  1  0.43611752  0.75884074  0.06801708  1
  Te  Te88  1  0.41670355  0.73851291  0.43138802  1
  Te  Te89  1  0.44637358  0.74937775  0.73410871  1
  Te  Te90  1  0.74079533  0.07210246  0.06113267  1
  Te  Te91  1  0.74853434  0.08015631  0.42153703  1
  Te  Te92  1  0.75729148  0.09979786  0.71818038  1
  Te  Te93  1  0.74025664  0.42166954  0.08525084  1
  Te  Te94  1  0.75913158  0.41965819  0.39519642  1
  Te  Te95  1  0.78543678  0.41111668  0.78524922  1
  Te  Te96  1  0.77504654  0.72576671  0.10620798  1
  Te  Te97  1  0.76260555  0.71670980  0.43767013  1
  Te  Te98  1  0.73118112  0.76959914  0.76932806  1
  Te  Te99  1  0.06942157  0.25819596  0.24715938  1
  Te  Te100  1  0.04849178  0.23220561  0.58692198  1
  Te  Te101  1  0.08206557  0.26450706  0.90877312  1
  Te  Te102  1  0.02631837  0.55917928  0.23041410  1
  Te  Te103  1  0.07074821  0.57733623  0.57753730  1
  Te  Te104  1  0.11161086  0.53559908  0.95238028  1
  Te  Te105  1  0.07885552  0.90311937  0.25700856  1
  Te  Te106  1  0.06904024  0.92413931  0.57946400  1
  Te  Te107  1  0.08910964  0.91723153  0.90586765  1
  Te  Te108  1  0.43436198  0.26288553  0.24737184  1
  Te  Te109  1  0.41284014  0.21756759  0.58157559  1
  Te  Te110  1  0.39168548  0.26408447  0.92929313  1
  Te  Te111  1  0.43341164  0.59015363  0.23321703  1
  Te  Te112  1  0.42986317  0.58979892  0.59716311  1
  Te  Te113  1  0.40353514  0.57386065  0.92032005  1
  Te  Te114  1  0.42221714  0.91460017  0.25124295  1
  Te  Te115  1  0.42648402  0.92778802  0.59620434  1
  Te  Te116  1  0.46323924  0.89983772  0.91428563  1
  Te  Te117  1  0.74355905  0.25998197  0.24478578  1
  Te  Te118  1  0.73020639  0.23595657  0.59128910  1
  Te  Te119  1  0.75212390  0.24849121  0.90069770  1
  Te  Te120  1  0.76121699  0.60845669  0.29063354  1
  Te  Te121  1  0.75293755  0.56901944  0.59028158  1
  Te  Te122  1  0.74907081  0.58704661  0.91570140  1
  Te  Te123  1  0.75643536  0.92176946  0.23255845  1
  Te  Te124  1  0.73653982  0.91807523  0.56026807  1
  Te  Te125  1  0.73969680  0.91997409  0.91403495  1
  Te  Te126  1  0.22897247  0.27607624  0.10902857  1
  Te  Te127  1  0.24974240  0.22948760  0.43736794  1
  Te  Te128  1  0.23191911  0.25108785  0.75533805  1
  Te  Te129  1  0.24753804  0.58754555  0.11558508  1
  Te  Te130  1  0.25592246  0.57306382  0.43702030  1
  Te  Te131  1  0.26649678  0.60441587  0.75862550  1
  Te  Te132  1  0.26693383  0.92596421  0.06570408  1
  Te  Te133  1  0.23563603  0.88611872  0.41299145  1
  Te  Te134  1  0.26157769  0.91476650  0.74011924  1
  Te  Te135  1  0.57757327  0.24966710  0.08679614  1
  Te  Te136  1  0.59961537  0.23210577  0.42946048  1
  Te  Te137  1  0.56564403  0.26220152  0.75073079  1
  Te  Te138  1  0.57627437  0.58288437  0.09849450  1
  Te  Te139  1  0.61052877  0.63054427  0.37325641  1
  Te  Te140  1  0.60526739  0.57302990  0.75898134  1
  Te  Te141  1  0.60717887  0.89510793  0.08843190  1
  Te  Te142  1  0.58008861  0.87327166  0.39026370  1
  Te  Te143  1  0.63031471  0.89024879  0.70882738  1
  Te  Te144  1  0.93460315  0.26008382  0.07984010  1
  Te  Te145  1  0.90947721  0.24205567  0.42022581  1
  Te  Te146  1  0.87380557  0.30331898  0.72769966  1
  Te  Te147  1  0.90723314  0.58693404  0.10955817  1
  Te  Te148  1  0.87100438  0.61200624  0.40242029  1
  Te  Te149  1  0.90918631  0.57161221  0.73647149  1
  Te  Te150  1  0.91559746  0.92257338  0.07157294  1
  Te  Te151  1  0.89587360  0.91836236  0.41512099  1
  Te  Te152  1  0.90894093  0.92915075  0.71663272  1
  Te  Te153  1  0.24157597  0.07171923  0.24931256  1
  Te  Te154  1  0.26011082  0.06475912  0.59024102  1
  Te  Te155  1  0.25186588  0.09762656  0.91282431  1
  Te  Te156  1  0.24614036  0.42786596  0.27260797  1
  Te  Te157  1  0.24068658  0.40663201  0.60127757  1
  Te  Te158  1  0.28754117  0.45198751  0.95533114  1
  Te  Te159  1  0.24710300  0.74235242  0.25607544  1
  Te  Te160  1  0.26267919  0.73134275  0.59565637  1
  Te  Te161  1  0.25319218  0.75654108  0.91341259  1
  Te  Te162  1  0.57593349  0.08123884  0.25874167  1
  Te  Te163  1  0.59874394  0.04269028  0.58173660  1
  Te  Te164  1  0.59484043  0.06962155  0.91913503  1
  Te  Te165  1  0.57863014  0.43135216  0.23752290  1
  Te  Te166  1  0.59666816  0.41701107  0.57553976  1
  Te  Te167  1  0.58902242  0.44099106  0.92113408  1
  Te  Te168  1  0.56610055  0.75932779  0.28584903  1
  Te  Te169  1  0.58523893  0.77654863  0.58591838  1
  Te  Te170  1  0.58689795  0.75027311  0.91867194  1
  Te  Te171  1  0.91222729  0.08724005  0.22103360  1
  Te  Te172  1  0.93640207  0.12145651  0.57464620  1
  Te  Te173  1  0.90982932  0.10097363  0.89632128  1
  Te  Te174  1  0.91786268  0.44692801  0.25220696  1
  Te  Te175  1  0.91983674  0.40834596  0.57787687  1
  Te  Te176  1  0.91183861  0.40336709  0.91535488  1
  Te  Te177  1  0.92352688  0.76229985  0.26541169  1
  Te  Te178  1  0.91662733  0.74924510  0.57405424  1
  Te  Te179  1  0.92776728  0.73650802  0.93156493  1
