# generated using pymatgen
data_In2Te3
_symmetry_space_group_name_H-M   'P 1'
_cell_length_a   18.82297271
_cell_length_b   18.82473549
_cell_length_c   18.84302069
_cell_angle_alpha   90.00594669
_cell_angle_beta   89.90379605
_cell_angle_gamma   89.97385575
_symmetry_Int_Tables_number   1
_chemical_formula_structural   In2Te3
_chemical_formula_sum   'In72 Te108'
_cell_volume   6676.77836664
_cell_formula_units_Z   36
loop_
 _symmetry_equiv_pos_site_id
 _symmetry_equiv_pos_as_xyz
  1  'x, y, z'
loop_
 _atom_site_type_symbol
 _atom_site_label
 _atom_site_symmetry_multiplicity
 _atom_site_fract_x
 _atom_site_fract_y
 _atom_site_fract_z
 _atom_site_occupancy
  In  In0  1  0.30617476  0.82063020  0.82929671  1
  In  In1  1  0.34706218  0.66931151  0.65346407  1
  In  In2  1  0.86870867  -0.02419738  0.13738907  1
  In  In3  1  0.65428238  0.50790621  0.50214445  1
  In  In4  1  0.28028318  0.02125177  0.62063302  1
  In  In5  1  0.47348962  0.16323938  0.33642727  1
  In  In6  1  0.32413396  0.18083152  0.80733666  1
  In  In7  1  0.51295772  0.33772120  0.16974089  1
  In  In8  1  -0.01718083  -0.00270769  0.31881693  1
  In  In9  1  0.83377246  0.83415982  0.68182318  1
  In  In10  1  0.13688668  0.48503425  0.02071744  1
  In  In11  1  0.49332589  0.65223997  0.49454346  1
  In  In12  1  0.29810540  0.66530733  0.34863218  1
  In  In13  1  0.13959225  0.66430367  0.12956565  1
  In  In14  1  0.29194311  0.33643152  0.34692681  1
  In  In15  1  0.69500596  0.84933239  0.83947471  1
  In  In16  1  0.70621784  0.34037110  0.67639135  1
  In  In17  1  0.29372760  0.33497377  0.67182428  1
  In  In18  1  0.69059310  0.83566885  0.15454860  1
  In  In19  1  -0.00263026  0.17076184  0.48965445  1
  In  In20  1  0.49154396  0.35313360  0.85568253  1
  In  In21  1  0.01908271  0.83841353  0.52108057  1
  In  In22  1  0.84458861  0.03201370  0.48654218  1
  In  In23  1  0.68152448  0.17249725  0.82564763  1
  In  In24  1  0.14060634  -0.00312116  0.18021584  1
  In  In25  1  0.15140974  0.16617897  0.33968463  1
  In  In26  1  0.31525332  0.34148025  0.00051879  1
  In  In27  1  0.66797073  0.00826117  0.66741673  1
  In  In28  1  0.88865063  0.01135176  0.86162403  1
  In  In29  1  0.49987854  0.16695144  0.66764875  1
  In  In30  1  0.00774110  0.33664254  0.66920026  1
  In  In31  1  0.69326684  0.00357233  -0.02480068  1
  In  In32  1  0.52049995  -0.00982762  0.82917400  1
  In  In33  1  0.90424508  0.34042434  0.13387412  1
  In  In34  1  0.65893576  0.81649680  0.49780924  1
  In  In35  1  0.01076355  0.66527559  0.31945568  1
  In  In36  1  0.69854878  0.34088554  0.00279894  1
  In  In37  1  0.33151336  0.83552956  0.17617620  1
  In  In38  1  0.49611901  0.66524186  0.16283075  1
  In  In39  1  0.83197908  0.50167455  0.33266004  1
  In  In40  1  0.29188635  0.87379390  0.48875623  1
  In  In41  1  0.15068545  0.82999960  0.69087135  1
  In  In42  1  0.46934618  0.34558888  0.49171743  1
  In  In43  1  0.84700921  0.19716001  0.67463441  1
  In  In44  1  0.84974174  0.32745322  0.52755386  1
  In  In45  1  0.52111570  0.65440387  0.82771411  1
  In  In46  1  0.72053602  0.63982943  -0.00157359  1
  In  In47  1  0.31943369  0.49395882  0.84935164  1
  In  In48  1  0.49756883  0.81503774  0.32772724  1
  In  In49  1  0.15631915  0.49519013  0.66534336  1
  In  In50  1  0.15209570  0.18915150  -0.01769282  1
  In  In51  1  0.50484607  0.82289862  0.00581622  1
  In  In52  1  0.32770603  -0.00103498  0.02131081  1
  In  In53  1  0.48164483  -0.01881453  0.49304483  1
  In  In54  1  0.30616363  0.49860958  0.18943423  1
  In  In55  1  0.51244054  0.48809085  -0.02323572  1
  In  In56  1  0.67402650  0.17076155  0.16276691  1
  In  In57  1  0.68213276  0.49774992  0.18359925  1
  In  In58  1  0.69811152  0.67240663  0.67272898  1
  In  In59  1  -0.01345867  0.80696090  0.85940062  1
  In  In60  1  0.89670099  0.34950602  0.85910026  1
  In  In61  1  0.15812075  0.66893892  0.85933945  1
  In  In62  1  0.85183371  0.66361884  0.48598593  1
  In  In63  1  0.84416838  0.82359468  0.30761895  1
  In  In64  1  0.05430739  0.35597145  0.33007939  1
  In  In65  1  0.30625509  0.16213913  0.15628428  1
  In  In66  1  0.83046010  0.16628705  0.31931638  1
  In  In67  1  0.12513477  0.02009416  0.84380814  1
  In  In68  1  0.48925625  -0.00174897  0.17919022  1
  In  In69  1  0.49877676  0.52408885  0.65404434  1
  In  In70  1  0.66189095  0.32013326  0.32724371  1
  In  In71  1  0.14846046  0.64847169  0.50286732  1
  Te  Te72  1  0.08429981  0.08547423  0.07057616  1
  Te  Te73  1  0.07957204  0.05053969  0.42724680  1
  Te  Te74  1  0.06022671  0.10762612  0.74736519  1
  Te  Te75  1  0.04063952  0.38319298  0.07525067  1
  Te  Te76  1  0.12137399  0.41969090  0.44497798  1
  Te  Te77  1  0.06242056  0.43591400  0.76362297  1
  Te  Te78  1  0.03450701  0.75573324  0.07115819  1
  Te  Te79  1  0.09132253  0.75986443  0.41395108  1
  Te  Te80  1  0.06193785  0.72402540  0.75399868  1
  Te  Te81  1  0.42513044  0.09878444  0.08411212  1
  Te  Te82  1  0.39509827  0.08561026  0.43428507  1
  Te  Te83  1  0.41697323  0.06848130  0.74884101  1
  Te  Te84  1  0.41643862  0.42654023  0.08584851  1
  Te  Te85  1  0.39909830  0.42732902  0.39261217  1
  Te  Te86  1  0.41256715  0.42471258  0.74270780  1
  Te  Te87  1  0.39770580  0.74069172  0.07519763  1
  Te  Te88  1  0.39652808  0.75954032  0.42879179  1
  Te  Te89  1  0.42252161  0.75168085  0.75741789  1
  Te  Te90  1  0.76750857  0.08502626  0.07845351  1
  Te  Te91  1  0.73841814  0.09260484  0.40711476  1
  Te  Te92  1  0.77194280  0.06712681  0.76238785  1
  Te  Te93  1  0.78139813  0.43144494  0.08977867  1
  Te  Te94  1  0.74758232  0.40406108  0.42448326  1
  Te  Te95  1  0.81413174  0.41804871  0.74477094  1
  Te  Te96  1  0.78095882  0.75556643  0.06842179  1
  Te  Te97  1  0.75222017  0.74204931  0.40267554  1
  Te  Te98  1  0.78284528  0.73409300  0.78594773  1
  Te  Te99  1  0.05712318  0.23180852  0.24804898  1
  Te  Te100  1  0.08999957  0.24745964  0.57995729  1
  Te  Te101  1  0.03976977  0.27298629  0.92430063  1
  Te  Te102  1  0.09473399  0.57345123  0.23722234  1
  Te  Te103  1  0.05816777  0.58590461  0.60086283  1
  Te  Te104  1  0.06030027  0.56878635  0.91698160  1
  Te  Te105  1  0.06156689  0.89312347  0.25024242  1
  Te  Te106  1  0.10088361  0.93443530  0.59786476  1
  Te  Te107  1  0.07871264  0.90489520  0.92799605  1
  Te  Te108  1  0.40126058  0.25964661  0.23985885  1
  Te  Te109  1  0.40056112  0.25389575  0.59274059  1
  Te  Te110  1  0.40532291  0.24613038  0.92193370  1
  Te  Te111  1  0.40393558  0.59360509  0.26085396  1
  Te  Te112  1  0.38716329  0.55939339  0.55511780  1
  Te  Te113  1  0.41437442  0.59138120  0.91853112  1
  Te  Te114  1  0.40112930  0.92484705  0.27824779  1
  Te  Te115  1  0.39154653  0.91327363  0.59596434  1
  Te  Te116  1  0.41628027  0.91515520  0.91993871  1
  Te  Te117  1  0.76825039  0.27624550  0.22598128  1
  Te  Te118  1  0.73766391  0.22950678  0.57531384  1
  Te  Te119  1  0.77942801  0.25221496  0.90805530  1
  Te  Te120  1  0.77405846  0.59925036  0.23791536  1
  Te  Te121  1  0.76818210  0.57360519  0.57853834  1
  Te  Te122  1  0.77577509  0.55252339  0.89143082  1
  Te  Te123  1  0.76116696  0.93535538  0.24481321  1
  Te  Te124  1  0.75137674  0.91223555  0.57791875  1
  Te  Te125  1  0.80108967  0.90492852  0.93373895  1
  Te  Te126  1  0.21903514  0.26911102  0.09488966  1
  Te  Te127  1  0.25165011  0.22219912  0.43493910  1
  Te  Te128  1  0.20664181  0.25462921  0.76002781  1
  Te  Te129  1  0.25235128  0.57266981  0.06832148  1
  Te  Te130  1  0.20529750  0.55668905  0.39746508  1
  Te  Te131  1  0.25543258  0.59463750  0.75263264  1
  Te  Te132  1  0.22926365  0.90709834  0.08813929  1
  Te  Te133  1  0.21086970  0.96478396  0.41074867  1
  Te  Te134  1  0.23811973  0.93812637  0.75956285  1
  Te  Te135  1  0.58829116  0.25424368  0.06709578  1
  Te  Te136  1  0.56723174  0.24879168  0.42295858  1
  Te  Te137  1  0.57995604  0.26268842  0.75592109  1
  Te  Te138  1  0.59137963  0.58040943  0.07573492  1
  Te  Te139  1  0.59205749  0.59499209  0.40195056  1
  Te  Te140  1  0.61307978  0.56538108  0.74574262  1
  Te  Te141  1  0.58808408  0.93156013  0.07563311  1
  Te  Te142  1  0.58722324  0.91283574  0.40392466  1
  Te  Te143  1  0.59144705  0.89346370  0.73527477  1
  Te  Te144  1  0.93230702  0.23065678  0.03117788  1
  Te  Te145  1  0.91668963  0.26561536  0.40187090  1
  Te  Te146  1  0.95417763  0.21523971  0.78325044  1
  Te  Te147  1  0.96071088  0.57785549  0.05063005  1
  Te  Te148  1  0.94387076  0.56548700  0.41634471  1
  Te  Te149  1  0.86374845  0.56482322  0.77014531  1
  Te  Te150  1  0.98115585  0.90393403  0.06945061  1
  Te  Te151  1  0.90600514  0.90486402  0.42748097  1
  Te  Te152  1  0.93970323  0.91440785  0.75366921  1
  Te  Te153  1  0.24948800  0.07016687  0.25991185  1
  Te  Te154  1  0.20956434  0.14243565  0.57973291  1
  Te  Te155  1  0.25549798  0.08682155  0.91904337  1
  Te  Te156  1  0.20725535  0.40002391  0.24153397  1
  Te  Te157  1  0.22956134  0.41310933  0.56024259  1
  Te  Te158  1  0.21469027  0.40364131  0.90642830  1
  Te  Te159  1  0.22880542  0.74169389  0.23752072  1
  Te  Te160  1  0.23912297  0.75308749  0.58564371  1
  Te  Te161  1  0.23415691  0.76297635  0.94306544  1
  Te  Te162  1  0.58392829  0.08950726  0.25639141  1
  Te  Te163  1  0.57652644  0.07922403  0.57008394  1
  Te  Te164  1  0.58490860  0.09636082  0.91718934  1
  Te  Te165  1  0.57407100  0.43354464  0.27075184  1
  Te  Te166  1  0.58305285  0.40603351  0.59161874  1
  Te  Te167  1  0.62404112  0.42163126  0.89572173  1
  Te  Te168  1  0.60079849  0.74436732  0.24005810  1
  Te  Te169  1  0.57658663  0.73263681  0.59401431  1
  Te  Te170  1  0.60637566  0.74579989  0.92187319  1
  Te  Te171  1  0.92312538  0.09678408  0.22072106  1
  Te  Te172  1  0.92626890  0.08668080  0.59974061  1
  Te  Te173  1  0.95551084  0.08520695  0.97305210  1
  Te  Te174  1  0.94248118  0.43165089  0.25235440  1
  Te  Te175  1  0.94417119  0.43027890  0.57245491  1
  Te  Te176  1  0.92319829  0.46454714  0.95996925  1
  Te  Te177  1  0.92101194  0.73273495  0.22099105  1
  Te  Te178  1  0.92262393  0.74466600  0.59385865  1
  Te  Te179  1  0.93358250  0.70309242  0.95661204  1
