# generated using pymatgen
data_In2Te3
_symmetry_space_group_name_H-M   'P 1'
_cell_length_a   18.95148120
_cell_length_b   18.95950633
_cell_length_c   18.96512482
_cell_angle_alpha   90.14574241
_cell_angle_beta   89.96457343
_cell_angle_gamma   89.80331717
_symmetry_Int_Tables_number   1
_chemical_formula_structural   In2Te3
_chemical_formula_sum   'In72 Te108'
_cell_volume   6814.30926334
_cell_formula_units_Z   36
loop_
 _symmetry_equiv_pos_site_id
 _symmetry_equiv_pos_as_xyz
  1  'x, y, z'
loop_
 _atom_site_type_symbol
 _atom_site_label
 _atom_site_symmetry_multiplicity
 _atom_site_fract_x
 _atom_site_fract_y
 _atom_site_fract_z
 _atom_site_occupancy
  In  In0  1  0.68344771  0.65216128  -0.00116748  1
  In  In1  1  0.86716044  0.01734542  0.15907802  1
  In  In2  1  0.69464159  0.65478884  0.34236002  1
  In  In3  1  0.07592923  0.47531379  0.34971289  1
  In  In4  1  0.33538977  0.48877971  0.50940856  1
  In  In5  1  0.64471519  0.15005216  0.50880477  1
  In  In6  1  0.16557292  0.66484875  0.50655291  1
  In  In7  1  0.48433823  -0.01321341  0.17962237  1
  In  In8  1  0.16704604  0.35232535  0.83790950  1
  In  In9  1  0.81098096  0.16998167  0.67462542  1
  In  In10  1  0.02853080  0.82702115  0.49172505  1
  In  In11  1  0.00778506  0.83085450  0.83165454  1
  In  In12  1  0.32141265  -0.00818064  -0.01166503  1
  In  In13  1  0.00481878  0.81520640  0.17448569  1
  In  In14  1  0.83502354  0.84795862  0.31699019  1
  In  In15  1  0.17337832  0.50747703  0.67080005  1
  In  In16  1  0.01271677  0.20232292  0.48727656  1
  In  In17  1  0.86181479  0.80703988  0.00118679  1
  In  In18  1  0.69669912  0.49652024  0.50269485  1
  In  In19  1  0.47469605  0.81973447  0.00531878  1
  In  In20  1  0.63845773  0.18566586  0.83271539  1
  In  In21  1  0.83290768  0.36858220  0.84826272  1
  In  In22  1  0.50811364  0.82453776  0.32414373  1
  In  In23  1  0.66605012  0.81681329  0.53668853  1
  In  In24  1  0.49424743  -0.03015752  0.74106194  1
  In  In25  1  0.50686388  0.67018740  0.83082911  1
  In  In26  1  0.20901331  0.53060803  -0.00828372  1
  In  In27  1  0.69220030  0.52642836  0.15317997  1
  In  In28  1  0.66838671  -0.02369784  0.00743735  1
  In  In29  1  0.83882053  0.01678987  0.50067699  1
  In  In30  1  0.47781030  0.35387416  0.17431358  1
  In  In31  1  0.81626684  0.82546261  0.65816193  1
  In  In32  1  0.46077126  0.03142633  0.49095131  1
  In  In33  1  0.14750623  0.83798602  0.00720548  1
  In  In34  1  0.67822962  0.34986264  0.34523577  1
  In  In35  1  0.48183784  0.68301017  0.16695373  1
  In  In36  1  0.51920671  0.52831198  0.33848053  1
  In  In37  1  0.30709375  0.83582870  0.46277182  1
  In  In38  1  0.87192132  0.64450582  0.48914474  1
  In  In39  1  0.85158414  0.67209821  0.16946902  1
  In  In40  1  0.31515178  0.15449318  0.19714789  1
  In  In41  1  0.30025266  0.32609645  0.34327725  1
  In  In42  1  0.50624055  0.49856543  0.66694731  1
  In  In43  1  0.33305880  0.66609665  0.32065648  1
  In  In44  1  0.86841421  0.18164386  -0.00505683  1
  In  In45  1  0.66279213  0.50978422  0.86501592  1
  In  In46  1  0.02491563  0.34406729  0.64709968  1
  In  In47  1  0.12813488  0.13531579  0.05074711  1
  In  In48  1  0.01252380  0.16993684  0.81739890  1
  In  In49  1  0.47092864  0.33042756  0.82369612  1
  In  In50  1  0.15561228  0.33117387  0.18383067  1
  In  In51  1  0.03376436  -0.00475194  0.66435414  1
  In  In52  1  0.48418126  0.31342569  0.48871198  1
  In  In53  1  0.84965047  0.36427437  0.19089512  1
  In  In54  1  0.67741756  -0.01204906  0.35089313  1
  In  In55  1  0.00085284  0.35438778  0.01814946  1
  In  In56  1  0.87916896  0.52253141  0.67293204  1
  In  In57  1  0.35271618  0.83024435  0.82797384  1
  In  In58  1  0.82312529  0.01103673  0.82722947  1
  In  In59  1  0.65944444  0.31527930  0.66976236  1
  In  In60  1  0.32859220  0.82083350  0.16486390  1
  In  In61  1  0.48433111  0.18046722  -0.01234043  1
  In  In62  1  0.31238667  0.02846656  0.64475493  1
  In  In63  1  0.19140089  0.83027658  0.66676509  1
  In  In64  1  0.16818998  0.15080482  0.34987063  1
  In  In65  1  0.30124801  0.31898155  0.65027372  1
  In  In66  1  0.84258452  0.54537948  0.00253605  1
  In  In67  1  0.00893072  0.01453652  0.28390699  1
  In  In68  1  0.65312842  0.32140257  0.02308166  1
  In  In69  1  0.16751107  0.67185164  0.82009547  1
  In  In70  1  0.67224467  0.14101388  0.18284664  1
  In  In71  1  0.44899317  0.50898164  0.00402093  1
  Te  Te72  1  0.03645420  0.05741670  0.13588366  1
  Te  Te73  1  0.05785074  0.07531233  0.42102563  1
  Te  Te74  1  0.11026902  0.07581849  0.75973244  1
  Te  Te75  1  0.11911546  0.42718190  0.07213333  1
  Te  Te76  1  0.07890112  0.33284245  0.40878244  1
  Te  Te77  1  0.06821220  0.43557863  0.75790899  1
  Te  Te78  1  0.07931972  0.73091614  0.07988524  1
  Te  Te79  1  0.11421402  0.75224679  0.39832920  1
  Te  Te80  1  0.07790990  0.74977588  0.72325363  1
  Te  Te81  1  0.40876118  0.08104617  0.08888665  1
  Te  Te82  1  0.43578214  0.09952816  0.36597255  1
  Te  Te83  1  0.39998504  0.07857018  0.75321675  1
  Te  Te84  1  0.38570662  0.39455732  0.06954558  1
  Te  Te85  1  0.42641243  0.42020828  0.39510267  1
  Te  Te86  1  0.39484049  0.41609230  0.72545098  1
  Te  Te87  1  0.37465240  0.71256121  0.05629312  1
  Te  Te88  1  0.42303232  0.74092469  0.41597670  1
  Te  Te89  1  0.42658415  0.74687116  0.72929525  1
  Te  Te90  1  0.75505400  0.09515324  0.06230311  1
  Te  Te91  1  0.75719812  0.10413540  0.40747227  1
  Te  Te92  1  0.71329263  0.08117020  0.74849515  1
  Te  Te93  1  0.76376658  0.41945038  0.06529477  1
  Te  Te94  1  0.78599519  0.42816788  0.40709843  1
  Te  Te95  1  0.72808924  0.42210548  0.75245008  1
  Te  Te96  1  0.75139188  0.75328422  0.09042165  1
  Te  Te97  1  0.75957939  0.76390520  0.42482777  1
  Te  Te98  1  0.72178081  0.77015138  0.75344441  1
  Te  Te99  1  0.07818405  0.23716113  0.26817836  1
  Te  Te100  1  0.10139633  0.22276102  0.60590668  1
  Te  Te101  1  0.07513265  0.25727398  0.92684250  1
  Te  Te102  1  0.05837980  0.56712099  0.23517436  1
  Te  Te103  1  0.07317951  0.57640016  0.58248645  1
  Te  Te104  1  0.09598547  0.58878361  0.91709035  1
  Te  Te105  1  0.08701761  0.89006968  0.27098125  1
  Te  Te106  1  0.12253520  0.92107429  0.56525148  1
  Te  Te107  1  0.08912515  0.92680910  0.90532614  1
  Te  Te108  1  0.41134810  0.25080690  0.26486046  1
  Te  Te109  1  0.39650509  0.23197888  0.57313861  1
  Te  Te110  1  0.38481492  0.24119065  0.90226584  1
  Te  Te111  1  0.41393224  0.56678051  0.23560098  1
  Te  Te112  1  0.43582513  0.57799356  0.56612761  1
  Te  Te113  1  0.40354066  0.57734986  0.88371492  1
  Te  Te114  1  0.39241506  0.91177847  0.27533334  1
  Te  Te115  1  0.38692271  0.92215266  0.56271748  1
  Te  Te116  1  0.44071887  0.93022736  0.90790786  1
  Te  Te117  1  0.74827733  0.26041056  0.24068650  1
  Te  Te118  1  0.74741083  0.25135316  0.56389038  1
  Te  Te119  1  0.74941973  0.25144654  0.91651707  1
  Te  Te120  1  0.78651440  0.56502575  0.26384966  1
  Te  Te121  1  0.76946927  0.59698407  0.58908094  1
  Te  Te122  1  0.77424964  0.61677552  0.87794058  1
  Te  Te123  1  0.75039957  0.93502422  0.22867790  1
  Te  Te124  1  0.74274013  0.93959879  0.58697977  1
  Te  Te125  1  0.76923313  0.90410126  0.92081623  1
  Te  Te126  1  0.23612528  0.23358555  0.09591930  1
  Te  Te127  1  0.27189768  0.21274047  0.44214245  1
  Te  Te128  1  0.22605183  0.24654670  0.75317759  1
  Te  Te129  1  0.26683355  0.61097648  0.10165696  1
  Te  Te130  1  0.25431822  0.57780453  0.41694597  1
  Te  Te131  1  0.26592478  0.59652818  0.73930642  1
  Te  Te132  1  0.24095603  0.92289762  0.09617263  1
  Te  Te133  1  0.27396550  0.95628398  0.38445452  1
  Te  Te134  1  0.26189970  0.92789031  0.75527855  1
  Te  Te135  1  0.56776583  0.23300841  0.11395644  1
  Te  Te136  1  0.58695002  0.24378891  0.40145181  1
  Te  Te137  1  0.54419340  0.23716434  0.72586767  1
  Te  Te138  1  0.56700555  0.57673704  0.07290229  1
  Te  Te139  1  0.59784928  0.60091355  0.44513507  1
  Te  Te140  1  0.60205199  0.58464393  0.74546051  1
  Te  Te141  1  0.57288534  0.89663134  0.09596836  1
  Te  Te142  1  0.58222052  0.90259140  0.43021905  1
  Te  Te143  1  0.60563056  0.87160643  0.74973514  1
  Te  Te144  1  0.92732222  0.25789848  0.11034675  1
  Te  Te145  1  0.93406935  0.29876508  0.40928865  1
  Te  Te146  1  0.89775870  0.25802567  0.76364475  1
  Te  Te147  1  0.94708811  0.57947686  0.10225264  1
  Te  Te148  1  0.98008817  0.55305814  0.44692130  1
  Te  Te149  1  0.89431298  0.62486632  0.77375806  1
  Te  Te150  1  0.94046737  0.91340338  0.07335125  1
  Te  Te151  1  0.91938661  0.91483140  0.42403127  1
  Te  Te152  1  0.91440758  0.92234688  0.74036134  1
  Te  Te153  1  0.23481170  0.04731905  0.26182569  1
  Te  Te154  1  0.23154866  0.11880756  0.55894551  1
  Te  Te155  1  0.21938972  0.08745132  0.94442394  1
  Te  Te156  1  0.22805961  0.43080891  0.26854269  1
  Te  Te157  1  0.21827392  0.40936712  0.56052898  1
  Te  Te158  1  0.27400053  0.42953208  0.90351420  1
  Te  Te159  1  0.23291202  0.73059235  0.23249031  1
  Te  Te160  1  0.27483561  0.74073558  0.57829404  1
  Te  Te161  1  0.24562732  0.76583287  0.91099276  1
  Te  Te162  1  0.56622520  0.07394367  0.27473981  1
  Te  Te163  1  0.56408325  0.06001733  0.59323282  1
  Te  Te164  1  0.58524440  0.08260157  0.93058122  1
  Te  Te165  1  0.59838918  0.43141942  0.23759019  1
  Te  Te166  1  0.58674008  0.40525443  0.56374210  1
  Te  Te167  1  0.57308494  0.39866478  0.91953345  1
  Te  Te168  1  0.60209282  0.73212817  0.24762480  1
  Te  Te169  1  0.55668391  0.78364013  0.62965222  1
  Te  Te170  1  0.58787890  0.75114354  0.93037938  1
  Te  Te171  1  0.88591249  0.09784654  0.27930078  1
  Te  Te172  1  0.91915995  0.08664948  0.60849133  1
  Te  Te173  1  0.93262966  0.07436129  0.91161183  1
  Te  Te174  1  0.96471921  0.44561558  0.24309655  1
  Te  Te175  1  0.90260927  0.40259224  0.59241429  1
  Te  Te176  1  0.93352413  0.45180291  0.92111564  1
  Te  Te177  1  0.92695836  0.73283827  0.28466727  1
  Te  Te178  1  0.92816368  0.75376868  0.57726254  1
  Te  Te179  1  0.94358304  0.72207763  0.91076081  1
