# generated using pymatgen
data_In2Te3
_symmetry_space_group_name_H-M   'P 1'
_cell_length_a   18.91387838
_cell_length_b   18.93326848
_cell_length_c   18.92225828
_cell_angle_alpha   89.88658341
_cell_angle_beta   89.88142855
_cell_angle_gamma   89.98322159
_symmetry_Int_Tables_number   1
_chemical_formula_structural   In2Te3
_chemical_formula_sum   'In72 Te108'
_cell_volume   6776.06171160
_cell_formula_units_Z   36
loop_
 _symmetry_equiv_pos_site_id
 _symmetry_equiv_pos_as_xyz
  1  'x, y, z'
loop_
 _atom_site_type_symbol
 _atom_site_label
 _atom_site_symmetry_multiplicity
 _atom_site_fract_x
 _atom_site_fract_y
 _atom_site_fract_z
 _atom_site_occupancy
  In  In0  1  0.17173759  -0.00672805  0.49824079  1
  In  In1  1  0.84372665  0.14749951  -0.01500308  1
  In  In2  1  0.00471408  0.67364157  0.67685236  1
  In  In3  1  0.52527110  0.65870716  0.13317843  1
  In  In4  1  0.66929091  0.68413229  0.66610901  1
  In  In5  1  0.03000220  0.30822750  0.00522985  1
  In  In6  1  0.83174138  0.82071807  0.33773180  1
  In  In7  1  0.82084120  0.65962000  0.17748089  1
  In  In8  1  0.10683803  0.32568285  0.51547552  1
  In  In9  1  -0.00619298  0.45919958  0.15777941  1
  In  In10  1  0.52955753  0.49539947  0.63550536  1
  In  In11  1  0.68413190  -0.02436792  0.65349491  1
  In  In12  1  -0.02324308  0.68559539  -0.02038113  1
  In  In13  1  0.86149240  0.68173336  0.51862722  1
  In  In14  1  0.49448116  -0.00517244  0.13700599  1
  In  In15  1  0.17856371  0.28355691  0.82952940  1
  In  In16  1  0.50984038  0.51980059  0.33088730  1
  In  In17  1  0.50816881  0.33066535  0.85166500  1
  In  In18  1  0.67180885  0.36581219  0.34610597  1
  In  In19  1  0.29435781  0.31466483  0.01349297  1
  In  In20  1  0.19452216  0.66730750  0.52688623  1
  In  In21  1  0.01175550  0.00970265  0.34151312  1
  In  In22  1  0.67544922  0.16822138  0.14912038  1
  In  In23  1  0.85367499  0.48980974  0.67758208  1
  In  In24  1  0.50171240  0.15689406  -0.02360701  1
  In  In25  1  0.48363463  0.32745101  0.19049786  1
  In  In26  1  0.49614082  0.65951680  0.84187595  1
  In  In27  1  -0.01562521  0.49482282  0.84826328  1
  In  In28  1  0.15809636  0.50741358  0.67914664  1
  In  In29  1  0.83936561  0.18004760  0.36162138  1
  In  In30  1  0.52390867  0.34459366  0.51416134  1
  In  In31  1  0.00148902  -0.01424010  -0.00069294  1
  In  In32  1  0.66620016  0.03828279  0.36465888  1
  In  In33  1  0.16089555  0.84763788  0.32468785  1
  In  In34  1  0.16677754  0.65599089  0.14814814  1
  In  In35  1  0.49247667  -0.02024709  0.53546371  1
  In  In36  1  -0.02434826  0.46849002  0.50387829  1
  In  In37  1  0.31326427  0.32749681  0.32713779  1
  In  In38  1  0.82560902  0.83535914  -0.02887895  1
  In  In39  1  0.69752001  0.19778222  0.53464916  1
  In  In40  1  0.34303965  0.51198233  0.15993455  1
  In  In41  1  0.48789403  0.17627512  0.33053807  1
  In  In42  1  0.65984523  0.85954072  0.83089225  1
  In  In43  1  0.32916429  0.00426405  -0.02622438  1
  In  In44  1  0.35441817  0.48318700  0.84133451  1
  In  In45  1  -0.00070075  0.66608915  0.33952018  1
  In  In46  1  0.48474747  0.13943002  0.68393392  1
  In  In47  1  0.67312485  0.14490049  0.81248089  1
  In  In48  1  0.82893449  0.32458978  0.14590379  1
  In  In49  1  -0.03338289  -0.00032801  0.65815403  1
  In  In50  1  0.84028171  0.01560157  0.16572795  1
  In  In51  1  0.49873586  0.83703452  0.34184177  1
  In  In52  1  0.83112821  0.32751668  0.81738670  1
  In  In53  1  0.15966304  0.49538924  0.36141233  1
  In  In54  1  0.15736809  0.02522566  0.82692207  1
  In  In55  1  0.34527364  0.84721749  0.83090305  1
  In  In56  1  0.17137627  0.02053913  0.17427158  1
  In  In57  1  0.35346621  0.81162895  0.17006940  1
  In  In58  1  0.17577661  0.84114908  -0.00247042  1
  In  In59  1  0.15229362  0.17759550  0.31641908  1
  In  In60  1  0.67184377  0.86513898  0.16123745  1
  In  In61  1  0.65763237  0.66361314  0.34527970  1
  In  In62  1  0.14676164  0.68825337  0.83883389  1
  In  In63  1  -0.01045600  0.81556048  0.52303687  1
  In  In64  1  0.81482885  0.52489794  -0.02129600  1
  In  In65  1  0.32630570  0.15590176  0.49010828  1
  In  In66  1  0.35731817  0.49989896  0.50343628  1
  In  In67  1  0.50776062  0.69438067  0.50563792  1
  In  In68  1  0.66804331  0.35620017  -0.00413648  1
  In  In69  1  0.31911649  0.32342555  0.67059309  1
  In  In70  1  0.32505403  0.70301544  0.68304985  1
  In  In71  1  -0.01307398  0.31557167  0.65438009  1
  Te  Te72  1  0.09096796  0.08556684  0.06616834  1
  Te  Te73  1  0.08632561  0.10270911  0.43344447  1
  Te  Te74  1  0.07376930  0.08635083  0.71943028  1
  Te  Te75  1  0.09850393  0.42392439  0.06213398  1
  Te  Te76  1  0.05090861  0.39340792  0.39143449  1
  Te  Te77  1  0.06574447  0.41156275  0.75083821  1
  Te  Te78  1  0.07663961  0.75363072  0.07370106  1
  Te  Te79  1  0.09558288  0.74368750  0.42797427  1
  Te  Te80  1  0.11088679  0.76516133  0.71977810  1
  Te  Te81  1  0.40265785  0.09735335  0.07577728  1
  Te  Te82  1  0.43219234  0.07086759  0.42205337  1
  Te  Te83  1  0.37603956  0.06607840  0.75267666  1
  Te  Te84  1  0.40450323  0.39745052  0.08069611  1
  Te  Te85  1  0.42684367  0.40374698  0.39976907  1
  Te  Te86  1  0.43017906  0.41248828  0.72821707  1
  Te  Te87  1  0.44154247  0.75897114  0.06536232  1
  Te  Te88  1  0.41041259  0.73971042  0.40631935  1
  Te  Te89  1  0.44502860  0.76823220  0.74555955  1
  Te  Te90  1  0.73684733  0.06307765  0.06325409  1
  Te  Te91  1  0.77418899  0.08035271  0.46268156  1
  Te  Te92  1  0.77135875  0.07838160  0.71977183  1
  Te  Te93  1  0.74962278  0.44161540  0.08999747  1
  Te  Te94  1  0.76768279  0.41348889  0.44342096  1
  Te  Te95  1  0.75128702  0.44054391  0.77134141  1
  Te  Te96  1  0.75256770  0.75986550  0.08638236  1
  Te  Te97  1  0.74458509  0.74752425  0.43689533  1
  Te  Te98  1  0.74922841  0.76209164  0.76243090  1
  Te  Te99  1  0.11253949  0.27181442  0.21284811  1
  Te  Te100  1  0.10424458  0.22717970  0.62559419  1
  Te  Te101  1  0.05453534  0.22993120  0.88434779  1
  Te  Te102  1  0.07781898  0.57149831  0.25040149  1
  Te  Te103  1  0.06557795  0.57733116  0.57389631  1
  Te  Te104  1  0.08185163  0.58311966  0.92447818  1
  Te  Te105  1  0.06838117  0.92221182  0.23060577  1
  Te  Te106  1  0.08164282  0.91384193  0.59187188  1
  Te  Te107  1  0.08609719  0.90837284  0.89737990  1
  Te  Te108  1  0.37921035  0.22542747  0.23593635  1
  Te  Te109  1  0.42220466  0.24995319  0.57671801  1
  Te  Te110  1  0.39857198  0.24981387  0.91509968  1
  Te  Te111  1  0.42601685  0.60788518  0.24292355  1
  Te  Te112  1  0.41384515  0.59946740  0.60159083  1
  Te  Te113  1  0.41031803  0.58087796  0.93427656  1
  Te  Te114  1  0.41816439  0.92588372  0.24836601  1
  Te  Te115  1  0.39348169  0.88893497  0.58877547  1
  Te  Te116  1  0.43088231  0.90578352  0.93640004  1
  Te  Te117  1  0.74204830  0.24802286  0.25866609  1
  Te  Te118  1  0.77331878  0.22583293  0.65906163  1
  Te  Te119  1  0.73514415  0.24207917  0.92105509  1
  Te  Te120  1  0.74065721  0.57385007  0.26452240  1
  Te  Te121  1  0.77116127  0.58623741  0.59528672  1
  Te  Te122  1  0.71236157  0.62610307  0.94321573  1
  Te  Te123  1  0.75382384  0.94065850  0.27548573  1
  Te  Te124  1  0.75037276  0.88678265  0.55766746  1
  Te  Te125  1  0.76237418  0.94735856  0.89755298  1
  Te  Te126  1  0.19811492  0.23142663  0.09611710  1
  Te  Te127  1  0.23252758  0.26707539  0.43961454  1
  Te  Te128  1  0.28139003  0.20555901  0.75462053  1
  Te  Te129  1  0.26599608  0.59094719  0.06209472  1
  Te  Te130  1  0.26714981  0.58799852  0.41728691  1
  Te  Te131  1  0.25881412  0.58379421  0.76007483  1
  Te  Te132  1  0.26061826  0.91728932  0.09719108  1
  Te  Te133  1  0.25906141  0.93242791  0.39294370  1
  Te  Te134  1  0.26866257  0.95083946  0.75261863  1
  Te  Te135  1  0.57287014  0.25697867  0.08055849  1
  Te  Te136  1  0.59511581  0.24484135  0.41447311  1
  Te  Te137  1  0.57603964  0.24486120  0.74780999  1
  Te  Te138  1  0.60276494  0.57357496  0.04060587  1
  Te  Te139  1  0.58778485  0.57433756  0.44785017  1
  Te  Te140  1  0.58779455  0.58059435  0.74443412  1
  Te  Te141  1  0.58393196  0.91361320  0.05442918  1
  Te  Te142  1  0.59073632  0.92336162  0.42636378  1
  Te  Te143  1  0.57303668  0.95119042  0.74976158  1
  Te  Te144  1  0.92597760  0.22634175  0.08434420  1
  Te  Te145  1  0.93408878  0.22509294  0.46842280  1
  Te  Te146  1  0.91359404  0.22464346  0.75018675  1
  Te  Te147  1  0.92058450  0.58289339  0.08147885  1
  Te  Te148  1  0.90631503  0.57619996  0.41604411  1
  Te  Te149  1  0.90894852  0.60049114  0.76770879  1
  Te  Te150  1  0.90516054  0.90614411  0.08630677  1
  Te  Te151  1  0.92720928  0.90722812  0.41832999  1
  Te  Te152  1  0.91260891  0.88912110  0.74189544  1
  Te  Te153  1  0.25130005  0.07085978  0.28905340  1
  Te  Te154  1  0.27056318  0.06092054  0.58645826  1
  Te  Te155  1  0.21784836  0.09572116  0.94363243  1
  Te  Te156  1  0.24274685  0.43385024  0.24749609  1
  Te  Te157  1  0.24551695  0.42800425  0.58092842  1
  Te  Te158  1  0.23813876  0.40277169  0.90134336  1
  Te  Te159  1  0.24146923  0.74283943  0.24853561  1
  Te  Te160  1  0.27585406  0.78699481  0.56718062  1
  Te  Te161  1  0.26269628  0.74834535  0.91489559  1
  Te  Te162  1  0.58253436  0.08426517  0.24073351  1
  Te  Te163  1  0.59048668  0.09535201  0.58165414  1
  Te  Te164  1  0.56753557  0.06503556  0.88095265  1
  Te  Te165  1  0.58639847  0.42900934  0.23556294  1
  Te  Te166  1  0.63584174  0.40490012  0.58678656  1
  Te  Te167  1  0.57242450  0.44307585  0.92316231  1
  Te  Te168  1  0.59343690  0.76172053  0.24506886  1
  Te  Te169  1  0.59434334  0.78277706  0.58422296  1
  Te  Te170  1  0.60292569  0.74064871  0.90970140  1
  Te  Te171  1  0.92374516  0.10304604  0.25857042  1
  Te  Te172  1  0.92219558  0.09456050  0.54950363  1
  Te  Te173  1  0.90444770  0.04267195  0.90030060  1
  Te  Te174  1  0.90109334  0.39662611  0.25160121  1
  Te  Te175  1  0.87534017  0.35734501  0.54211648  1
  Te  Te176  1  0.90242202  0.40103928  0.93548815  1
  Te  Te177  1  0.92564673  0.75293319  0.23997257  1
  Te  Te178  1  0.86450385  0.80428380  0.62294654  1
  Te  Te179  1  0.92900540  0.78203210  0.87613134  1
