# generated using pymatgen
data_In2Te3
_symmetry_space_group_name_H-M   'P 1'
_cell_length_a   18.80707489
_cell_length_b   18.82848309
_cell_length_c   18.80932722
_cell_angle_alpha   89.99938088
_cell_angle_beta   90.09843630
_cell_angle_gamma   89.91239394
_symmetry_Int_Tables_number   1
_chemical_formula_structural   In2Te3
_chemical_formula_sum   'In72 Te108'
_cell_volume   6660.52863167
_cell_formula_units_Z   36
loop_
 _symmetry_equiv_pos_site_id
 _symmetry_equiv_pos_as_xyz
  1  'x, y, z'
loop_
 _atom_site_type_symbol
 _atom_site_label
 _atom_site_symmetry_multiplicity
 _atom_site_fract_x
 _atom_site_fract_y
 _atom_site_fract_z
 _atom_site_occupancy
  In  In0  1  0.82062112  0.83013828  0.67056697  1
  In  In1  1  0.51836383  0.51653359  0.69045329  1
  In  In2  1  0.52533826  -0.02023554  0.81896949  1
  In  In3  1  0.51310860  0.68182485  0.53976217  1
  In  In4  1  0.01600854  0.46374772  0.17017084  1
  In  In5  1  0.83541014  0.31776592  0.50824711  1
  In  In6  1  0.67065646  0.66480625  0.31635720  1
  In  In7  1  0.04109925  0.67779243  0.68732476  1
  In  In8  1  0.31792221  0.32385382  0.01658399  1
  In  In9  1  0.65589799  0.49069953  0.49506002  1
  In  In10  1  0.02261746  -0.01009309  -0.02227031  1
  In  In11  1  0.31978156  0.46224303  0.49120629  1
  In  In12  1  0.47794217  0.16646738  0.65017540  1
  In  In13  1  0.50339422  0.81836359  -0.01598931  1
  In  In14  1  0.31524945  0.02563872  0.30665823  1
  In  In15  1  -0.00870060  0.18604725  0.17525007  1
  In  In16  1  0.81773147  0.66055451  0.84315720  1
  In  In17  1  0.33829774  0.18398245  0.86482983  1
  In  In18  1  0.50981284  0.01940360  0.17377622  1
  In  In19  1  0.82141830  0.34077087  0.82761994  1
  In  In20  1  0.33589590  0.02956381  -0.00843629  1
  In  In21  1  0.31958322  0.46747069  0.18044355  1
  In  In22  1  0.49373357  0.34583400  0.18407483  1
  In  In23  1  0.82495097  -0.00016731  0.15212954  1
  In  In24  1  0.33676993  0.66620779  0.66210515  1
  In  In25  1  0.50285301  0.18631340  0.32666305  1
  In  In26  1  0.32820869  0.79031673  0.84452601  1
  In  In27  1  0.30961829  0.19741729  0.47308761  1
  In  In28  1  0.66300578  0.16835285  0.81927995  1
  In  In29  1  0.46583880  0.49974550  0.34232888  1
  In  In30  1  0.00767088  0.32383275  0.65506950  1
  In  In31  1  0.13082367  0.01010473  0.51020441  1
  In  In32  1  0.00120448  0.65508841  0.34026696  1
  In  In33  1  0.66034935  0.32972223  0.33008601  1
  In  In34  1  0.82376039  0.18655992  0.33983531  1
  In  In35  1  0.00255185  0.83497795  0.50873616  1
  In  In36  1  0.63780447  0.65539210  0.00763422  1
  In  In37  1  0.81014692  0.45880246  0.03124627  1
  In  In38  1  0.86279027  0.05054071  0.52514960  1
  In  In39  1  -0.02273112  0.50524265  0.84818728  1
  In  In40  1  0.14777274  0.49508301  0.00692197  1
  In  In41  1  0.00233857  0.18874747  0.83036431  1
  In  In42  1  0.16436636  0.17281067  0.67608461  1
  In  In43  1  0.18726932  0.00375442  0.81202400  1
  In  In44  1  0.50545746  0.19053345  0.01105058  1
  In  In45  1  0.02461012  0.80033035  0.14902873  1
  In  In46  1  0.51318960  0.81758400  0.33644015  1
  In  In47  1  0.01766824  0.02692606  0.36112298  1
  In  In48  1  0.31571574  0.81910745  0.50479217  1
  In  In49  1  0.83949473  0.84489056  -0.03672399  1
  In  In50  1  0.49466546  -0.01381361  0.49950445  1
  In  In51  1  0.30984918  0.63734997  0.33570021  1
  In  In52  1  0.81356388  0.82719584  0.33829489  1
  In  In53  1  0.82624821  0.64870724  0.15672205  1
  In  In54  1  -0.00188581  0.67628049  -0.01134881  1
  In  In55  1  0.34773451  0.83733007  0.13522579  1
  In  In56  1  0.66927104  0.82994605  0.17022792  1
  In  In57  1  0.16836766  0.32718420  0.83769762  1
  In  In58  1  0.00759228  0.35221650  0.34422757  1
  In  In59  1  0.83822038  -0.01979646  0.82780641  1
  In  In60  1  0.82935913  0.18427876  0.00740824  1
  In  In61  1  0.83101723  0.47577314  0.65154464  1
  In  In62  1  0.66624796  0.32685925  0.66911436  1
  In  In63  1  0.36856536  0.53076335  0.85026172  1
  In  In64  1  0.16293865  0.66548025  0.14742472  1
  In  In65  1  0.66823863  -0.01357365  0.65426727  1
  In  In66  1  0.16192730  0.83757881  0.33401800  1
  In  In67  1  0.34183971  -0.00693358  0.66299792  1
  In  In68  1  0.82942156  0.64800085  0.49252016  1
  In  In69  1  0.17542219  0.50907510  0.65339307  1
  In  In70  1  0.70121295  0.00068687  -0.00388954  1
  In  In71  1  0.17616542  0.01915285  0.17397214  1
  Te  Te72  1  0.07182769  0.08720275  0.08324272  1
  Te  Te73  1  0.11678990  0.12146715  0.41390754  1
  Te  Te74  1  0.06299380  0.07810684  0.74246531  1
  Te  Te75  1  0.10947630  0.37999103  0.09123432  1
  Te  Te76  1  0.12219931  0.43078903  0.40621029  1
  Te  Te77  1  0.07119644  0.41765314  0.75835502  1
  Te  Te78  1  0.12514537  0.76489318  0.03402245  1
  Te  Te79  1  0.09331287  0.74009712  0.42681881  1
  Te  Te80  1  0.09097033  0.76075146  0.79536563  1
  Te  Te81  1  0.40960433  0.10941793  0.09983720  1
  Te  Te82  1  0.40736981  0.08356850  0.41808943  1
  Te  Te83  1  0.41284779  0.08052865  0.76879860  1
  Te  Te84  1  0.42154717  0.42394341  0.07306105  1
  Te  Te85  1  0.41985444  0.38051255  0.41557006  1
  Te  Te86  1  0.42512489  0.42836376  0.76129712  1
  Te  Te87  1  0.40445055  0.72717773  0.05130855  1
  Te  Te88  1  0.40836958  0.73590230  0.41429606  1
  Te  Te89  1  0.43576918  0.72308685  0.76310311  1
  Te  Te90  1  0.73162896  0.10855822  0.09925798  1
  Te  Te91  1  0.75905424  0.08739206  0.42744622  1
  Te  Te92  1  0.75481504  0.07772958  0.74136645  1
  Te  Te93  1  0.70590743  0.37977503  0.09773386  1
  Te  Te94  1  0.75871538  0.41411627  0.41642191  1
  Te  Te95  1  0.72177099  0.44504018  0.76561574  1
  Te  Te96  1  0.76191980  0.75974139  0.07098523  1
  Te  Te97  1  0.72722343  0.74666635  0.43270703  1
  Te  Te98  1  0.73601675  0.72762644  0.73725982  1
  Te  Te99  1  0.08870567  0.26709506  0.25080470  1
  Te  Te100  1  0.09255805  0.24140768  0.56513108  1
  Te  Te101  1  0.08309969  0.25462219  0.93416346  1
  Te  Te102  1  0.09144156  0.57590097  0.24593580  1
  Te  Te103  1  0.06412019  0.57697070  0.58372221  1
  Te  Te104  1  0.09085442  0.59040683  0.90155897  1
  Te  Te105  1  0.07405586  0.92254597  0.24350141  1
  Te  Te106  1  0.09157785  0.90533219  0.60362608  1
  Te  Te107  1  0.09513550  0.90339840  0.88035199  1
  Te  Te108  1  0.39560882  0.26056719  0.25484318  1
  Te  Te109  1  0.39863016  0.26426838  0.57221132  1
  Te  Te110  1  0.43616116  0.28763354  0.91787863  1
  Te  Te111  1  0.40749844  0.58712604  0.23186717  1
  Te  Te112  1  0.41517207  0.56773274  0.57460131  1
  Te  Te113  1  0.47313216  0.58759706  0.94405792  1
  Te  Te114  1  0.41593609  0.91570070  0.25010200  1
  Te  Te115  1  0.42304988  0.88684758  0.59036768  1
  Te  Te116  1  0.40937498  0.92021419  0.91055098  1
  Te  Te117  1  0.76487002  0.27627696  0.23634919  1
  Te  Te118  1  0.74200024  0.23300490  0.58437236  1
  Te  Te119  1  0.71972819  0.26593805  0.92518251  1
  Te  Te120  1  0.73866948  0.56200079  0.23560074  1
  Te  Te121  1  0.73391836  0.57879493  0.59150133  1
  Te  Te122  1  0.74749852  0.56700250  0.94125432  1
  Te  Te123  1  0.73577941  0.93271693  0.25933118  1
  Te  Te124  1  0.77366201  0.92721789  0.56235638  1
  Te  Te125  1  0.72036731  0.89871929  0.88480507  1
  Te  Te126  1  0.27131063  0.22397628  0.11341718  1
  Te  Te127  1  0.23513020  0.31147783  0.40227694  1
  Te  Te128  1  0.26994192  0.25686729  0.74822919  1
  Te  Te129  1  0.25947309  0.56859804  0.08013744  1
  Te  Te130  1  0.22920390  0.57113421  0.43892278  1
  Te  Te131  1  0.25233063  0.58475021  0.75993861  1
  Te  Te132  1  0.24709085  0.93140956  0.06978172  1
  Te  Te133  1  0.24995606  0.93027889  0.41692460  1
  Te  Te134  1  0.26391020  0.89036851  0.74319157  1
  Te  Te135  1  0.59642235  0.26660406  0.10356699  1
  Te  Te136  1  0.57912171  0.25911276  0.43043370  1
  Te  Te137  1  0.55813066  0.25302133  0.75025652  1
  Te  Te138  1  0.56189710  0.54171423  0.05977699  1
  Te  Te139  1  0.57015518  0.59436019  0.41769734  1
  Te  Te140  1  0.56476028  0.63288825  0.77070597  1
  Te  Te141  1  0.58261452  0.92150780  0.07594460  1
  Te  Te142  1  0.59161524  0.91249945  0.41528525  1
  Te  Te143  1  0.57792230  0.88233507  0.71827676  1
  Te  Te144  1  0.90818831  0.27621151  0.09052837  1
  Te  Te145  1  0.93666851  0.24020886  0.42514582  1
  Te  Te146  1  0.89853360  0.24736073  0.73352703  1
  Te  Te147  1  0.93356782  0.57231228  0.07954270  1
  Te  Te148  1  0.90217052  0.56277057  0.39688249  1
  Te  Te149  1  0.90625519  0.58039686  0.73747219  1
  Te  Te150  1  0.92391797  0.90938304  0.07607510  1
  Te  Te151  1  0.92263038  0.91348925  0.40564545  1
  Te  Te152  1  0.92637406  0.91188042  0.73299169  1
  Te  Te153  1  0.23766790  0.13920089  0.24331878  1
  Te  Te154  1  0.25890090  0.08825646  0.57957602  1
  Te  Te155  1  0.22136085  0.10467420  0.92207242  1
  Te  Te156  1  0.22984069  0.42154165  0.29013910  1
  Te  Te157  1  0.24703501  0.39251978  0.60031683  1
  Te  Te158  1  0.25678195  0.42703718  0.91358212  1
  Te  Te159  1  0.25333227  0.75854023  0.24025326  1
  Te  Te160  1  0.22844083  0.74069078  0.59294426  1
  Te  Te161  1  0.25847283  0.72276219  0.95357863  1
  Te  Te162  1  0.59948180  0.09535548  0.26054759  1
  Te  Te163  1  0.58280703  0.08636481  0.57513717  1
  Te  Te164  1  0.57824427  0.08295311  0.92538091  1
  Te  Te165  1  0.58186254  0.44375918  0.26036580  1
  Te  Te166  1  0.56712971  0.41020213  0.58683361  1
  Te  Te167  1  0.65400067  0.40253350  0.89545179  1
  Te  Te168  1  0.56721716  0.73059294  0.22152040  1
  Te  Te169  1  0.60489946  0.77153568  0.60823930  1
  Te  Te170  1  0.59389463  0.74071451  0.89185995  1
  Te  Te171  1  0.91253466  0.07666037  0.25230421  1
  Te  Te172  1  0.96406708  0.11059096  0.60969795  1
  Te  Te173  1  0.90837151  0.08516389  0.92029842  1
  Te  Te174  1  0.90581528  0.41398540  0.25393410  1
  Te  Te175  1  0.93831354  0.42217115  0.55901827  1
  Te  Te176  1  0.91602156  0.39828982  0.93494395  1
  Te  Te177  1  0.91035175  0.74998396  0.24723333  1
  Te  Te178  1  0.91923132  0.73199410  0.58532948  1
  Te  Te179  1  0.93212231  0.76006938  0.87635051  1
