# generated using pymatgen
data_In2Te3
_symmetry_space_group_name_H-M   'P 1'
_cell_length_a   19.02018537
_cell_length_b   19.01428297
_cell_length_c   19.01199154
_cell_angle_alpha   89.97745691
_cell_angle_beta   90.02012629
_cell_angle_gamma   90.03129604
_symmetry_Int_Tables_number   1
_chemical_formula_structural   In2Te3
_chemical_formula_sum   'In72 Te108'
_cell_volume   6875.78337128
_cell_formula_units_Z   36
loop_
 _symmetry_equiv_pos_site_id
 _symmetry_equiv_pos_as_xyz
  1  'x, y, z'
loop_
 _atom_site_type_symbol
 _atom_site_label
 _atom_site_symmetry_multiplicity
 _atom_site_fract_x
 _atom_site_fract_y
 _atom_site_fract_z
 _atom_site_occupancy
  In  In0  1  0.01590482  -0.00863233  0.33585749  1
  In  In1  1  0.68039021  0.51003761  0.46997183  1
  In  In2  1  0.16143565  0.01190723  0.18094713  1
  In  In3  1  0.50776185  0.31988999  0.51564440  1
  In  In4  1  0.51167282  0.81610304  -0.00936188  1
  In  In5  1  0.82677998  0.67392675  0.50139787  1
  In  In6  1  0.67446291  0.66729580  0.32930640  1
  In  In7  1  0.17866224  0.49918664  0.30626499  1
  In  In8  1  0.64362828  0.46660248  0.86150248  1
  In  In9  1  0.00235838  0.16720418  0.16652940  1
  In  In10  1  0.83012800  0.69703417  0.83754963  1
  In  In11  1  0.64874473  0.63016776  -0.00633940  1
  In  In12  1  0.33702546  0.31528466  0.01745591  1
  In  In13  1  0.84310656  0.17273091  0.33777422  1
  In  In14  1  0.19268200  0.35559143  0.49506387  1
  In  In15  1  0.67023451  0.15959860  0.52961814  1
  In  In16  1  0.68659383  0.81579674  0.17001892  1
  In  In17  1  0.86167645  0.65641728  0.17371037  1
  In  In18  1  0.46606280  0.17129932  0.31059591  1
  In  In19  1  0.14786522  0.16389876  0.66693796  1
  In  In20  1  0.81418277  0.48616806  0.02543656  1
  In  In21  1  0.49239350  0.00731349  0.84562487  1
  In  In22  1  0.83161921  0.86057917  0.66625709  1
  In  In23  1  0.83425726  -0.00628721  0.48672756  1
  In  In24  1  0.33296337  0.66822000  0.33825134  1
  In  In25  1  0.49859523  0.17993691  0.68169287  1
  In  In26  1  0.37070994  0.49260007  0.81837714  1
  In  In27  1  0.66448080  0.34666899  0.65768470  1
  In  In28  1  0.65485784  -0.03595110  0.33629046  1
  In  In29  1  0.31511481  0.86212929  0.83658173  1
  In  In30  1  0.64736981  0.01716701  0.00978741  1
  In  In31  1  0.46579950  -0.00156132  0.16778644  1
  In  In32  1  -0.00775905  0.33307807  0.30853166  1
  In  In33  1  0.02329541  0.68919605  0.33945440  1
  In  In34  1  0.32391488  0.65869152  -0.02407798  1
  In  In35  1  0.32972443  0.83744826  0.48803393  1
  In  In36  1  0.83606399  0.33467503  0.83491786  1
  In  In37  1  0.32083646  0.69505247  0.66189271  1
  In  In38  1  0.83749171  0.48564748  0.32429297  1
  In  In39  1  0.31482766  0.00839351  0.32317639  1
  In  In40  1  0.17220772  0.00111463  0.49802571  1
  In  In41  1  0.50681415  0.65065731  0.81761333  1
  In  In42  1  0.30157171  0.15688311  0.84082432  1
  In  In43  1  0.49834953  0.49400094  0.34613433  1
  In  In44  1  0.33129317  0.82009581  0.16929896  1
  In  In45  1  0.01737187  0.33942541  0.01020684  1
  In  In46  1  0.16996362  0.84829533  0.65308533  1
  In  In47  1  0.52971593  0.19182118  -0.04125138  1
  In  In48  1  0.85512890  0.82321596  0.01126767  1
  In  In49  1  0.66209802  0.81339040  0.49492269  1
  In  In50  1  0.17492694  0.48968427  0.00793026  1
  In  In51  1  0.49466569  0.83509348  0.63511616  1
  In  In52  1  0.34427323  0.17811584  0.49937678  1
  In  In53  1  0.65812861  0.32381238  0.32884984  1
  In  In54  1  -0.00312617  0.53219076  0.82445651  1
  In  In55  1  0.51225337  0.64183484  0.18038475  1
  In  In56  1  -0.00439609  0.18124253  0.86679645  1
  In  In57  1  0.00256752  0.14936634  0.49945960  1
  In  In58  1  0.34380576  0.51427314  0.52191950  1
  In  In59  1  0.17201388  0.68261129  0.83307419  1
  In  In60  1  -0.00670611  0.35248116  0.66965980  1
  In  In61  1  0.33594901  0.32663004  0.30637859  1
  In  In62  1  0.65057643  0.18568850  0.17089433  1
  In  In63  1  0.00639884  0.67723818  0.64375249  1
  In  In64  1  0.00291889  0.50710653  0.50803480  1
  In  In65  1  0.31466144  0.05281986  0.02326285  1
  In  In66  1  -0.00430186  -0.01926884  0.00250758  1
  In  In67  1  0.69813666  0.88644855  0.81294625  1
  In  In68  1  -0.02238586  0.00059216  0.68844430  1
  In  In69  1  0.14753175  0.34140545  0.83745396  1
  In  In70  1  0.14254192  0.68279973  0.14181426  1
  In  In71  1  0.82005504  0.17354064  0.00009624  1
  Te  Te72  1  0.08426904  0.08356516  0.07191184  1
  Te  Te73  1  0.10364702  0.09669365  0.40226750  1
  Te  Te74  1  0.07007562  0.08748391  0.77073027  1
  Te  Te75  1  0.11509677  0.39604646  0.10553072  1
  Te  Te76  1  0.08551575  0.41913182  0.40516615  1
  Te  Te77  1  0.08934867  0.44400358  0.74289789  1
  Te  Te78  1  0.04832006  0.76484711  0.05691638  1
  Te  Te79  1  0.09289052  0.73089945  0.45897913  1
  Te  Te80  1  0.08197590  0.76398622  0.74480181  1
  Te  Te81  1  0.45497436  0.10593140  0.06249474  1
  Te  Te82  1  0.41506689  0.07396543  0.41614106  1
  Te  Te83  1  0.40296501  0.08454025  0.75310065  1
  Te  Te84  1  0.42052024  0.43074066  0.05083559  1
  Te  Te85  1  0.40787292  0.39962988  0.42409326  1
  Te  Te86  1  0.46500808  0.40286838  0.75368816  1
  Te  Te87  1  0.42273952  0.73165118  0.08111246  1
  Te  Te88  1  0.41986057  0.73702081  0.43279824  1
  Te  Te89  1  0.40329631  0.75749094  0.77448918  1
  Te  Te90  1  0.74375121  0.08826847  0.10116200  1
  Te  Te91  1  0.73749737  0.08704304  0.40364964  1
  Te  Te92  1  0.79318522  -0.01656398  0.75027237  1
  Te  Te93  1  0.72859239  0.37598530  0.06237982  1
  Te  Te94  1  0.75983994  0.39362844  0.41598814  1
  Te  Te95  1  0.75059894  0.42742180  0.75421951  1
  Te  Te96  1  0.74987102  0.71822550  0.07469246  1
  Te  Te97  1  0.76808808  0.76335527  0.39477342  1
  Te  Te98  1  0.73715996  0.75943746  0.73880078  1
  Te  Te99  1  0.09241419  0.24559880  0.25043258  1
  Te  Te100  1  0.08413636  0.26477614  0.57276044  1
  Te  Te101  1  0.11217712  0.24061468  0.94366506  1
  Te  Te102  1  0.07600409  0.58564362  0.23842411  1
  Te  Te103  1  0.10044067  0.57902932  0.58975439  1
  Te  Te104  1  0.09457094  0.58922096  0.92511747  1
  Te  Te105  1  0.08644079  0.90261466  0.24253201  1
  Te  Te106  1  0.06717381  0.93508919  0.58288704  1
  Te  Te107  1  0.08481114  0.87190418  0.95814436  1
  Te  Te108  1  0.44956841  0.28558049  0.21980989  1
  Te  Te109  1  0.39899000  0.26885008  0.60652505  1
  Te  Te110  1  0.40506266  0.25200766  0.89827440  1
  Te  Te111  1  0.40317521  0.56492026  0.25129636  1
  Te  Te112  1  0.42152724  0.60723606  0.60286878  1
  Te  Te113  1  0.44098307  0.57427877  0.93281752  1
  Te  Te114  1  0.41004935  0.90181631  0.26902122  1
  Te  Te115  1  0.38397414  0.91977163  0.59567404  1
  Te  Te116  1  0.41420531  0.92029293  0.94175774  1
  Te  Te117  1  0.76389935  0.25915478  0.24179296  1
  Te  Te118  1  0.75731005  0.25935770  0.58523463  1
  Te  Te119  1  0.73749568  0.25655213  0.91067608  1
  Te  Te120  1  0.74701354  0.57228582  0.23950603  1
  Te  Te121  1  0.75687128  0.57177493  0.57786756  1
  Te  Te122  1  0.76405792  0.57221418  0.91050236  1
  Te  Te123  1  0.75933878  0.91431208  0.24833104  1
  Te  Te124  1  0.72836932  0.92734721  0.56991240  1
  Te  Te125  1  0.73655858  0.90815025  0.95692257  1
  Te  Te126  1  0.28883233  0.19066329  0.08297049  1
  Te  Te127  1  0.24995412  0.24800825  0.40491543  1
  Te  Te128  1  0.23517105  0.25801092  0.74705108  1
  Te  Te129  1  0.25332824  0.59081431  0.08991103  1
  Te  Te130  1  0.24717298  0.57261748  0.41809964  1
  Te  Te131  1  0.26626150  0.59062703  0.76012769  1
  Te  Te132  1  0.25773057  0.92664790  0.09613467  1
  Te  Te133  1  0.23032500  0.90700207  0.39614826  1
  Te  Te134  1  0.22425923  0.94174384  0.75427488  1
  Te  Te135  1  0.60867844  0.27671708  0.05819392  1
  Te  Te136  1  0.57148781  0.23028313  0.41207969  1
  Te  Te137  1  0.56946011  0.28754357  0.75842103  1
  Te  Te138  1  0.59442801  0.54991426  0.10273740  1
  Te  Te139  1  0.57174667  0.60333523  0.41993692  1
  Te  Te140  1  0.59395349  0.55301293  0.75349181  1
  Te  Te141  1  0.57113543  0.90884612  0.09699776  1
  Te  Te142  1  0.56339162  0.89911260  0.42700531  1
  Te  Te143  1  0.56272350  0.91263769  0.75191416  1
  Te  Te144  1  0.91399473  0.25818338  0.08373403  1
  Te  Te145  1  0.92601209  0.25850194  0.42851777  1
  Te  Te146  1  0.92217521  0.24436829  0.74922946  1
  Te  Te147  1  0.92661920  0.55253614  0.09078372  1
  Te  Te148  1  0.91422557  0.58691677  0.40522579  1
  Te  Te149  1  0.90427489  0.60957719  0.73611767  1
  Te  Te150  1  0.91216364  0.91785623  0.10580506  1
  Te  Te151  1  0.93261435  0.90808053  0.42333035  1
  Te  Te152  1  0.92444592  0.89673051  0.78096405  1
  Te  Te153  1  0.26841062  0.10932427  0.22559615  1
  Te  Te154  1  0.25390083  0.09138053  0.58666482  1
  Te  Te155  1  0.22879509  0.04499347  0.90356663  1
  Te  Te156  1  0.24663235  0.40308524  0.21697524  1
  Te  Te157  1  0.25913029  0.42618541  0.60308522  1
  Te  Te158  1  0.26197215  0.41894007  0.90601204  1
  Te  Te159  1  0.23268565  0.74248027  0.25239064  1
  Te  Te160  1  0.21682579  0.74268277  0.55218926  1
  Te  Te161  1  0.23682197  0.77581640  0.93723309  1
  Te  Te162  1  0.57322895  0.07421194  0.24878874  1
  Te  Te163  1  0.56339022  0.08513130  0.59116458  1
  Te  Te164  1  0.61423065  0.09056786  0.88116279  1
  Te  Te165  1  0.56863403  0.40838809  0.24764325  1
  Te  Te166  1  0.58324311  0.43761126  0.56640801  1
  Te  Te167  1  0.53304579  0.41889455  0.94829622  1
  Te  Te168  1  0.57608547  0.75628593  0.25500947  1
  Te  Te169  1  0.59194683  0.73480016  0.59822464  1
  Te  Te170  1  0.60165518  0.74036670  0.89883918  1
  Te  Te171  1  0.91897218  0.07538813  0.25272423  1
  Te  Te172  1  0.90032180  0.08655401  0.58886987  1
  Te  Te173  1  0.90213667  0.07631566  0.91993365  1
  Te  Te174  1  0.91957589  0.42449436  0.21874503  1
  Te  Te175  1  0.90472468  0.43668110  0.59071048  1
  Te  Te176  1  0.93709059  0.41970847  0.90998297  1
  Te  Te177  1  0.94041918  0.75964611  0.24036972  1
  Te  Te178  1  0.91570703  0.77288262  0.57123238  1
  Te  Te179  1  0.93895182  0.72742187  0.93442495  1
