# generated using pymatgen
data_In2Te3
_symmetry_space_group_name_H-M   'P 1'
_cell_length_a   18.96823581
_cell_length_b   18.97310436
_cell_length_c   18.98157010
_cell_angle_alpha   90.02764288
_cell_angle_beta   89.94840620
_cell_angle_gamma   90.00127034
_symmetry_Int_Tables_number   1
_chemical_formula_structural   In2Te3
_chemical_formula_sum   'In72 Te108'
_cell_volume   6831.20379756
_cell_formula_units_Z   36
loop_
 _symmetry_equiv_pos_site_id
 _symmetry_equiv_pos_as_xyz
  1  'x, y, z'
loop_
 _atom_site_type_symbol
 _atom_site_label
 _atom_site_symmetry_multiplicity
 _atom_site_fract_x
 _atom_site_fract_y
 _atom_site_fract_z
 _atom_site_occupancy
  In  In0  1  0.32840568  0.82640046  0.51610865  1
  In  In1  1  0.49883391  0.66554949  0.84446269  1
  In  In2  1  0.00047484  0.15597828  0.54388624  1
  In  In3  1  0.66438894  0.17184238  0.81953407  1
  In  In4  1  0.89332520  0.47217815  0.03760263  1
  In  In5  1  0.16111061  0.32100903  0.52171936  1
  In  In6  1  0.67862182  0.63891803  0.34254180  1
  In  In7  1  0.33620814  0.83796142  0.15221423  1
  In  In8  1  0.32152974  -0.00532105  -0.02016705  1
  In  In9  1  0.81833315  0.84209994  -0.02941043  1
  In  In10  1  0.49167046  0.65389911  0.16663967  1
  In  In11  1  0.02052949  0.52121033  0.51231167  1
  In  In12  1  0.01301200  0.17145515  0.15227006  1
  In  In13  1  0.59217639  0.41597631  0.34262703  1
  In  In14  1  0.14908197  0.39026009  0.11789906  1
  In  In15  1  0.84022430  0.67618553  0.47915747  1
  In  In16  1  0.47311397  0.81937734  0.33841262  1
  In  In17  1  0.65284098  0.49245291  0.83360838  1
  In  In18  1  0.66730208  0.02167335  0.66915320  1
  In  In19  1  0.16301031  -0.01375905  0.82072272  1
  In  In20  1  0.15927714  0.65055675  0.16117077  1
  In  In21  1  0.65595344  0.83659481  0.15541187  1
  In  In22  1  0.02378736  0.64783373  -0.01802956  1
  In  In23  1  0.03251179  0.79755034  0.79932330  1
  In  In24  1  0.64775344  0.66581762  0.00799262  1
  In  In25  1  0.29333960  0.63467877  0.36657125  1
  In  In26  1  0.65255138  0.35050141  -0.00287537  1
  In  In27  1  0.83466778  0.15277028  0.31904798  1
  In  In28  1  0.51787607  0.17537594  0.33124203  1
  In  In29  1  0.21005081  0.00519388  0.53416815  1
  In  In30  1  0.13966564  0.15726972  0.36921721  1
  In  In31  1  0.17807934  0.00211906  0.15541193  1
  In  In32  1  0.32365393  0.35277820  0.00748898  1
  In  In33  1  0.66171652  0.17543050  0.48286983  1
  In  In34  1  0.50395607  -0.00549807  0.85038331  1
  In  In35  1  0.48795091  0.46884008  0.68702806  1
  In  In36  1  0.68506097  -0.00266512  0.01092428  1
  In  In37  1  0.50233489  0.19239068  0.67310475  1
  In  In38  1  0.47549660  0.18407698  -0.00309531  1
  In  In39  1  0.16302012  0.17150194  -0.02167014  1
  In  In40  1  0.18018445  0.49996215  0.68195678  1
  In  In41  1  0.14982534  0.81505865  0.32016942  1
  In  In42  1  0.82814113  0.83206402  0.65604472  1
  In  In43  1  0.35460825  0.40120425  0.33748489  1
  In  In44  1  0.32440723  0.50559573  0.15618931  1
  In  In45  1  0.34042322  0.00433114  0.68649947  1
  In  In46  1  0.86573885  0.15471219  -0.03329177  1
  In  In47  1  0.00961410  0.67156627  0.30928037  1
  In  In48  1  0.85345480  0.30476330  0.81674338  1
  In  In49  1  0.84623420  0.30513921  0.16017223  1
  In  In50  1  0.82049884  -0.03370643  0.15270132  1
  In  In51  1  0.01659218  0.51997061  0.83785904  1
  In  In52  1  0.66978280  0.68558083  0.64468464  1
  In  In53  1  0.81694176  0.65381387  0.83603979  1
  In  In54  1  0.01523109  -0.03159218  0.32737192  1
  In  In55  1  0.81877274  0.49028394  0.31005131  1
  In  In56  1  0.85657996  -0.03234359  0.50147028  1
  In  In57  1  0.67311754  0.18307895  0.15841664  1
  In  In58  1  0.34393781  0.19929774  0.16491277  1
  In  In59  1  0.84125533  0.47733394  0.68094042  1
  In  In60  1  0.33956251  0.00329645  0.34139953  1
  In  In61  1  -0.00769145  0.34074901  0.36327429  1
  In  In62  1  0.33157074  0.16120897  0.53003424  1
  In  In63  1  0.03650665  0.82477045  0.51721904  1
  In  In64  1  0.00325232  0.01265540  0.68409950  1
  In  In65  1  0.32642687  0.69237132  -0.03338856  1
  In  In66  1  0.18883981  0.32940112  0.80129960  1
  In  In67  1  0.81036419  0.32217508  0.51246396  1
  In  In68  1  0.63879043  -0.00695912  0.33130396  1
  In  In69  1  0.51634346  0.83124749  0.64534494  1
  In  In70  1  0.33149267  0.64123055  0.67657717  1
  In  In71  1  0.64533395  0.50894512  0.51902541  1
  Te  Te72  1  0.08190359  0.07189569  0.06043681  1
  Te  Te73  1  0.06564800  0.05075983  0.44736704  1
  Te  Te74  1  0.07615523  0.10579861  0.77664782  1
  Te  Te75  1  0.04550575  0.48267209  0.06783934  1
  Te  Te76  1  0.10054337  0.42447610  0.42635776  1
  Te  Te77  1  0.07079368  0.41539445  0.74310178  1
  Te  Te78  1  0.07780775  0.74154994  0.08244047  1
  Te  Te79  1  0.10099647  0.72210952  0.42876303  1
  Te  Te80  1  0.12505586  0.71986060  0.71375983  1
  Te  Te81  1  0.39512803  0.08574690  0.08279430  1
  Te  Te82  1  0.42311246  0.09787548  0.42237621  1
  Te  Te83  1  0.42738244  0.09565652  0.76783657  1
  Te  Te84  1  0.42399806  0.40944909  0.10203893  1
  Te  Te85  1  0.42120980  0.45837394  0.45690773  1
  Te  Te86  1  0.44567785  0.38129544  0.79947751  1
  Te  Te87  1  0.42730878  0.75021379  0.07054402  1
  Te  Te88  1  0.39959848  0.72234759  0.43199822  1
  Te  Te89  1  0.42968607  0.74635322  0.73337577  1
  Te  Te90  1  0.78281609  0.10234523  0.09226416  1
  Te  Te91  1  0.75519422  0.06768826  0.41557759  1
  Te  Te92  1  0.76399364  0.07609971  0.76800939  1
  Te  Te93  1  0.76160191  0.40810964  0.08916166  1
  Te  Te94  1  0.73837964  0.42079669  0.41885525  1
  Te  Te95  1  0.74066165  0.39572610  0.75607792  1
  Te  Te96  1  0.75395041  0.75355340  0.07603359  1
  Te  Te97  1  0.72206761  0.74906642  0.43098629  1
  Te  Te98  1  0.74062971  0.75827440  0.75678258  1
  Te  Te99  1  0.07294464  0.24916961  0.26971312  1
  Te  Te100  1  0.05515079  0.27108092  0.61869777  1
  Te  Te101  1  0.09892046  0.28936088  0.91521831  1
  Te  Te102  1  0.10538975  0.56867276  0.27010390  1
  Te  Te103  1  0.09268780  0.60299507  0.61352942  1
  Te  Te104  1  0.12163124  0.61886114  0.87303002  1
  Te  Te105  1  0.08099317  0.89662892  0.21257665  1
  Te  Te106  1  0.10439947  0.92378736  0.60855288  1
  Te  Te107  1  0.08919946  0.88743127  0.89906103  1
  Te  Te108  1  0.41539411  0.27228983  0.27277230  1
  Te  Te109  1  0.40887708  0.27188407  0.59060423  1
  Te  Te110  1  0.38269966  0.25895572  0.90993295  1
  Te  Te111  1  0.39498662  0.58662203  0.26325701  1
  Te  Te112  1  0.42995577  0.56692771  0.59082628  1
  Te  Te113  1  0.41765470  0.58166152  0.93349593  1
  Te  Te114  1  0.42178485  0.92716968  0.23974128  1
  Te  Te115  1  0.41874808  0.92992983  0.57984000  1
  Te  Te116  1  0.40518356  0.89628943  0.90398381  1
  Te  Te117  1  0.74256317  0.26071182  0.26788580  1
  Te  Te118  1  0.72492936  0.24104981  0.59786867  1
  Te  Te119  1  0.74673288  0.25126587  0.92846287  1
  Te  Te120  1  0.75338611  0.59073335  0.22755937  1
  Te  Te121  1  0.76671165  0.58049720  0.58770960  1
  Te  Te122  1  0.74061910  0.56806449  0.93283521  1
  Te  Te123  1  0.74210336  0.90320493  0.26346912  1
  Te  Te124  1  0.73418370  0.91733526  0.57427690  1
  Te  Te125  1  0.75866304  0.95372797  0.89215797  1
  Te  Te126  1  0.22061033  0.25299313  0.09892353  1
  Te  Te127  1  0.24967171  0.24183411  0.42645442  1
  Te  Te128  1  0.26609216  0.25534662  0.69836854  1
  Te  Te129  1  0.25141095  0.59158101  0.05719155  1
  Te  Te130  1  0.28308976  0.52300212  0.46703790  1
  Te  Te131  1  0.27429123  0.55520150  0.78187990  1
  Te  Te132  1  0.23400337  0.89822083  0.05897689  1
  Te  Te133  1  0.23950739  0.91036606  0.41278964  1
  Te  Te134  1  0.26233654  0.89564264  0.74932696  1
  Te  Te135  1  0.56676266  0.26400334  0.09023530  1
  Te  Te136  1  0.57363904  0.28307498  0.42156184  1
  Te  Te137  1  0.55998159  0.27386135  0.78693194  1
  Te  Te138  1  0.58952299  0.56164035  0.10203695  1
  Te  Te139  1  0.56396197  0.55781583  0.39839021  1
  Te  Te140  1  0.59000047  0.59044263  0.73626914  1
  Te  Te141  1  0.57531447  0.92160935  0.06883556  1
  Te  Te142  1  0.54864007  0.91802194  0.41765456  1
  Te  Te143  1  0.58692812  0.92008748  0.74822734  1
  Te  Te144  1  0.94237702  0.25843997  0.05201837  1
  Te  Te145  1  0.91221781  0.22800281  0.42914769  1
  Te  Te146  1  0.92344808  0.25201096  0.70062541  1
  Te  Te147  1  0.93142465  0.60244016  0.09431231  1
  Te  Te148  1  0.91786986  0.57111850  0.40209932  1
  Te  Te149  1  0.91845173  0.59088419  0.74347491  1
  Te  Te150  1  0.91455442  0.91492840  0.05572710  1
  Te  Te151  1  0.92302924  0.87063208  0.40153622  1
  Te  Te152  1  0.92666803  0.89916337  0.74878849  1
  Te  Te153  1  0.23551805  0.08709611  0.26743257  1
  Te  Te154  1  0.22669353  0.11710248  0.63654545  1
  Te  Te155  1  0.25461895  0.09320963  0.88801664  1
  Te  Te156  1  0.23418592  0.41685657  0.24201876  1
  Te  Te157  1  0.25910196  0.41131247  0.58984912  1
  Te  Te158  1  0.21429954  0.41229760  0.92723406  1
  Te  Te159  1  0.26359847  0.74432981  0.24755071  1
  Te  Te160  1  0.24367681  0.73794304  0.59910148  1
  Te  Te161  1  0.28723881  0.79019598  0.86455742  1
  Te  Te162  1  0.57932165  0.08438668  0.22568304  1
  Te  Te163  1  0.57184778  0.09531951  0.57825398  1
  Te  Te164  1  0.58586101  0.09828368  0.93468896  1
  Te  Te165  1  0.55165486  0.44731076  0.20575908  1
  Te  Te166  1  0.59354446  0.40501392  0.60632137  1
  Te  Te167  1  0.55102341  0.43180656  0.92408145  1
  Te  Te168  1  0.57800823  0.74444685  0.25570938  1
  Te  Te169  1  0.58292807  0.74686837  0.54316723  1
  Te  Te170  1  0.59026140  0.75842798  0.91181394  1
  Te  Te171  1  0.93685560  0.06985751  0.24397664  1
  Te  Te172  1  0.88714107  0.07581584  0.60211755  1
  Te  Te173  1  0.95614856  0.09227004  0.87279703  1
  Te  Te174  1  0.92632027  0.40639053  0.24437414  1
  Te  Te175  1  0.91598998  0.42059277  0.56227307  1
  Te  Te176  1  0.91459458  0.41927078  0.89652105  1
  Te  Te177  1  0.91121846  0.77245763  0.28199836  1
  Te  Te178  1  0.92770946  0.74235797  0.58404413  1
  Te  Te179  1  0.91916843  0.74094499  0.90565417  1
