# generated using pymatgen
data_In2Te3
_symmetry_space_group_name_H-M   'P 1'
_cell_length_a   18.91713628
_cell_length_b   18.92041733
_cell_length_c   18.94434853
_cell_angle_alpha   90.04832047
_cell_angle_beta   90.03478778
_cell_angle_gamma   90.16184638
_symmetry_Int_Tables_number   1
_chemical_formula_structural   In2Te3
_chemical_formula_sum   'In72 Te108'
_cell_volume   6780.53264457
_cell_formula_units_Z   36
loop_
 _symmetry_equiv_pos_site_id
 _symmetry_equiv_pos_as_xyz
  1  'x, y, z'
loop_
 _atom_site_type_symbol
 _atom_site_label
 _atom_site_symmetry_multiplicity
 _atom_site_fract_x
 _atom_site_fract_y
 _atom_site_fract_z
 _atom_site_occupancy
  In  In0  1  0.50659891  0.01761086  0.14666190  1
  In  In1  1  0.18429623  0.84026300  0.64691171  1
  In  In2  1  0.81358901  0.65811066  0.17465150  1
  In  In3  1  0.17427425  0.82192645  0.34440149  1
  In  In4  1  0.47750521  -0.00056632  0.51019665  1
  In  In5  1  0.16919798  0.49272359  0.33001784  1
  In  In6  1  0.35127626  0.01587361  0.31620406  1
  In  In7  1  0.85662301  0.52525785  0.36419548  1
  In  In8  1  0.48793184  0.65138611  0.81939386  1
  In  In9  1  0.16558563  0.66357896  0.49558379  1
  In  In10  1  -0.02361523  0.66250822  -0.00837011  1
  In  In11  1  0.00432667  0.17227795  0.80822131  1
  In  In12  1  0.51617104  0.82230552  0.33350716  1
  In  In13  1  0.46574062  0.29674379  0.31465727  1
  In  In14  1  0.47457654  0.69316703  0.15077024  1
  In  In15  1  0.66955956  -0.00282169  0.33295604  1
  In  In16  1  0.34541238  0.20170359  0.49358802  1
  In  In17  1  0.66324267  0.65663148  0.00219112  1
  In  In18  1  -0.01208080  0.17526354  0.17444523  1
  In  In19  1  0.31760898  0.66756959  0.32708524  1
  In  In20  1  0.01086625  0.33580617  0.33311905  1
  In  In21  1  0.17458843  0.83773929  0.01143109  1
  In  In22  1  0.80527172  0.83367283  0.32052410  1
  In  In23  1  0.63530606  0.47304155  0.83806083  1
  In  In24  1  0.66365354  0.82978906  0.85218399  1
  In  In25  1  0.66067071  0.78203247  0.50446096  1
  In  In26  1  0.67982408  -0.02653991  0.69901097  1
  In  In27  1  0.50708155  0.17040578  -0.00780077  1
  In  In28  1  -0.00859871  0.34275421  0.00669000  1
  In  In29  1  0.00277495  0.83511106  0.16532562  1
  In  In30  1  0.18440665  0.64551092  0.17271444  1
  In  In31  1  0.83473583  0.00685368  0.50119855  1
  In  In32  1  0.17191463  0.34710260  0.50026230  1
  In  In33  1  0.64822990  0.18098419  0.51972217  1
  In  In34  1  -0.00555183  -0.00265125  -0.00542072  1
  In  In35  1  0.17217736  0.19361444  0.63975840  1
  In  In36  1  0.03673573  -0.01334486  0.67969035  1
  In  In37  1  0.36887811  0.46971159  0.83541935  1
  In  In38  1  -0.01232114  0.66071411  0.62885475  1
  In  In39  1  0.35288919  0.83595377  0.85868485  1
  In  In40  1  0.65894297  0.16201461  0.15111125  1
  In  In41  1  0.33231495  0.83586340  0.51930613  1
  In  In42  1  0.17870157  0.33511226  0.14306652  1
  In  In43  1  0.18626658  0.47637585  0.68326851  1
  In  In44  1  0.79861783  0.32695770  0.86893423  1
  In  In45  1  0.83536641  0.17561034  0.29977165  1
  In  In46  1  0.84135336  0.81072364  0.67214414  1
  In  In47  1  0.81063468  0.00893435  0.84450543  1
  In  In48  1  0.18456580  0.51303585  -0.01483331  1
  In  In49  1  0.51198047  0.15557998  0.70338655  1
  In  In50  1  0.84755782  0.49090292  0.62601709  1
  In  In51  1  -0.01215858  0.02593496  0.33325658  1
  In  In52  1  0.18499765  0.32331784  0.82909591  1
  In  In53  1  0.66010547  0.32037676  0.67906458  1
  In  In54  1  0.49400471  0.35714815  0.50914516  1
  In  In55  1  0.62967905  0.83416797  0.14012830  1
  In  In56  1  0.84129990  0.16959786  0.66444331  1
  In  In57  1  0.63785480  0.47061910  0.17564277  1
  In  In58  1  -0.01572541  0.52426609  0.18114441  1
  In  In59  1  0.32988941  0.16875689  0.84573352  1
  In  In60  1  0.18843841  0.16867508  0.01053277  1
  In  In61  1  0.80647347  0.33704570  0.13756494  1
  In  In62  1  0.81742503  0.65072038  0.80787595  1
  In  In63  1  0.02114029  0.18831642  0.50253715  1
  In  In64  1  0.49311330  0.61762630  0.53695366  1
  In  In65  1  0.68166170  0.51831564  0.48183099  1
  In  In66  1  0.33534081  0.01201737  0.69040162  1
  In  In67  1  0.37538361  0.47691429  0.15480588  1
  In  In68  1  0.14934968  -0.00392989  0.51101550  1
  In  In69  1  0.16894130  0.67001335  0.83144141  1
  In  In70  1  0.19281219  -0.00554241  0.16504549  1
  In  In71  1  -0.00145263  0.82121258  0.84139048  1
  Te  Te72  1  0.08140365  0.08101652  0.09138332  1
  Te  Te73  1  0.09922090  0.09723201  0.40883806  1
  Te  Te74  1  0.11892398  0.09477760  0.74629931  1
  Te  Te75  1  0.08588596  0.44583985  0.08958711  1
  Te  Te76  1  0.06941403  0.43562865  0.43019542  1
  Te  Te77  1  0.08644878  0.41428644  0.77266554  1
  Te  Te78  1  0.08436845  0.72571564  0.07972276  1
  Te  Te79  1  0.07281199  0.74776162  0.41802903  1
  Te  Te80  1  0.07999886  0.75045623  0.73490770  1
  Te  Te81  1  0.40568252  0.09424172  0.06988998  1
  Te  Te82  1  0.43192057  0.10444692  0.41242751  1
  Te  Te83  1  0.43459998  0.06259482  0.79308105  1
  Te  Te84  1  0.46063160  0.39161009  0.06799488  1
  Te  Te85  1  0.41449055  0.41106659  0.39559177  1
  Te  Te86  1  0.45989003  0.45100286  0.71872312  1
  Te  Te87  1  0.41009261  0.79892482  0.07083517  1
  Te  Te88  1  0.40843424  0.75316388  0.41626661  1
  Te  Te89  1  0.39308049  0.74257017  0.75286704  1
  Te  Te90  1  0.73811426  0.10397450  0.04054639  1
  Te  Te91  1  0.74966682  0.09972126  0.41618498  1
  Te  Te92  1  0.73637048  0.10536984  0.75309293  1
  Te  Te93  1  0.70846956  0.41270393  0.05976527  1
  Te  Te94  1  0.76908113  0.41994371  0.41406096  1
  Te  Te95  1  0.75272348  0.42046528  0.74835070  1
  Te  Te96  1  0.74789638  0.75542552  0.07993757  1
  Te  Te97  1  0.73292703  0.72684577  0.39097391  1
  Te  Te98  1  0.72257313  0.74390355  0.73670139  1
  Te  Te99  1  0.09931589  0.25078567  0.24371104  1
  Te  Te100  1  0.05579264  0.29232712  0.61002009  1
  Te  Te101  1  0.08217718  0.24881145  0.92570504  1
  Te  Te102  1  0.07852633  0.60071445  0.27251672  1
  Te  Te103  1  0.09911059  0.56744008  0.59207915  1
  Te  Te104  1  0.07131027  0.57935293  0.90669412  1
  Te  Te105  1  0.08491603  0.92536196  0.25944845  1
  Te  Te106  1  0.06060665  0.88699807  0.56690588  1
  Te  Te107  1  0.09309959  0.91804781  0.90998375  1
  Te  Te108  1  0.42084069  0.23473202  0.18678584  1
  Te  Te109  1  0.43987633  0.24584316  0.60326062  1
  Te  Te110  1  0.43836258  0.25993152  0.89310343  1
  Te  Te111  1  0.42035958  0.58946474  0.25030098  1
  Te  Te112  1  0.39460997  0.52949280  0.60652207  1
  Te  Te113  1  0.42624877  0.57100216  0.93118852  1
  Te  Te114  1  0.43730340  0.91501893  0.24379873  1
  Te  Te115  1  0.42225375  0.90854490  0.61778429  1
  Te  Te116  1  0.44784587  0.89704066  0.95725982  1
  Te  Te117  1  0.72812139  0.26496395  0.24723800  1
  Te  Te118  1  0.76252804  0.26276540  0.57563837  1
  Te  Te119  1  0.71277669  0.23441402  0.94922714  1
  Te  Te120  1  0.75049077  0.54786267  0.25453328  1
  Te  Te121  1  0.75703395  0.59754056  0.58330213  1
  Te  Te122  1  0.73688866  0.56711385  0.90590790  1
  Te  Te123  1  0.73275325  0.92141988  0.21999737  1
  Te  Te124  1  0.75312887  0.90505638  0.57927794  1
  Te  Te125  1  0.75238231  0.91257552  0.93716388  1
  Te  Te126  1  0.28729850  0.25612241  0.07925626  1
  Te  Te127  1  0.24139797  0.25740349  0.40777772  1
  Te  Te128  1  0.27709788  0.25633156  0.72984020  1
  Te  Te129  1  0.28308069  0.57948575  0.08073353  1
  Te  Te130  1  0.26146291  0.56751923  0.42540162  1
  Te  Te131  1  0.26542099  0.56973499  0.77349772  1
  Te  Te132  1  0.28326478  0.91425554  0.07961345  1
  Te  Te133  1  0.25859629  0.92791217  0.41716490  1
  Te  Te134  1  0.24963732  0.90945639  0.76283261  1
  Te  Te135  1  0.55167120  0.26715792  0.11110909  1
  Te  Te136  1  0.57983385  0.26440273  0.41879307  1
  Te  Te137  1  0.56959376  0.26625414  0.78489776  1
  Te  Te138  1  0.57107215  0.58757205  0.09872710  1
  Te  Te139  1  0.56524874  0.58180548  0.41638002  1
  Te  Te140  1  0.57681305  0.56451681  0.73528685  1
  Te  Te141  1  0.58287102  0.93839122  0.04397658  1
  Te  Te142  1  0.58696960  0.91621156  0.43364880  1
  Te  Te143  1  0.57061489  0.91563201  0.77574288  1
  Te  Te144  1  0.90046583  0.23740959  0.06859110  1
  Te  Te145  1  0.91511084  0.24596202  0.41030919  1
  Te  Te146  1  0.89929354  0.26907809  0.76346921  1
  Te  Te147  1  0.88806282  0.56992274  0.07326175  1
  Te  Te148  1  0.92800140  0.60860165  0.46212098  1
  Te  Te149  1  0.92551326  0.57529031  0.73704304  1
  Te  Te150  1  0.91444771  0.90029572  0.06941089  1
  Te  Te151  1  0.90737687  0.91768922  0.40331570  1
  Te  Te152  1  0.91505237  0.92431399  0.75089671  1
  Te  Te153  1  0.25741681  0.09999325  0.24312635  1
  Te  Te154  1  0.26345099  0.08106315  0.57433577  1
  Te  Te155  1  0.25320797  0.07095724  0.92396637  1
  Te  Te156  1  0.26407586  0.41525448  0.24117073  1
  Te  Te157  1  0.27750303  0.41037155  0.58421404  1
  Te  Te158  1  0.26743442  0.39954478  0.93158418  1
  Te  Te159  1  0.25649495  0.76757837  0.22990454  1
  Te  Te160  1  0.26556321  0.72289306  0.59591123  1
  Te  Te161  1  0.25753085  0.73702505  0.93387343  1
  Te  Te162  1  0.57847388  0.09259229  0.26054784  1
  Te  Te163  1  0.58918891  0.06393872  0.59636016  1
  Te  Te164  1  0.62649002  0.10450120  0.92982389  1
  Te  Te165  1  0.54614315  0.42442347  0.28430868  1
  Te  Te166  1  0.60659105  0.42369975  0.58244028  1
  Te  Te167  1  0.52670613  0.44642410  0.93723882  1
  Te  Te168  1  0.59528383  0.73063226  0.24525273  1
  Te  Te169  1  0.55134913  0.74208220  0.59156806  1
  Te  Te170  1  0.56524907  0.73757677  0.92259767  1
  Te  Te171  1  0.89422185  0.06217173  0.21877892  1
  Te  Te172  1  0.94235309  0.07851036  0.58640008  1
  Te  Te173  1  0.91753101  0.09670986  0.90844317  1
  Te  Te174  1  0.91704073  0.39852384  0.23216451  1
  Te  Te175  1  0.94331904  0.39550150  0.57497890  1
  Te  Te176  1  0.90040664  0.41990258  0.92323444  1
  Te  Te177  1  0.91313598  0.74577269  0.24984703  1
  Te  Te178  1  0.88090529  0.73042115  0.54947018  1
  Te  Te179  1  0.88431771  0.74810318  0.90686325  1
