# generated using pymatgen
data_In2Te3
_symmetry_space_group_name_H-M   'P 1'
_cell_length_a   18.81273224
_cell_length_b   18.80951512
_cell_length_c   18.82062609
_cell_angle_alpha   89.96710994
_cell_angle_beta   89.88650605
_cell_angle_gamma   89.88662346
_symmetry_Int_Tables_number   1
_chemical_formula_structural   In2Te3
_chemical_formula_sum   'In72 Te108'
_cell_volume   6659.80891526
_cell_formula_units_Z   36
loop_
 _symmetry_equiv_pos_site_id
 _symmetry_equiv_pos_as_xyz
  1  'x, y, z'
loop_
 _atom_site_type_symbol
 _atom_site_label
 _atom_site_symmetry_multiplicity
 _atom_site_fract_x
 _atom_site_fract_y
 _atom_site_fract_z
 _atom_site_occupancy
  In  In0  1  -0.01470135  0.49101249  0.17559127  1
  In  In1  1  0.70666185  0.00536011  0.00860160  1
  In  In2  1  0.84164980  0.18950563  0.68017376  1
  In  In3  1  0.80635194  0.48113547  0.33733355  1
  In  In4  1  0.34454668  0.01087459  0.31393982  1
  In  In5  1  0.27574926  0.67910139  0.00455250  1
  In  In6  1  0.67527731  0.47165718  0.49571355  1
  In  In7  1  0.31166637  0.15859482  0.49135162  1
  In  In8  1  0.67056082  0.16145088  0.82471636  1
  In  In9  1  0.15726035  0.49934736  0.31479332  1
  In  In10  1  0.54154370  0.01709407  0.49502236  1
  In  In11  1  0.70375908  0.49814209  0.81495952  1
  In  In12  1  0.32411879  0.18239499  0.16472627  1
  In  In13  1  0.13405880  0.32493381  0.86354550  1
  In  In14  1  0.48011903  0.67282415  0.80938634  1
  In  In15  1  0.47885485  0.50056265  -0.00089138  1
  In  In16  1  0.32793407  0.32347610  0.34458931  1
  In  In17  1  0.67515270  0.02353432  0.67688197  1
  In  In18  1  0.66326073  0.66563931  0.65049657  1
  In  In19  1  -0.01818927  0.49082467  0.50137597  1
  In  In20  1  0.69785787  0.84604016  0.18193099  1
  In  In21  1  0.32133008  0.49512971  0.49883142  1
  In  In22  1  0.49851330  0.83718828  -0.00701188  1
  In  In23  1  0.49797687  0.00892699  0.83217005  1
  In  In24  1  0.68141427  0.68407316  0.04084735  1
  In  In25  1  0.83840006  0.66411178  0.46983537  1
  In  In26  1  0.82149304  0.02288053  0.47096124  1
  In  In27  1  0.84164026  0.84055366  0.67094435  1
  In  In28  1  0.01547918  0.00400215  0.67402613  1
  In  In29  1  -0.00693510  0.31550374  0.33850987  1
  In  In30  1  0.54452410  0.03130284  0.19194567  1
  In  In31  1  0.33074138  0.65337821  0.31377396  1
  In  In32  1  0.13067547  0.32629513  0.17214786  1
  In  In33  1  0.68483116  0.47885818  0.15260530  1
  In  In34  1  0.86407511  0.46419374  -0.02172952  1
  In  In35  1  0.47688390  0.67287763  0.18268071  1
  In  In36  1  -0.00079481  0.65967800  0.67409615  1
  In  In37  1  0.32943586  0.68568710  0.65399802  1
  In  In38  1  0.50448579  0.65357789  0.50404111  1
  In  In39  1  0.30805753  -0.00429513  0.01436541  1
  In  In40  1  0.87734763  0.69570101  0.18304192  1
  In  In41  1  0.52595505  0.31704840  0.50236182  1
  In  In42  1  0.87576736  0.00730438  0.15569053  1
  In  In43  1  -0.01948507  0.01546328  0.33043672  1
  In  In44  1  0.86733979  0.16665443  0.00115640  1
  In  In45  1  0.13407899  0.00215693  0.84868977  1
  In  In46  1  0.15459813  0.47398417  0.68005158  1
  In  In47  1  0.30611855  0.85945398  0.17229365  1
  In  In48  1  0.53072404  0.32868714  0.20254762  1
  In  In49  1  0.84705186  0.46493329  0.66646065  1
  In  In50  1  0.32566045  0.47587755  0.83291289  1
  In  In51  1  0.33307249  0.32956704  0.66737090  1
  In  In52  1  0.48910652  0.18545977  0.01334610  1
  In  In53  1  0.67573424  0.32775469  -0.00559219  1
  In  In54  1  0.01686638  0.68501224  0.00771566  1
  In  In55  1  0.33070838  0.51481863  0.14205453  1
  In  In56  1  0.68682157  0.66193957  0.34877919  1
  In  In57  1  0.12883103  0.81800829  0.33313277  1
  In  In58  1  0.17522802  0.00257484  0.50603612  1
  In  In59  1  0.32193459  0.13675741  0.82118425  1
  In  In60  1  0.13628881  0.01555805  0.12305917  1
  In  In61  1  0.83372425  0.65402684  0.86319031  1
  In  In62  1  0.51713033  0.31262922  0.82098682  1
  In  In63  1  0.00815935  0.17958782  0.51296905  1
  In  In64  1  0.30800498  0.34658693  -0.00339328  1
  In  In65  1  0.16464405  0.84468706  0.66899232  1
  In  In66  1  0.50851594  0.84282507  0.36184042  1
  In  In67  1  0.32881767  0.01738835  0.65009862  1
  In  In68  1  0.14575564  0.66304598  0.83412378  1
  In  In69  1  0.31942400  0.84443114  0.52184337  1
  In  In70  1  0.67414950  0.81133756  0.49180607  1
  In  In71  1  0.67453933  0.84404600  0.85341716  1
  Te  Te72  1  0.04564164  0.11686114  0.05370250  1
  Te  Te73  1  0.08618102  0.08797306  0.41800397  1
  Te  Te74  1  0.07207839  0.10762049  0.76398677  1
  Te  Te75  1  0.05685522  0.40835135  0.07143234  1
  Te  Te76  1  0.08375780  0.41077769  0.41446111  1
  Te  Te77  1  0.05329842  0.39227550  0.75407519  1
  Te  Te78  1  0.08279492  0.79149431  0.08724697  1
  Te  Te79  1  0.03534687  0.72305918  0.39442659  1
  Te  Te80  1  0.06497991  0.76962342  0.75664266  1
  Te  Te81  1  0.41787737  0.07473203  0.09096273  1
  Te  Te82  1  0.42578439  0.08499453  0.41708734  1
  Te  Te83  1  0.43572895  0.09888206  0.72646608  1
  Te  Te84  1  0.42418782  0.38875730  0.08917869  1
  Te  Te85  1  0.42314258  0.40925295  0.42490031  1
  Te  Te86  1  0.43347504  0.41697645  0.74321335  1
  Te  Te87  1  0.39986881  0.75348840  0.07772681  1
  Te  Te88  1  0.40529982  0.74326300  0.41875259  1
  Te  Te89  1  0.40301303  0.77759233  0.74220312  1
  Te  Te90  1  0.76349375  0.10939168  0.09876457  1
  Te  Te91  1  0.78059980  0.14162760  0.38970278  1
  Te  Te92  1  0.78435320  0.07520079  0.76920351  1
  Te  Te93  1  0.78281858  0.38421175  0.08709201  1
  Te  Te94  1  0.78669030  0.38470338  0.44921468  1
  Te  Te95  1  0.73481686  0.38544295  0.72503658  1
  Te  Te96  1  0.79166877  0.77868186  0.08190261  1
  Te  Te97  1  0.77978693  0.77699942  0.38550398  1
  Te  Te98  1  0.74857040  0.73898087  0.75504370  1
  Te  Te99  1  0.06565317  0.21720676  0.25087120  1
  Te  Te100  1  0.12469219  0.23800809  0.58202246  1
  Te  Te101  1  0.04361092  0.23257121  0.94213948  1
  Te  Te102  1  0.08303275  0.59117144  0.22596515  1
  Te  Te103  1  0.08362146  0.57073512  0.58374568  1
  Te  Te104  1  0.05689693  0.57719360  0.91323102  1
  Te  Te105  1  0.08832652  0.93910358  0.25076144  1
  Te  Te106  1  0.07301859  0.90683132  0.56409633  1
  Te  Te107  1  0.04453971  0.91783960  0.93689779  1
  Te  Te108  1  0.42601421  0.23499792  0.26429212  1
  Te  Te109  1  0.41161293  0.23821676  0.57426447  1
  Te  Te110  1  0.40236907  0.25147654  0.90620744  1
  Te  Te111  1  0.42582050  0.54860043  0.25757527  1
  Te  Te112  1  0.41328758  0.57210302  0.59419862  1
  Te  Te113  1  0.39305936  0.59473201  0.91614367  1
  Te  Te114  1  0.43728316  0.90730195  0.24126115  1
  Te  Te115  1  0.42994874  0.93545531  0.56976807  1
  Te  Te116  1  0.40132917  0.92308862  0.91342714  1
  Te  Te117  1  0.71239926  0.24241185  0.28408986  1
  Te  Te118  1  0.72433662  0.24327227  0.60887231  1
  Te  Te119  1  0.76686319  0.24541015  0.90636837  1
  Te  Te120  1  0.75943706  0.59719941  0.23069977  1
  Te  Te121  1  0.76490555  0.57864762  0.57679843  1
  Te  Te122  1  0.73581310  0.56625478  0.94797283  1
  Te  Te123  1  0.77755271  0.94711323  0.25069157  1
  Te  Te124  1  0.74406462  0.91645013  0.58093078  1
  Te  Te125  1  0.78247759  0.92096333  0.91554870  1
  Te  Te126  1  0.22364065  0.24600467  0.07153518  1
  Te  Te127  1  0.22477883  0.23417777  0.39995922  1
  Te  Te128  1  0.24877861  0.26403034  0.77647443  1
  Te  Te129  1  0.20915485  0.57865930  0.08900451  1
  Te  Te130  1  0.23544672  0.58803717  0.41380781  1
  Te  Te131  1  0.25213211  0.57753578  0.74149144  1
  Te  Te132  1  0.20666767  0.88561628  0.05508453  1
  Te  Te133  1  0.25747249  0.91583871  0.40213594  1
  Te  Te134  1  0.24602172  0.94097681  0.75235315  1
  Te  Te135  1  0.60153603  0.24133160  0.09749133  1
  Te  Te136  1  0.59938368  0.24592817  0.39278084  1
  Te  Te137  1  0.59634364  0.23756810  0.71874266  1
  Te  Te138  1  0.56983582  0.57756676  0.09634615  1
  Te  Te139  1  0.58358620  0.56839925  0.40866946  1
  Te  Te140  1  0.58802334  0.57921527  0.75202416  1
  Te  Te141  1  0.59548654  0.91427414  0.08139619  1
  Te  Te142  1  0.62500240  0.93076989  0.40058567  1
  Te  Te143  1  0.58854537  0.91666300  0.75087679  1
  Te  Te144  1  0.95483780  0.27410128  0.06300008  1
  Te  Te145  1  0.89638660  0.24460068  0.43234549  1
  Te  Te146  1  0.94025914  0.26264791  0.76587114  1
  Te  Te147  1  0.90323007  0.58207171  0.08017221  1
  Te  Te148  1  0.92361342  0.57184961  0.38378730  1
  Te  Te149  1  0.91016006  0.57013794  0.75875989  1
  Te  Te150  1  0.96643126  0.91462295  0.07506227  1
  Te  Te151  1  0.92101799  0.92257007  0.42941523  1
  Te  Te152  1  0.92435753  0.92303390  0.75920586  1
  Te  Te153  1  0.23607871  0.07694256  0.23021261  1
  Te  Te154  1  0.21020961  0.11435490  0.61448151  1
  Te  Te155  1  0.22835563  0.09599910  0.93314662  1
  Te  Te156  1  0.25607387  0.40639989  0.23336877  1
  Te  Te157  1  0.23242210  0.39482278  0.57238892  1
  Te  Te158  1  0.21135059  0.44157472  0.92674657  1
  Te  Te159  1  0.23328740  0.74491434  0.24150436  1
  Te  Te160  1  0.21679434  0.74123421  0.56729012  1
  Te  Te161  1  0.23972102  0.76231865  0.88972639  1
  Te  Te162  1  0.61538305  0.11703188  0.28984525  1
  Te  Te163  1  0.63557903  0.11372551  0.56128043  1
  Te  Te164  1  0.58299148  0.08503032  0.93324955  1
  Te  Te165  1  0.62575943  0.41750577  0.27460932  1
  Te  Te166  1  0.57382893  0.42472786  0.59076387  1
  Te  Te167  1  0.57894874  0.41744981  0.91529917  1
  Te  Te168  1  0.58761567  0.74833115  0.25857299  1
  Te  Te169  1  0.56406887  0.76478168  0.58916216  1
  Te  Te170  1  0.58413235  0.73104023  0.92142781  1
  Te  Te171  1  0.92557669  0.12255870  0.24036691  1
  Te  Te172  1  0.90486926  0.08054307  0.58651001  1
  Te  Te173  1  0.94644577  0.04417082  0.95526146  1
  Te  Te174  1  0.89520443  0.39196131  0.24975976  1
  Te  Te175  1  0.93676436  0.37797997  0.58662718  1
  Te  Te176  1  0.90870744  0.38014749  0.86447285  1
  Te  Te177  1  0.96283729  0.77842754  0.27388696  1
  Te  Te178  1  0.91491726  0.74329371  0.57821770  1
  Te  Te179  1  0.92420086  0.75619454  0.91423309  1
