# generated using pymatgen
data_In2Te3
_symmetry_space_group_name_H-M   'P 1'
_cell_length_a   18.90768081
_cell_length_b   18.88129106
_cell_length_c   18.87992259
_cell_angle_alpha   90.00101074
_cell_angle_beta   89.84481413
_cell_angle_gamma   89.99492489
_symmetry_Int_Tables_number   1
_chemical_formula_structural   In2Te3
_chemical_formula_sum   'In72 Te108'
_cell_volume   6740.13451216
_cell_formula_units_Z   36
loop_
 _symmetry_equiv_pos_site_id
 _symmetry_equiv_pos_as_xyz
  1  'x, y, z'
loop_
 _atom_site_type_symbol
 _atom_site_label
 _atom_site_symmetry_multiplicity
 _atom_site_fract_x
 _atom_site_fract_y
 _atom_site_fract_z
 _atom_site_occupancy
  In  In0  1  0.65396805  0.83900617  0.49165255  1
  In  In1  1  -0.00014919  0.49537558  0.85091183  1
  In  In2  1  0.50191082  0.68717909  0.16614643  1
  In  In3  1  0.84656347  0.82217999  0.30982384  1
  In  In4  1  0.30707014  -0.04173817  0.35001541  1
  In  In5  1  0.64410074  -0.00604617  -0.00078603  1
  In  In6  1  0.33198013  0.14261806  0.54543073  1
  In  In7  1  0.18057440  0.84390215  0.02578163  1
  In  In8  1  0.33019051  0.52649776  0.16036332  1
  In  In9  1  0.51170165  0.52465382  0.00573626  1
  In  In10  1  0.10368695  0.55867818  0.31656494  1
  In  In11  1  0.49312444  0.31700985  0.81813177  1
  In  In12  1  0.34552219  0.14441512  0.19321803  1
  In  In13  1  0.18877448  0.13577192  0.36446776  1
  In  In14  1  0.17797299  0.51914981  0.69298367  1
  In  In15  1  0.68063346  0.69117834  0.02316492  1
  In  In16  1  0.51085031  0.52386493  0.33436848  1
  In  In17  1  0.82390264  0.33977579  0.47020381  1
  In  In18  1  0.15081679  0.51353725  0.01368942  1
  In  In19  1  -0.01689959  0.52559014  0.46493371  1
  In  In20  1  0.19085381  0.71775644  0.83246428  1
  In  In21  1  0.67368452  0.66919838  0.31993389  1
  In  In22  1  0.84490716  0.51051117  -0.00301353  1
  In  In23  1  0.36673560  0.32573058  0.67785837  1
  In  In24  1  0.62578289  0.87161645  0.81561395  1
  In  In25  1  0.03754676  -0.02559345  0.64598707  1
  In  In26  1  0.67254821  0.14262183  0.14594782  1
  In  In27  1  -0.00058078  0.32099940  0.65077260  1
  In  In28  1  0.17263273  0.33228303  0.51034259  1
  In  In29  1  0.02492977  -0.02390885  0.33419257  1
  In  In30  1  0.83717712  -0.01670135  0.83527974  1
  In  In31  1  0.83675681  0.16839279  0.00673493  1
  In  In32  1  0.31829933  0.79206334  0.36672234  1
  In  In33  1  0.49972479  0.12262036  0.67829920  1
  In  In34  1  0.65333861  0.15067841  0.52924970  1
  In  In35  1  -0.01880307  -0.02940467  0.02886860  1
  In  In36  1  0.83478585  0.35815467  0.18785165  1
  In  In37  1  0.16177322  0.13560621  0.00507148  1
  In  In38  1  0.83635704  0.00111018  0.49431312  1
  In  In39  1  0.18610076  0.13854865  0.67955267  1
  In  In40  1  0.03151751  0.68590612  0.66353412  1
  In  In41  1  0.84138146  0.16215731  0.67203647  1
  In  In42  1  0.85842838  0.16655422  0.32402967  1
  In  In43  1  0.68688857  0.31066778  0.01312607  1
  In  In44  1  0.00930163  0.15349976  0.18438851  1
  In  In45  1  0.12986248  0.67158550  0.45923265  1
  In  In46  1  0.30867211  0.14417305  0.83384176  1
  In  In47  1  0.33061566  0.33914056  0.00741979  1
  In  In48  1  0.67268758  0.68612003  0.63868258  1
  In  In49  1  0.63352898  0.49479919  0.83586742  1
  In  In50  1  0.83862907  0.68663169  0.83951123  1
  In  In51  1  0.82396381  0.52311147  0.65657212  1
  In  In52  1  0.48931035  0.49912909  0.64381553  1
  In  In53  1  0.16479563  0.31890268  0.87820699  1
  In  In54  1  0.66090299  -0.02535098  0.35460152  1
  In  In55  1  -0.00135852  0.34037236  0.32189617  1
  In  In56  1  0.52895673  0.31495940  0.16587471  1
  In  In57  1  0.61736301  0.32889716  0.65017443  1
  In  In58  1  0.33493364  0.72978938  0.64799008  1
  In  In59  1  0.49238975  0.84363587  -0.00230923  1
  In  In60  1  0.31708117  0.36546122  0.32783375  1
  In  In61  1  -0.01739836  0.67447384  0.00013636  1
  In  In62  1  0.84494851  0.35576629  0.80020130  1
  In  In63  1  0.17919456  -0.03039748  0.82741730  1
  In  In64  1  0.14312173  0.33611706  0.13716510  1
  In  In65  1  0.85195637  0.82047921  0.64039956  1
  In  In66  1  0.47994914  0.67042864  0.83293317  1
  In  In67  1  0.67082526  0.34011713  0.34523660  1
  In  In68  1  0.67015248  0.12041064  0.86945874  1
  In  In69  1  0.48913532  0.14798379  0.35965938  1
  In  In70  1  0.32131164  0.52308134  0.48799075  1
  In  In71  1  0.48562804  -0.01785522  0.17335496  1
  Te  Te72  1  0.08831318  0.04905786  0.10624273  1
  Te  Te73  1  0.06913309  0.08118563  0.42722267  1
  Te  Te74  1  0.08266026  0.06903777  0.76380829  1
  Te  Te75  1  0.04715895  0.43418182  0.08312209  1
  Te  Te76  1  0.09551177  0.42186091  0.41469598  1
  Te  Te77  1  0.07968654  0.41361798  0.74880426  1
  Te  Te78  1  0.07819577  0.75119013  0.09050632  1
  Te  Te79  1  0.07126289  0.76164117  0.35496898  1
  Te  Te80  1  0.09151603  0.78826685  0.74962291  1
  Te  Te81  1  0.41668617  0.07655164  0.08466210  1
  Te  Te82  1  0.39458581  0.05734566  0.43216132  1
  Te  Te83  1  0.38244078  0.05135443  0.74137260  1
  Te  Te84  1  0.42460224  0.41776460  0.10031934  1
  Te  Te85  1  0.41866921  0.42729898  0.42032324  1
  Te  Te86  1  0.41740888  0.43911899  0.76565818  1
  Te  Te87  1  0.41313670  0.73379662  0.05691453  1
  Te  Te88  1  0.44218578  0.78716641  0.44860643  1
  Te  Te89  1  0.42369609  0.78941826  0.76058300  1
  Te  Te90  1  0.76852119  0.05137358  0.07579423  1
  Te  Te91  1  0.74692642  0.10036409  0.41526552  1
  Te  Te92  1  0.74813382  0.06781071  0.74495528  1
  Te  Te93  1  0.74569064  0.42787985  0.08487691  1
  Te  Te94  1  0.75723443  0.45159984  0.39775114  1
  Te  Te95  1  0.72473299  0.42149430  0.73336113  1
  Te  Te96  1  0.79025289  0.75588946  0.09595455  1
  Te  Te97  1  0.75648873  0.75783414  0.41645988  1
  Te  Te98  1  0.74586074  0.76584289  0.74748054  1
  Te  Te99  1  0.10550754  0.24416670  0.26295210  1
  Te  Te100  1  0.09652116  0.22537509  0.58480657  1
  Te  Te101  1  0.06952710  0.23567796  0.94952475  1
  Te  Te102  1  0.10103780  0.62567218  0.18466018  1
  Te  Te103  1  0.09253913  0.56594011  0.57576112  1
  Te  Te104  1  0.08943073  0.60733888  0.90083262  1
  Te  Te105  1  0.11248990  0.88023141  0.25982947  1
  Te  Te106  1  0.09906720  0.87202384  0.55586585  1
  Te  Te107  1  0.08040925  0.91040793  0.92866247  1
  Te  Te108  1  0.42159200  0.26263906  0.26271909  1
  Te  Te109  1  0.44292218  0.23986606  0.58249617  1
  Te  Te110  1  0.39922403  0.24147399  0.91188753  1
  Te  Te111  1  0.40888945  0.61020987  0.26044586  1
  Te  Te112  1  0.40572631  0.60699696  0.57914191  1
  Te  Te113  1  0.40417861  0.59315962  0.93473922  1
  Te  Te114  1  0.40133445  0.88203189  0.24958832  1
  Te  Te115  1  0.38523244  0.87299430  0.62500001  1
  Te  Te116  1  0.46333120  0.92714341  0.87987749  1
  Te  Te117  1  0.74218403  0.24201956  0.24452867  1
  Te  Te118  1  0.75640178  0.25650738  0.58571543  1
  Te  Te119  1  0.75914114  0.24963809  0.89367781  1
  Te  Te120  1  0.77147812  0.56301086  0.28041957  1
  Te  Te121  1  0.76301747  0.60606916  0.55351915  1
  Te  Te122  1  0.74569700  0.57538987  0.89966714  1
  Te  Te123  1  0.74987069  0.91965590  0.25232309  1
  Te  Te124  1  0.74882847  0.91765691  0.58447716  1
  Te  Te125  1  0.73595897  0.90310552  0.91560536  1
  Te  Te126  1  0.25607053  0.23739455  0.09441303  1
  Te  Te127  1  0.27217027  0.24943373  0.42790392  1
  Te  Te128  1  0.24611434  0.26762292  0.75219384  1
  Te  Te129  1  0.23506814  0.61403232  0.08537625  1
  Te  Te130  1  0.23998643  0.59525483  0.38351421  1
  Te  Te131  1  0.27163163  0.62006846  0.74743268  1
  Te  Te132  1  0.29085499  0.87363394  0.12458475  1
  Te  Te133  1  0.21564137  0.88322024  0.44760180  1
  Te  Te134  1  0.27088292  0.93703336  0.71189286  1
  Te  Te135  1  0.57408303  0.21774856  0.05738086  1
  Te  Te136  1  0.58368686  0.24583986  0.42825701  1
  Te  Te137  1  0.59590781  0.22092774  0.75704586  1
  Te  Te138  1  0.60638848  0.58685979  0.10364678  1
  Te  Te139  1  0.57790363  0.61841227  0.42190737  1
  Te  Te140  1  0.58051613  0.59505467  0.73455487  1
  Te  Te141  1  0.59025193  0.89559194  0.10307512  1
  Te  Te142  1  0.54186697  0.90100046  0.40805620  1
  Te  Te143  1  0.58263242  0.97366218  0.71927412  1
  Te  Te144  1  0.91388287  0.24681855  0.11073956  1
  Te  Te145  1  0.93663678  0.24641135  0.42638732  1
  Te  Te146  1  0.93645393  0.23862556  0.76285866  1
  Te  Te147  1  0.88309212  0.61428892  0.09598530  1
  Te  Te148  1  0.90209536  0.59676884  0.36139959  1
  Te  Te149  1  0.92489567  0.58943313  0.74984914  1
  Te  Te150  1  0.91093445  0.85526910  0.08864821  1
  Te  Te151  1  0.92198725  0.90184893  0.42146026  1
  Te  Te152  1  0.92879761  0.91139181  0.73528154  1
  Te  Te153  1  0.23941385  0.05131175  0.24847743  1
  Te  Te154  1  0.22995967  0.03995999  0.57678388  1
  Te  Te155  1  0.26129419  0.04381004  0.93833215  1
  Te  Te156  1  0.22873998  0.43188580  0.22551144  1
  Te  Te157  1  0.26412875  0.42133284  0.59503830  1
  Te  Te158  1  0.24896609  0.43508170  0.92119708  1
  Te  Te159  1  0.23796657  0.78296645  0.23681146  1
  Te  Te160  1  0.20970215  0.75617619  0.56104824  1
  Te  Te161  1  0.27435059  0.80156166  0.91807967  1
  Te  Te162  1  0.57921062  0.08289055  0.25556964  1
  Te  Te163  1  0.56391981  0.03868863  0.57100118  1
  Te  Te164  1  0.53947469  0.06032234  0.91191390  1
  Te  Te165  1  0.59254340  0.42558043  0.24647964  1
  Te  Te166  1  0.58967310  0.43656237  0.55679495  1
  Te  Te167  1  0.57174471  0.39334720  0.93118199  1
  Te  Te168  1  0.59565822  0.76956822  0.24306604  1
  Te  Te169  1  0.56238657  0.77035109  0.58769396  1
  Te  Te170  1  0.59313894  0.74346999  0.91271290  1
  Te  Te171  1  0.91496509  0.05115155  0.24707605  1
  Te  Te172  1  0.93135840  0.07418310  0.58786489  1
  Te  Te173  1  0.92213425  0.07149992  0.92538049  1
  Te  Te174  1  0.94676365  0.44578401  0.23140249  1
  Te  Te175  1  0.91408028  0.42141214  0.57434299  1
  Te  Te176  1  0.91743597  0.39323574  0.92769859  1
  Te  Te177  1  0.94841159  0.71756388  0.27013203  1
  Te  Te178  1  0.93348596  0.72636306  0.56203912  1
  Te  Te179  1  0.91690572  0.78164636  0.91963840  1
