# generated using pymatgen
data_In2Te3
_symmetry_space_group_name_H-M   'P 1'
_cell_length_a   18.91260801
_cell_length_b   18.92842738
_cell_length_c   18.93222532
_cell_angle_alpha   90.21019744
_cell_angle_beta   89.93798781
_cell_angle_gamma   90.06172153
_symmetry_Int_Tables_number   1
_chemical_formula_structural   In2Te3
_chemical_formula_sum   'In72 Te108'
_cell_volume   6777.41675704
_cell_formula_units_Z   36
loop_
 _symmetry_equiv_pos_site_id
 _symmetry_equiv_pos_as_xyz
  1  'x, y, z'
loop_
 _atom_site_type_symbol
 _atom_site_label
 _atom_site_symmetry_multiplicity
 _atom_site_fract_x
 _atom_site_fract_y
 _atom_site_fract_z
 _atom_site_occupancy
  In  In0  1  0.00853231  0.17721229  0.83278210  1
  In  In1  1  -0.00086039  0.65670356  0.33409892  1
  In  In2  1  0.47201844  0.67684634  0.49810109  1
  In  In3  1  0.84706745  0.67743816  0.83105452  1
  In  In4  1  0.49354666  0.69251190  0.81850527  1
  In  In5  1  0.66882085  0.15255227  0.51683680  1
  In  In6  1  0.33655749  0.01038151  0.67194960  1
  In  In7  1  0.48636626  0.84170248  0.66447629  1
  In  In8  1  0.16915674  0.16477652  0.33921215  1
  In  In9  1  0.20828874  0.32361625  0.15171992  1
  In  In10  1  0.00610881  0.02045731  -0.00526042  1
  In  In11  1  0.14632141  0.00476340  0.16656350  1
  In  In12  1  0.67008721  0.16206128  0.15285583  1
  In  In13  1  0.81745788  -0.01229498  0.16867772  1
  In  In14  1  0.68024289  0.35842171  0.01135762  1
  In  In15  1  0.32916823  0.66049262  0.32976046  1
  In  In16  1  0.68182884  0.00972611  0.66955787  1
  In  In17  1  0.84952314  -0.01925722  0.49270799  1
  In  In18  1  0.50291356  0.17121723  0.33117521  1
  In  In19  1  0.46527209  0.32715907  0.82116899  1
  In  In20  1  0.02091229  0.49900917  0.16547979  1
  In  In21  1  0.17516828  -0.00511757  0.84487958  1
  In  In22  1  0.85980148  0.51145686  0.30460265  1
  In  In23  1  0.66314899  0.32737946  0.66647605  1
  In  In24  1  0.66964523  0.65280105  0.31944953  1
  In  In25  1  0.29419175  0.63774978  0.01924603  1
  In  In26  1  0.00302810  0.81001948  0.17861020  1
  In  In27  1  0.65531657  0.83405273  0.48558287  1
  In  In28  1  0.35104260  0.02276849  -0.01371469  1
  In  In29  1  0.14273156  0.63487877  0.86076008  1
  In  In30  1  0.50387530  0.51054978  0.00574620  1
  In  In31  1  0.33485647  0.49326916  0.50968368  1
  In  In32  1  0.03312172  0.50534850  0.49916904  1
  In  In33  1  0.32519377  0.50173054  0.83161537  1
  In  In34  1  0.66300127  0.81941731  0.18604302  1
  In  In35  1  0.17361101  0.67294710  0.48274254  1
  In  In36  1  0.84054185  0.49194008  0.65218535  1
  In  In37  1  0.64855577  0.52350792  0.83790941  1
  In  In38  1  0.48247801  0.51613636  0.33261936  1
  In  In39  1  -0.03392314  -0.01563665  0.67975889  1
  In  In40  1  0.69497055  0.83016467  0.84338928  1
  In  In41  1  0.46832158  0.34998469  0.16479770  1
  In  In42  1  0.16926313  0.81636369  0.65575405  1
  In  In43  1  0.45883072  0.30727403  0.54624578  1
  In  In44  1  0.00571108  0.17792808  0.15442387  1
  In  In45  1  0.66617164  0.47374332  0.50898541  1
  In  In46  1  0.15455983  0.37516055  0.81493180  1
  In  In47  1  0.65398746  0.31374872  0.31614446  1
  In  In48  1  0.16240485  0.33328154  0.50657571  1
  In  In49  1  0.30640320  0.34633712  0.33561430  1
  In  In50  1  0.15272733  0.83428714  -0.00567600  1
  In  In51  1  0.70187703  -0.03558985  -0.02017441  1
  In  In52  1  0.85308582  0.34705474  0.49210935  1
  In  In53  1  0.47431380  0.83949519  0.00836145  1
  In  In54  1  0.32763770  -0.00305523  0.34624529  1
  In  In55  1  0.67717009  0.15808232  0.83527842  1
  In  In56  1  0.30304165  0.81851239  0.16365402  1
  In  In57  1  0.51770024  -0.00384327  0.50259809  1
  In  In58  1  0.67347771  0.65395454  0.00499745  1
  In  In59  1  0.85795861  0.47682565  0.02468302  1
  In  In60  1  -0.00316917  -0.02029973  0.33235329  1
  In  In61  1  0.83996528  0.16744819  0.35586030  1
  In  In62  1  0.48534630  0.19449345  -0.02829867  1
  In  In63  1  0.01480535  0.32369213  -0.00837278  1
  In  In64  1  0.49497560  0.01886314  0.82357601  1
  In  In65  1  0.16196312  -0.01391189  0.49713162  1
  In  In66  1  0.84089399  0.83826067  -0.01589680  1
  In  In67  1  0.85585239  0.34667506  0.84353861  1
  In  In68  1  0.49625525  0.00530707  0.17022350  1
  In  In69  1  0.01798445  0.66506027  0.64901378  1
  In  In70  1  0.83665899  0.67814148  0.52355787  1
  In  In71  1  0.16900554  0.18212964  0.67015194  1
  Te  Te72  1  0.10849050  0.10888498  0.06350967  1
  Te  Te73  1  0.07139691  0.08063117  0.41863032  1
  Te  Te74  1  0.08661980  0.06939500  0.74511592  1
  Te  Te75  1  0.10753850  0.40974138  0.07554095  1
  Te  Te76  1  0.10265224  0.41974532  0.40308782  1
  Te  Te77  1  0.04442780  0.41578254  0.72892299  1
  Te  Te78  1  0.09230307  0.73818671  0.08635052  1
  Te  Te79  1  0.05177652  0.74419245  0.44026355  1
  Te  Te80  1  0.08912380  0.74129198  0.75998386  1
  Te  Te81  1  0.42454648  0.10927776  0.08847287  1
  Te  Te82  1  0.42057346  0.08844273  0.42697315  1
  Te  Te83  1  0.39217817  0.11376800  0.76837186  1
  Te  Te84  1  0.39743759  0.42107580  0.05711289  1
  Te  Te85  1  0.42678995  0.40086258  0.41669160  1
  Te  Te86  1  0.43330526  0.44767837  0.74662130  1
  Te  Te87  1  0.40139487  0.73397950  0.08452215  1
  Te  Te88  1  0.42613764  0.75756487  0.38637453  1
  Te  Te89  1  0.39081109  0.75335646  0.73321745  1
  Te  Te90  1  0.76169291  0.08007996  0.06325582  1
  Te  Te91  1  0.74302708  0.06870537  0.41628020  1
  Te  Te92  1  0.77138743  0.10379778  0.73728899  1
  Te  Te93  1  0.75190783  0.43058041  0.11699838  1
  Te  Te94  1  0.74610924  0.40755354  0.39769955  1
  Te  Te95  1  0.74512299  0.42250018  0.75433142  1
  Te  Te96  1  0.75690378  0.75621131  0.08119301  1
  Te  Te97  1  0.75246584  0.74010049  0.41429857  1
  Te  Te98  1  0.73826310  0.72907758  0.74649876  1
  Te  Te99  1  0.10146666  0.25820946  0.24110914  1
  Te  Te100  1  0.07396825  0.23671760  0.57384034  1
  Te  Te101  1  0.11665179  0.25483983  0.90290904  1
  Te  Te102  1  0.10456698  0.59566608  0.24696006  1
  Te  Te103  1  0.12680045  0.57337017  0.59616916  1
  Te  Te104  1  0.03137690  0.59563002  0.95084827  1
  Te  Te105  1  0.10258170  0.89712851  0.26060880  1
  Te  Te106  1  0.06969757  0.91013745  0.59024248  1
  Te  Te107  1  0.06070525  0.91250244  0.90200025  1
  Te  Te108  1  0.39972633  0.24967674  0.25535709  1
  Te  Te109  1  0.38423597  0.23590506  0.65072705  1
  Te  Te110  1  0.37137679  0.28899991  0.93522262  1
  Te  Te111  1  0.39172704  0.56841984  0.22803192  1
  Te  Te112  1  0.39662804  0.59609101  0.59457873  1
  Te  Te113  1  0.41795522  0.60243294  0.91832579  1
  Te  Te114  1  0.40152918  0.91280836  0.23875839  1
  Te  Te115  1  0.40222167  0.92000447  0.56718225  1
  Te  Te116  1  0.40812710  0.91375612  0.89524632  1
  Te  Te117  1  0.76441462  0.24078092  0.24256709  1
  Te  Te118  1  0.76399288  0.25554464  0.57823344  1
  Te  Te119  1  0.75329374  0.26329316  0.91939311  1
  Te  Te120  1  0.75922328  0.58178256  0.22452338  1
  Te  Te121  1  0.73518995  0.58202614  0.59042087  1
  Te  Te122  1  0.76990778  0.56611960  0.92323591  1
  Te  Te123  1  0.74505056  0.90966270  0.26717834  1
  Te  Te124  1  0.74872413  0.90703144  0.58213785  1
  Te  Te125  1  0.80894989  0.93366287  0.86685146  1
  Te  Te126  1  0.29453053  0.24379601  0.06389884  1
  Te  Te127  1  0.26414137  0.23780073  0.43123659  1
  Te  Te128  1  0.25885845  0.29234233  0.72661838  1
  Te  Te129  1  0.23056584  0.58016238  0.13974227  1
  Te  Te130  1  0.24508061  0.56002466  0.40986166  1
  Te  Te131  1  0.22541681  0.57819928  0.75234127  1
  Te  Te132  1  0.25049742  0.93404733  0.06801906  1
  Te  Te133  1  0.24418947  0.89791300  0.41370426  1
  Te  Te134  1  0.25354204  0.90867196  0.74777558  1
  Te  Te135  1  0.57626265  0.26142720  0.08484315  1
  Te  Te136  1  0.58241647  0.25168567  0.43785284  1
  Te  Te137  1  0.57739085  0.24236420  0.75738493  1
  Te  Te138  1  0.58510116  0.58710056  0.10066550  1
  Te  Te139  1  0.58390328  0.57733385  0.43172833  1
  Te  Te140  1  0.58119242  0.60468727  0.73811062  1
  Te  Te141  1  0.58511693  0.91854310  0.07949160  1
  Te  Te142  1  0.56991314  0.91165825  0.39551525  1
  Te  Te143  1  0.59025106  0.91634486  0.76072744  1
  Te  Te144  1  0.91308546  0.25464574  0.07125297  1
  Te  Te145  1  0.93831983  0.26162267  0.40914217  1
  Te  Te146  1  0.92834116  0.26518868  0.74546791  1
  Te  Te147  1  0.93785838  0.59175148  0.07908168  1
  Te  Te148  1  0.90297904  0.56439389  0.44294305  1
  Te  Te149  1  0.92531605  0.58295060  0.73942902  1
  Te  Te150  1  0.93083473  0.92150218  0.08850206  1
  Te  Te151  1  0.92067899  0.88106923  0.40942716  1
  Te  Te152  1  0.89776798  0.86801707  0.73905105  1
  Te  Te153  1  0.25246414  0.08237766  0.24284709  1
  Te  Te154  1  0.24513882  0.08512738  0.57720863  1
  Te  Te155  1  0.27006962  0.10048694  0.88946754  1
  Te  Te156  1  0.26710787  0.44261823  0.22749639  1
  Te  Te157  1  0.25985148  0.40039871  0.59861440  1
  Te  Te158  1  0.21651914  0.45731624  0.92248634  1
  Te  Te159  1  0.22474730  0.74176371  0.26067926  1
  Te  Te160  1  0.26793782  0.74060540  0.57512353  1
  Te  Te161  1  0.24595457  0.73990008  0.91950963  1
  Te  Te162  1  0.59806788  0.07833727  0.25677269  1
  Te  Te163  1  0.56678784  0.09147611  0.61144367  1
  Te  Te164  1  0.58595061  0.07772078  0.93262311  1
  Te  Te165  1  0.57359663  0.42227337  0.24888342  1
  Te  Te166  1  0.55864995  0.41386601  0.59843502  1
  Te  Te167  1  0.57785164  0.40744431  0.90815297  1
  Te  Te168  1  0.56559551  0.73105229  0.24946983  1
  Te  Te169  1  0.57620150  0.75022778  0.58382787  1
  Te  Te170  1  0.58673585  0.75811226  0.93162529  1
  Te  Te171  1  0.92297326  0.08131638  0.24432010  1
  Te  Te172  1  0.91253478  0.07878768  0.58149304  1
  Te  Te173  1  0.91489026  0.10931595  0.92384700  1
  Te  Te174  1  0.93995833  0.40558225  0.24583798  1
  Te  Te175  1  0.95688837  0.40720298  0.59927690  1
  Te  Te176  1  0.95585895  0.44205044  0.90846574  1
  Te  Te177  1  0.90340959  0.73494714  0.25531990  1
  Te  Te178  1  0.90958641  0.76821301  0.61984827  1
  Te  Te179  1  0.93844430  0.73863892  0.93158509  1
