# generated using pymatgen
data_In2Te3
_symmetry_space_group_name_H-M   'P 1'
_cell_length_a   18.77054726
_cell_length_b   18.78711463
_cell_length_c   18.79356906
_cell_angle_alpha   90.04417989
_cell_angle_beta   89.97693766
_cell_angle_gamma   90.00631703
_symmetry_Int_Tables_number   1
_chemical_formula_structural   In2Te3
_chemical_formula_sum   'In72 Te108'
_cell_volume   6627.44476946
_cell_formula_units_Z   36
loop_
 _symmetry_equiv_pos_site_id
 _symmetry_equiv_pos_as_xyz
  1  'x, y, z'
loop_
 _atom_site_type_symbol
 _atom_site_label
 _atom_site_symmetry_multiplicity
 _atom_site_fract_x
 _atom_site_fract_y
 _atom_site_fract_z
 _atom_site_occupancy
  In  In0  1  0.16544909  0.30623844  0.16752060  1
  In  In1  1  0.34140102  0.84378112  0.49604989  1
  In  In2  1  0.32641526  0.34317487  0.68680447  1
  In  In3  1  -0.00516029  0.68286798  -0.00059084  1
  In  In4  1  -0.00086083  0.16034426  0.49393871  1
  In  In5  1  0.33433190  0.69094083  -0.04506303  1
  In  In6  1  0.83869783  0.16389867  0.33892945  1
  In  In7  1  0.50256840  -0.00194888  0.47797299  1
  In  In8  1  0.35788066  0.15134575  0.48388586  1
  In  In9  1  0.83397820  0.66843689  0.15668550  1
  In  In10  1  0.17070443  0.00073273  0.48857287  1
  In  In11  1  0.83405280  0.18497000  0.66244184  1
  In  In12  1  0.35237487  0.65586043  0.69695338  1
  In  In13  1  0.16819548  0.65566075  0.50357109  1
  In  In14  1  0.65735853  0.17887982  0.84168893  1
  In  In15  1  0.50613536  0.80257970  0.67668398  1
  In  In16  1  0.80714178  0.65491167  0.83572720  1
  In  In17  1  0.82866590  0.00270088  0.50472871  1
  In  In18  1  0.18833352  0.17414464  0.00282897  1
  In  In19  1  0.63848904  0.52015551  0.12137763  1
  In  In20  1  -0.00429362  0.32689314  0.00266109  1
  In  In21  1  0.80936134  0.01995800  0.13350752  1
  In  In22  1  0.80374548  0.63725709  0.50137007  1
  In  In23  1  0.67577425  0.83451283  0.14804802  1
  In  In24  1  0.66714995  0.31171778  0.33242527  1
  In  In25  1  0.15801835  0.49373354  0.35773631  1
  In  In26  1  -0.01327743  0.67613776  0.68264333  1
  In  In27  1  0.16412448  0.32899624  0.84503364  1
  In  In28  1  0.16611944  0.68031673  0.13187278  1
  In  In29  1  -0.02717158  0.51228966  0.17264862  1
  In  In30  1  0.33847345  0.30550839  0.31374256  1
  In  In31  1  0.12919444  0.13440262  0.70117573  1
  In  In32  1  0.49261791  0.48932526  0.34081405  1
  In  In33  1  0.67708218  0.50121139  0.52494092  1
  In  In34  1  0.81184612  0.33214455  0.16897248  1
  In  In35  1  0.17790391  -0.00124515  0.17060076  1
  In  In36  1  -0.00203485  0.50725348  0.84006912  1
  In  In37  1  0.83256293  -0.00767002  0.84607402  1
  In  In38  1  0.52163625  0.82396841  0.00001507  1
  In  In39  1  0.83817218  0.83515380  0.69353390  1
  In  In40  1  0.50625525  0.84345266  0.32769232  1
  In  In41  1  0.36642298  0.67965357  0.32812133  1
  In  In42  1  -0.00277766  0.85243140  0.51868368  1
  In  In43  1  0.33618190  0.15047443  0.15764689  1
  In  In44  1  0.52655083  0.33749524  0.13094754  1
  In  In45  1  0.49952141  -0.01273379  0.82097337  1
  In  In46  1  0.34152237  0.84949786  0.15988079  1
  In  In47  1  0.16854236  0.85405116  0.32774101  1
  In  In48  1  0.82613091  0.83604668  -0.01029624  1
  In  In49  1  0.83527644  0.47936051  0.32038679  1
  In  In50  1  0.31594829  -0.00650064  0.67985876  1
  In  In51  1  0.17427610  0.83307487  0.68849981  1
  In  In52  1  -0.00500739  0.17060122  0.16778119  1
  In  In53  1  -0.00222126  0.48708415  0.52725791  1
  In  In54  1  0.66084820  0.67867300  0.32949394  1
  In  In55  1  0.36334099  0.47495499  0.15223298  1
  In  In56  1  0.18632159  0.33702533  0.50568880  1
  In  In57  1  0.65425858  -0.01286261  0.66947830  1
  In  In58  1  0.83048264  0.84070653  0.31971186  1
  In  In59  1  0.69453918  0.17632363  0.50416174  1
  In  In60  1  -0.01316558  0.33472160  0.67344715  1
  In  In61  1  0.34194108  0.51326466  0.83367644  1
  In  In62  1  0.17451741  0.49621081  -0.00902174  1
  In  In63  1  0.52711283  0.34566551  0.49089167  1
  In  In64  1  0.01395906  -0.01213572  -0.04435011  1
  In  In65  1  0.50238395  0.16859317  -0.00995610  1
  In  In66  1  0.33432356  0.01109498  -0.00884776  1
  In  In67  1  -0.01313956  0.67938587  0.32104978  1
  In  In68  1  0.49180840  0.17947217  0.67771999  1
  In  In69  1  0.36784507  0.51800065  0.53442467  1
  In  In70  1  0.51822647  0.34661335  0.84813994  1
  In  In71  1  0.80639545  0.34473688  0.81830061  1
  Te  Te72  1  0.08655929  0.08567312  0.07688913  1
  Te  Te73  1  0.07391985  0.07154246  0.40293565  1
  Te  Te74  1  0.04951978  0.03989113  0.78090342  1
  Te  Te75  1  0.08456353  0.42031461  0.08955813  1
  Te  Te76  1  0.06654169  0.39364607  0.42626679  1
  Te  Te77  1  0.08792538  0.42083440  0.75131266  1
  Te  Te78  1  0.06997658  0.77985531  0.08366958  1
  Te  Te79  1  0.08368955  0.75354956  0.42190893  1
  Te  Te80  1  0.07202323  0.76074094  0.77068069  1
  Te  Te81  1  0.44062832  0.06586777  0.08744299  1
  Te  Te82  1  0.42862779  0.07679507  0.36968635  1
  Te  Te83  1  0.40371063  0.09097378  0.76352548  1
  Te  Te84  1  0.44829691  0.42534882  0.04213321  1
  Te  Te85  1  0.39341705  0.40467824  0.42132213  1
  Te  Te86  1  0.43600973  0.43032144  0.74501961  1
  Te  Te87  1  0.40951974  0.74361662  0.07972136  1
  Te  Te88  1  0.44477795  0.74765124  0.43828844  1
  Te  Te89  1  0.41455038  0.75732561  0.78448951  1
  Te  Te90  1  0.70062943  0.10745727  0.08691378  1
  Te  Te91  1  0.73430693  0.06953076  0.40546386  1
  Te  Te92  1  0.74405790  0.08514317  0.74413562  1
  Te  Te93  1  0.74449854  0.42742795  0.07726147  1
  Te  Te94  1  0.74773936  0.40713180  0.42040143  1
  Te  Te95  1  0.71763921  0.44726321  0.75581897  1
  Te  Te96  1  0.73736952  0.72866502  0.05640810  1
  Te  Te97  1  0.75084193  0.75910564  0.42184168  1
  Te  Te98  1  0.73112533  0.74843021  0.74810003  1
  Te  Te99  1  0.08001474  0.24139143  0.26724370  1
  Te  Te100  1  0.09206887  0.24640360  0.59538526  1
  Te  Te101  1  0.07258043  0.22990518  0.91482874  1
  Te  Te102  1  0.08905355  0.58928691  0.24724014  1
  Te  Te103  1  0.08573369  0.58286351  0.60701054  1
  Te  Te104  1  0.09440590  0.59978436  0.91399807  1
  Te  Te105  1  0.07191368  0.92331739  0.24328272  1
  Te  Te106  1  0.09307548  0.93264713  0.60191393  1
  Te  Te107  1  0.10133176  0.87747192  0.90816747  1
  Te  Te108  1  0.44874024  0.24532924  0.22760821  1
  Te  Te109  1  0.41069912  0.26277290  0.57767476  1
  Te  Te110  1  0.41994871  0.24598317  0.89559889  1
  Te  Te111  1  0.43839096  0.58378827  0.23349296  1
  Te  Te112  1  0.46723756  0.60582847  0.60913520  1
  Te  Te113  1  0.43850102  0.58846970  0.92148958  1
  Te  Te114  1  0.42219781  0.93556375  0.24734509  1
  Te  Te115  1  0.42834804  0.92473078  0.59936835  1
  Te  Te116  1  0.41667373  0.90489113  0.91792140  1
  Te  Te117  1  0.73576088  0.21613643  0.23574968  1
  Te  Te118  1  0.74105055  0.28036304  0.59660813  1
  Te  Te119  1  0.75153667  0.25680896  0.92464822  1
  Te  Te120  1  0.74627262  0.57967643  0.24463964  1
  Te  Te121  1  0.72634240  0.60344048  0.62338365  1
  Te  Te122  1  0.72333007  0.55711508  0.91361697  1
  Te  Te123  1  0.73752869  0.93448985  0.24547822  1
  Te  Te124  1  0.74794470  0.90121254  0.58568657  1
  Te  Te125  1  0.72688250  0.92327236  0.92332273  1
  Te  Te126  1  0.28231203  0.26936249  0.07703485  1
  Te  Te127  1  0.24642023  0.23176878  0.41182301  1
  Te  Te128  1  0.24011997  0.23538347  0.75070189  1
  Te  Te129  1  0.26866117  0.58071335  0.07802923  1
  Te  Te130  1  0.27456496  0.58628738  0.41669865  1
  Te  Te131  1  0.23819769  0.58812660  0.75987465  1
  Te  Te132  1  0.24200893  0.91039733  0.06397501  1
  Te  Te133  1  0.27633061  0.93786354  0.39626310  1
  Te  Te134  1  0.24943017  0.91604653  0.78768951  1
  Te  Te135  1  0.61817209  0.23950324  0.06136180  1
  Te  Te136  1  0.56705597  0.22122818  0.41042108  1
  Te  Te137  1  0.59752982  0.27052318  0.73498258  1
  Te  Te138  1  0.55399134  0.61075119  0.03862839  1
  Te  Te139  1  0.58993636  0.57700324  0.41790432  1
  Te  Te140  1  0.60997225  0.54817346  0.80592170  1
  Te  Te141  1  0.57685284  0.92826317  0.08966387  1
  Te  Te142  1  0.60284854  0.90692050  0.42076607  1
  Te  Te143  1  0.60029160  0.88505331  0.76814345  1
  Te  Te144  1  0.89482115  0.23980889  0.07603971  1
  Te  Te145  1  0.89764835  0.25344858  0.44028023  1
  Te  Te146  1  0.91886308  0.24352740  0.77408875  1
  Te  Te147  1  0.90037622  0.57373870  0.05534892  1
  Te  Te148  1  0.92160877  0.57487012  0.41220148  1
  Te  Te149  1  0.89818315  0.56867021  0.74348808  1
  Te  Te150  1  0.91468166  0.93183587  0.06711744  1
  Te  Te151  1  0.92261286  0.92642234  0.40925884  1
  Te  Te152  1  0.93752698  0.93073901  0.75346729  1
  Te  Te153  1  0.23951861  0.10164736  0.25755794  1
  Te  Te154  1  0.25190882  0.09467103  0.58383614  1
  Te  Te155  1  0.23993354  0.08037682  0.90062982  1
  Te  Te156  1  0.24917347  0.42082021  0.24995835  1
  Te  Te157  1  0.24937816  0.44168100  0.59772328  1
  Te  Te158  1  0.27258530  0.40469072  0.92001700  1
  Te  Te159  1  0.24924240  0.74410742  0.25280488  1
  Te  Te160  1  0.26147675  0.74716850  0.58497437  1
  Te  Te161  1  0.21628013  0.77126099  0.92297272  1
  Te  Te162  1  0.55188910  0.12512450  0.28762149  1
  Te  Te163  1  0.57857080  0.09216885  0.58350899  1
  Te  Te164  1  0.59030166  0.06341989  0.91616986  1
  Te  Te165  1  0.59411300  0.42007029  0.24795256  1
  Te  Te166  1  0.56505673  0.43522429  0.60006010  1
  Te  Te167  1  0.62737198  0.42862745  0.91166501  1
  Te  Te168  1  0.57450610  0.74800311  0.22794039  1
  Te  Te169  1  0.57592657  0.71700059  0.58067271  1
  Te  Te170  1  0.59708124  0.71517472  0.93291264  1
  Te  Te171  1  0.90984459  0.06934582  0.24334292  1
  Te  Te172  1  0.92213749  0.07782421  0.59813033  1
  Te  Te173  1  0.90257525  0.08343798  0.93994220  1
  Te  Te174  1  0.93301914  0.38609095  0.24908308  1
  Te  Te175  1  0.88953770  0.41797962  0.59891642  1
  Te  Te176  1  0.90608579  0.41617332  0.91874610  1
  Te  Te177  1  0.92484459  0.77331765  0.21905234  1
  Te  Te178  1  0.90714836  0.74003742  0.56838163  1
  Te  Te179  1  0.91099739  0.75375768  0.89363758  1
