# generated using pymatgen
data_In2Te3
_symmetry_space_group_name_H-M   'P 1'
_cell_length_a   19.00399058
_cell_length_b   18.98882580
_cell_length_c   18.98176564
_cell_angle_alpha   89.69871961
_cell_angle_beta   90.02948162
_cell_angle_gamma   89.96920732
_symmetry_Int_Tables_number   1
_chemical_formula_structural   In2Te3
_chemical_formula_sum   'In72 Te108'
_cell_volume   6849.72914699
_cell_formula_units_Z   36
loop_
 _symmetry_equiv_pos_site_id
 _symmetry_equiv_pos_as_xyz
  1  'x, y, z'
loop_
 _atom_site_type_symbol
 _atom_site_label
 _atom_site_symmetry_multiplicity
 _atom_site_fract_x
 _atom_site_fract_y
 _atom_site_fract_z
 _atom_site_occupancy
  In  In0  1  -0.00335015  0.86151211  0.85542326  1
  In  In1  1  0.52188223  -0.02324868  0.47542411  1
  In  In2  1  0.17011408  0.68163303  0.52617522  1
  In  In3  1  0.19013190  0.34348490  0.50893311  1
  In  In4  1  0.31548262  0.13130815  0.85404838  1
  In  In5  1  0.68403176  0.32968266  0.00974742  1
  In  In6  1  0.82785894  -0.00301941  0.84591755  1
  In  In7  1  0.50510695  0.18325344  0.67608599  1
  In  In8  1  0.00268335  0.67624618  0.01550752  1
  In  In9  1  0.32872313  0.34435167  0.72198182  1
  In  In10  1  0.84113347  0.53433736  -0.00635605  1
  In  In11  1  -0.01603801  0.66807141  0.65866330  1
  In  In12  1  0.66868883  -0.02255024  0.00650844  1
  In  In13  1  0.35618553  0.69639277  0.70155391  1
  In  In14  1  0.07119637  0.32195537  -0.02891914  1
  In  In15  1  0.17818744  -0.00994571  0.15010186  1
  In  In16  1  0.49029341  0.49732445  0.29926514  1
  In  In17  1  0.83255368  0.16814981  0.33948488  1
  In  In18  1  0.34256909  0.50385576  0.50651370  1
  In  In19  1  0.81448823  0.66685270  0.81638140  1
  In  In20  1  0.86300981  0.33478968  0.16591492  1
  In  In21  1  0.31948301  0.31377628  0.30965609  1
  In  In22  1  0.50334667  0.12848533  0.31479869  1
  In  In23  1  0.66739122  0.31633093  0.65214441  1
  In  In24  1  0.14778679  0.13550764  0.69340371  1
  In  In25  1  0.34702407  0.67393265  0.31458425  1
  In  In26  1  0.64487419  0.66387753  0.64638717  1
  In  In27  1  0.18966778  0.68336383  0.14237041  1
  In  In28  1  0.33547056  0.69033944  -0.02885174  1
  In  In29  1  0.49490488  0.84771551  0.00011945  1
  In  In30  1  0.35583777  -0.02529366  0.67810413  1
  In  In31  1  0.83494997  0.32771528  0.81940276  1
  In  In32  1  0.17478585  0.66082359  0.83930296  1
  In  In33  1  0.83322145  0.00698437  0.49344755  1
  In  In34  1  0.16835147  0.13677815  0.30663031  1
  In  In35  1  0.48090967  0.49415963  0.68979707  1
  In  In36  1  0.00518512  0.81411450  0.17355784  1
  In  In37  1  0.67307166  0.15308051  0.16604678  1
  In  In38  1  0.81014621  0.80027810  0.02386879  1
  In  In39  1  0.17270791  0.01698359  0.51287376  1
  In  In40  1  0.65042010  0.16115040  0.83063954  1
  In  In41  1  0.44796702  0.11332536  0.00225190  1
  In  In42  1  0.17194638  0.82837055  0.68850675  1
  In  In43  1  0.16508562  0.87019388  0.33815791  1
  In  In44  1  0.36411338  0.87403540  0.16403544  1
  In  In45  1  0.00675069  0.01583124  0.01029586  1
  In  In46  1  0.49565729  0.52987481  0.00093720  1
  In  In47  1  0.67195534  0.49283660  0.83221366  1
  In  In48  1  0.63679367  -0.01983942  0.68284374  1
  In  In49  1  0.80204986  0.82881215  0.34912453  1
  In  In50  1  -0.00870458  0.66476270  0.33025915  1
  In  In51  1  0.64340207  0.51375362  0.15519629  1
  In  In52  1  0.16954838  0.50607918  0.31801964  1
  In  In53  1  0.65428554  0.67700155  0.32186090  1
  In  In54  1  0.00053767  0.16630402  0.50490534  1
  In  In55  1  0.82061842  0.84302375  0.65261796  1
  In  In56  1  0.01210926  0.51497766  0.49840948  1
  In  In57  1  0.17680899  0.32956835  0.14589191  1
  In  In58  1  0.01739053  0.33417124  0.70162481  1
  In  In59  1  0.36728159  0.16851804  0.50652035  1
  In  In60  1  0.67771989  0.16238771  0.48862422  1
  In  In61  1  0.30764060  0.32357940  -0.02113449  1
  In  In62  1  0.83126406  -0.01557843  0.17215493  1
  In  In63  1  0.00788246  0.85902253  0.50520246  1
  In  In64  1  0.00975001  0.50991487  0.83864228  1
  In  In65  1  0.83002513  0.47593028  0.33452383  1
  In  In66  1  0.51469564  0.33348865  0.48865849  1
  In  In67  1  0.00657208  0.18768050  0.16436354  1
  In  In68  1  0.84686076  0.34150494  0.50703395  1
  In  In69  1  0.50524074  0.69815172  0.48607518  1
  In  In70  1  0.68249490  0.51969442  0.48933402  1
  In  In71  1  0.48636002  0.32826088  0.14079545  1
  Te  Te72  1  0.10387891  0.10600509  0.08289411  1
  Te  Te73  1  0.07661466  0.07516791  0.41035443  1
  Te  Te74  1  0.05848410  0.08752409  0.80077571  1
  Te  Te75  1  0.08017699  0.41869425  0.08067501  1
  Te  Te76  1  0.09475069  0.41765272  0.41691757  1
  Te  Te77  1  0.11168121  0.42093143  0.77551052  1
  Te  Te78  1  0.10178643  0.77996421  0.06252465  1
  Te  Te79  1  0.08403766  0.74991875  0.41803526  1
  Te  Te80  1  0.05811006  0.75170687  0.76045125  1
  Te  Te81  1  0.41585886  0.00592302  0.09711581  1
  Te  Te82  1  0.40909633  0.05932783  0.41294610  1
  Te  Te83  1  0.42731909  0.08500126  0.75651312  1
  Te  Te84  1  0.40357484  0.41864617  0.05531862  1
  Te  Te85  1  0.40304484  0.40328696  0.40786001  1
  Te  Te86  1  0.40544854  0.43822809  0.80499661  1
  Te  Te87  1  0.41354130  0.75454796  0.08696142  1
  Te  Te88  1  0.38775725  0.75984775  0.42443362  1
  Te  Te89  1  0.43249645  0.79208089  0.78778667  1
  Te  Te90  1  0.76429960  0.07738571  0.07161865  1
  Te  Te91  1  0.73434775  0.06447327  0.38991716  1
  Te  Te92  1  0.73733085  0.07415658  0.74348900  1
  Te  Te93  1  0.76214992  0.43268968  0.08783351  1
  Te  Te94  1  0.73320073  0.39523888  0.42147156  1
  Te  Te95  1  0.75217656  0.41681906  0.72832971  1
  Te  Te96  1  0.69756740  0.74479785  0.09931406  1
  Te  Te97  1  0.72676407  0.73580700  0.43413492  1
  Te  Te98  1  0.72781397  0.76074320  0.73824132  1
  Te  Te99  1  0.09810202  0.26036668  0.26028380  1
  Te  Te100  1  0.10166717  0.24962118  0.59172063  1
  Te  Te101  1  0.10516831  0.20857430  0.88247769  1
  Te  Te102  1  0.09073486  0.60415064  0.23437482  1
  Te  Te103  1  0.09549422  0.57859321  0.60860650  1
  Te  Te104  1  0.09378300  0.58220533  0.94120739  1
  Te  Te105  1  0.06716291  0.93237498  0.24157076  1
  Te  Te106  1  0.08854795  0.93143732  0.60758632  1
  Te  Te107  1  0.09982627  0.95431615  0.90826762  1
  Te  Te108  1  0.41668167  0.22925680  0.23336921  1
  Te  Te109  1  0.41297974  0.28285089  0.59994560  1
  Te  Te110  1  0.41360425  0.23217256  0.91560355  1
  Te  Te111  1  0.40648105  0.58347597  0.21795376  1
  Te  Te112  1  0.42342998  0.59901007  0.59169270  1
  Te  Te113  1  0.41035132  0.58657161  0.89370964  1
  Te  Te114  1  0.45671078  0.89103092  0.28123155  1
  Te  Te115  1  0.45186467  0.90598734  0.58787631  1
  Te  Te116  1  0.43506455  0.91842423  0.88049239  1
  Te  Te117  1  0.75645571  0.25522188  0.24147740  1
  Te  Te118  1  0.77193302  0.23166793  0.58328821  1
  Te  Te119  1  0.75281362  0.23846693  0.91177919  1
  Te  Te120  1  0.74021872  0.57364629  0.25481744  1
  Te  Te121  1  0.75805002  0.58758625  0.59205611  1
  Te  Te122  1  0.72682854  0.60310955  0.92241884  1
  Te  Te123  1  0.73217455  0.90196281  0.24109018  1
  Te  Te124  1  0.72539712  0.92766704  0.57094578  1
  Te  Te125  1  0.74787286  0.88719114  0.91425605  1
  Te  Te126  1  0.26364288  0.23051708  0.08297768  1
  Te  Te127  1  0.25444218  0.23277357  0.42314072  1
  Te  Te128  1  0.23541320  0.23537500  0.77156028  1
  Te  Te129  1  0.25877471  0.59214593  0.05376697  1
  Te  Te130  1  0.24389726  0.58748737  0.42492964  1
  Te  Te131  1  0.25597636  0.59602838  0.73724605  1
  Te  Te132  1  0.27151451  0.92409005  0.05028262  1
  Te  Te133  1  0.25460650  0.91999908  0.44117069  1
  Te  Te134  1  0.24471323  0.93119612  0.76309593  1
  Te  Te135  1  0.58237096  0.23419929  0.07031747  1
  Te  Te136  1  0.58027378  0.23507336  0.39715860  1
  Te  Te137  1  0.57589562  0.27923099  0.76832228  1
  Te  Te138  1  0.57926457  0.62474897  0.08086081  1
  Te  Te139  1  0.55789210  0.56897336  0.41379507  1
  Te  Te140  1  0.57706329  0.58750709  0.75987917  1
  Te  Te141  1  0.60988658  0.87102121  0.09775755  1
  Te  Te142  1  0.57637789  0.87665715  0.37978937  1
  Te  Te143  1  0.56381839  0.90910598  0.79188848  1
  Te  Te144  1  0.93722142  0.26504877  0.05779433  1
  Te  Te145  1  0.92978544  0.26053628  0.40959377  1
  Te  Te146  1  0.91886843  0.23624981  0.74338187  1
  Te  Te147  1  0.90923838  0.60400014  0.10177797  1
  Te  Te148  1  0.90183375  0.58214793  0.41999332  1
  Te  Te149  1  0.90602205  0.57083876  0.74488154  1
  Te  Te150  1  0.91651571  0.89988408  0.07148126  1
  Te  Te151  1  0.91607548  0.91944434  0.40221410  1
  Te  Te152  1  0.91283292  0.92150179  0.74349348  1
  Te  Te153  1  0.26947670  0.05172540  0.24842714  1
  Te  Te154  1  0.27185900  0.09738531  0.60183458  1
  Te  Te155  1  0.24880123  0.03681808  0.94455663  1
  Te  Te156  1  0.26439423  0.42920602  0.23044639  1
  Te  Te157  1  0.26010874  0.42945818  0.61001133  1
  Te  Te158  1  0.19406084  0.39556539  0.91475495  1
  Te  Te159  1  0.24564195  0.77688290  0.25026755  1
  Te  Te160  1  0.27200957  0.76944730  0.59228706  1
  Te  Te161  1  0.24412992  0.77683437  0.89291778  1
  Te  Te162  1  0.57920546  0.05278893  0.21687771  1
  Te  Te163  1  0.57443917  0.09269752  0.57695649  1
  Te  Te164  1  0.57707953  0.07375912  0.93084643  1
  Te  Te165  1  0.58326341  0.39846815  0.23521145  1
  Te  Te166  1  0.58027604  0.42835681  0.58718019  1
  Te  Te167  1  0.58920753  0.42242707  0.93735065  1
  Te  Te168  1  0.54305281  0.76128680  0.27389122  1
  Te  Te169  1  0.56012633  0.77694979  0.59846687  1
  Te  Te170  1  0.55479254  0.77260656  0.88387562  1
  Te  Te171  1  0.91713369  0.09116647  0.24083357  1
  Te  Te172  1  0.92176208  0.07502714  0.58658547  1
  Te  Te173  1  0.91553263  0.08913504  0.91939118  1
  Te  Te174  1  0.93808617  0.42261658  0.25405951  1
  Te  Te175  1  0.94195268  0.41864405  0.59308831  1
  Te  Te176  1  0.90726484  0.42539543  0.91244716  1
  Te  Te177  1  0.89390865  0.74874766  0.25064674  1
  Te  Te178  1  0.90933914  0.75845880  0.56298716  1
  Te  Te179  1  0.90959718  0.74201091  0.91014263  1
