# generated using pymatgen
data_In2Te3
_symmetry_space_group_name_H-M   'P 1'
_cell_length_a   18.73528852
_cell_length_b   18.74925460
_cell_length_c   18.74859987
_cell_angle_alpha   90.00059361
_cell_angle_beta   90.00733667
_cell_angle_gamma   90.05551895
_symmetry_Int_Tables_number   1
_chemical_formula_structural   In2Te3
_chemical_formula_sum   'In72 Te108'
_cell_volume   6585.86804805
_cell_formula_units_Z   36
loop_
 _symmetry_equiv_pos_site_id
 _symmetry_equiv_pos_as_xyz
  1  'x, y, z'
loop_
 _atom_site_type_symbol
 _atom_site_label
 _atom_site_symmetry_multiplicity
 _atom_site_fract_x
 _atom_site_fract_y
 _atom_site_fract_z
 _atom_site_occupancy
  In  In0  1  0.32061268  0.47661669  0.84202195  1
  In  In1  1  0.82885109  -0.02152166  0.50016416  1
  In  In2  1  0.82706050  0.66445689  0.85784911  1
  In  In3  1  0.15123296  0.33538485  0.15085872  1
  In  In4  1  0.32640437  0.82453393  0.15715824  1
  In  In5  1  0.85467653  0.33056647  0.17107208  1
  In  In6  1  0.17129539  0.00904339  0.82452061  1
  In  In7  1  0.01287860  0.50022486  0.83924016  1
  In  In8  1  0.83147537  0.51577968  0.00446703  1
  In  In9  1  0.17686582  0.18990978  0.69166891  1
  In  In10  1  0.50846881  -0.01783011  0.49460234  1
  In  In11  1  0.51622428  0.49480104  0.00346779  1
  In  In12  1  0.67243931  0.16258878  0.82378820  1
  In  In13  1  0.49137565  0.33019413  0.51403819  1
  In  In14  1  0.13906110  0.82902749  0.00202696  1
  In  In15  1  0.66375643  0.84364372  0.83845222  1
  In  In16  1  0.68075130  0.82839260  0.16436740  1
  In  In17  1  0.84243097  0.48541905  0.64939408  1
  In  In18  1  -0.00804415  0.16938266  0.17544001  1
  In  In19  1  0.35772157  0.50169683  0.16890798  1
  In  In20  1  0.69245444  -0.03202750  0.32624475  1
  In  In21  1  0.15966465  0.48857549  -0.00698287  1
  In  In22  1  0.13860888  0.18506136  -0.00323577  1
  In  In23  1  0.85718358  0.02689250  0.85374997  1
  In  In24  1  0.47642352  0.51628936  0.67844032  1
  In  In25  1  0.17852692  0.83729650  0.65097092  1
  In  In26  1  0.15376385  0.49771291  0.35544219  1
  In  In27  1  0.50853296  0.53132756  0.33102536  1
  In  In28  1  0.49979031  0.17248522  0.32980127  1
  In  In29  1  0.14965978  0.83298141  0.34998558  1
  In  In30  1  0.70076390  0.36335980  0.35183005  1
  In  In31  1  0.67108657  0.52879779  0.16513639  1
  In  In32  1  0.35889586  -0.00783684  0.65011751  1
  In  In33  1  0.15778043  -0.01858203  0.49535035  1
  In  In34  1  0.33820815  0.67850287  0.66273499  1
  In  In35  1  0.30570284  -0.02002621  0.31484105  1
  In  In36  1  0.70514817  0.69748105  0.34110016  1
  In  In37  1  0.51074868  0.68058729  0.81886914  1
  In  In38  1  0.14091555  0.48837666  0.64917278  1
  In  In39  1  0.17396035  0.65203487  0.85069604  1
  In  In40  1  0.15458998  0.67866566  0.18087220  1
  In  In41  1  0.31371837  0.51161723  0.51397668  1
  In  In42  1  0.84200036  0.83165646  0.65047609  1
  In  In43  1  0.00330241  0.18690023  0.49983299  1
  In  In44  1  0.49988623  -0.01601439  0.82691850  1
  In  In45  1  0.15525993  0.01915963  0.19029670  1
  In  In46  1  0.68222775  0.16042721  0.51548769  1
  In  In47  1  0.03112505  -0.00299199  0.66365500  1
  In  In48  1  0.47628032  0.19676703  -0.02962759  1
  In  In49  1  0.31489433  0.32972501  0.35093204  1
  In  In50  1  -0.02429633  0.66069889  0.34406361  1
  In  In51  1  0.66373935  0.33801909  -0.02115902  1
  In  In52  1  0.83553755  0.16868981  0.68350451  1
  In  In53  1  -0.00933068  0.34050173  0.33974102  1
  In  In54  1  0.64439906  0.68745604  0.64223428  1
  In  In55  1  0.68426983  0.00142660  0.00929962  1
  In  In56  1  0.48674547  0.16737280  0.66525059  1
  In  In57  1  0.68005135  0.32750116  0.67025298  1
  In  In58  1  0.48467772  0.80128773  0.35808918  1
  In  In59  1  0.83727603  0.66806299  0.16976846  1
  In  In60  1  0.33908166  -0.00949127  -0.02092411  1
  In  In61  1  0.31041694  0.15432623  0.14863598  1
  In  In62  1  0.49367027  0.35464073  0.14763814  1
  In  In63  1  0.68681811  0.49644516  0.48401624  1
  In  In64  1  -0.02008666  -0.00169836  0.34001115  1
  In  In65  1  0.70457233  0.16338971  0.14258780  1
  In  In66  1  0.31018581  0.17062381  0.49269962  1
  In  In67  1  0.83297978  0.32403024  0.83762963  1
  In  In68  1  0.52758837  -0.00874539  0.16131256  1
  In  In69  1  -0.00547654  0.66821223  0.64488963  1
  In  In70  1  -0.01024622  0.81156988  0.84868041  1
  In  In71  1  0.33176501  0.67480005  -0.00134836  1
  Te  Te72  1  0.06903933  0.07443287  0.07860154  1
  Te  Te73  1  0.08337421  0.08348384  0.41265533  1
  Te  Te74  1  0.06815679  0.10593287  0.76471657  1
  Te  Te75  1  0.05695599  0.41672062  0.07293500  1
  Te  Te76  1  0.05940416  0.42342219  0.44861752  1
  Te  Te77  1  0.07849399  0.39948331  0.75150122  1
  Te  Te78  1  0.05192198  0.75514127  0.10062100  1
  Te  Te79  1  0.08081601  0.72817675  0.42898582  1
  Te  Te80  1  0.09023329  0.74669057  0.75088359  1
  Te  Te81  1  0.42652908  0.07879462  0.08289650  1
  Te  Te82  1  0.41453752  0.08018945  0.42020601  1
  Te  Te83  1  0.40351070  0.08604729  0.76414292  1
  Te  Te84  1  0.39276790  0.41401896  0.04795751  1
  Te  Te85  1  0.42294901  0.42117898  0.41079610  1
  Te  Te86  1  0.41353650  0.40266821  0.74981959  1
  Te  Te87  1  0.42898457  0.75012808  0.08265394  1
  Te  Te88  1  0.41319362  0.72213607  0.46045079  1
  Te  Te89  1  0.41554847  0.76969790  0.74918672  1
  Te  Te90  1  0.79571572  0.05608296  0.09341789  1
  Te  Te91  1  0.75824085  0.08122913  0.41010714  1
  Te  Te92  1  0.74936772  0.05908613  0.74516876  1
  Te  Te93  1  0.73716516  0.40898144  0.09326452  1
  Te  Te94  1  0.81605245  0.42784635  0.43370422  1
  Te  Te95  1  0.75038971  0.42864816  0.76068009  1
  Te  Te96  1  0.75428406  0.74057918  0.06874149  1
  Te  Te97  1  0.78687433  0.77824474  0.43730345  1
  Te  Te98  1  0.75609387  0.74378267  0.74765577  1
  Te  Te99  1  0.08949056  0.25052523  0.26005210  1
  Te  Te100  1  0.08421853  0.26064222  0.59913068  1
  Te  Te101  1  0.04036092  0.23532533  0.89747151  1
  Te  Te102  1  0.07116120  0.57208774  0.25062271  1
  Te  Te103  1  0.09024624  0.59509248  0.55810518  1
  Te  Te104  1  0.06357516  0.60362398  0.94091649  1
  Te  Te105  1  0.06771281  0.90889704  0.24648225  1
  Te  Te106  1  0.05953182  0.88585144  0.56314188  1
  Te  Te107  1  0.06868278  0.93415760  0.91129698  1
  Te  Te108  1  0.40814163  0.25573231  0.23876749  1
  Te  Te109  1  0.38422398  0.25763021  0.59609269  1
  Te  Te110  1  0.39522701  0.26833499  0.87217720  1
  Te  Te111  1  0.41798875  0.61187158  0.24612521  1
  Te  Te112  1  0.43756916  0.59704411  0.55532179  1
  Te  Te113  1  0.41217692  0.58481558  0.90413009  1
  Te  Te114  1  0.43260833  0.91627013  0.25855182  1
  Te  Te115  1  0.43417238  0.87997137  0.58163164  1
  Te  Te116  1  0.42898445  0.89122450  0.91950619  1
  Te  Te117  1  0.75493020  0.25085868  0.25874762  1
  Te  Te118  1  0.77760584  0.26501011  0.57243210  1
  Te  Te119  1  0.75811721  0.22713432  0.93238521  1
  Te  Te120  1  0.76466870  0.57260153  0.27529826  1
  Te  Te121  1  0.75372416  0.59256688  0.58358328  1
  Te  Te122  1  0.72490610  0.58019375  0.92483037  1
  Te  Te123  1  0.78862970  0.90800661  0.22992766  1
  Te  Te124  1  0.73283795  0.91444586  0.59307413  1
  Te  Te125  1  0.77429162  0.91599945  0.91993909  1
  Te  Te126  1  0.25662180  0.26629209  0.06319936  1
  Te  Te127  1  0.21232198  0.26638256  0.43595347  1
  Te  Te128  1  0.25643720  0.26043740  0.79506877  1
  Te  Te129  1  0.23911874  0.58752058  0.08745111  1
  Te  Te130  1  0.26505347  0.58615307  0.39598582  1
  Te  Te131  1  0.24856837  0.57632703  0.74096891  1
  Te  Te132  1  0.23970178  0.93014657  0.08861038  1
  Te  Te133  1  0.26999892  0.89789252  0.43535637  1
  Te  Te134  1  0.26515623  0.91551035  0.74964092  1
  Te  Te135  1  0.58045975  0.24123081  0.08598403  1
  Te  Te136  1  0.59330372  0.25594196  0.42364643  1
  Te  Te137  1  0.57449297  0.25650433  0.75519750  1
  Te  Te138  1  0.56523448  0.60125843  0.09339213  1
  Te  Te139  1  0.60349580  0.60876738  0.42136637  1
  Te  Te140  1  0.59807646  0.57997983  0.74339534  1
  Te  Te141  1  0.58498447  0.89629827  0.06028086  1
  Te  Te142  1  0.60238867  0.88791101  0.41837091  1
  Te  Te143  1  0.58904009  0.91414496  0.73191275  1
  Te  Te144  1  0.92053396  0.24512613  0.06720137  1
  Te  Te145  1  0.90499815  0.23488346  0.40108504  1
  Te  Te146  1  0.92620107  0.27410558  0.73302017  1
  Te  Te147  1  0.92820604  0.57113113  0.10085627  1
  Te  Te148  1  0.89081033  0.56547956  0.42154381  1
  Te  Te149  1  0.91780109  0.58646704  0.75219837  1
  Te  Te150  1  0.96847358  0.87480894  0.03787789  1
  Te  Te151  1  0.90304723  0.88466920  0.40709537  1
  Te  Te152  1  0.92535018  0.91695970  0.75218175  1
  Te  Te153  1  0.24159256  0.11203563  0.27828912  1
  Te  Te154  1  0.23502810  0.07232471  0.59555952  1
  Te  Te155  1  0.24739888  0.09716178  0.92362257  1
  Te  Te156  1  0.24818946  0.42090883  0.24290210  1
  Te  Te157  1  0.24859702  0.40385071  0.58962983  1
  Te  Te158  1  0.20305536  0.39061250  0.88568007  1
  Te  Te159  1  0.25594534  0.75100464  0.26978559  1
  Te  Te160  1  0.24516013  0.73808580  0.56344283  1
  Te  Te161  1  0.24996340  0.77066164  0.91056199  1
  Te  Te162  1  0.60473486  0.08634620  0.25359564  1
  Te  Te163  1  0.58420776  0.07340181  0.59355254  1
  Te  Te164  1  0.58368586  0.08369397  0.92320536  1
  Te  Te165  1  0.58537488  0.41409430  0.25703030  1
  Te  Te166  1  0.58916080  0.42426084  0.58620120  1
  Te  Te167  1  0.57310158  0.41465313  0.89311409  1
  Te  Te168  1  0.58794116  0.74770761  0.25543884  1
  Te  Te169  1  0.55229227  0.77336006  0.56526096  1
  Te  Te170  1  0.60394160  0.73533051  0.92087867  1
  Te  Te171  1  0.89746905  0.07082596  0.23854141  1
  Te  Te172  1  0.92190575  0.07457590  0.58556468  1
  Te  Te173  1  0.92905807  0.13549753  0.92932896  1
  Te  Te174  1  0.92602257  0.43634006  0.24524248  1
  Te  Te175  1  0.94428323  0.43052346  0.55706153  1
  Te  Te176  1  0.91796935  0.41602907  0.92641485  1
  Te  Te177  1  0.90971378  0.76518415  0.25814899  1
  Te  Te178  1  0.89406252  0.73169752  0.54916697  1
  Te  Te179  1  0.89936610  0.75546244  0.95803429  1
