# generated using pymatgen
data_In2Te3
_symmetry_space_group_name_H-M   'P 1'
_cell_length_a   18.94671782
_cell_length_b   18.91190949
_cell_length_c   18.94011846
_cell_angle_alpha   90.25191185
_cell_angle_beta   90.09266942
_cell_angle_gamma   89.94577895
_symmetry_Int_Tables_number   1
_chemical_formula_structural   In2Te3
_chemical_formula_sum   'In72 Te108'
_cell_volume   6786.51950523
_cell_formula_units_Z   36
loop_
 _symmetry_equiv_pos_site_id
 _symmetry_equiv_pos_as_xyz
  1  'x, y, z'
loop_
 _atom_site_type_symbol
 _atom_site_label
 _atom_site_symmetry_multiplicity
 _atom_site_fract_x
 _atom_site_fract_y
 _atom_site_fract_z
 _atom_site_occupancy
  In  In0  1  0.02935839  0.63416136  0.33846544  1
  In  In1  1  0.50820143  0.66201770  0.15882902  1
  In  In2  1  0.83188875  0.50262634  0.00813024  1
  In  In3  1  -0.01418658  0.02237929  0.00367612  1
  In  In4  1  0.48963175  0.83419524  0.34831950  1
  In  In5  1  0.83892654  0.18009210  -0.01854430  1
  In  In6  1  0.64120668  -0.01658291  0.30414983  1
  In  In7  1  0.34493206  0.34584783  0.70160380  1
  In  In8  1  -0.01357082  0.51303015  0.86458699  1
  In  In9  1  0.15418860  0.33067147  0.87751954  1
  In  In10  1  0.82943025  0.14250490  0.66364630  1
  In  In11  1  0.65797043  0.50655314  0.51184832  1
  In  In12  1  0.83841271  0.67656096  0.80614724  1
  In  In13  1  0.17029804  0.83782961  0.33168722  1
  In  In14  1  0.65648714  0.32157763  0.33747970  1
  In  In15  1  0.48239156  0.18314993  0.32399314  1
  In  In16  1  0.33449617  -0.03210990  0.66543431  1
  In  In17  1  0.50549064  0.51572015  -0.01951622  1
  In  In18  1  0.33095487  0.33059790  -0.00007413  1
  In  In19  1  0.29949967  0.47396983  0.17143875  1
  In  In20  1  0.34181486  0.14801828  0.51201506  1
  In  In21  1  0.49487955  0.00589658  0.81878571  1
  In  In22  1  0.01385315  -0.01072742  0.32903271  1
  In  In23  1  0.82487734  0.35879641  0.84164426  1
  In  In24  1  0.03634285  0.18885535  0.17256739  1
  In  In25  1  0.49152916  0.81219522  0.65512319  1
  In  In26  1  0.67651402  0.17657208  0.14152814  1
  In  In27  1  0.82446166  0.35002298  0.16205781  1
  In  In28  1  0.66149967  0.82986923  0.14200166  1
  In  In29  1  0.35910160  0.82965917  0.14727524  1
  In  In30  1  0.65576809  0.65234161  0.69931876  1
  In  In31  1  0.62469951  -0.06810588  -0.03417461  1
  In  In32  1  0.00561994  0.66609735  0.65478338  1
  In  In33  1  0.82770754  0.00975305  0.16661120  1
  In  In34  1  0.66441179  0.67400471  -0.02814603  1
  In  In35  1  0.82534941  0.47581246  0.63639280  1
  In  In36  1  -0.01295130  0.66779636  0.02710542  1
  In  In37  1  0.18020913  0.65894144  0.86471808  1
  In  In38  1  0.16821687  -0.02176574  0.50041285  1
  In  In39  1  0.47841508  0.46613183  0.33167002  1
  In  In40  1  0.68016534  0.64990090  0.34227989  1
  In  In41  1  0.17099168  0.17627759  0.31523432  1
  In  In42  1  0.16419552  0.47563146  0.65302136  1
  In  In43  1  0.32490800  0.01358146  0.33267423  1
  In  In44  1  0.16924571  0.64868644  0.18058887  1
  In  In45  1  0.31671341  0.19320761  0.84963515  1
  In  In46  1  0.00689712  0.33893315  0.65321724  1
  In  In47  1  0.34605110  0.65504737  0.35165764  1
  In  In48  1  0.83720380  0.79400165  0.34653160  1
  In  In49  1  0.50038359  0.32604755  0.17366153  1
  In  In50  1  0.18084023  0.79538988  0.68706460  1
  In  In51  1  0.84947257  0.51489018  0.33816485  1
  In  In52  1  0.81792067  0.83985842  -0.00906863  1
  In  In53  1  0.85665991  0.31627322  0.47868636  1
  In  In54  1  0.64939600  0.18138026  0.49539917  1
  In  In55  1  0.35527393  0.52665097  0.83138883  1
  In  In56  1  0.35984471  -0.00390158  0.00475340  1
  In  In57  1  0.01419223  0.82933995  0.19311571  1
  In  In58  1  0.14971065  0.02654988  0.84285474  1
  In  In59  1  0.23478085  0.63456580  0.51755052  1
  In  In60  1  0.34206410  0.79571728  0.81582089  1
  In  In61  1  0.85607850  0.17473478  0.37009322  1
  In  In62  1  -0.01341308  0.18516848  0.50229264  1
  In  In63  1  0.50726829  0.16342625  0.67709801  1
  In  In64  1  -0.00293963  0.18520978  0.82979993  1
  In  In65  1  -0.00469912  0.82911044  0.51580131  1
  In  In66  1  0.47324228  0.16994581  -0.00814927  1
  In  In67  1  -0.02584653  0.86588658  0.80285797  1
  In  In68  1  0.67283975  0.00317765  0.67732054  1
  In  In69  1  0.63879855  0.34458126  0.65930899  1
  In  In70  1  0.81235606  0.01114450  0.50441767  1
  In  In71  1  0.17771373  0.34177188  0.48360051  1
  Te  Te72  1  0.09077251  0.08027253  0.08889257  1
  Te  Te73  1  0.09096223  0.08415410  0.41958830  1
  Te  Te74  1  0.07259894  0.09650467  0.74058636  1
  Te  Te75  1  0.11368989  0.35810193  0.02374906  1
  Te  Te76  1  0.05875632  0.40631050  0.42853188  1
  Te  Te77  1  0.07029831  0.42092473  0.76570467  1
  Te  Te78  1  0.09484852  0.75391390  0.09041626  1
  Te  Te79  1  0.08943682  0.75159914  0.42333135  1
  Te  Te80  1  0.07047757  0.73538045  0.77503963  1
  Te  Te81  1  0.38999093  0.10984777  0.09637845  1
  Te  Te82  1  0.43575761  0.07409693  0.41846204  1
  Te  Te83  1  0.38725772  0.09294438  0.75339882  1
  Te  Te84  1  0.42324140  0.42391831  0.08188550  1
  Te  Te85  1  0.36535547  0.46538884  0.42472699  1
  Te  Te86  1  0.44589729  0.44969281  0.74025507  1
  Te  Te87  1  0.44838945  0.75160438  0.05519898  1
  Te  Te88  1  0.44408925  0.72406209  0.43560791  1
  Te  Te89  1  0.41916982  0.69980401  0.73027346  1
  Te  Te90  1  0.75070404  0.07438925  0.05575612  1
  Te  Te91  1  0.72832958  0.08509229  0.40021769  1
  Te  Te92  1  0.72723100  0.11041976  0.76244491  1
  Te  Te93  1  0.73554697  0.40081952  0.05685487  1
  Te  Te94  1  0.74470190  0.40974088  0.42536390  1
  Te  Te95  1  0.73103831  0.43289592  0.74575095  1
  Te  Te96  1  0.76158223  0.73339932  0.08089747  1
  Te  Te97  1  0.72768156  0.75596769  0.43388528  1
  Te  Te98  1  0.72379644  0.76230632  0.77463745  1
  Te  Te99  1  0.12578037  0.29543467  0.23249201  1
  Te  Te100  1  0.10110437  0.24630198  0.58114691  1
  Te  Te101  1  0.08703101  0.21417184  0.94572099  1
  Te  Te102  1  0.07367576  0.54570720  0.22700364  1
  Te  Te103  1  0.09895966  0.58369442  0.56857665  1
  Te  Te104  1  0.09046328  0.57591727  0.95392873  1
  Te  Te105  1  0.11706843  0.93733966  0.23131691  1
  Te  Te106  1  0.09635355  0.89738510  0.60616885  1
  Te  Te107  1  0.06178220  0.92248694  0.91222896  1
  Te  Te108  1  0.39171626  0.27831308  0.25886406  1
  Te  Te109  1  0.41269482  0.25156486  0.59860791  1
  Te  Te110  1  0.43135952  0.28017274  0.89438463  1
  Te  Te111  1  0.41200616  0.57283187  0.23473078  1
  Te  Te112  1  0.35849798  0.62885967  0.60260125  1
  Te  Te113  1  0.40683275  0.61697159  0.93770841  1
  Te  Te114  1  0.41970736  0.92493816  0.24872956  1
  Te  Te115  1  0.43671354  0.92246545  0.57326156  1
  Te  Te116  1  0.41721012  0.90337168  0.89686501  1
  Te  Te117  1  0.75689826  0.23886644  0.25828325  1
  Te  Te118  1  0.75638701  0.25307805  0.57674845  1
  Te  Te119  1  0.73911001  0.27336556  0.92577895  1
  Te  Te120  1  0.75210276  0.56994991  0.24403472  1
  Te  Te121  1  0.75325512  0.59708906  0.58612188  1
  Te  Te122  1  0.76268062  0.58279959  0.89999545  1
  Te  Te123  1  0.76401111  0.89946086  0.24905580  1
  Te  Te124  1  0.76512367  0.90943129  0.60255987  1
  Te  Te125  1  0.74622157  0.90832709  0.88404957  1
  Te  Te126  1  0.22454951  0.28762947  0.09453566  1
  Te  Te127  1  0.26850907  0.23993897  0.41511892  1
  Te  Te128  1  0.22689952  0.26624855  0.75384057  1
  Te  Te129  1  0.26160823  0.58564818  0.08480760  1
  Te  Te130  1  0.23663006  0.54835799  0.38604754  1
  Te  Te131  1  0.23194996  0.57323233  0.75152186  1
  Te  Te132  1  0.26162706  0.90463270  0.06683841  1
  Te  Te133  1  0.27339092  0.90168243  0.42297366  1
  Te  Te134  1  0.23928868  0.91412316  0.77249792  1
  Te  Te135  1  0.57767860  0.25892136  0.06227157  1
  Te  Te136  1  0.54806271  0.27439226  0.43188070  1
  Te  Te137  1  0.59175209  0.24955755  0.76027705  1
  Te  Te138  1  0.60602811  0.58052951  0.07722337  1
  Te  Te139  1  0.56876029  0.56756992  0.40526296  1
  Te  Te140  1  0.56206528  0.57351608  0.78892895  1
  Te  Te141  1  0.57200482  0.93896058  0.10261584  1
  Te  Te142  1  0.59994218  0.90459874  0.41897707  1
  Te  Te143  1  0.57801125  0.90527838  0.74334133  1
  Te  Te144  1  0.91360785  0.24169043  0.09814297  1
  Te  Te145  1  0.97545674  0.28006682  0.38017220  1
  Te  Te146  1  0.89854584  0.26951606  0.73340942  1
  Te  Te147  1  0.93344504  0.55446825  0.10285275  1
  Te  Te148  1  0.91633467  0.60876974  0.42893495  1
  Te  Te149  1  0.91912461  0.55909483  0.73416990  1
  Te  Te150  1  0.92123261  0.90739441  0.09476457  1
  Te  Te151  1  0.91074728  0.92012163  0.41551021  1
  Te  Te152  1  0.88766407  0.92565349  0.70347323  1
  Te  Te153  1  0.26174994  0.09681598  0.22924170  1
  Te  Te154  1  0.24303002  0.07026946  0.59583952  1
  Te  Te155  1  0.25317310  0.08841349  0.93512991  1
  Te  Te156  1  0.21755471  0.43173507  0.28679738  1
  Te  Te157  1  0.27919091  0.41315065  0.57741864  1
  Te  Te158  1  0.26438718  0.43276938  0.91045444  1
  Te  Te159  1  0.26816071  0.75139844  0.25366791  1
  Te  Te160  1  0.28081905  0.76640062  0.58018837  1
  Te  Te161  1  0.25168090  0.76908556  0.92969189  1
  Te  Te162  1  0.57968207  0.10426370  0.23529107  1
  Te  Te163  1  0.58086639  0.07538208  0.57763799  1
  Te  Te164  1  0.57318752  0.07877751  0.92391332  1
  Te  Te165  1  0.59773782  0.42131683  0.24161876  1
  Te  Te166  1  0.55161444  0.43711690  0.58577375  1
  Te  Te167  1  0.59605902  0.46020082  0.87848451  1
  Te  Te168  1  0.58784141  0.75287004  0.25119995  1
  Te  Te169  1  0.57928598  0.71334785  0.58891118  1
  Te  Te170  1  0.57253416  0.78818173  0.94897236  1
  Te  Te171  1  0.92543487  0.08770347  0.25386483  1
  Te  Te172  1  0.93343628  0.06723005  0.58056752  1
  Te  Te173  1  0.90413145  0.07835887  0.88907413  1
  Te  Te174  1  0.91647777  0.40532832  0.26300428  1
  Te  Te175  1  0.94282151  0.42920015  0.54817224  1
  Te  Te176  1  0.93049520  0.39774812  0.94311305  1
  Te  Te177  1  0.92917516  0.72112366  0.25295321  1
  Te  Te178  1  0.90245757  0.76011228  0.60691836  1
  Te  Te179  1  0.91911035  0.74911206  0.91469021  1
