# generated using pymatgen
data_In2Te3
_symmetry_space_group_name_H-M   'P 1'
_cell_length_a   18.81476554
_cell_length_b   18.81640295
_cell_length_c   18.82423582
_cell_angle_alpha   90.00298487
_cell_angle_beta   90.03323557
_cell_angle_gamma   89.99303616
_symmetry_Int_Tables_number   1
_chemical_formula_structural   In2Te3
_chemical_formula_sum   'In72 Te108'
_cell_volume   6664.27168054
_cell_formula_units_Z   36
loop_
 _symmetry_equiv_pos_site_id
 _symmetry_equiv_pos_as_xyz
  1  'x, y, z'
loop_
 _atom_site_type_symbol
 _atom_site_label
 _atom_site_symmetry_multiplicity
 _atom_site_fract_x
 _atom_site_fract_y
 _atom_site_fract_z
 _atom_site_occupancy
  In  In0  1  0.66916688  0.65131498  0.33253093  1
  In  In1  1  0.33775860  0.68354076  -0.01693309  1
  In  In2  1  0.65137424  0.50533113  0.14430061  1
  In  In3  1  0.80883802  0.83918280  0.68274524  1
  In  In4  1  0.34253907  0.14557478  0.82858632  1
  In  In5  1  0.17939710  0.49091561  0.00504006  1
  In  In6  1  0.17521677  0.00880437  0.15491906  1
  In  In7  1  0.66179548  0.15306370  0.15380016  1
  In  In8  1  0.17471034  0.83258621  0.33443663  1
  In  In9  1  0.49129853  0.82889640  0.68429406  1
  In  In10  1  0.01189990  0.33470670  0.66635814  1
  In  In11  1  0.34399263  0.18099238  0.15571980  1
  In  In12  1  0.82634349  0.50200133  0.35398476  1
  In  In13  1  0.19320050  0.50637064  0.69013470  1
  In  In14  1  0.64800828  0.17686990  0.51230003  1
  In  In15  1  0.00521194  0.49451746  0.49433811  1
  In  In16  1  0.32756315  0.82605072  0.16443012  1
  In  In17  1  0.66350227  0.84664443  0.13520183  1
  In  In18  1  0.81360053  0.63898757  0.49783585  1
  In  In19  1  0.62693159  0.49863591  0.52368881  1
  In  In20  1  0.02252801  0.51400496  0.83740434  1
  In  In21  1  0.82570315  0.70775879  0.16251880  1
  In  In22  1  0.01504771  0.85177902  0.51561234  1
  In  In23  1  0.64997384  0.81785093  0.52422967  1
  In  In24  1  0.01540123  0.32521015  0.36406889  1
  In  In25  1  0.83112964  0.68653534  0.81998404  1
  In  In26  1  0.01462731  0.65037198  -0.00361668  1
  In  In27  1  -0.01023261  0.16273994  0.14744708  1
  In  In28  1  0.33907385  0.51414431  0.84218522  1
  In  In29  1  0.48458900  0.33202222  0.15090124  1
  In  In30  1  0.83751999  0.36482910  0.14924607  1
  In  In31  1  0.83427172  0.00600192  0.50255055  1
  In  In32  1  0.33479016  -0.01716036  0.35280029  1
  In  In33  1  0.32847789  0.16635337  0.50967900  1
  In  In34  1  0.02109472  0.16115883  0.82201030  1
  In  In35  1  0.48984432  0.66486953  0.14672612  1
  In  In36  1  0.01038335  0.83983955  0.83876103  1
  In  In37  1  0.50955910  0.31904203  0.83194766  1
  In  In38  1  0.01142506  0.17598255  0.51074282  1
  In  In39  1  0.50560953  0.15107140  0.68420354  1
  In  In40  1  0.81524050  0.50561982  -0.01124016  1
  In  In41  1  0.32864378  0.33511444  0.65663057  1
  In  In42  1  0.19459996  0.83678544  0.67486211  1
  In  In43  1  0.62804826  0.81858857  0.85357048  1
  In  In44  1  0.81716224  0.50289676  0.67865250  1
  In  In45  1  0.50331328  0.14263485  -0.02623758  1
  In  In46  1  0.17861842  0.18747421  0.35207950  1
  In  In47  1  0.85978614  0.16668750  0.32559367  1
  In  In48  1  0.67334051  0.33062774  0.33699429  1
  In  In49  1  0.19319531  0.33985049  0.17333617  1
  In  In50  1  0.19533496  0.64242778  0.48610129  1
  In  In51  1  0.66219879  -0.01951483  0.33551532  1
  In  In52  1  0.35174073  0.83361928  0.51975311  1
  In  In53  1  0.62241838  0.50838984  0.80538349  1
  In  In54  1  0.82503234  0.00250527  0.83067311  1
  In  In55  1  0.50797144  0.17645783  0.33187290  1
  In  In56  1  0.00526835  0.32524879  -0.02118292  1
  In  In57  1  0.79563846  0.31454406  0.84762524  1
  In  In58  1  0.00847540  0.02093785  0.35537513  1
  In  In59  1  0.35016565  0.48989621  0.17454122  1
  In  In60  1  0.49282151  0.81489887  0.34513399  1
  In  In61  1  0.01435759  0.52118244  0.18951492  1
  In  In62  1  0.01337042  0.70380285  0.64901529  1
  In  In63  1  0.47538241  0.47426964  0.36329919  1
  In  In64  1  -0.00204189  0.82444434  0.15350109  1
  In  In65  1  0.35326226  -0.01226642  -0.03058468  1
  In  In66  1  0.78650405  -0.00595852  0.14434468  1
  In  In67  1  0.65009527  -0.00915050  -0.03138831  1
  In  In68  1  0.16469111  0.15457938  0.66422513  1
  In  In69  1  0.81483598  0.16235060  0.66493179  1
  In  In70  1  0.00125839  -0.00605250  -0.00078069  1
  In  In71  1  0.15783999  0.67563358  0.17469725  1
  Te  Te72  1  0.09828239  0.10127201  0.06199843  1
  Te  Te73  1  0.11420322  0.08206332  0.44321075  1
  Te  Te74  1  0.09770302  0.05435659  0.75214251  1
  Te  Te75  1  0.06927210  0.41812195  0.09001279  1
  Te  Te76  1  0.11122386  0.41022743  0.43517618  1
  Te  Te77  1  0.10413653  0.40719153  0.76482044  1
  Te  Te78  1  0.10102888  0.76048982  0.06106723  1
  Te  Te79  1  0.09337673  0.75012880  0.43431347  1
  Te  Te80  1  0.10225990  0.74376554  0.76323036  1
  Te  Te81  1  0.42005859  0.07254647  0.08360935  1
  Te  Te82  1  0.42521790  0.08341315  0.42231432  1
  Te  Te83  1  0.39224920  0.05286216  0.71945071  1
  Te  Te84  1  0.42090983  0.42887295  0.06099860  1
  Te  Te85  1  0.37469640  0.42007694  0.45621485  1
  Te  Te86  1  0.41787643  0.41642082  0.75110834  1
  Te  Te87  1  0.43101872  0.77794861  0.06346384  1
  Te  Te88  1  0.39551658  0.73374311  0.41937514  1
  Te  Te89  1  0.39277397  0.76378055  0.77892177  1
  Te  Te90  1  0.74816918  0.09989431  0.03570299  1
  Te  Te91  1  0.74703010  0.09182128  0.40251974  1
  Te  Te92  1  0.72902753  0.09505641  0.76497198  1
  Te  Te93  1  0.72314127  0.40268641  0.05545827  1
  Te  Te94  1  0.73832409  0.41953655  0.44354998  1
  Te  Te95  1  0.72497407  0.40439282  0.74687029  1
  Te  Te96  1  0.73524381  0.74486080  0.05497091  1
  Te  Te97  1  0.74342744  0.75084392  0.41969897  1
  Te  Te98  1  0.71117228  0.74211912  0.74406048  1
  Te  Te99  1  0.07656862  0.24279867  0.24483685  1
  Te  Te100  1  0.11412541  0.27003124  0.57378500  1
  Te  Te101  1  0.10612688  0.25276289  0.90240315  1
  Te  Te102  1  0.10446786  0.58917522  0.28279928  1
  Te  Te103  1  0.08629437  0.58005953  0.59590727  1
  Te  Te104  1  0.12757764  0.59868527  0.90753454  1
  Te  Te105  1  0.08532258  0.92408779  0.24777359  1
  Te  Te106  1  0.08980632  0.92853123  0.61581880  1
  Te  Te107  1  0.10149419  0.93364544  0.90831423  1
  Te  Te108  1  0.40517426  0.26919975  0.26461989  1
  Te  Te109  1  0.43176311  0.24685304  0.58900778  1
  Te  Te110  1  0.40678453  0.24805108  0.92187385  1
  Te  Te111  1  0.43194641  0.58443467  0.26087558  1
  Te  Te112  1  0.46355597  0.57508083  0.60525152  1
  Te  Te113  1  0.44223785  0.59814282  0.91640870  1
  Te  Te114  1  0.42105377  0.91239111  0.24984867  1
  Te  Te115  1  0.41925909  0.93635397  0.60402542  1
  Te  Te116  1  0.41567060  0.88720627  0.87500741  1
  Te  Te117  1  0.75730528  0.24812692  0.23649309  1
  Te  Te118  1  0.74466186  0.26224611  0.58237894  1
  Te  Te119  1  0.72794853  0.22244979  0.93740647  1
  Te  Te120  1  0.76081717  0.57206396  0.23350446  1
  Te  Te121  1  0.71798029  0.59284236  0.60528800  1
  Te  Te122  1  0.73995115  0.58178082  0.88283902  1
  Te  Te123  1  0.75767023  0.89419811  0.25578723  1
  Te  Te124  1  0.73337230  0.93331720  0.58973053  1
  Te  Te125  1  0.75336700  0.89563996  0.91127068  1
  Te  Te126  1  0.25055208  0.25527910  0.06944493  1
  Te  Te127  1  0.27637677  0.27481952  0.41935242  1
  Te  Te128  1  0.25219570  0.24440146  0.75100469  1
  Te  Te129  1  0.26202254  0.59514500  0.08823672  1
  Te  Te130  1  0.26277841  0.54318267  0.39996286  1
  Te  Te131  1  0.27857468  0.61142842  0.74734853  1
  Te  Te132  1  0.25107252  0.91323173  0.06654189  1
  Te  Te133  1  0.23957867  0.91312460  0.44643938  1
  Te  Te134  1  0.28533568  0.90051804  0.77869070  1
  Te  Te135  1  0.57525247  0.24420018  0.06708729  1
  Te  Te136  1  0.56435539  0.27876849  0.43054744  1
  Te  Te137  1  0.60504215  0.23934713  0.75070745  1
  Te  Te138  1  0.58679059  0.60157277  0.05118018  1
  Te  Te139  1  0.56169310  0.59075467  0.41920086  1
  Te  Te140  1  0.54579449  0.60985557  0.72681364  1
  Te  Te141  1  0.56128294  0.92989508  0.06960223  1
  Te  Te142  1  0.56830751  0.91318956  0.43442373  1
  Te  Te143  1  0.58520743  0.92220882  0.75584579  1
  Te  Te144  1  0.90088128  0.25361552  0.06404306  1
  Te  Te145  1  0.90169441  0.25713534  0.44005217  1
  Te  Te146  1  0.91208944  0.25742528  0.75335728  1
  Te  Te147  1  0.91183152  0.57804079  0.08363893  1
  Te  Te148  1  0.93109878  0.59779008  0.40926900  1
  Te  Te149  1  0.92935233  0.59481970  0.74210479  1
  Te  Te150  1  0.89930053  0.90991508  0.07530803  1
  Te  Te151  1  0.91704065  0.91284831  0.41370843  1
  Te  Te152  1  0.92090988  0.92090855  0.74309085  1
  Te  Te153  1  0.25738578  0.08687820  0.25898942  1
  Te  Te154  1  0.27180705  0.06590927  0.60584676  1
  Te  Te155  1  0.24571484  0.07102222  0.91273889  1
  Te  Te156  1  0.24271240  0.44137879  0.26892151  1
  Te  Te157  1  0.27844972  0.45472422  0.57626932  1
  Te  Te158  1  0.26189028  0.41030704  0.91557391  1
  Te  Te159  1  0.26850325  0.73295564  0.26801356  1
  Te  Te160  1  0.26645991  0.72560334  0.59084488  1
  Te  Te161  1  0.27766853  0.78574363  0.88966470  1
  Te  Te162  1  0.57439184  0.06828011  0.24537244  1
  Te  Te163  1  0.57841598  0.06974646  0.58208015  1
  Te  Te164  1  0.56378805  0.05772813  0.86597871  1
  Te  Te165  1  0.58194239  0.42039417  0.25175273  1
  Te  Te166  1  0.53023210  0.43918343  0.61972022  1
  Te  Te167  1  0.57914067  0.41947537  0.91612005  1
  Te  Te168  1  0.59190513  0.74681797  0.24097783  1
  Te  Te169  1  0.54331856  0.72906527  0.58182686  1
  Te  Te170  1  0.55247248  0.71112902  0.92222790  1
  Te  Te171  1  0.91360509  0.05820032  0.22952985  1
  Te  Te172  1  0.92719396  0.08220833  0.59626949  1
  Te  Te173  1  0.92020364  0.09024331  0.91269541  1
  Te  Te174  1  0.92260207  0.41092419  0.26997793  1
  Te  Te175  1  0.91071681  0.42008482  0.58902589  1
  Te  Te176  1  0.91140233  0.42496261  0.89804673  1
  Te  Te177  1  0.93596053  0.73632070  0.25386860  1
  Te  Te178  1  0.88802395  0.75460755  0.57859849  1
  Te  Te179  1  0.92132720  0.74944930  0.92578496  1
