# generated using pymatgen
data_In2Te3
_symmetry_space_group_name_H-M   'P 1'
_cell_length_a   18.98280745
_cell_length_b   18.98569703
_cell_length_c   18.99560533
_cell_angle_alpha   90.05942172
_cell_angle_beta   89.73404317
_cell_angle_gamma   90.10194305
_symmetry_Int_Tables_number   1
_chemical_formula_structural   In2Te3
_chemical_formula_sum   'In72 Te108'
_cell_volume   6845.96272586
_cell_formula_units_Z   36
loop_
 _symmetry_equiv_pos_site_id
 _symmetry_equiv_pos_as_xyz
  1  'x, y, z'
loop_
 _atom_site_type_symbol
 _atom_site_label
 _atom_site_symmetry_multiplicity
 _atom_site_fract_x
 _atom_site_fract_y
 _atom_site_fract_z
 _atom_site_occupancy
  In  In0  1  0.68712576  0.83702771  0.17042284  1
  In  In1  1  0.15095609  0.78039955  0.37069255  1
  In  In2  1  0.51565314  0.33658497  0.51670080  1
  In  In3  1  0.84003983  0.53236075  0.64800353  1
  In  In4  1  0.67220177  0.33592912  -0.00923293  1
  In  In5  1  0.31121718  0.82485953  0.17162479  1
  In  In6  1  0.15043880  0.18362273  0.64765032  1
  In  In7  1  0.51199200  0.31316288  0.15838802  1
  In  In8  1  0.84601051  0.34403780  0.51043221  1
  In  In9  1  0.15857371  0.16051558  0.01470137  1
  In  In10  1  0.66760799  0.81891912  0.50806694  1
  In  In11  1  0.00751591  0.84626446  0.84076829  1
  In  In12  1  0.16839622  0.65805561  0.18538747  1
  In  In13  1  0.34821959  0.85381675  0.83847091  1
  In  In14  1  0.86307010  0.30143022  0.13944636  1
  In  In15  1  0.70249794  0.17292665  0.51246321  1
  In  In16  1  0.00194381  0.17848826  0.49877090  1
  In  In17  1  0.65507716  0.66984657  0.34349021  1
  In  In18  1  0.00279103  -0.01663008  0.32052567  1
  In  In19  1  0.31053760  0.34772232  0.32773187  1
  In  In20  1  0.17443315  -0.01985507  0.50935628  1
  In  In21  1  0.86442157  0.51719395  0.36399745  1
  In  In22  1  0.83151516  0.67540248  0.17883083  1
  In  In23  1  0.35637116  0.64936490  0.07030123  1
  In  In24  1  -0.02922011  0.50807368  0.83405452  1
  In  In25  1  0.83716860  0.00354003  0.15647230  1
  In  In26  1  0.83893032  0.00222001  0.83932139  1
  In  In27  1  0.17719113  0.80905301  0.63944868  1
  In  In28  1  0.49679340  -0.01680749  0.15855375  1
  In  In29  1  0.51091195  0.82979276  0.31919020  1
  In  In30  1  0.48954337  -0.01410755  0.50880147  1
  In  In31  1  0.50454506  0.16049139  0.36159672  1
  In  In32  1  0.16831805  0.33778514  0.82898422  1
  In  In33  1  0.15410447  -0.00478223  0.15589187  1
  In  In34  1  0.83853605  -0.01156920  0.48809625  1
  In  In35  1  0.01164719  0.36616944  0.35234379  1
  In  In36  1  0.16166165  0.84604821  -0.00747620  1
  In  In37  1  -0.01346655  0.83330903  0.16733335  1
  In  In38  1  0.66676883  -0.00514157  0.69252910  1
  In  In39  1  0.49311502  0.50092773  0.00693894  1
  In  In40  1  0.66899425  0.51177890  0.84588146  1
  In  In41  1  0.16540108  0.49203576  0.67578857  1
  In  In42  1  -0.00991741  0.00101898  0.66914809  1
  In  In43  1  0.44594376  0.60054196  0.34803842  1
  In  In44  1  0.31813099  0.17875168  0.47588346  1
  In  In45  1  -0.01727826  0.17024541  0.83606721  1
  In  In46  1  0.34121368  0.30942747  0.66638762  1
  In  In47  1  0.83412508  0.33006198  0.82460850  1
  In  In48  1  0.48691867  0.69366887  0.82882211  1
  In  In49  1  0.81643073  0.49518894  0.00125015  1
  In  In50  1  0.35451342  0.30410827  -0.01424320  1
  In  In51  1  0.68065842  0.00436482  0.30140589  1
  In  In52  1  0.32967137  0.79971070  0.49330558  1
  In  In53  1  0.16493467  0.35850301  0.18281321  1
  In  In54  1  0.32200363  0.50220076  0.49582737  1
  In  In55  1  0.34523836  0.14920076  0.16291596  1
  In  In56  1  0.18889592  0.01156265  0.85144310  1
  In  In57  1  0.66664833  0.15164364  0.84386320  1
  In  In58  1  0.35145757  0.00627522  0.69034535  1
  In  In59  1  0.52801578  0.16102901  0.69293702  1
  In  In60  1  0.01185320  0.49721316  0.17370848  1
  In  In61  1  0.33909299  0.48945088  0.82388924  1
  In  In62  1  -0.00382575  0.66972830  -0.02239350  1
  In  In63  1  0.64162838  0.51801972  0.16944621  1
  In  In64  1  0.66947933  0.67524650  0.67032663  1
  In  In65  1  0.48376114  0.48748730  0.65849671  1
  In  In66  1  0.15783816  0.17274172  0.31548582  1
  In  In67  1  0.17564322  0.64735288  0.83602887  1
  In  In68  1  0.64937515  0.83214382  0.83229816  1
  In  In69  1  0.00230498  0.65950717  0.64965369  1
  In  In70  1  0.69281116  0.35079438  0.31552814  1
  In  In71  1  0.68102374  0.17164461  0.14008725  1
  Te  Te72  1  0.05835643  0.09638350  0.10492956  1
  Te  Te73  1  0.09403912  0.07635223  0.42272236  1
  Te  Te74  1  0.08829706  0.08241714  0.75026193  1
  Te  Te75  1  0.06920242  0.39943722  0.08095833  1
  Te  Te76  1  0.09416772  0.47205593  0.41096201  1
  Te  Te77  1  0.06198315  0.41411379  0.75472377  1
  Te  Te78  1  0.08798175  0.74619205  0.07904110  1
  Te  Te79  1  0.03631183  0.73377809  0.45281469  1
  Te  Te80  1  0.08817888  0.74296603  0.75591845  1
  Te  Te81  1  0.43265737  0.07981634  0.06928524  1
  Te  Te82  1  0.39889611  0.06477299  0.41395689  1
  Te  Te83  1  0.41340612  0.11200914  0.77762404  1
  Te  Te84  1  0.41239706  0.40321942  0.09053922  1
  Te  Te85  1  0.41520165  0.40173437  0.42485045  1
  Te  Te86  1  0.42927017  0.38601495  0.76025273  1
  Te  Te87  1  0.41054725  0.78480772  0.07234912  1
  Te  Te88  1  0.44651415  0.73738938  0.42010272  1
  Te  Te89  1  0.39121434  0.75638971  0.73832383  1
  Te  Te90  1  0.72610058  0.05150029  0.06803841  1
  Te  Te91  1  0.76168701  0.08708960  0.40237548  1
  Te  Te92  1  0.76786043  0.09355238  0.74194927  1
  Te  Te93  1  0.73927479  0.40928444  0.10323014  1
  Te  Te94  1  0.75356413  0.43272924  0.42622216  1
  Te  Te95  1  0.76574036  0.44338167  0.75216675  1
  Te  Te96  1  0.76664449  0.75537468  0.07678928  1
  Te  Te97  1  0.74866323  0.76743279  0.39829811  1
  Te  Te98  1  0.75045880  0.76734312  0.74933489  1
  Te  Te99  1  0.06234726  0.26503354  0.24838492  1
  Te  Te100  1  0.07251053  0.28180426  0.57524309  1
  Te  Te101  1  0.08250490  0.25013674  0.91846332  1
  Te  Te102  1  0.05553518  0.60426059  0.26747817  1
  Te  Te103  1  0.07122686  0.54864201  0.57509048  1
  Te  Te104  1  0.08605877  0.55987040  0.91967428  1
  Te  Te105  1  0.10725118  0.88679544  0.25348722  1
  Te  Te106  1  0.06942405  0.90195052  0.58459683  1
  Te  Te107  1  0.07322919  0.95065766  0.92921703  1
  Te  Te108  1  0.41384998  0.24698914  0.26737801  1
  Te  Te109  1  0.42950624  0.22121432  0.57314446  1
  Te  Te110  1  0.42255546  0.22338659  0.88674190  1
  Te  Te111  1  0.41134512  0.60801853  0.20886980  1
  Te  Te112  1  0.41132149  0.58348327  0.57739825  1
  Te  Te113  1  0.40246297  0.58786403  0.91957704  1
  Te  Te114  1  0.40469004  0.91565644  0.25638697  1
  Te  Te115  1  0.39578414  0.90004015  0.58909560  1
  Te  Te116  1  0.45963081  0.93480964  0.89118387  1
  Te  Te117  1  0.76743153  0.24030264  0.24237823  1
  Te  Te118  1  0.75665510  0.27164247  0.60335397  1
  Te  Te119  1  0.76435065  0.23829615  0.92451099  1
  Te  Te120  1  0.75642212  0.57174051  0.26194222  1
  Te  Te121  1  0.75131348  0.61278578  0.56371580  1
  Te  Te122  1  0.75083405  0.60128400  0.92716016  1
  Te  Te123  1  0.78396275  0.90242948  0.26546541  1
  Te  Te124  1  0.74853179  0.91829529  0.58982937  1
  Te  Te125  1  0.72556653  0.93664268  0.91000523  1
  Te  Te126  1  0.25248151  0.25431602  0.10305211  1
  Te  Te127  1  0.21473264  0.27071487  0.41766324  1
  Te  Te128  1  0.24602651  0.23150816  0.75512144  1
  Te  Te129  1  0.22766995  0.58133884  0.07614870  1
  Te  Te130  1  0.22832224  0.54623824  0.39027887  1
  Te  Te131  1  0.26836447  0.58729632  0.73226946  1
  Te  Te132  1  0.26020249  0.93006213  0.06968391  1
  Te  Te133  1  0.24697968  0.89532448  0.40958218  1
  Te  Te134  1  0.23182387  0.91585307  0.74174274  1
  Te  Te135  1  0.57593459  0.23163372  0.04862287  1
  Te  Te136  1  0.61020939  0.25739647  0.41246281  1
  Te  Te137  1  0.61808911  0.25728086  0.75351354  1
  Te  Te138  1  0.58985486  0.59845299  0.06014728  1
  Te  Te139  1  0.57355053  0.56687396  0.40829112  1
  Te  Te140  1  0.56624939  0.57959657  0.75752753  1
  Te  Te141  1  0.61001587  0.92855083  0.08195870  1
  Te  Te142  1  0.58768519  0.93230492  0.40302026  1
  Te  Te143  1  0.54687838  0.92805240  0.75456980  1
  Te  Te144  1  0.91888494  0.19082585  0.06208050  1
  Te  Te145  1  0.91464005  0.25784304  0.40621363  1
  Te  Te146  1  0.92322169  0.25527666  0.73459214  1
  Te  Te147  1  0.91873969  0.58324939  0.07974391  1
  Te  Te148  1  0.91827089  0.62838297  0.44847158  1
  Te  Te149  1  0.90480720  0.61928335  0.76019414  1
  Te  Te150  1  0.91351788  0.91085438  0.06893271  1
  Te  Te151  1  0.93766059  0.90165605  0.42280171  1
  Te  Te152  1  0.90515808  0.90077080  0.74262850  1
  Te  Te153  1  0.24790572  0.07129675  0.25050054  1
  Te  Te154  1  0.25835104  0.08215752  0.58693918  1
  Te  Te155  1  0.26815076  0.09449260  0.94071572  1
  Te  Te156  1  0.24854895  0.46021792  0.25350310  1
  Te  Te157  1  0.25164922  0.40065646  0.58890857  1
  Te  Te158  1  0.26021787  0.40841504  0.92518560  1
  Te  Te159  1  0.26188047  0.72904925  0.28087510  1
  Te  Te160  1  0.22301039  0.71006557  0.54222624  1
  Te  Te161  1  0.25041757  0.75610214  0.91001407  1
  Te  Te162  1  0.57900813  0.10213790  0.24278252  1
  Te  Te163  1  0.59181437  0.07806990  0.57394411  1
  Te  Te164  1  0.58369779  0.03053983  0.87750518  1
  Te  Te165  1  0.56913572  0.41529096  0.25532964  1
  Te  Te166  1  0.60009798  0.42290132  0.59602448  1
  Te  Te167  1  0.57193019  0.41319418  0.91137853  1
  Te  Te168  1  0.58576092  0.73816060  0.22670796  1
  Te  Te169  1  0.57157096  0.75419250  0.59425085  1
  Te  Te170  1  0.57645937  0.74827904  0.92901669  1
  Te  Te171  1  0.92594145  0.08120871  0.24574842  1
  Te  Te172  1  0.90897080  0.09017486  0.57940778  1
  Te  Te173  1  0.90879959  0.09141511  0.93968377  1
  Te  Te174  1  0.90458671  0.41822815  0.25014694  1
  Te  Te175  1  0.93491306  0.44460742  0.57425518  1
  Te  Te176  1  0.91437582  0.40439179  0.93105100  1
  Te  Te177  1  0.94379234  0.72688414  0.26152056  1
  Te  Te178  1  0.90455962  0.73017211  0.56468312  1
  Te  Te179  1  0.91142162  0.77942534  0.93113662  1
