# generated using pymatgen
data_In2Te3
_symmetry_space_group_name_H-M   'P 1'
_cell_length_a   18.80179102
_cell_length_b   18.81350835
_cell_length_c   18.80476481
_cell_angle_alpha   89.96907750
_cell_angle_beta   89.97980994
_cell_angle_gamma   89.97861646
_symmetry_Int_Tables_number   1
_chemical_formula_structural   In2Te3
_chemical_formula_sum   'In72 Te108'
_cell_volume   6651.76346523
_cell_formula_units_Z   36
loop_
 _symmetry_equiv_pos_site_id
 _symmetry_equiv_pos_as_xyz
  1  'x, y, z'
loop_
 _atom_site_type_symbol
 _atom_site_label
 _atom_site_symmetry_multiplicity
 _atom_site_fract_x
 _atom_site_fract_y
 _atom_site_fract_z
 _atom_site_occupancy
  In  In0  1  0.84759187  0.16904612  0.34439821  1
  In  In1  1  0.01381965  0.82499232  0.17177654  1
  In  In2  1  0.49814769  0.64919428  0.84743468  1
  In  In3  1  0.64961380  0.83506005  0.15280768  1
  In  In4  1  0.78882024  0.19327894  0.66707125  1
  In  In5  1  0.83944709  0.02032906  0.18218383  1
  In  In6  1  0.33148292  0.49368857  0.50342506  1
  In  In7  1  0.49105975  0.82214048  0.03208667  1
  In  In8  1  0.66543893  0.63654078  0.33341095  1
  In  In9  1  0.67772540  0.63243862  -0.01467700  1
  In  In10  1  -0.00197972  0.18065361  0.83483254  1
  In  In11  1  0.33767593  0.32717439  0.33531946  1
  In  In12  1  0.49193339  0.49473549  0.67819522  1
  In  In13  1  0.00732950  0.46993433  0.51532519  1
  In  In14  1  0.84731691  0.32566572  0.17088067  1
  In  In15  1  0.84420648  0.00829614  0.47611175  1
  In  In16  1  0.65815111  0.47017642  0.50557570  1
  In  In17  1  0.84112655  0.66519566  0.51433572  1
  In  In18  1  0.83858754  0.34183983  0.84197132  1
  In  In19  1  0.33634655  0.16935979  0.51108295  1
  In  In20  1  0.65619060  0.69011035  0.68124014  1
  In  In21  1  0.48698551  0.84238954  0.65281427  1
  In  In22  1  0.82675806  0.47633340  0.66510980  1
  In  In23  1  0.18707409  0.01669309  0.48579992  1
  In  In24  1  0.33172590  0.17858806  0.82343237  1
  In  In25  1  0.00243358  0.01754370  0.01827862  1
  In  In26  1  0.83597264  0.17488097  0.01557106  1
  In  In27  1  0.33695258  0.83113218  0.49494952  1
  In  In28  1  0.00453245  0.66337389  0.33127844  1
  In  In29  1  0.48293155  0.82788057  0.33119275  1
  In  In30  1  0.15518891  0.49409980  0.35880383  1
  In  In31  1  0.15768715  0.16763378  0.33076583  1
  In  In32  1  0.66797070  0.83177585  0.51807510  1
  In  In33  1  0.02112006  0.20005714  0.53346663  1
  In  In34  1  0.32906391  0.35294995  0.66581303  1
  In  In35  1  0.35325037  0.67139905  0.00865469  1
  In  In36  1  0.16007115  0.00270109  0.16311576  1
  In  In37  1  -0.01668023  0.65711745  0.66758144  1
  In  In38  1  0.17932890  0.66878851  0.48516867  1
  In  In39  1  0.16797999  0.02512660  0.82424672  1
  In  In40  1  0.35211931  0.50230253  0.15128575  1
  In  In41  1  0.48837013  0.48719626  0.32524326  1
  In  In42  1  -0.02409314  0.50708753  0.14732261  1
  In  In43  1  0.81405287  0.48991478  0.32663584  1
  In  In44  1  0.82562981  0.79516058  0.65712234  1
  In  In45  1  0.51165282  0.02784172  0.48794795  1
  In  In46  1  0.15091010  0.33582485  0.83449710  1
  In  In47  1  -0.00463960  0.00221792  0.65655692  1
  In  In48  1  0.17143612  0.32036351  0.16722593  1
  In  In49  1  0.32605523  0.82526024  0.82846035  1
  In  In50  1  0.35222360  -0.00429844  0.34937784  1
  In  In51  1  0.16585618  0.48612830  -0.01329140  1
  In  In52  1  0.66673167  0.34335131  -0.01338369  1
  In  In53  1  0.67490100  0.02716613  0.32443621  1
  In  In54  1  0.63926080  0.49837229  0.16604306  1
  In  In55  1  0.81413045  -0.01749904  0.82024951  1
  In  In56  1  0.15467546  0.83598514  0.02725396  1
  In  In57  1  0.65843518  0.16971518  0.16136600  1
  In  In58  1  0.65030658  0.02984664  0.63566559  1
  In  In59  1  0.34314442  0.19503853  0.16880949  1
  In  In60  1  0.85937084  0.82332667  0.32708811  1
  In  In61  1  0.16965246  0.48309494  0.68772609  1
  In  In62  1  0.49866291  0.02658044  0.83444041  1
  In  In63  1  0.32381941  0.00876436  -0.01370704  1
  In  In64  1  0.67940047  0.82516627  0.81908435  1
  In  In65  1  0.18008481  0.69410269  0.18795442  1
  In  In66  1  -0.00323051  0.81248146  0.85515859  1
  In  In67  1  0.17411334  0.63384530  0.82613474  1
  In  In68  1  0.82996061  0.82131967  -0.01837027  1
  In  In69  1  0.48359496  0.18375093  -0.01185566  1
  In  In70  1  0.50214639  0.48652983  -0.00348928  1
  In  In71  1  0.18188932  0.84774694  0.67028822  1
  Te  Te72  1  0.09703526  0.10894050  0.08240178  1
  Te  Te73  1  0.06791576  0.09547497  0.43216247  1
  Te  Te74  1  0.08134182  0.10500360  0.72864464  1
  Te  Te75  1  0.07545425  0.41082047  0.08366077  1
  Te  Te76  1  0.06991296  0.38572950  0.40935948  1
  Te  Te77  1  0.05448847  0.42119742  0.75662378  1
  Te  Te78  1  0.07045266  0.72092997  0.07556217  1
  Te  Te79  1  0.09790259  0.75529941  0.39757684  1
  Te  Te80  1  0.08974754  0.75007060  0.74767378  1
  Te  Te81  1  0.41289724  0.08625226  0.08169040  1
  Te  Te82  1  0.42759205  0.11865547  0.39764994  1
  Te  Te83  1  0.42392660  0.10258760  0.73429897  1
  Te  Te84  1  0.42216872  0.39302311  0.08105184  1
  Te  Te85  1  0.42910854  0.39774002  0.43551667  1
  Te  Te86  1  0.42581308  0.39607703  0.77316528  1
  Te  Te87  1  0.39890937  0.75052098  0.13022265  1
  Te  Te88  1  0.42024540  0.73289227  0.42363125  1
  Te  Te89  1  0.42324830  0.74093107  0.74827776  1
  Te  Te90  1  0.74244328  0.07164484  0.07827456  1
  Te  Te91  1  0.72784019  0.10781741  0.44382257  1
  Te  Te92  1  0.71919531  0.08336598  0.76116617  1
  Te  Te93  1  0.74738249  0.41322962  0.09559152  1
  Te  Te94  1  0.74206563  0.39234659  0.41004494  1
  Te  Te95  1  0.72875660  0.40758270  0.75715689  1
  Te  Te96  1  0.74168606  0.73943939  0.07626149  1
  Te  Te97  1  0.74947956  0.74669065  0.41687886  1
  Te  Te98  1  0.77625696  0.71486208  0.77645844  1
  Te  Te99  1  0.06886961  0.25776034  0.25475666  1
  Te  Te100  1  0.11865494  0.28085121  0.60800215  1
  Te  Te101  1  0.06801393  0.26189336  0.93449588  1
  Te  Te102  1  0.08946704  0.57104850  0.24121902  1
  Te  Te103  1  0.08836289  0.58539139  0.57986368  1
  Te  Te104  1  0.07072996  0.56179490  0.90046483  1
  Te  Te105  1  0.08285213  0.92098807  0.25840621  1
  Te  Te106  1  0.09344063  0.92307629  0.57275438  1
  Te  Te107  1  0.09093795  0.92611144  0.91256156  1
  Te  Te108  1  0.44358131  0.26595900  0.25161611  1
  Te  Te109  1  0.42225856  0.26560831  0.58769887  1
  Te  Te110  1  0.43172765  0.27567998  0.88095544  1
  Te  Te111  1  0.42513423  0.59215734  0.24251696  1
  Te  Te112  1  0.40456863  0.58264563  0.59634475  1
  Te  Te113  1  0.39177833  0.56262733  0.91170537  1
  Te  Te114  1  0.43791029  0.93737095  0.24406907  1
  Te  Te115  1  0.41043287  0.94254253  0.56975440  1
  Te  Te116  1  0.42409389  0.90920269  0.91175346  1
  Te  Te117  1  0.74839778  0.24733786  0.25776312  1
  Te  Te118  1  0.71515069  0.27732990  0.55861879  1
  Te  Te119  1  0.74766597  0.23787528  0.91080549  1
  Te  Te120  1  0.75683566  0.58499002  0.22366826  1
  Te  Te121  1  0.73523842  0.58615994  0.58829379  1
  Te  Te122  1  0.77191966  0.53036974  0.92942049  1
  Te  Te123  1  0.75410438  0.90829812  0.25271553  1
  Te  Te124  1  0.76324945  0.92418135  0.59390451  1
  Te  Te125  1  0.72608674  0.92125234  0.92881559  1
  Te  Te126  1  0.27273095  0.27635869  0.06705042  1
  Te  Te127  1  0.24015399  0.25328531  0.42518709  1
  Te  Te128  1  0.23220900  0.24904126  0.72686469  1
  Te  Te129  1  0.24302352  0.58976126  0.08208478  1
  Te  Te130  1  0.27088054  0.58668383  0.39503497  1
  Te  Te131  1  0.27421199  0.57735283  0.73380250  1
  Te  Te132  1  0.26554883  0.91472245  0.09318446  1
  Te  Te133  1  0.24154818  0.90329225  0.39967700  1
  Te  Te134  1  0.27263121  0.94336006  0.74750262  1
  Te  Te135  1  0.57363707  0.26735275  0.08158411  1
  Te  Te136  1  0.61527786  0.21310850  0.46287214  1
  Te  Te137  1  0.66610580  0.27337159  0.71146431  1
  Te  Te138  1  0.56298951  0.59917016  0.08013941  1
  Te  Te139  1  0.57128504  0.57152391  0.43046327  1
  Te  Te140  1  0.59942499  0.57509502  0.76260013  1
  Te  Te141  1  0.56806116  0.93634403  0.08362076  1
  Te  Te142  1  0.59727795  0.91962630  0.41542187  1
  Te  Te143  1  0.59004947  0.91883098  0.73508010  1
  Te  Te144  1  0.94119825  0.24504251  0.08821720  1
  Te  Te145  1  0.91252651  0.25726695  0.44678667  1
  Te  Te146  1  0.91275413  0.25941356  0.73677862  1
  Te  Te147  1  0.88598474  0.56159390  0.04042638  1
  Te  Te148  1  0.91753540  0.57180731  0.42147162  1
  Te  Te149  1  0.92410153  0.55180138  0.75141063  1
  Te  Te150  1  0.91285207  0.91113942  0.08237686  1
  Te  Te151  1  0.93681898  0.91367318  0.41312432  1
  Te  Te152  1  0.92164478  0.89935936  0.74823178  1
  Te  Te153  1  0.26180552  0.08721857  0.25338625  1
  Te  Te154  1  0.25634304  0.07990108  0.59806770  1
  Te  Te155  1  0.23441225  0.11663871  0.92628190  1
  Te  Te156  1  0.25283841  0.42484155  0.25104260  1
  Te  Te157  1  0.21935844  0.40516960  0.56338324  1
  Te  Te158  1  0.25982891  0.40573115  0.90689532  1
  Te  Te159  1  0.29138636  0.77119733  0.24036384  1
  Te  Te160  1  0.26064001  0.74244029  0.59384553  1
  Te  Te161  1  0.23833707  0.74817788  0.92554513  1
  Te  Te162  1  0.56687290  0.09272608  0.25021110  1
  Te  Te163  1  0.55144505  0.13464595  0.59059999  1
  Te  Te164  1  0.58870908  0.10338655  0.91997759  1
  Te  Te165  1  0.59411097  0.40089457  0.26756397  1
  Te  Te166  1  0.56406754  0.39502359  0.59338824  1
  Te  Te167  1  0.58277086  0.41983133  0.89139717  1
  Te  Te168  1  0.58560087  0.74116332  0.25474873  1
  Te  Te169  1  0.56165344  0.73671254  0.56977826  1
  Te  Te170  1  0.58355709  0.75242745  0.92080256  1
  Te  Te171  1  0.94047285  0.09038693  0.26014689  1
  Te  Te172  1  0.89540236  0.09716774  0.59048526  1
  Te  Te173  1  0.90982772  0.06894723  0.90535379  1
  Te  Te174  1  0.93100386  0.41621703  0.26214833  1
  Te  Te175  1  0.89624581  0.38614760  0.56777067  1
  Te  Te176  1  0.89308964  0.42860243  0.95042713  1
  Te  Te177  1  0.91131673  0.72275060  0.22535740  1
  Te  Te178  1  0.94315218  0.76588967  0.56380001  1
  Te  Te179  1  0.91755387  0.71275408  0.92881812  1
