# generated using pymatgen
data_In2Te3
_symmetry_space_group_name_H-M   'P 1'
_cell_length_a   19.01782007
_cell_length_b   19.01087855
_cell_length_c   19.02923219
_cell_angle_alpha   90.03308560
_cell_angle_beta   89.84996701
_cell_angle_gamma   90.04997777
_symmetry_Int_Tables_number   1
_chemical_formula_structural   In2Te3
_chemical_formula_sum   'In72 Te108'
_cell_volume   6879.90530796
_cell_formula_units_Z   36
loop_
 _symmetry_equiv_pos_site_id
 _symmetry_equiv_pos_as_xyz
  1  'x, y, z'
loop_
 _atom_site_type_symbol
 _atom_site_label
 _atom_site_symmetry_multiplicity
 _atom_site_fract_x
 _atom_site_fract_y
 _atom_site_fract_z
 _atom_site_occupancy
  In  In0  1  0.66968557  0.18342987  0.85131078  1
  In  In1  1  -0.00927508  0.51841650  0.83612266  1
  In  In2  1  0.83704241  0.01015937  0.82150519  1
  In  In3  1  0.71381047  0.34623821  0.67974226  1
  In  In4  1  0.48288029  0.79608670  0.35544136  1
  In  In5  1  0.00062649  0.64732858  0.34430842  1
  In  In6  1  0.67800669  -0.00623237  0.34089123  1
  In  In7  1  0.32723103  0.68459796  0.00253294  1
  In  In8  1  0.50709926  0.32121925  0.84170255  1
  In  In9  1  0.65726574  0.61375827  0.03439972  1
  In  In10  1  0.84725667  0.50054696  0.00796899  1
  In  In11  1  0.65375919  -0.04007329  0.64907723  1
  In  In12  1  0.64289244  0.17195251  0.52087460  1
  In  In13  1  0.34106377  0.81084952  0.18038530  1
  In  In14  1  0.50454406  0.00306135  0.82340304  1
  In  In15  1  0.84577477  0.81516108  0.68184880  1
  In  In16  1  0.15781124  0.15248046  0.00050651  1
  In  In17  1  0.69004228  0.48120241  0.84160155  1
  In  In18  1  0.18517003  0.34622882  0.49132435  1
  In  In19  1  0.01105662  0.34696504  0.33357648  1
  In  In20  1  0.67622320  0.36690565  0.33914281  1
  In  In21  1  0.67810293  0.01272115  -0.01539824  1
  In  In22  1  0.50617605  0.50232667  0.65275405  1
  In  In23  1  0.83137298  0.67246960  0.16628409  1
  In  In24  1  0.35060459  0.34589586  0.00014619  1
  In  In25  1  0.32878192  0.50823659  0.84037668  1
  In  In26  1  0.82359671  0.65628410  0.49971287  1
  In  In27  1  0.15647380  0.49245288  0.65853206  1
  In  In28  1  -0.00114911  0.16367713  0.14666896  1
  In  In29  1  -0.01515926  0.16371905  0.82702730  1
  In  In30  1  -0.01138171  0.67319173  -0.01213445  1
  In  In31  1  0.51388435  0.50720037  0.33698309  1
  In  In32  1  0.67246018  0.64997787  0.34743536  1
  In  In33  1  0.18358880  0.83213597  0.30656495  1
  In  In34  1  0.17033768  -0.00845368  0.49853515  1
  In  In35  1  0.14695786  0.63582859  0.17430381  1
  In  In36  1  0.65095221  0.69174483  0.63058940  1
  In  In37  1  0.80429883  0.17364675  0.67642854  1
  In  In38  1  0.84821127  0.49303890  0.32117230  1
  In  In39  1  0.33620809  0.83684271  0.80887352  1
  In  In40  1  0.32139533  0.63198040  0.63409008  1
  In  In41  1  0.16300125  0.18344169  0.35894540  1
  In  In42  1  -0.02042882  0.83387696  0.17090525  1
  In  In43  1  0.49446802  -0.02450904  0.48670207  1
  In  In44  1  0.14363065  0.83410463  -0.02451528  1
  In  In45  1  0.84252639  0.17592591  0.33864590  1
  In  In46  1  0.15970808  -0.00059491  0.14943375  1
  In  In47  1  0.17661474  0.16880865  0.67434695  1
  In  In48  1  0.51462038  0.85339652  0.00141343  1
  In  In49  1  0.32597298  0.01852684  0.02071454  1
  In  In50  1  0.49747005  0.34842605  0.50384896  1
  In  In51  1  0.33297136  0.33100197  0.64748705  1
  In  In52  1  0.50553002  0.67414660  0.82907388  1
  In  In53  1  0.33519669  -0.00466300  0.32118316  1
  In  In54  1  0.34956086  -0.01237051  0.65187337  1
  In  In55  1  0.67739424  0.84062883  0.81591211  1
  In  In56  1  0.48831011  0.17049909  0.32291326  1
  In  In57  1  0.17084703  0.35598795  0.82615320  1
  In  In58  1  0.81967242  0.00706560  0.15556700  1
  In  In59  1  0.14458837  -0.02058752  0.84619712  1
  In  In60  1  0.67087217  0.82212983  0.17035351  1
  In  In61  1  0.16185979  0.65015302  0.50060871  1
  In  In62  1  0.65787446  0.18687367  0.17677819  1
  In  In63  1  0.34614484  0.17472958  0.16814665  1
  In  In64  1  0.00227113  0.17778798  0.51611049  1
  In  In65  1  0.12019448  0.81156481  0.67375724  1
  In  In66  1  0.84550840  -0.00887484  0.51094315  1
  In  In67  1  0.35027379  0.49793246  0.17914145  1
  In  In68  1  0.00509640  0.33915099  0.01419216  1
  In  In69  1  -0.01370340  0.83902117  0.48502587  1
  In  In70  1  0.17496163  0.36393296  0.16763187  1
  In  In71  1  0.66831229  0.34819543  0.00806689  1
  Te  Te72  1  0.05694633  0.05495926  0.05498250  1
  Te  Te73  1  0.07329145  0.08086131  0.42254623  1
  Te  Te74  1  0.08082215  0.07839097  0.74759568  1
  Te  Te75  1  0.08601445  0.44009784  0.08228798  1
  Te  Te76  1  0.09969268  0.43619592  0.41166917  1
  Te  Te77  1  0.06131360  0.41217435  0.74328503  1
  Te  Te78  1  0.09243400  0.75690490  0.09891553  1
  Te  Te79  1  0.09198636  0.75901239  0.40572306  1
  Te  Te80  1  0.04659552  0.73324858  0.77621173  1
  Te  Te81  1  0.43043972  0.07539241  0.10239653  1
  Te  Te82  1  0.41068145  0.08182128  0.41870569  1
  Te  Te83  1  0.40615903  0.07945686  0.74924505  1
  Te  Te84  1  0.43883965  0.43640870  0.07479845  1
  Te  Te85  1  0.41830120  0.41786203  0.40495643  1
  Te  Te86  1  0.41439069  0.42088503  0.75133065  1
  Te  Te87  1  0.43956715  0.74899460  0.08265732  1
  Te  Te88  1  0.39094427  0.70920999  0.43289526  1
  Te  Te89  1  0.39867054  0.72130032  0.73479551  1
  Te  Te90  1  0.74653484  0.11191548  0.07544566  1
  Te  Te91  1  0.74932914  0.09040747  0.43407871  1
  Te  Te92  1  0.71309264  0.06817587  0.74432259  1
  Te  Te93  1  0.74804873  0.43687204  0.09416302  1
  Te  Te94  1  0.76405977  0.43894490  0.42925439  1
  Te  Te95  1  0.79336039  0.47060280  0.73186434  1
  Te  Te96  1  0.74287903  0.74050278  0.06615434  1
  Te  Te97  1  0.75323219  0.75180219  0.41472137  1
  Te  Te98  1  0.74447873  0.72433319  0.74775972  1
  Te  Te99  1  0.08883455  0.24455273  0.24180976  1
  Te  Te100  1  0.09845093  0.26691266  0.59033158  1
  Te  Te101  1  0.08833823  0.25057837  0.90880696  1
  Te  Te102  1  0.09755500  0.55209960  0.28567535  1
  Te  Te103  1  0.06297730  0.58992007  0.59491442  1
  Te  Te104  1  0.08578055  0.58190360  0.92738447  1
  Te  Te105  1  0.07752718  0.92392230  0.25075622  1
  Te  Te106  1  0.06654147  0.92198379  0.58400321  1
  Te  Te107  1  0.03258945  0.90237325  0.90654405  1
  Te  Te108  1  0.41441448  0.27301219  0.25017948  1
  Te  Te109  1  0.42998697  0.24506589  0.58275816  1
  Te  Te110  1  0.41311341  0.24142213  0.92066490  1
  Te  Te111  1  0.45041106  0.59637421  0.23223949  1
  Te  Te112  1  0.44355995  0.59553228  0.55337101  1
  Te  Te113  1  0.42131239  0.59285824  0.92558922  1
  Te  Te114  1  0.43367157  0.90412987  0.25359906  1
  Te  Te115  1  0.41839919  0.88127818  0.57425663  1
  Te  Te116  1  0.40234032  0.91697180  0.92066122  1
  Te  Te117  1  0.75898276  0.26737986  0.25529933  1
  Te  Te118  1  0.76011048  0.25863099  0.55452542  1
  Te  Te119  1  0.75098857  0.29554388  0.89591681  1
  Te  Te120  1  0.74732210  0.57317593  0.24059384  1
  Te  Te121  1  0.73843013  0.58058120  0.59407454  1
  Te  Te122  1  0.75899903  0.58942139  0.92251999  1
  Te  Te123  1  0.76406277  0.90511242  0.25527049  1
  Te  Te124  1  0.75857641  0.88509867  0.57404741  1
  Te  Te125  1  0.76544501  0.91129878  0.91467685  1
  Te  Te126  1  0.24185504  0.24861611  0.07911041  1
  Te  Te127  1  0.27231877  0.24832498  0.42641873  1
  Te  Te128  1  0.26392187  0.25662102  0.76158348  1
  Te  Te129  1  0.25739797  0.58046250  0.08702140  1
  Te  Te130  1  0.27305680  0.61365617  0.41432611  1
  Te  Te131  1  0.23351892  0.58463578  0.75124864  1
  Te  Te132  1  0.25474554  0.89599343  0.08493761  1
  Te  Te133  1  0.26178931  0.90293152  0.41624427  1
  Te  Te134  1  0.22772070  0.91363043  0.73511543  1
  Te  Te135  1  0.57768777  0.25638008  0.07844096  1
  Te  Te136  1  0.59108218  0.25117089  0.40376064  1
  Te  Te137  1  0.59868051  0.25783270  0.74129087  1
  Te  Te138  1  0.55818842  0.54859323  0.12374981  1
  Te  Te139  1  0.57430696  0.59312901  0.44287103  1
  Te  Te140  1  0.58886110  0.56958209  0.75957117  1
  Te  Te141  1  0.60357187  0.93358324  0.09217379  1
  Te  Te142  1  0.59367369  0.89119212  0.41110986  1
  Te  Te143  1  0.55282951  0.88482822  0.74234564  1
  Te  Te144  1  0.90774041  0.26183223  0.09163540  1
  Te  Te145  1  0.92075564  0.26935143  0.42808622  1
  Te  Te146  1  0.91528574  0.25580344  0.73427466  1
  Te  Te147  1  0.93455376  0.58614302  0.09989637  1
  Te  Te148  1  0.92278907  0.55895842  0.43828030  1
  Te  Te149  1  0.96548294  0.61133215  0.72248855  1
  Te  Te150  1  0.89524270  0.90716902  0.07849905  1
  Te  Te151  1  0.91546180  0.93168832  0.39812580  1
  Te  Te152  1  0.91909489  0.93176710  0.72933557  1
  Te  Te153  1  0.23740948  0.08475331  0.24757107  1
  Te  Te154  1  0.25811707  0.08539003  0.57734265  1
  Te  Te155  1  0.24778469  0.07675735  0.90611280  1
  Te  Te156  1  0.26637829  0.41515335  0.26770189  1
  Te  Te157  1  0.27087705  0.44492096  0.57161953  1
  Te  Te158  1  0.24124172  0.42976541  0.93623982  1
  Te  Te159  1  0.25662946  0.71026035  0.25455528  1
  Te  Te160  1  0.23109913  0.75045127  0.59207401  1
  Te  Te161  1  0.24254670  0.75206219  0.89603361  1
  Te  Te162  1  0.58649086  0.07593300  0.25543612  1
  Te  Te163  1  0.56230638  0.06582782  0.59028799  1
  Te  Te164  1  0.56772154  0.09611994  0.92395294  1
  Te  Te165  1  0.59015775  0.42693417  0.23544727  1
  Te  Te166  1  0.60521869  0.40982380  0.58859581  1
  Te  Te167  1  0.57099981  0.43297169  0.91880969  1
  Te  Te168  1  0.58322336  0.73544596  0.25577035  1
  Te  Te169  1  0.55807372  0.79619135  0.59303214  1
  Te  Te170  1  0.59566010  0.75656470  0.91865347  1
  Te  Te171  1  0.91736493  0.08321714  0.24725879  1
  Te  Te172  1  0.91078260  0.09258192  0.60048178  1
  Te  Te173  1  0.88935793  0.10484678  0.91939180  1
  Te  Te174  1  0.92454275  0.40489857  0.23240783  1
  Te  Te175  1  0.85933588  0.37432076  0.63273055  1
  Te  Te176  1  0.91681301  0.40803271  0.91137448  1
  Te  Te177  1  0.90976962  0.74449134  0.27311719  1
  Te  Te178  1  0.92670542  0.73793829  0.57809825  1
  Te  Te179  1  0.93728316  0.76102649  0.88322618  1
