# generated using pymatgen
data_In2Te3
_symmetry_space_group_name_H-M   'P 1'
_cell_length_a   18.96604774
_cell_length_b   18.95790653
_cell_length_c   18.96643359
_cell_angle_alpha   89.91303606
_cell_angle_beta   90.03370992
_cell_angle_gamma   89.87960484
_symmetry_Int_Tables_number   1
_chemical_formula_structural   In2Te3
_chemical_formula_sum   'In72 Te108'
_cell_volume   6819.48151899
_cell_formula_units_Z   36
loop_
 _symmetry_equiv_pos_site_id
 _symmetry_equiv_pos_as_xyz
  1  'x, y, z'
loop_
 _atom_site_type_symbol
 _atom_site_label
 _atom_site_symmetry_multiplicity
 _atom_site_fract_x
 _atom_site_fract_y
 _atom_site_fract_z
 _atom_site_occupancy
  In  In0  1  0.68896373  0.35221387  0.02371469  1
  In  In1  1  0.16559567  0.12968633  0.31694020  1
  In  In2  1  0.69610217  0.15783802  0.49910684  1
  In  In3  1  0.34691185  0.33920312  0.68149249  1
  In  In4  1  0.66146574  0.85425055  0.50392626  1
  In  In5  1  0.19468165  0.30986326  0.51308744  1
  In  In6  1  0.47800700  -0.00594169  0.52068260  1
  In  In7  1  0.00270747  0.01096868  -0.01076229  1
  In  In8  1  -0.01540259  0.31976254  0.00647942  1
  In  In9  1  0.47161193  0.81822275  0.67461080  1
  In  In10  1  0.33356412  0.15860585  0.83323395  1
  In  In11  1  0.28605583  0.11781197  0.48033504  1
  In  In12  1  0.47384882  0.84633981  0.32515769  1
  In  In13  1  0.84217314  0.34000259  0.82869327  1
  In  In14  1  0.00569694  0.65315053  0.67616084  1
  In  In15  1  0.85353427  0.49210189  0.00884733  1
  In  In16  1  0.48309439  0.85584237  -0.00526634  1
  In  In17  1  0.00167405  0.50488191  0.51015773  1
  In  In18  1  0.03014875  0.68239633  0.35942419  1
  In  In19  1  0.14701097  -0.02836384  0.82508916  1
  In  In20  1  0.16875150  0.65860053  0.82995433  1
  In  In21  1  0.49377734  0.49615245  0.33115719  1
  In  In22  1  0.68352281  0.30942211  0.33381442  1
  In  In23  1  0.84284033  0.01975561  0.48724552  1
  In  In24  1  0.32988427  0.00906463  -0.00555253  1
  In  In25  1  0.15469369  0.47658518  0.31476176  1
  In  In26  1  0.17455217  0.01344528  0.13876006  1
  In  In27  1  0.66684958  0.30526620  0.66961282  1
  In  In28  1  0.67589315  0.16068488  0.18315552  1
  In  In29  1  0.35052592  0.51678506  0.50502946  1
  In  In30  1  0.19096704  0.31637611  0.16552728  1
  In  In31  1  0.48212712  0.51405107  0.67314084  1
  In  In32  1  0.48065430  0.15499716  0.01388322  1
  In  In33  1  0.48332319  0.34622608  0.50864932  1
  In  In34  1  0.16517383  0.34917430  0.85152328  1
  In  In35  1  0.64865500  0.17652046  0.86098351  1
  In  In36  1  0.01553625  0.51353748  0.15780870  1
  In  In37  1  0.48939154  0.16803826  0.68296909  1
  In  In38  1  0.82873011  -0.00161179  0.16774185  1
  In  In39  1  0.67376511  -0.00900702  0.67288554  1
  In  In40  1  0.65458496  0.84391044  0.82960720  1
  In  In41  1  0.16085199  0.51416220  -0.01455689  1
  In  In42  1  0.49384394  0.68586267  0.16648527  1
  In  In43  1  0.83032565  0.67011699  0.17373490  1
  In  In44  1  0.84263576  0.16296416  0.66692655  1
  In  In45  1  0.16053928  0.18585192  0.00839830  1
  In  In46  1  0.66033922  0.48637765  0.46976560  1
  In  In47  1  0.83177766  0.84381733  -0.01621855  1
  In  In48  1  0.66997201  0.66226724  0.02071835  1
  In  In49  1  0.48593852  0.52086659  0.00382505  1
  In  In50  1  0.64562011  0.00777329  0.00268564  1
  In  In51  1  0.17796005  0.82845213  0.67378770  1
  In  In52  1  0.47731690  0.66278061  0.83902570  1
  In  In53  1  0.84434898  0.65685176  0.48155674  1
  In  In54  1  -0.00554639  0.32707495  0.32999906  1
  In  In55  1  0.31916228  0.81338103  0.14098015  1
  In  In56  1  0.85442303  0.68025227  0.82777679  1
  In  In57  1  0.65547965  0.49385127  0.84867512  1
  In  In58  1  0.69338393  0.67078179  0.65692730  1
  In  In59  1  0.50715819  0.16855296  0.32275838  1
  In  In60  1  0.03616253  0.34956615  0.66851294  1
  In  In61  1  0.02822660  0.82810525  0.52508386  1
  In  In62  1  0.15166203  0.13773002  0.68458556  1
  In  In63  1  0.18036521  0.68044096  0.49099499  1
  In  In64  1  0.84243483  0.17162804  0.33674398  1
  In  In65  1  0.00737870  -0.01658676  0.33141752  1
  In  In66  1  0.82754312  0.83268042  0.31616770  1
  In  In67  1  0.33640548  0.68460005  0.33092054  1
  In  In68  1  0.64798152  0.64783304  0.32937020  1
  In  In69  1  0.91451972  -0.00945559  0.81134591  1
  In  In70  1  0.49822728  0.34205633  0.16106344  1
  In  In71  1  0.04334896  0.81520252  0.14070546  1
  Te  Te72  1  0.06255707  0.10575934  0.09095161  1
  Te  Te73  1  0.06376352  0.08507750  0.42303009  1
  Te  Te74  1  0.04422211  0.06166600  0.75900069  1
  Te  Te75  1  0.08932843  0.40350323  0.07990623  1
  Te  Te76  1  0.09510645  0.40370578  0.43470088  1
  Te  Te77  1  0.11776613  0.45281158  0.75050320  1
  Te  Te78  1  0.12470187  0.71752575  0.06246980  1
  Te  Te79  1  0.12143527  0.79350804  0.40916351  1
  Te  Te80  1  0.06438496  0.76653082  0.75956696  1
  Te  Te81  1  0.40549917  0.06814737  0.10768833  1
  Te  Te82  1  0.41621288  0.07889483  0.41188795  1
  Te  Te83  1  0.38826659  0.06910176  0.72711460  1
  Te  Te84  1  0.40633952  0.43655755  0.09503619  1
  Te  Te85  1  0.39477970  0.40734689  0.40439780  1
  Te  Te86  1  0.42394438  0.42441045  0.77394958  1
  Te  Te87  1  0.41347011  0.73258480  0.04811217  1
  Te  Te88  1  0.40737906  0.76643272  0.42903199  1
  Te  Te89  1  0.38183277  0.75138680  0.77178451  1
  Te  Te90  1  0.75306627  0.08885364  0.07247757  1
  Te  Te91  1  0.74047040  0.06920755  0.38616021  1
  Te  Te92  1  0.73239135  0.10444629  0.75379387  1
  Te  Te93  1  0.75407539  0.45170656  0.10847590  1
  Te  Te94  1  0.76474600  0.40446044  0.40973426  1
  Te  Te95  1  0.73844416  0.41522605  0.74788250  1
  Te  Te96  1  0.75004642  0.76926336  0.09082269  1
  Te  Te97  1  0.73836871  0.74734264  0.41752347  1
  Te  Te98  1  0.75965570  0.77230482  0.74761443  1
  Te  Te99  1  0.08590706  0.24331677  0.24490411  1
  Te  Te100  1  0.08663969  0.23137607  0.58422252  1
  Te  Te101  1  0.06807848  0.24435877  0.90335997  1
  Te  Te102  1  0.09958509  0.60208276  0.24939597  1
  Te  Te103  1  0.10520817  0.58609437  0.58370741  1
  Te  Te104  1  0.06371581  0.57313417  0.89197972  1
  Te  Te105  1  0.10507271  0.91651017  0.23493669  1
  Te  Te106  1  0.10698049  0.92950839  0.59244689  1
  Te  Te107  1  0.08220491  0.90020249  0.93617880  1
  Te  Te108  1  0.41927729  0.26277695  0.25597357  1
  Te  Te109  1  0.40384630  0.23861981  0.57803515  1
  Te  Te110  1  0.39501830  0.24746300  0.93413034  1
  Te  Te111  1  0.40911405  0.58569603  0.24239128  1
  Te  Te112  1  0.40345851  0.61435693  0.60122690  1
  Te  Te113  1  0.39280383  0.55452128  0.89211256  1
  Te  Te114  1  0.38327788  0.91250630  0.23051936  1
  Te  Te115  1  0.38934767  0.88938247  0.57248482  1
  Te  Te116  1  0.39453285  0.91841314  0.89621014  1
  Te  Te117  1  0.78682828  0.26219841  0.22004273  1
  Te  Te118  1  0.77475776  0.26349691  0.57224931  1
  Te  Te119  1  0.75840621  0.25928741  0.92555771  1
  Te  Te120  1  0.75460295  0.57756044  0.25831163  1
  Te  Te121  1  0.75291985  0.56836206  0.56338839  1
  Te  Te122  1  0.75516233  0.58486802  0.92054736  1
  Te  Te123  1  0.73386965  0.92075620  0.24838397  1
  Te  Te124  1  0.77114806  0.91958348  0.58436527  1
  Te  Te125  1  0.74566236  0.93935909  0.90329938  1
  Te  Te126  1  0.27935200  0.25501589  0.06185112  1
  Te  Te127  1  0.24968220  0.23928299  0.39515468  1
  Te  Te128  1  0.23845918  0.25350170  0.74842245  1
  Te  Te129  1  0.23966946  0.61139585  0.06716180  1
  Te  Te130  1  0.24629360  0.57121523  0.40663327  1
  Te  Te131  1  0.22964283  0.55250985  0.75007933  1
  Te  Te132  1  0.23371790  0.90581891  0.05014548  1
  Te  Te133  1  0.20476905  1.01251414  0.41115952  1
  Te  Te134  1  0.26333707  0.89043615  0.78030333  1
  Te  Te135  1  0.59101893  0.23937326  0.08000901  1
  Te  Te136  1  0.58596253  0.25442772  0.44001512  1
  Te  Te137  1  0.56236497  0.26578526  0.77256643  1
  Te  Te138  1  0.58424802  0.57733418  0.10860553  1
  Te  Te139  1  0.55451921  0.59008171  0.43395170  1
  Te  Te140  1  0.59621025  0.59820190  0.75196103  1
  Te  Te141  1  0.58262492  0.90704185  0.08698224  1
  Te  Te142  1  0.56993195  0.93197599  0.41634074  1
  Te  Te143  1  0.55946063  0.92512920  0.74501310  1
  Te  Te144  1  0.88103293  0.27380376  0.09602410  1
  Te  Te145  1  0.92580351  0.24488375  0.43115938  1
  Te  Te146  1  0.93359394  0.25760742  0.74187772  1
  Te  Te147  1  0.92750488  0.60730463  0.07564734  1
  Te  Te148  1  0.93170883  0.57128325  0.39276190  1
  Te  Te149  1  0.89676344  0.57484961  0.73594273  1
  Te  Te150  1  0.92819863  0.90834612  0.09335113  1
  Te  Te151  1  0.91777972  0.89658504  0.42169603  1
  Te  Te152  1  0.93825657  0.85728764  0.76203221  1
  Te  Te153  1  0.27129580  0.09295914  0.21582395  1
  Te  Te154  1  0.26282441  0.06546706  0.61924896  1
  Te  Te155  1  0.22071967  0.08581213  0.90747535  1
  Te  Te156  1  0.26014830  0.43214815  0.22382788  1
  Te  Te157  1  0.26233081  0.42244002  0.58731597  1
  Te  Te158  1  0.26033993  0.41347423  0.94170601  1
  Te  Te159  1  0.23663655  0.74775160  0.24422419  1
  Te  Te160  1  0.26782224  0.74469290  0.58965282  1
  Te  Te161  1  0.23563304  0.71652577  0.95007241  1
  Te  Te162  1  0.57225484  0.07199069  0.23455529  1
  Te  Te163  1  0.59062954  0.09126310  0.58649736  1
  Te  Te164  1  0.54826497  0.07265823  0.90481656  1
  Te  Te165  1  0.59420901  0.40889352  0.25948953  1
  Te  Te166  1  0.58417317  0.41858722  0.59580588  1
  Te  Te167  1  0.57480597  0.40857521  0.94062938  1
  Te  Te168  1  0.58588422  0.76382084  0.25603530  1
  Te  Te169  1  0.58704198  0.75618093  0.59080976  1
  Te  Te170  1  0.58728801  0.74228371  0.91910895  1
  Te  Te171  1  0.92643866  0.08118461  0.24823691  1
  Te  Te172  1  0.92586818  0.06274961  0.59907386  1
  Te  Te173  1  0.90245505  0.09025647  0.91716202  1
  Te  Te174  1  0.93231886  0.42473083  0.23984362  1
  Te  Te175  1  0.92587876  0.42442703  0.60580579  1
  Te  Te176  1  0.93941411  0.42879994  0.90235399  1
  Te  Te177  1  0.94235424  0.75586890  0.24996673  1
  Te  Te178  1  0.91906031  0.74043894  0.58201322  1
  Te  Te179  1  0.93088950  0.75015452  0.93119068  1
