# generated using pymatgen
data_In2Te3
_symmetry_space_group_name_H-M   'P 1'
_cell_length_a   18.75094039
_cell_length_b   18.74518304
_cell_length_c   18.73541086
_cell_angle_alpha   90.04765422
_cell_angle_beta   90.05176615
_cell_angle_gamma   89.97319491
_symmetry_Int_Tables_number   1
_chemical_formula_structural   In2Te3
_chemical_formula_sum   'In72 Te108'
_cell_volume   6585.30031647
_cell_formula_units_Z   36
loop_
 _symmetry_equiv_pos_site_id
 _symmetry_equiv_pos_as_xyz
  1  'x, y, z'
loop_
 _atom_site_type_symbol
 _atom_site_label
 _atom_site_symmetry_multiplicity
 _atom_site_fract_x
 _atom_site_fract_y
 _atom_site_fract_z
 _atom_site_occupancy
  In  In0  1  0.33631453  0.51299642  0.83820689  1
  In  In1  1  0.68222733  0.65430015  0.32072755  1
  In  In2  1  0.00132906  0.46189706  0.83143135  1
  In  In3  1  0.49368997  0.01538570  0.16496450  1
  In  In4  1  0.84117708  0.48157446  0.31554890  1
  In  In5  1  0.16187582  0.50690340  0.31449278  1
  In  In6  1  0.48209459  -0.00157159  0.85017631  1
  In  In7  1  0.48528155  0.35508301  0.86827852  1
  In  In8  1  0.01352226  0.32927693  0.64535397  1
  In  In9  1  0.68518719  0.15593789  0.50643002  1
  In  In10  1  0.49472111  0.01412227  0.49670461  1
  In  In11  1  0.01121023  -0.01112625  0.00467629  1
  In  In12  1  0.32558500  0.64894231  0.00881417  1
  In  In13  1  0.48208413  0.80492955  0.67334142  1
  In  In14  1  0.01788510  0.83391241  0.85460549  1
  In  In15  1  0.17402489  0.66992077  0.83604473  1
  In  In16  1  0.85373764  0.00110025  0.15092045  1
  In  In17  1  0.82548536  0.01748642  0.85002089  1
  In  In18  1  0.16741176  0.33744538  0.17068626  1
  In  In19  1  0.66814952  0.19349603  0.17507822  1
  In  In20  1  0.01305957  0.65997145  0.65446063  1
  In  In21  1  0.67828845  0.81201990  0.17848881  1
  In  In22  1  0.48534560  0.17276525  0.00350590  1
  In  In23  1  0.65664792  0.32757823  0.66959636  1
  In  In24  1  0.49842442  0.65258501  0.47599622  1
  In  In25  1  0.83944166  0.64017836  0.50312217  1
  In  In26  1  0.66462172  0.83194926  0.84788186  1
  In  In27  1  0.69616374  0.01869801  0.37506960  1
  In  In28  1  0.49931172  0.48257627  0.68061130  1
  In  In29  1  0.30522015  0.46579129  0.50801085  1
  In  In30  1  0.81520918  0.31870768  0.86131817  1
  In  In31  1  0.49449900  0.19999853  0.29629887  1
  In  In32  1  0.85028716  0.66714361  0.17272867  1
  In  In33  1  0.47488901  0.83638423  -0.01829431  1
  In  In34  1  -0.01238298  0.32956216  0.33653385  1
  In  In35  1  0.30279963  -0.01811021  0.70715222  1
  In  In36  1  0.31148194  0.01074292  0.33903878  1
  In  In37  1  0.29207714  0.83982294  0.14008182  1
  In  In38  1  0.50361511  0.81204028  0.30132622  1
  In  In39  1  0.17100004  0.33669525  0.83645000  1
  In  In40  1  0.49362456  0.33774608  0.49828211  1
  In  In41  1  0.49692474  0.49157913  0.30218883  1
  In  In42  1  0.85222716  0.81971372  0.69411899  1
  In  In43  1  0.66001003  0.82431062  0.50024105  1
  In  In44  1  0.49409503  0.18623812  0.67458508  1
  In  In45  1  0.34114083  0.68367743  0.65659426  1
  In  In46  1  0.03317203  0.81363713  0.46081109  1
  In  In47  1  0.02802491  -0.00626471  0.30597100  1
  In  In48  1  0.64846343  0.48365575  0.86165288  1
  In  In49  1  0.68158611  0.34207769  0.32388694  1
  In  In50  1  0.32422794  0.17405078  0.17635724  1
  In  In51  1  0.01992700  0.50479949  0.47207640  1
  In  In52  1  0.29796910  0.19681756  0.48062258  1
  In  In53  1  0.32921864  0.65399308  0.30420571  1
  In  In54  1  0.15536781  0.49577865  0.01988475  1
  In  In55  1  0.30669909  0.84317428  0.50418859  1
  In  In56  1  0.82654640  0.65590726  0.85211826  1
  In  In57  1  -0.01233916  0.19980174  0.14758222  1
  In  In58  1  0.01585512  0.17048539  0.83319174  1
  In  In59  1  0.66399411  -0.00140871  0.00380626  1
  In  In60  1  0.02669475  0.68087905  0.02741989  1
  In  In61  1  0.83849113  0.14944094  0.66057019  1
  In  In62  1  0.16314615  0.00592818  0.49496907  1
  In  In63  1  0.69948189  -0.00292936  0.70187415  1
  In  In64  1  0.83260400  0.02852885  0.49860766  1
  In  In65  1  0.17690351  0.14834526  -0.00694664  1
  In  In66  1  0.81358178  0.47443331  0.02413298  1
  In  In67  1  0.86549997  0.83547493  0.30991719  1
  In  In68  1  0.01652843  0.01547523  0.65632686  1
  In  In69  1  0.49014586  0.67233071  0.84272870  1
  In  In70  1  0.16711632  0.17270102  0.67213457  1
  In  In71  1  0.84110664  0.49799209  0.64752398  1
  Te  Te72  1  0.08234703  0.08885958  0.09721363  1
  Te  Te73  1  0.08633280  0.09031043  0.40173113  1
  Te  Te74  1  0.10722050  0.06674261  0.76832672  1
  Te  Te75  1  0.05887975  0.42436512  0.10984881  1
  Te  Te76  1  0.11457022  0.39155918  0.41408381  1
  Te  Te77  1  0.10473642  0.43119710  0.72100713  1
  Te  Te78  1  0.10230718  0.79196810  0.09301641  1
  Te  Te79  1  0.09463125  0.70831511  0.37859251  1
  Te  Te80  1  0.09152963  0.76360866  0.73995082  1
  Te  Te81  1  0.39025466  0.07379408  0.07307720  1
  Te  Te82  1  0.41301452  0.10987183  0.40040102  1
  Te  Te83  1  0.40536880  0.09109806  0.75568452  1
  Te  Te84  1  0.43052597  0.46074943  0.07666130  1
  Te  Te85  1  0.40541590  0.41442990  0.40211712  1
  Te  Te86  1  0.39277628  0.40166416  0.74788660  1
  Te  Te87  1  0.40934096  0.75353206  0.09121584  1
  Te  Te88  1  0.40925822  0.76092927  0.41451157  1
  Te  Te89  1  0.38399795  0.76387664  0.78276074  1
  Te  Te90  1  0.75083377  0.09424144  0.08479281  1
  Te  Te91  1  0.79294169  0.14250537  0.39081861  1
  Te  Te92  1  0.74185463  0.12318714  0.77765655  1
  Te  Te93  1  0.73749040  0.40462104  0.13282783  1
  Te  Te94  1  0.75624045  0.42289630  0.42185787  1
  Te  Te95  1  0.75763883  0.42110441  0.75921708  1
  Te  Te96  1  0.76253239  0.74452078  0.07965728  1
  Te  Te97  1  0.75951088  0.75916999  0.40194365  1
  Te  Te98  1  0.73894194  0.73658287  0.75225489  1
  Te  Te99  1  0.08690593  0.24050818  0.25679043  1
  Te  Te100  1  0.10897046  0.25157693  0.56077020  1
  Te  Te101  1  0.08454395  0.26016192  0.93615708  1
  Te  Te102  1  0.07177120  0.61166480  0.25615401  1
  Te  Te103  1  0.10342339  0.57791492  0.57198411  1
  Te  Te104  1  0.07233505  0.57754747  0.90807158  1
  Te  Te105  1  0.07946509  0.88984473  0.21432080  1
  Te  Te106  1  0.08478468  0.90452777  0.57846335  1
  Te  Te107  1  0.12351290  0.91816760  0.92460993  1
  Te  Te108  1  0.40091425  0.29166627  0.22905764  1
  Te  Te109  1  0.39441675  0.26129841  0.58521754  1
  Te  Te110  1  0.39083126  0.25487619  0.92254814  1
  Te  Te111  1  0.40669991  0.56677994  0.20653211  1
  Te  Te112  1  0.41680034  0.56925594  0.57772065  1
  Te  Te113  1  0.44773642  0.55681598  0.94560242  1
  Te  Te114  1  0.40530909  0.91980500  0.24835506  1
  Te  Te115  1  0.41096186  0.91502102  0.59263614  1
  Te  Te116  1  0.36993044  0.92645067  0.92132573  1
  Te  Te117  1  0.78169408  0.28079286  0.22577689  1
  Te  Te118  1  0.76494853  0.26200294  0.58442404  1
  Te  Te119  1  0.75592182  0.24597495  0.97404967  1
  Te  Te120  1  0.74604284  0.56181308  0.21811906  1
  Te  Te121  1  0.73598768  0.58643626  0.59175473  1
  Te  Te122  1  0.73320456  0.58078349  0.94647291  1
  Te  Te123  1  0.75041340  0.92744137  0.25061055  1
  Te  Te124  1  0.75507145  0.91683048  0.58061655  1
  Te  Te125  1  0.76600577  0.90563910  0.93574666  1
  Te  Te126  1  0.25266226  0.25888043  0.06867423  1
  Te  Te127  1  0.22902389  0.28680203  0.38886203  1
  Te  Te128  1  0.25712551  0.23520380  0.77192335  1
  Te  Te129  1  0.22989307  0.59017632  0.10585563  1
  Te  Te130  1  0.25628648  0.58135806  0.41747361  1
  Te  Te131  1  0.25088591  0.58451357  0.73542124  1
  Te  Te132  1  0.21980473  0.93706075  0.05348507  1
  Te  Te133  1  0.21972208  0.90176754  0.39387748  1
  Te  Te134  1  0.20778041  0.89095545  0.76953280  1
  Te  Te135  1  0.56435328  0.26385649  0.09285582  1
  Te  Te136  1  0.58377988  0.24151376  0.41821427  1
  Te  Te137  1  0.57743921  0.26110435  0.77878361  1
  Te  Te138  1  0.54776710  0.54699967  0.06854667  1
  Te  Te139  1  0.59463566  0.56018420  0.40354424  1
  Te  Te140  1  0.58325942  0.58196344  0.76049075  1
  Te  Te141  1  0.57428738  0.90749708  0.08902015  1
  Te  Te142  1  0.57816199  0.90884363  0.40135950  1
  Te  Te143  1  0.57319802  0.91000451  0.75041163  1
  Te  Te144  1  0.88738829  0.26006186  0.05531676  1
  Te  Te145  1  0.90760423  0.24532753  0.42627993  1
  Te  Te146  1  0.92170391  0.26008293  0.75106065  1
  Te  Te147  1  0.92356757  0.57682549  0.07192710  1
  Te  Te148  1  0.92259716  0.59084635  0.38825652  1
  Te  Te149  1  0.92304753  0.58201822  0.75517539  1
  Te  Te150  1  0.93491413  0.89244553  0.09038918  1
  Te  Te151  1  0.92345353  0.92588745  0.42036009  1
  Te  Te152  1  0.92574733  0.93758134  0.76066801  1
  Te  Te153  1  0.22679587  0.08463438  0.24365897  1
  Te  Te154  1  0.26877799  0.07572717  0.58077445  1
  Te  Te155  1  0.26948170  0.04985955  0.92999383  1
  Te  Te156  1  0.26388432  0.42930931  0.23774551  1
  Te  Te157  1  0.21240250  0.40942876  0.60630205  1
  Te  Te158  1  0.25612471  0.42205571  0.93225251  1
  Te  Te159  1  0.23508635  0.75618698  0.25041291  1
  Te  Te160  1  0.22955809  0.74209864  0.57805350  1
  Te  Te161  1  0.24555179  0.75088807  0.93599255  1
  Te  Te162  1  0.59430152  0.07879745  0.26116101  1
  Te  Te163  1  0.59156465  0.08512886  0.60673562  1
  Te  Te164  1  0.58386969  0.09204914  0.91421504  1
  Te  Te165  1  0.59603573  0.41239756  0.21997591  1
  Te  Te166  1  0.59344576  0.42713489  0.57260423  1
  Te  Te167  1  0.59722318  0.38803938  0.96446532  1
  Te  Te168  1  0.57549386  0.70529668  0.22032083  1
  Te  Te169  1  0.58069349  0.72598968  0.58550368  1
  Te  Te170  1  0.58792889  0.73964032  0.94176215  1
  Te  Te171  1  0.92596279  0.09384067  0.24528357  1
  Te  Te172  1  0.94834170  0.11296232  0.56033255  1
  Te  Te173  1  0.92578588  0.09608412  0.93323134  1
  Te  Te174  1  0.94508744  0.42128974  0.22434946  1
  Te  Te175  1  0.92456876  0.41353817  0.55284370  1
  Te  Te176  1  0.92310724  0.39704169  0.94266517  1
  Te  Te177  1  0.96340256  0.74157837  0.24407648  1
  Te  Te178  1  0.91871838  0.75597972  0.56912587  1
  Te  Te179  1  0.91992274  0.74847831  0.93122207  1
