# generated using pymatgen
data_In2Te3
_symmetry_space_group_name_H-M   'P 1'
_cell_length_a   18.92802697
_cell_length_b   18.91129615
_cell_length_c   18.92044151
_cell_angle_alpha   90.01354915
_cell_angle_beta   90.00625674
_cell_angle_gamma   90.05794341
_symmetry_Int_Tables_number   1
_chemical_formula_structural   In2Te3
_chemical_formula_sum   'In72 Te108'
_cell_volume   6772.63500864
_cell_formula_units_Z   36
loop_
 _symmetry_equiv_pos_site_id
 _symmetry_equiv_pos_as_xyz
  1  'x, y, z'
loop_
 _atom_site_type_symbol
 _atom_site_label
 _atom_site_symmetry_multiplicity
 _atom_site_fract_x
 _atom_site_fract_y
 _atom_site_fract_z
 _atom_site_occupancy
  In  In0  1  0.84012074  0.82828920  0.03008622  1
  In  In1  1  0.15321724  0.50367338  0.70449015  1
  In  In2  1  0.32811368  0.01046148  0.35488857  1
  In  In3  1  0.15701128  0.03535931  0.17647973  1
  In  In4  1  0.49863326  0.65999637  0.48615257  1
  In  In5  1  0.84791345  -0.01220229  0.49292745  1
  In  In6  1  0.67538136  0.17194259  0.49508630  1
  In  In7  1  0.67317216  0.65601704  0.64641873  1
  In  In8  1  0.33933717  0.82288365  0.16663947  1
  In  In9  1  0.31566479  0.32950257  0.67784800  1
  In  In10  1  0.17898346  0.00569308  0.52472147  1
  In  In11  1  0.15554338  -0.01702303  0.83609661  1
  In  In12  1  0.80877232  0.35808813  0.46484090  1
  In  In13  1  0.48011108  0.01765934  0.84842072  1
  In  In14  1  0.00501462  0.00356393  0.67140688  1
  In  In15  1  0.51429440  0.33379271  0.48534085  1
  In  In16  1  0.85800931  0.81320616  0.62398877  1
  In  In17  1  0.14879004  0.18652560  -0.00514863  1
  In  In18  1  0.68670405  0.81309913  0.16678218  1
  In  In19  1  0.49812270  0.00368545  0.15974964  1
  In  In20  1  0.17501505  0.52080140  0.33113219  1
  In  In21  1  0.33060039  0.81279911  0.50725912  1
  In  In22  1  0.68087853  0.81055199  0.47800344  1
  In  In23  1  0.64015414  0.32638845  -0.00737033  1
  In  In24  1  0.85985722  0.49498368  0.00205500  1
  In  In25  1  0.34872698  0.48542423  0.50454254  1
  In  In26  1  0.33557200  -0.02077015  0.00249151  1
  In  In27  1  0.37048077  0.31909664  0.30438569  1
  In  In28  1  0.82940349  0.49488884  0.65494443  1
  In  In29  1  0.15393647  0.83372892  0.67416723  1
  In  In30  1  0.35144330  0.16388411  0.83781020  1
  In  In31  1  0.67646254  0.65897546  0.32521180  1
  In  In32  1  0.66077593  0.48784314  0.18973983  1
  In  In33  1  0.31747691  0.80613637  0.83491345  1
  In  In34  1  0.48075793  0.85564858  0.66605308  1
  In  In35  1  0.63982185  0.80682687  0.84705983  1
  In  In36  1  0.67842801  0.01759054  0.67912608  1
  In  In37  1  0.15650371  0.81445318  0.31124288  1
  In  In38  1  0.84390738  0.36360579  0.83218276  1
  In  In39  1  0.33868961  0.50716174  0.19079837  1
  In  In40  1  0.17645006  0.64676916  0.14255179  1
  In  In41  1  0.00019041  0.35272340  0.68022642  1
  In  In42  1  0.50340836  0.32636979  0.82521671  1
  In  In43  1  0.83128356  0.33489838  0.17032108  1
  In  In44  1  0.84730274  0.17499559  -0.00464798  1
  In  In45  1  0.52309978  0.17216114  0.01070933  1
  In  In46  1  0.00440419  0.35151072  0.32654523  1
  In  In47  1  -0.00950191  0.47901329  0.84647179  1
  In  In48  1  0.81848139  0.67176931  0.82871403  1
  In  In49  1  0.51877619  0.00467579  0.49544474  1
  In  In50  1  0.64348430  0.00428712  -0.03872910  1
  In  In51  1  0.34831032  0.15971512  0.51879024  1
  In  In52  1  0.14886497  0.82902414  -0.01019329  1
  In  In53  1  0.14468111  0.35618961  0.14367613  1
  In  In54  1  0.67756732  0.18756057  0.15870873  1
  In  In55  1  -0.01781748  0.67093515  0.30572340  1
  In  In56  1  -0.01638355  0.66847340  0.01179126  1
  In  In57  1  0.68144495  -0.01478729  0.31310040  1
  In  In58  1  0.83059337  0.00737803  0.83106546  1
  In  In59  1  0.66048685  0.47874294  0.82620844  1
  In  In60  1  -0.01776623  0.00035210  0.33339488  1
  In  In61  1  0.14763949  0.32416600  0.50567064  1
  In  In62  1  -0.02618836  0.56334845  0.50449391  1
  In  In63  1  0.30253444  0.37174307  -0.00648336  1
  In  In64  1  -0.00646498  0.17986697  0.50462222  1
  In  In65  1  0.51222597  0.79243400  0.01540093  1
  In  In66  1  0.17263159  0.19350196  0.34262488  1
  In  In67  1  0.50434147  0.48434347  0.66026074  1
  In  In68  1  0.83407491  0.00508527  0.16043266  1
  In  In69  1  0.51896678  0.64963904  0.17151679  1
  In  In70  1  0.17518800  0.65697660  0.51173991  1
  In  In71  1  0.15391216  0.66148633  0.83035556  1
  Te  Te72  1  0.06916129  0.09154422  0.07495910  1
  Te  Te73  1  0.09303012  0.09029537  0.42225199  1
  Te  Te74  1  0.06821902  0.08571443  0.77522209  1
  Te  Te75  1  0.06233312  0.44403570  0.06120992  1
  Te  Te76  1  0.08764814  0.43772472  0.42454328  1
  Te  Te77  1  0.10427599  0.38876145  0.79158781  1
  Te  Te78  1  0.07563088  0.75301788  0.09896271  1
  Te  Te79  1  0.08475744  0.72727967  0.41211592  1
  Te  Te80  1  0.06864740  0.76488213  0.77086077  1
  Te  Te81  1  0.40685269  0.09069634  0.07569421  1
  Te  Te82  1  0.43719529  0.10111208  0.40986159  1
  Te  Te83  1  0.41603907  0.08107036  0.73434251  1
  Te  Te84  1  0.40484188  0.42420435  0.08638887  1
  Te  Te85  1  0.43299237  0.42619663  0.39321881  1
  Te  Te86  1  0.40603708  0.42162344  0.75886279  1
  Te  Te87  1  0.40393994  0.71410308  0.08426252  1
  Te  Te88  1  0.42222220  0.75753844  0.40871693  1
  Te  Te89  1  0.43042880  0.74465979  0.75625575  1
  Te  Te90  1  0.73300898  0.07961956  0.06116356  1
  Te  Te91  1  0.75865264  0.07542888  0.40759779  1
  Te  Te92  1  0.76115648  0.11229792  0.75363933  1
  Te  Te93  1  0.74351010  0.41151990  0.06885307  1
  Te  Te94  1  0.70998369  0.44897339  0.39802025  1
  Te  Te95  1  0.73794919  0.39630714  0.72620245  1
  Te  Te96  1  0.73832538  0.72632297  0.06049989  1
  Te  Te97  1  0.77604519  0.71597702  0.42037816  1
  Te  Te98  1  0.74380075  0.76227461  0.73122263  1
  Te  Te99  1  0.07941224  0.25139349  0.24015946  1
  Te  Te100  1  0.08419541  0.23908121  0.61108393  1
  Te  Te101  1  0.06518222  0.27737968  0.91586638  1
  Te  Te102  1  0.07718841  0.57267783  0.22909399  1
  Te  Te103  1  0.07872731  0.59932289  0.61483065  1
  Te  Te104  1  0.07380268  0.57628509  0.93118997  1
  Te  Te105  1  0.07650575  0.92250540  0.24144153  1
  Te  Te106  1  0.07198844  0.90839267  0.57067450  1
  Te  Te107  1  0.05462281  0.91545001  0.92033403  1
  Te  Te108  1  0.44145801  0.23353256  0.21300810  1
  Te  Te109  1  0.42546516  0.26683973  0.59399684  1
  Te  Te110  1  0.41706437  0.25707549  0.93869103  1
  Te  Te111  1  0.43760351  0.57908683  0.27189086  1
  Te  Te112  1  0.41622292  0.58801472  0.59295497  1
  Te  Te113  1  0.43949182  0.66588220  0.89107036  1
  Te  Te114  1  0.40953729  0.92454267  0.25477640  1
  Te  Te115  1  0.40048360  0.93607518  0.56640464  1
  Te  Te116  1  0.42872622  0.88922796  0.92444773  1
  Te  Te117  1  0.74544133  0.26082686  0.26905762  1
  Te  Te118  1  0.76901778  0.26092160  0.56611278  1
  Te  Te119  1  0.75751108  0.26880658  0.91534910  1
  Te  Te120  1  0.75597278  0.59927251  0.21361564  1
  Te  Te121  1  0.77276151  0.59298478  0.55731354  1
  Te  Te122  1  0.75490979  0.56110262  0.91141273  1
  Te  Te123  1  0.78485721  0.88405410  0.26148543  1
  Te  Te124  1  0.73715844  0.91693975  0.57561383  1
  Te  Te125  1  0.74492620  0.90008939  0.91443331  1
  Te  Te126  1  0.24625698  0.26070271  0.08405681  1
  Te  Te127  1  0.26975364  0.26761959  0.43375336  1
  Te  Te128  1  0.24647569  0.24557070  0.77525736  1
  Te  Te129  1  0.25569475  0.54324694  0.07059794  1
  Te  Te130  1  0.27596479  0.59109358  0.42011605  1
  Te  Te131  1  0.26448712  0.57469181  0.77509064  1
  Te  Te132  1  0.23720672  0.91416259  0.09734360  1
  Te  Te133  1  0.23196959  0.90597017  0.41113079  1
  Te  Te134  1  0.26000349  0.91641886  0.74741035  1
  Te  Te135  1  0.55649369  0.28144314  0.11894317  1
  Te  Te136  1  0.59035964  0.24232335  0.39611587  1
  Te  Te137  1  0.59312237  0.23088428  0.76408736  1
  Te  Te138  1  0.56824944  0.53942683  0.08666217  1
  Te  Te139  1  0.60139429  0.57302798  0.42392760  1
  Te  Te140  1  0.58485145  0.58358949  0.74547452  1
  Te  Te141  1  0.59207461  0.91279295  0.08178160  1
  Te  Te142  1  0.58662604  0.90591003  0.40311331  1
  Te  Te143  1  0.58157154  0.92489278  0.75947627  1
  Te  Te144  1  0.91672262  0.22549205  0.11567301  1
  Te  Te145  1  0.91378510  0.25730329  0.40511047  1
  Te  Te146  1  0.91652584  0.26133640  0.75780271  1
  Te  Te147  1  0.88839551  0.59946242  0.10346670  1
  Te  Te148  1  0.91185850  0.55573674  0.37092369  1
  Te  Te149  1  0.91061430  0.57282831  0.75648829  1
  Te  Te150  1  0.93050502  0.93421167  0.07582609  1
  Te  Te151  1  0.92536773  0.89051406  0.41367652  1
  Te  Te152  1  0.90195260  0.90805883  0.73175062  1
  Te  Te153  1  0.26436462  0.10759300  0.25624575  1
  Te  Te154  1  0.24485724  0.10522301  0.60808411  1
  Te  Te155  1  0.24884572  0.07372901  0.92296313  1
  Te  Te156  1  0.24046757  0.40080924  0.26377708  1
  Te  Te157  1  0.22988403  0.43278406  0.58758479  1
  Te  Te158  1  0.25826986  0.46969351  0.89392754  1
  Te  Te159  1  0.25836307  0.72267857  0.24766902  1
  Te  Te160  1  0.25589007  0.73636635  0.61359235  1
  Te  Te161  1  0.24599425  0.72515016  0.93920823  1
  Te  Te162  1  0.59352945  0.08660956  0.24204131  1
  Te  Te163  1  0.58190457  0.09965905  0.59418887  1
  Te  Te164  1  0.59288112  0.12644696  0.87645000  1
  Te  Te165  1  0.63012218  0.38104566  0.28933179  1
  Te  Te166  1  0.59952420  0.41244158  0.57635014  1
  Te  Te167  1  0.55384850  0.43271585  0.92377118  1
  Te  Te168  1  0.57976989  0.76019475  0.25743685  1
  Te  Te169  1  0.57311708  0.76404185  0.58588466  1
  Te  Te170  1  0.58429178  0.69073086  0.93017047  1
  Te  Te171  1  0.90551542  0.09581022  0.25187470  1
  Te  Te172  1  0.90715302  0.08835297  0.58959936  1
  Te  Te173  1  0.92787642  0.08951535  0.90603085  1
  Te  Te174  1  0.90763640  0.43490279  0.25134807  1
  Te  Te175  1  0.93057073  0.42096481  0.56292067  1
  Te  Te176  1  0.95673046  0.37372063  0.97217443  1
  Te  Te177  1  0.90122740  0.77951120  0.25412965  1
  Te  Te178  1  0.92786837  0.69623743  0.57174940  1
  Te  Te179  1  0.91293592  0.75716666  0.91121098  1
