# generated using pymatgen
data_In2Te3
_symmetry_space_group_name_H-M   'P 1'
_cell_length_a   18.94401235
_cell_length_b   18.90752824
_cell_length_c   18.94550933
_cell_angle_alpha   89.91229398
_cell_angle_beta   89.70011164
_cell_angle_gamma   89.86749272
_symmetry_Int_Tables_number   1
_chemical_formula_structural   In2Te3
_chemical_formula_sum   'In72 Te108'
_cell_volume   6785.86788712
_cell_formula_units_Z   36
loop_
 _symmetry_equiv_pos_site_id
 _symmetry_equiv_pos_as_xyz
  1  'x, y, z'
loop_
 _atom_site_type_symbol
 _atom_site_label
 _atom_site_symmetry_multiplicity
 _atom_site_fract_x
 _atom_site_fract_y
 _atom_site_fract_z
 _atom_site_occupancy
  In  In0  1  0.84548967  0.00200332  0.51674276  1
  In  In1  1  0.67218395  -0.00891187  0.66556041  1
  In  In2  1  0.16140225  0.82996763  0.66791222  1
  In  In3  1  0.48399751  0.32983619  0.82383341  1
  In  In4  1  0.53237479  0.83688533  -0.00333626  1
  In  In5  1  0.46646278  0.20477244  0.31053529  1
  In  In6  1  -0.00815638  0.50202362  0.81696605  1
  In  In7  1  -0.03525955  -0.04417076  0.00785848  1
  In  In8  1  0.52766894  0.51002176  0.35797967  1
  In  In9  1  0.17013232  0.65214675  0.81039795  1
  In  In10  1  0.15550202  0.00386778  0.83070204  1
  In  In11  1  0.45770901  0.18344987  0.64651779  1
  In  In12  1  0.02295931  0.34058722  -0.02585865  1
  In  In13  1  0.84833806  0.51599539  0.00726215  1
  In  In14  1  0.28288955  0.17022925  0.82041265  1
  In  In15  1  0.17510629  0.17430508  0.67214207  1
  In  In16  1  0.15494985  0.19344041  -0.01088221  1
  In  In17  1  0.50370964  -0.00399442  0.48415441  1
  In  In18  1  0.67331363  0.32301499  0.02147655  1
  In  In19  1  0.31289627  0.01753023  0.34155780  1
  In  In20  1  -0.02119491  0.68730026  -0.02702425  1
  In  In21  1  0.66530397  0.19394694  0.50987090  1
  In  In22  1  0.33021757  0.49913589  0.81896509  1
  In  In23  1  0.15848711  0.66585529  0.49065354  1
  In  In24  1  0.35142148  0.80627823  0.19857507  1
  In  In25  1  0.16003356  0.19831842  0.34825118  1
  In  In26  1  0.50732168  0.19018049  0.00704189  1
  In  In27  1  0.02438755  0.18286627  0.14994406  1
  In  In28  1  0.82954615  0.17678149  0.35200246  1
  In  In29  1  0.82403949  0.81971427  0.66357695  1
  In  In30  1  -0.00343672  0.00730683  0.32785960  1
  In  In31  1  0.66166335  0.14627052  0.83845778  1
  In  In32  1  0.51139183  0.80225660  0.32044891  1
  In  In33  1  0.36979557  -0.00248417  0.00482838  1
  In  In34  1  0.01867211  0.65343634  0.32709423  1
  In  In35  1  0.30769375  0.67362253  0.01588258  1
  In  In36  1  0.65288299  -0.01095030  0.32604426  1
  In  In37  1  0.00847161  0.83278860  0.51625313  1
  In  In38  1  0.49401628  0.49352926  0.01735848  1
  In  In39  1  0.79391403  0.52769921  0.34458658  1
  In  In40  1  0.52930561  0.50615913  0.63034962  1
  In  In41  1  0.49930975  0.67435681  0.83571808  1
  In  In42  1  0.17277505  0.84276759  -0.00554863  1
  In  In43  1  0.32917213  0.64158416  0.33086387  1
  In  In44  1  0.68029898  0.33816708  0.67245633  1
  In  In45  1  -0.02070249  0.47513898  0.50442521  1
  In  In46  1  0.00294489  0.82251132  0.16114389  1
  In  In47  1  0.33395020  0.00209158  0.66104607  1
  In  In48  1  0.82869781  -0.03092964  0.81834514  1
  In  In49  1  0.17315857  0.49649750  0.02162852  1
  In  In50  1  0.81142604  0.78944706  0.36137733  1
  In  In51  1  0.68221016  0.35260489  0.32753269  1
  In  In52  1  0.14854316  0.32011673  0.81350824  1
  In  In53  1  -0.00854422  0.65823680  0.66872277  1
  In  In54  1  -0.01852193  0.33021954  0.66994183  1
  In  In55  1  0.65965599  0.65413318  0.65280156  1
  In  In56  1  0.34062481  0.35598072  0.01946999  1
  In  In57  1  0.54548974  0.67352757  0.16318666  1
  In  In58  1  0.84466294  0.35666694  0.19068255  1
  In  In59  1  0.51645250  -0.02175520  0.81354469  1
  In  In60  1  0.16250002  0.34666885  0.18825838  1
  In  In61  1  0.34112667  0.85177658  0.49599513  1
  In  In62  1  0.33124132  0.21309462  0.51735795  1
  In  In63  1  0.14956907  0.48787166  0.33515715  1
  In  In64  1  0.69077213  -0.02889015  -0.00581468  1
  In  In65  1  -0.01270438  0.18538348  0.48643940  1
  In  In66  1  0.69223309  0.49333201  0.85250987  1
  In  In67  1  0.37183642  0.64572445  0.64554743  1
  In  In68  1  0.82064207  0.16819271  -0.00320177  1
  In  In69  1  0.17978118  0.01687220  0.15460084  1
  In  In70  1  0.49582663  0.00849481  0.15254098  1
  In  In71  1  0.83248898  -0.00962017  0.16088078  1
  Te  Te72  1  0.07086926  0.06790410  0.06021499  1
  Te  Te73  1  0.08532801  0.08568497  0.42031870  1
  Te  Te74  1  0.07896431  0.07991196  0.73256368  1
  Te  Te75  1  0.06378547  0.42034035  0.09474050  1
  Te  Te76  1  0.08229432  0.39749158  0.43140948  1
  Te  Te77  1  0.09110133  0.42903776  0.72877652  1
  Te  Te78  1  0.09112341  0.73955012  0.06896569  1
  Te  Te79  1  0.08810393  0.76768248  0.40433940  1
  Te  Te80  1  0.06784689  0.75260388  0.75985585  1
  Te  Te81  1  0.40319655  0.11451881  0.09604057  1
  Te  Te82  1  0.41476612  0.10137413  0.41943259  1
  Te  Te83  1  0.41043922  0.08598780  0.76644792  1
  Te  Te84  1  0.44357828  0.39522384  0.11865419  1
  Te  Te85  1  0.44738767  0.41691846  0.44263631  1
  Te  Te86  1  0.42942082  0.42986343  0.72687624  1
  Te  Te87  1  0.42912512  0.75021462  0.07944046  1
  Te  Te88  1  0.41036180  0.74168090  0.41646845  1
  Te  Te89  1  0.40909614  0.74500133  0.74490976  1
  Te  Te90  1  0.73472385  0.08240810  0.08892927  1
  Te  Te91  1  0.73751447  0.07724900  0.42202280  1
  Te  Te92  1  0.76130468  0.08507982  0.74346076  1
  Te  Te93  1  0.75378428  0.42770568  0.09358622  1
  Te  Te94  1  0.74166142  0.42576831  0.44358326  1
  Te  Te95  1  0.76863155  0.44020487  0.73648102  1
  Te  Te96  1  0.68919095  0.71711344  0.12841536  1
  Te  Te97  1  0.72827041  0.70827145  0.46472057  1
  Te  Te98  1  0.76214540  0.71004972  0.74367643  1
  Te  Te99  1  0.05388710  0.27164117  0.26795785  1
  Te  Te100  1  0.08205351  0.25548836  0.58304315  1
  Te  Te101  1  0.04860841  0.21662205  0.87675064  1
  Te  Te102  1  0.10932186  0.58615810  0.23283218  1
  Te  Te103  1  0.07615340  0.57309707  0.57699318  1
  Te  Te104  1  0.09200238  0.57231367  0.91582232  1
  Te  Te105  1  0.08754870  0.92633129  0.23610901  1
  Te  Te106  1  0.08593560  0.93055192  0.59135345  1
  Te  Te107  1  0.06659722  0.90472123  0.90693211  1
  Te  Te108  1  0.38961476  0.31920634  0.26096201  1
  Te  Te109  1  0.45400893  0.30064044  0.55116087  1
  Te  Te110  1  0.39303345  0.24823563  0.91484742  1
  Te  Te111  1  0.44808252  0.59254242  0.25030880  1
  Te  Te112  1  0.41101012  0.54188563  0.54429996  1
  Te  Te113  1  0.40287897  0.57796501  0.92611968  1
  Te  Te114  1  0.41871106  0.92610094  0.26352976  1
  Te  Te115  1  0.43890156  0.91314446  0.59507600  1
  Te  Te116  1  0.42327295  0.89753760  0.90526618  1
  Te  Te117  1  0.75628892  0.24451498  0.23927890  1
  Te  Te118  1  0.76867988  0.24076145  0.60123441  1
  Te  Te119  1  0.74299594  0.25748293  0.90104046  1
  Te  Te120  1  0.74640549  0.61497687  0.23206643  1
  Te  Te121  1  0.74015059  0.58308299  0.54771193  1
  Te  Te122  1  0.75171155  0.60040356  0.93305548  1
  Te  Te123  1  0.76301398  0.90485162  0.26542570  1
  Te  Te124  1  0.74129744  0.90243020  0.56384734  1
  Te  Te125  1  0.75418723  0.86932306  0.90405903  1
  Te  Te126  1  0.24306846  0.26098955  0.08932316  1
  Te  Te127  1  0.24554587  0.29516546  0.42304764  1
  Te  Te128  1  0.27562087  0.28994573  0.71930969  1
  Te  Te129  1  0.27460812  0.56168713  0.10364391  1
  Te  Te130  1  0.24699497  0.55928445  0.42991032  1
  Te  Te131  1  0.25031222  0.56869583  0.71203583  1
  Te  Te132  1  0.27188330  0.90833047  0.09319530  1
  Te  Te133  1  0.23773036  0.91737651  0.41635371  1
  Te  Te134  1  0.25373988  0.91487089  0.75606081  1
  Te  Te135  1  0.58386532  0.25202902  0.11443135  1
  Te  Te136  1  0.58772507  0.25195721  0.39411330  1
  Te  Te137  1  0.57673233  0.23727736  0.74575682  1
  Te  Te138  1  0.60458844  0.58317572  0.05490496  1
  Te  Te139  1  0.60098947  0.61439970  0.44940256  1
  Te  Te140  1  0.58133302  0.56392030  0.76619225  1
  Te  Te141  1  0.60287129  0.91031765  0.10829533  1
  Te  Te142  1  0.58942716  0.88766132  0.42024468  1
  Te  Te143  1  0.60782020  0.88651326  0.74650094  1
  Te  Te144  1  0.92148928  0.25872854  0.06569412  1
  Te  Te145  1  0.89335015  0.28255918  0.42724172  1
  Te  Te146  1  0.92991818  0.26281863  0.78863564  1
  Te  Te147  1  0.92219005  0.61472630  0.08693967  1
  Te  Te148  1  0.91902099  0.58484210  0.41804236  1
  Te  Te149  1  0.89865996  0.61042697  0.77496003  1
  Te  Te150  1  0.87344588  0.86274293  0.08679480  1
  Te  Te151  1  0.91295286  0.91216122  0.41214265  1
  Te  Te152  1  0.92166630  0.91248521  0.72062275  1
  Te  Te153  1  0.24484590  0.11626211  0.24863833  1
  Te  Te154  1  0.25062958  0.08851330  0.57171150  1
  Te  Te155  1  0.24891818  0.07179713  0.93511000  1
  Te  Te156  1  0.26937606  0.42084946  0.26118518  1
  Te  Te157  1  0.27808013  0.34563364  0.57361789  1
  Te  Te158  1  0.23912884  0.40645449  0.90771380  1
  Te  Te159  1  0.23962079  0.73157286  0.25371942  1
  Te  Te160  1  0.25428110  0.74546733  0.57997150  1
  Te  Te161  1  0.24891515  0.74908520  0.89978005  1
  Te  Te162  1  0.56469225  0.09179721  0.25855457  1
  Te  Te163  1  0.57518170  0.08699202  0.58575602  1
  Te  Te164  1  0.57466014  0.06587663  0.93437999  1
  Te  Te165  1  0.60636908  0.45078172  0.24866957  1
  Te  Te166  1  0.62368066  0.41523776  0.55758170  1
  Te  Te167  1  0.57660297  0.40081571  0.91974746  1
  Te  Te168  1  0.63933315  0.72101333  0.28277770  1
  Te  Te169  1  0.55964090  0.71039901  0.55962809  1
  Te  Te170  1  0.60550800  0.74408819  0.90977253  1
  Te  Te171  1  0.91916183  0.09476818  0.23029160  1
  Te  Te172  1  0.90647913  0.11287321  0.58840732  1
  Te  Te173  1  0.89727942  0.06060636  0.92138161  1
  Te  Te174  1  0.90653284  0.45779242  0.27379040  1
  Te  Te175  1  0.89129867  0.43852971  0.61941664  1
  Te  Te176  1  0.90861796  0.41229903  0.90767857  1
  Te  Te177  1  0.91597624  0.74344746  0.25825674  1
  Te  Te178  1  0.90851363  0.73321114  0.56715721  1
  Te  Te179  1  0.89090195  0.79195125  0.92005041  1
