# generated using pymatgen
data_In2Te3
_symmetry_space_group_name_H-M   'P 1'
_cell_length_a   18.96047169
_cell_length_b   18.95152581
_cell_length_c   18.94691853
_cell_angle_alpha   89.74544395
_cell_angle_beta   89.97707352
_cell_angle_gamma   89.94798442
_symmetry_Int_Tables_number   1
_chemical_formula_structural   In2Te3
_chemical_formula_sum   'In72 Te108'
_cell_volume   6808.12321026
_cell_formula_units_Z   36
loop_
 _symmetry_equiv_pos_site_id
 _symmetry_equiv_pos_as_xyz
  1  'x, y, z'
loop_
 _atom_site_type_symbol
 _atom_site_label
 _atom_site_symmetry_multiplicity
 _atom_site_fract_x
 _atom_site_fract_y
 _atom_site_fract_z
 _atom_site_occupancy
  In  In0  1  0.49011692  0.50664564  0.63776276  1
  In  In1  1  0.81421490  0.31108483  0.81550770  1
  In  In2  1  -0.03110345  0.14000319  0.85533742  1
  In  In3  1  0.53942867  0.17114291  -0.00418645  1
  In  In4  1  0.17518639  -0.01435135  0.53519436  1
  In  In5  1  0.47909467  0.68662643  0.80464942  1
  In  In6  1  0.15181029  0.35247031  0.82526084  1
  In  In7  1  0.50551183  0.15590093  0.67780153  1
  In  In8  1  0.52158409  0.52513844  0.36497270  1
  In  In9  1  0.33418851  0.81731977  0.16247163  1
  In  In10  1  -0.00314634  0.84609789  0.82808713  1
  In  In11  1  0.84010573  0.51189976  0.33860853  1
  In  In12  1  0.80271698  0.33480047  0.50713344  1
  In  In13  1  0.34661316  0.79794494  0.47014668  1
  In  In14  1  0.51004853  0.63882497  0.18266785  1
  In  In15  1  0.49124359  0.17400575  0.35075325  1
  In  In16  1  0.16381605  0.51521284  0.33188942  1
  In  In17  1  0.83181042  0.52208132  0.63153988  1
  In  In18  1  0.67113199  0.34359168  0.00799915  1
  In  In19  1  0.66710565  0.49501954  0.19972970  1
  In  In20  1  0.47113998  -0.00477014  0.15252016  1
  In  In21  1  0.67994198  0.01588116  -0.00400211  1
  In  In22  1  0.82230117  0.17753280  0.32996347  1
  In  In23  1  0.67657334  0.00936267  0.34163794  1
  In  In24  1  0.68434538  0.80537335  0.46906080  1
  In  In25  1  -0.02079718  0.30421039  0.00856062  1
  In  In26  1  -0.03996874  0.84964158  0.18041263  1
  In  In27  1  0.17235480  0.81845978  -0.02463483  1
  In  In28  1  0.66321365  0.85762318  0.83294157  1
  In  In29  1  0.84945206  0.68753416  0.83911644  1
  In  In30  1  0.32894178  0.15390801  0.18546870  1
  In  In31  1  0.17426286  -0.00119921  0.80723908  1
  In  In32  1  0.48470164  0.50303425  -0.02998823  1
  In  In33  1  0.35347625  0.35679405  0.65023897  1
  In  In34  1  0.85176283  0.00304840  0.49998237  1
  In  In35  1  0.68563349  0.81310411  0.22637881  1
  In  In36  1  0.50783610  0.83377436  -0.01177363  1
  In  In37  1  0.14948645  0.34456179  0.15974776  1
  In  In38  1  0.17058379  0.33719847  0.49261397  1
  In  In39  1  0.31635178  0.34726933  0.33973820  1
  In  In40  1  0.52927370  0.31996926  0.51222948  1
  In  In41  1  -0.01571574  0.14901420  0.16348137  1
  In  In42  1  -0.01553579  0.17235793  0.50282535  1
  In  In43  1  0.34295949  0.33053629  0.00276995  1
  In  In44  1  0.32027879  -0.02205898  0.34447883  1
  In  In45  1  0.13641391  0.13650708  0.01881591  1
  In  In46  1  0.33604259  -0.01902763  -0.01780388  1
  In  In47  1  0.17124117  0.82476128  0.64629871  1
  In  In48  1  -0.00579279  0.65291501  0.00278348  1
  In  In49  1  0.02308217  -0.02899679  0.33148410  1
  In  In50  1  0.67455574  0.65963165  0.63755296  1
  In  In51  1  0.66492865  0.00500275  0.67067823  1
  In  In52  1  0.17925076  0.52517179  0.00225823  1
  In  In53  1  0.01791878  0.80809176  0.49078065  1
  In  In54  1  0.00714219  0.50337874  0.49489658  1
  In  In55  1  0.66855712  0.15470676  0.82867203  1
  In  In56  1  0.25761071  0.68798731  0.78522010  1
  In  In57  1  0.15985384  0.16321536  0.33260615  1
  In  In58  1  0.00957071  0.51491912  0.17913507  1
  In  In59  1  0.49179840  0.33736921  0.77995961  1
  In  In60  1  0.34275697  0.53163987  0.48112336  1
  In  In61  1  0.49547470  -0.01823325  0.50628613  1
  In  In62  1  0.00644012  0.67639718  0.64951250  1
  In  In63  1  0.85136415  0.50351295  0.02571499  1
  In  In64  1  0.85396568  0.83498873  0.65291268  1
  In  In65  1  0.17270127  0.65915348  0.17276394  1
  In  In66  1  0.68139004  0.51221248  0.83962224  1
  In  In67  1  0.17091464  0.16485326  0.66613495  1
  In  In68  1  0.34634864  0.16262581  0.81718574  1
  In  In69  1  0.65934673  0.17105144  0.17532045  1
  In  In70  1  0.00825897  0.48457031  0.83485158  1
  In  In71  1  0.65705707  0.69502751  0.04158101  1
  Te  Te72  1  0.07432167  0.04016876  0.11241236  1
  Te  Te73  1  0.08798546  0.07495788  0.43588127  1
  Te  Te74  1  0.06920513  0.08581141  0.74507999  1
  Te  Te75  1  0.06786584  0.42675817  0.06064824  1
  Te  Te76  1  0.07925595  0.40780758  0.39543857  1
  Te  Te77  1  0.08689408  0.43366183  0.72030542  1
  Te  Te78  1  0.08647861  0.74627904  0.07820316  1
  Te  Te79  1  0.09535990  0.69981044  0.42786394  1
  Te  Te80  1  0.08739086  0.74823012  0.75631958  1
  Te  Te81  1  0.41120140  0.10388208  0.06387457  1
  Te  Te82  1  0.40316544  0.07479506  0.42516841  1
  Te  Te83  1  0.40648405  0.06094481  0.73111645  1
  Te  Te84  1  0.41575597  0.43142055  0.07884143  1
  Te  Te85  1  0.42222472  0.40888129  0.42946831  1
  Te  Te86  1  0.39587835  0.45834603  0.76252398  1
  Te  Te87  1  0.44137103  0.74097829  0.08852289  1
  Te  Te88  1  0.43153285  0.72338311  0.37136901  1
  Te  Te89  1  0.37551608  0.76059805  0.72990935  1
  Te  Te90  1  0.75461857  0.09099979  0.09853893  1
  Te  Te91  1  0.75024803  0.09824614  0.43880316  1
  Te  Te92  1  0.76469742  0.07724137  0.75046020  1
  Te  Te93  1  0.76084971  0.41422095  0.10697476  1
  Te  Te94  1  0.73849979  0.43723706  0.42089529  1
  Te  Te95  1  0.76482169  0.43466003  0.74079008  1
  Te  Te96  1  0.75975818  0.77472384  0.10358538  1
  Te  Te97  1  0.76039583  0.75057700  0.35031101  1
  Te  Te98  1  0.75137721  0.74622901  0.73811627  1
  Te  Te99  1  0.07079089  0.24863112  0.24622203  1
  Te  Te100  1  0.08202750  0.25720486  0.58537427  1
  Te  Te101  1  0.08969629  0.24699706  0.92108698  1
  Te  Te102  1  0.06203825  0.61682336  0.27809076  1
  Te  Te103  1  0.09034054  0.56661299  0.60073524  1
  Te  Te104  1  0.08966051  0.59454357  0.90046936  1
  Te  Te105  1  0.08814733  0.86399612  0.25483104  1
  Te  Te106  1  0.05729289  0.91154711  0.59541265  1
  Te  Te107  1  0.09014107  0.93018657  0.91382942  1
  Te  Te108  1  0.40924176  0.26069095  0.25324744  1
  Te  Te109  1  0.41980292  0.24031432  0.58158340  1
  Te  Te110  1  0.43727705  0.25332226  0.90133742  1
  Te  Te111  1  0.40904325  0.59321128  0.28635386  1
  Te  Te112  1  0.41509605  0.61590909  0.57671140  1
  Te  Te113  1  0.40500600  0.61576803  0.91494572  1
  Te  Te114  1  0.41881075  0.90244179  0.25907410  1
  Te  Te115  1  0.40645391  0.88500696  0.57160963  1
  Te  Te116  1  0.42426965  0.90750599  0.89390871  1
  Te  Te117  1  0.71828073  0.26597087  0.27215486  1
  Te  Te118  1  0.72548721  0.27235909  0.61469312  1
  Te  Te119  1  0.74773272  0.23795547  0.93046383  1
  Te  Te120  1  0.73609591  0.60155029  0.27322721  1
  Te  Te121  1  0.72906344  0.56983670  0.52761079  1
  Te  Te122  1  0.76879992  0.59409602  0.93256280  1
  Te  Te123  1  0.75893405  0.94082308  0.24374108  1
  Te  Te124  1  0.74654178  0.90447513  0.56913809  1
  Te  Te125  1  0.76087798  0.91981070  0.91931829  1
  Te  Te126  1  0.23909881  0.24321273  0.09016089  1
  Te  Te127  1  0.25807025  0.23366862  0.42377084  1
  Te  Te128  1  0.26166210  0.27018712  0.74607626  1
  Te  Te129  1  0.27334389  0.58762984  0.09350615  1
  Te  Te130  1  0.22770268  0.61587622  0.42492578  1
  Te  Te131  1  0.27345923  0.55163421  0.73970437  1
  Te  Te132  1  0.24696990  0.91064377  0.07824579  1
  Te  Te133  1  0.22822549  0.89412922  0.42805320  1
  Te  Te134  1  0.25711194  0.89278304  0.74744986  1
  Te  Te135  1  0.56927678  0.27534040  0.09763259  1
  Te  Te136  1  0.60498422  0.24889642  0.40652938  1
  Te  Te137  1  0.61541056  0.25901352  0.72518508  1
  Te  Te138  1  0.59327834  0.56119840  0.07105264  1
  Te  Te139  1  0.59001407  0.61208931  0.46292226  1
  Te  Te140  1  0.58466227  0.58384162  0.74539067  1
  Te  Te141  1  0.58326447  0.92679321  0.08057946  1
  Te  Te142  1  0.58629497  0.90836735  0.40946739  1
  Te  Te143  1  0.57829595  0.89918588  0.72328821  1
  Te  Te144  1  0.88642422  0.24013447  0.10074586  1
  Te  Te145  1  0.90944559  0.26778968  0.41422785  1
  Te  Te146  1  0.93577240  0.24998361  0.76417275  1
  Te  Te147  1  0.90490077  0.60977659  0.11827543  1
  Te  Te148  1  0.91462344  0.60028185  0.43224848  1
  Te  Te149  1  0.91755204  0.58624951  0.74891423  1
  Te  Te150  1  0.93734150  0.95159979  0.07586502  1
  Te  Te151  1  0.91427158  0.89555045  0.41318320  1
  Te  Te152  1  0.89704033  0.92726597  0.75704058  1
  Te  Te153  1  0.23163558  0.05771729  0.24915841  1
  Te  Te154  1  0.26908421  0.07231544  0.60750036  1
  Te  Te155  1  0.24658204  0.09503033  0.91227665  1
  Te  Te156  1  0.24719748  0.43279785  0.23413676  1
  Te  Te157  1  0.25500522  0.43690364  0.56718149  1
  Te  Te158  1  0.25121634  0.41905392  0.91948413  1
  Te  Te159  1  0.24341709  0.75463109  0.25986060  1
  Te  Te160  1  0.23879746  0.73013663  0.55431290  1
  Te  Te161  1  0.28007163  0.72922343  0.92692720  1
  Te  Te162  1  0.55650143  0.07706151  0.24855707  1
  Te  Te163  1  0.58571051  0.08681499  0.56948098  1
  Te  Te164  1  0.56804297  0.06389839  0.89621031  1
  Te  Te165  1  0.56278443  0.42212531  0.27011241  1
  Te  Te166  1  0.59860822  0.41553109  0.59917469  1
  Te  Te167  1  0.58764253  0.40389451  0.89368813  1
  Te  Te168  1  0.55918413  0.74364719  0.27758621  1
  Te  Te169  1  0.57850190  0.74383425  0.55893909  1
  Te  Te170  1  0.59571257  0.73150527  0.90670080  1
  Te  Te171  1  0.92225577  0.07237463  0.27963577  1
  Te  Te172  1  0.90372305  0.09647556  0.59836227  1
  Te  Te173  1  0.91869165  0.06074492  0.96527443  1
  Te  Te174  1  0.91816529  0.42436549  0.24747373  1
  Te  Te175  1  0.91832417  0.41152488  0.57993356  1
  Te  Te176  1  0.90158971  0.40923317  0.91619170  1
  Te  Te177  1  0.90499467  0.77527617  0.29536415  1
  Te  Te178  1  0.89754802  0.72640556  0.55451859  1
  Te  Te179  1  0.92121789  0.77219297  0.94017234  1
