# generated using pymatgen
data_In2Te3
_symmetry_space_group_name_H-M   'P 1'
_cell_length_a   18.79069771
_cell_length_b   18.78298086
_cell_length_c   18.79024870
_cell_angle_alpha   89.98865608
_cell_angle_beta   89.93218962
_cell_angle_gamma   90.05473889
_symmetry_Int_Tables_number   1
_chemical_formula_structural   In2Te3
_chemical_formula_sum   'In72 Te108'
_cell_volume   6631.92245387
_cell_formula_units_Z   36
loop_
 _symmetry_equiv_pos_site_id
 _symmetry_equiv_pos_as_xyz
  1  'x, y, z'
loop_
 _atom_site_type_symbol
 _atom_site_label
 _atom_site_symmetry_multiplicity
 _atom_site_fract_x
 _atom_site_fract_y
 _atom_site_fract_z
 _atom_site_occupancy
  In  In0  1  0.47767736  0.48882599  -0.01201672  1
  In  In1  1  0.48996031  0.01872687  0.15869888  1
  In  In2  1  0.85707012  0.18136400  0.02653257  1
  In  In3  1  -0.00102044  0.67050000  -0.00824453  1
  In  In4  1  0.66887378  0.68618578  0.00233008  1
  In  In5  1  0.16465066  0.66642798  0.82264927  1
  In  In6  1  0.83521435  0.51394705  0.66327460  1
  In  In7  1  0.68140728  0.48568769  0.17037408  1
  In  In8  1  0.83433109  -0.02574058  0.82149557  1
  In  In9  1  0.32495069  0.80925291  0.51481308  1
  In  In10  1  0.16897859  0.33151501  0.84215122  1
  In  In11  1  0.49584926  -0.00206158  0.83134818  1
  In  In12  1  0.00561421  0.64759419  0.33803844  1
  In  In13  1  0.50900895  0.16721827  0.65844626  1
  In  In14  1  0.32326498  -0.00762718  0.67874651  1
  In  In15  1  0.64048285  0.48551545  0.54593181  1
  In  In16  1  0.32370728  0.35705411  0.32378737  1
  In  In17  1  -0.00124518  0.66084718  0.66512782  1
  In  In18  1  0.16006417  0.51231685  0.66096369  1
  In  In19  1  0.63724421  0.49748281  0.82203263  1
  In  In20  1  0.67831178  0.16711218  0.49684667  1
  In  In21  1  0.32159945  0.50552683  0.52044827  1
  In  In22  1  0.33766080  0.67758086  0.67414951  1
  In  In23  1  0.14986332  0.18037974  0.66850578  1
  In  In24  1  0.34822941  0.17776582  0.14486308  1
  In  In25  1  0.48087842  0.50386271  0.33704450  1
  In  In26  1  0.67456226  0.82046781  0.82496270  1
  In  In27  1  0.50427763  0.69361944  0.50209891  1
  In  In28  1  0.02492612  0.36639741  0.34767851  1
  In  In29  1  0.69208238  0.67191369  0.35543022  1
  In  In30  1  0.51272647  -0.01251872  0.47346415  1
  In  In31  1  0.15649454  0.83621280  0.00118644  1
  In  In32  1  0.66581847  0.33368723  0.00549525  1
  In  In33  1  0.82353141  0.32416971  0.49798114  1
  In  In34  1  0.65277781  -0.01307396  0.33599694  1
  In  In35  1  0.32500086  -0.01907941  0.32220752  1
  In  In36  1  -0.01154253  -0.01599952  0.66616111  1
  In  In37  1  0.32330605  0.65283208  0.35431172  1
  In  In38  1  0.68341726  0.83052329  0.16291967  1
  In  In39  1  0.51401527  0.84106421  -0.02848030  1
  In  In40  1  0.49882200  0.33174061  0.14014558  1
  In  In41  1  0.50869876  0.82300526  0.67580875  1
  In  In42  1  0.84016092  0.34222423  0.83238699  1
  In  In43  1  -0.00984627  0.15165268  0.50894066  1
  In  In44  1  0.14896164  0.00587578  0.15323505  1
  In  In45  1  -0.01026430  0.33822261  0.66344023  1
  In  In46  1  0.52490866  0.16573901  0.34706670  1
  In  In47  1  0.33072776  0.64943639  -0.00695958  1
  In  In48  1  0.84312722  0.51767555  0.33912316  1
  In  In49  1  0.51241205  0.66033860  0.17329304  1
  In  In50  1  -0.01422678  0.01347353  0.33866831  1
  In  In51  1  0.83790721  0.67928776  0.83117548  1
  In  In52  1  0.33911213  0.32430182  -0.00804972  1
  In  In53  1  0.83591030  0.83605772  0.34324672  1
  In  In54  1  0.17986980  0.82639712  0.34390602  1
  In  In55  1  -0.00455702  0.49504377  0.17517289  1
  In  In56  1  0.00501454  0.82155560  0.52363837  1
  In  In57  1  0.84930666  0.49294032  -0.01447692  1
  In  In58  1  0.19736082  0.01453958  0.85641780  1
  In  In59  1  0.15394293  0.33780152  0.18464104  1
  In  In60  1  0.68874232  0.01642321  -0.01674916  1
  In  In61  1  -0.00627709  0.83227320  0.14963449  1
  In  In62  1  0.67003196  0.15622779  0.81094345  1
  In  In63  1  0.31107790  0.17487427  0.50433371  1
  In  In64  1  0.82996598  0.16028659  0.31026154  1
  In  In65  1  0.00142767  -0.00174006  -0.00103379  1
  In  In66  1  0.34128477  0.84078652  0.16562779  1
  In  In67  1  -0.00431770  0.18884429  0.83267111  1
  In  In68  1  0.35313979  0.35263397  0.69264610  1
  In  In69  1  0.68134904  0.31361578  0.34146756  1
  In  In70  1  0.14879111  0.17543956  0.32716328  1
  In  In71  1  0.17922459  0.48627266  -0.00290433  1
  Te  Te72  1  0.08981512  0.10229439  0.05868799  1
  Te  Te73  1  0.09467891  0.07370980  0.42738475  1
  Te  Te74  1  0.07961268  0.08036729  0.76088763  1
  Te  Te75  1  0.07086879  0.40820719  0.07431376  1
  Te  Te76  1  0.08830064  0.46513879  0.43598831  1
  Te  Te77  1  0.07886111  0.42009571  0.75440990  1
  Te  Te78  1  0.09534055  0.73313003  0.09500596  1
  Te  Te79  1  0.09343242  0.73699134  0.42868847  1
  Te  Te80  1  0.08483973  0.75679960  0.73840551  1
  Te  Te81  1  0.40352233  0.07559611  0.05078349  1
  Te  Te82  1  0.40576457  0.09052135  0.41385284  1
  Te  Te83  1  0.41006833  0.09529448  0.75036061  1
  Te  Te84  1  0.39019104  0.42684949  0.09684722  1
  Te  Te85  1  0.41212693  0.41233571  0.43662634  1
  Te  Te86  1  0.45916676  0.45198808  0.73791119  1
  Te  Te87  1  0.43344243  0.75207820  0.07832074  1
  Te  Te88  1  0.41567160  0.76452071  0.39982411  1
  Te  Te89  1  0.40452166  0.77310347  0.76716677  1
  Te  Te90  1  0.76018580  0.08862488  0.08971587  1
  Te  Te91  1  0.76468637  0.06251069  0.42340125  1
  Te  Te92  1  0.74983636  0.05881692  0.73039743  1
  Te  Te93  1  0.77627142  0.40140317  0.08664592  1
  Te  Te94  1  0.73622353  0.43272100  0.42065692  1
  Te  Te95  1  0.74468851  0.41924272  0.74380889  1
  Te  Te96  1  0.77481850  0.74436777  0.08466883  1
  Te  Te97  1  0.75657380  0.76694096  0.44865592  1
  Te  Te98  1  0.74589252  0.73315944  0.72755137  1
  Te  Te99  1  0.04583630  0.23706400  0.23380906  1
  Te  Te100  1  0.07906439  0.26478468  0.56305119  1
  Te  Te101  1  0.09311840  0.23950298  0.93122482  1
  Te  Te102  1  0.09871515  0.57224253  0.24845840  1
  Te  Te103  1  0.06107491  0.56677301  0.56222786  1
  Te  Te104  1  0.08350509  0.57266331  0.91219324  1
  Te  Te105  1  0.08433449  0.91203291  0.25741359  1
  Te  Te106  1  0.09656940  0.91598265  0.59187743  1
  Te  Te107  1  0.07929562  0.91585364  0.89828431  1
  Te  Te108  1  0.42160565  0.24998974  0.26086043  1
  Te  Te109  1  0.41054685  0.25743127  0.58393904  1
  Te  Te110  1  0.40045281  0.21655455  0.91377899  1
  Te  Te111  1  0.39869125  0.58136929  0.23687851  1
  Te  Te112  1  0.43069186  0.59042951  0.58769356  1
  Te  Te113  1  0.42739336  0.59290323  0.89684340  1
  Te  Te114  1  0.44343379  0.91153770  0.25790916  1
  Te  Te115  1  0.42042088  0.91982363  0.58063548  1
  Te  Te116  1  0.40204051  0.90770062  0.90311503  1
  Te  Te117  1  0.74413472  0.24733400  0.22695411  1
  Te  Te118  1  0.74284554  0.25267148  0.59801808  1
  Te  Te119  1  0.75479638  0.24249414  0.91471684  1
  Te  Te120  1  0.75830662  0.59761075  0.23843278  1
  Te  Te121  1  0.73399916  0.59080019  0.58737806  1
  Te  Te122  1  0.74099228  0.57436902  0.91435205  1
  Te  Te123  1  0.76379619  0.92972856  0.24633024  1
  Te  Te124  1  0.74154658  0.99752199  0.55884920  1
  Te  Te125  1  0.75901186  0.89297539  0.92911832  1
  Te  Te126  1  0.23456230  0.25567014  0.08289979  1
  Te  Te127  1  0.23258379  0.26986611  0.41353342  1
  Te  Te128  1  0.25821026  0.24515068  0.75288531  1
  Te  Te129  1  0.23912146  0.58571938  0.08822507  1
  Te  Te130  1  0.22386066  0.56378561  0.42233155  1
  Te  Te131  1  0.26398898  0.57025479  0.75582436  1
  Te  Te132  1  0.25510943  0.92857199  0.07481947  1
  Te  Te133  1  0.24922725  0.92312060  0.43880010  1
  Te  Te134  1  0.23532649  0.90783727  0.76120951  1
  Te  Te135  1  0.58099551  0.23177652  0.07286679  1
  Te  Te136  1  0.57489642  0.27193933  0.44215634  1
  Te  Te137  1  0.58556661  0.26185371  0.74514441  1
  Te  Te138  1  0.58777487  0.56544450  0.07647214  1
  Te  Te139  1  0.58104445  0.58263787  0.42032475  1
  Te  Te140  1  0.55834123  0.57274764  0.72111407  1
  Te  Te141  1  0.58829594  0.92209990  0.07879511  1
  Te  Te142  1  0.60291328  0.87962484  0.42673502  1
  Te  Te143  1  0.59943823  0.92653612  0.74500380  1
  Te  Te144  1  0.95790070  0.25314097  0.10285395  1
  Te  Te145  1  0.91999399  0.24631373  0.40849183  1
  Te  Te146  1  0.89474410  0.23982156  0.72975192  1
  Te  Te147  1  0.91081858  0.58830747  0.08721472  1
  Te  Te148  1  0.90607615  0.60373130  0.43937622  1
  Te  Te149  1  0.92678089  0.57192871  0.76986480  1
  Te  Te150  1  0.90400821  0.92864224  0.08540458  1
  Te  Te151  1  0.92053398  0.92094167  0.43863733  1
  Te  Te152  1  0.90334491  0.87793679  0.73026676  1
  Te  Te153  1  0.25163775  0.09182224  0.24555479  1
  Te  Te154  1  0.23100482  0.07771510  0.58858905  1
  Te  Te155  1  0.28378481  0.11410444  0.92490629  1
  Te  Te156  1  0.22782453  0.44666887  0.25444700  1
  Te  Te157  1  0.24274746  0.39954465  0.59712952  1
  Te  Te158  1  0.27752453  0.42586764  0.89562953  1
  Te  Te159  1  0.25513433  0.74209051  0.24285117  1
  Te  Te160  1  0.22817597  0.72580421  0.58647217  1
  Te  Te161  1  0.25096692  0.75396820  0.91442262  1
  Te  Te162  1  0.59865428  0.09298008  0.23703634  1
  Te  Te163  1  0.59235515  0.06241152  0.58211335  1
  Te  Te164  1  0.57715766  0.09577957  0.91743508  1
  Te  Te165  1  0.57564012  0.41227647  0.25461395  1
  Te  Te166  1  0.56416248  0.39542193  0.63583973  1
  Te  Te167  1  0.56371323  0.39116483  0.90842188  1
  Te  Te168  1  0.59628066  0.75040184  0.26039663  1
  Te  Te169  1  0.60766590  0.75964390  0.58578494  1
  Te  Te170  1  0.57300168  0.72548282  0.89050226  1
  Te  Te171  1  0.91960080  0.07789823  0.22436078  1
  Te  Te172  1  0.89271476  0.07592047  0.59356473  1
  Te  Te173  1  0.90396927  0.08531133  0.90434523  1
  Te  Te174  1  0.90537187  0.40377657  0.26053619  1
  Te  Te175  1  0.91483876  0.42630590  0.56443584  1
  Te  Te176  1  0.94380556  0.40245390  0.91710709  1
  Te  Te177  1  0.92146217  0.74677193  0.25352447  1
  Te  Te178  1  0.89782643  0.75347623  0.60306150  1
  Te  Te179  1  0.92275259  0.76852348  0.91263525  1
