# generated using pymatgen
data_In2Te3
_symmetry_space_group_name_H-M   'P 1'
_cell_length_a   18.78227363
_cell_length_b   18.79825058
_cell_length_c   18.78896170
_cell_angle_alpha   90.03720211
_cell_angle_beta   90.04330501
_cell_angle_gamma   89.93222602
_symmetry_Int_Tables_number   1
_chemical_formula_structural   In2Te3
_chemical_formula_sum   'In72 Te108'
_cell_volume   6633.88379177
_cell_formula_units_Z   36
loop_
 _symmetry_equiv_pos_site_id
 _symmetry_equiv_pos_as_xyz
  1  'x, y, z'
loop_
 _atom_site_type_symbol
 _atom_site_label
 _atom_site_symmetry_multiplicity
 _atom_site_fract_x
 _atom_site_fract_y
 _atom_site_fract_z
 _atom_site_occupancy
  In  In0  1  0.34065094  0.67128852  0.67850065  1
  In  In1  1  0.14943647  0.35696043  0.50166650  1
  In  In2  1  0.13356632  0.32715807  0.16774933  1
  In  In3  1  0.50813118  0.84355127  0.30070696  1
  In  In4  1  0.67143600  0.16162599  0.13826106  1
  In  In5  1  0.33314600  0.83062715  0.81135701  1
  In  In6  1  0.69205075  0.16740656  0.84404049  1
  In  In7  1  0.50089630  0.34788065  0.86288479  1
  In  In8  1  0.67539978  0.02614030  0.67746680  1
  In  In9  1  0.81873314  -0.00706304  0.16221637  1
  In  In10  1  0.83202093  0.49655249  0.00493952  1
  In  In11  1  0.32947805  0.33038096  0.33954078  1
  In  In12  1  0.34462833  0.00044416  0.01600715  1
  In  In13  1  0.31847696  0.17338848  0.84758893  1
  In  In14  1  0.13013933  0.18353266  -0.02007583  1
  In  In15  1  0.51356919  0.35041139  0.52696333  1
  In  In16  1  0.67259462  0.67283728  -0.00404658  1
  In  In17  1  0.50529216  0.80944111  0.02523708  1
  In  In18  1  0.00494146  0.82856267  0.15973463  1
  In  In19  1  0.50180305  0.49929541  0.33055344  1
  In  In20  1  -0.00896146  0.50271378  0.50450146  1
  In  In21  1  -0.00237375  0.66060845  0.32745040  1
  In  In22  1  0.80643256  0.65715420  0.15260140  1
  In  In23  1  0.52331965  0.49872385  0.67566009  1
  In  In24  1  0.17226193  0.79214641  0.31313628  1
  In  In25  1  0.13491286  0.84970401  0.67978911  1
  In  In26  1  0.00011974  0.50650270  0.81426190  1
  In  In27  1  0.33034214  0.14260778  0.14320092  1
  In  In28  1  0.84604191  -0.01475320  0.50154864  1
  In  In29  1  0.50596948  0.81608206  0.66679106  1
  In  In30  1  0.68426012  0.64904790  0.67235090  1
  In  In31  1  0.33895717  0.50058087  0.84791899  1
  In  In32  1  0.52528680  0.31687491  0.16639737  1
  In  In33  1  0.50224189  0.13643889  0.32838268  1
  In  In34  1  -0.01288134  0.16462908  0.48424233  1
  In  In35  1  0.51563509  0.15165079  0.66712132  1
  In  In36  1  0.69026001  0.69843337  0.33681975  1
  In  In37  1  0.50589532  0.66203532  0.50355066  1
  In  In38  1  0.33862551  0.34323138  -0.00677270  1
  In  In39  1  0.17499559  0.68274170  0.16514922  1
  In  In40  1  0.51365074  -0.00230020  0.82227894  1
  In  In41  1  -0.02242268  0.67102685  0.66402803  1
  In  In42  1  0.83637491  0.82794930  0.66404597  1
  In  In43  1  0.83830908  0.18039097  0.70671751  1
  In  In44  1  0.30752914  0.32217448  0.65850969  1
  In  In45  1  0.15252469  0.14682889  0.67977529  1
  In  In46  1  0.32112602  0.65925581  0.30327795  1
  In  In47  1  0.35615786  0.14859955  0.45927591  1
  In  In48  1  0.00365118  -0.00639552  0.69316447  1
  In  In49  1  0.15484505  0.01929118  0.14546999  1
  In  In50  1  0.31714326  -0.03535174  0.67527800  1
  In  In51  1  -0.02329246  0.34082571  0.67785117  1
  In  In52  1  0.66713288  -0.01367048  0.01145086  1
  In  In53  1  0.66921037  -0.02162248  0.33733396  1
  In  In54  1  0.82285732  0.34083305  0.82947245  1
  In  In55  1  0.82766010  0.16842528  0.30840455  1
  In  In56  1  0.14862845  0.65894588  0.49294515  1
  In  In57  1  -0.01428758  0.68349448  0.00082166  1
  In  In58  1  0.81974338  0.35437747  0.49672066  1
  In  In59  1  0.18037601  0.67403720  0.83887326  1
  In  In60  1  0.52086827  0.51304072  -0.00312570  1
  In  In61  1  0.67697910  0.35781840  0.34074911  1
  In  In62  1  0.65762890  0.17648166  0.50668991  1
  In  In63  1  0.83465673  0.83630684  -0.01504413  1
  In  In64  1  0.16555442  0.16906448  0.29177747  1
  In  In65  1  0.15151932  0.52085546  0.34910030  1
  In  In66  1  0.66683549  0.36891704  0.68836717  1
  In  In67  1  0.33053343  0.82090928  0.49876144  1
  In  In68  1  0.33437169  0.51776559  0.18000834  1
  In  In69  1  0.16583345  0.49145675  0.02681753  1
  In  In70  1  -0.01915304  -0.01403391  0.34758504  1
  In  In71  1  0.16668618  -0.01516484  0.52024818  1
  Te  Te72  1  0.04891298  0.09770596  0.07343068  1
  Te  Te73  1  0.09084563  0.07614931  0.41489940  1
  Te  Te74  1  0.07697117  0.08098592  0.79316308  1
  Te  Te75  1  0.04753755  0.40734368  0.07311901  1
  Te  Te76  1  0.05488811  0.41245749  0.39574652  1
  Te  Te77  1  0.08860390  0.41983694  0.73225611  1
  Te  Te78  1  0.10026530  0.76653884  0.05816988  1
  Te  Te79  1  0.06561002  0.76220735  0.42129810  1
  Te  Te80  1  0.06589486  0.74609030  0.76633700  1
  Te  Te81  1  0.44969651  0.08122983  0.08287528  1
  Te  Te82  1  0.42375489  0.02737283  0.39850468  1
  Te  Te83  1  0.40050491  0.08520521  0.74998940  1
  Te  Te84  1  0.41982701  0.41639793  0.09877701  1
  Te  Te85  1  0.41468411  0.42029917  0.42852091  1
  Te  Te86  1  0.41479480  0.39936502  0.74748027  1
  Te  Te87  1  0.39739502  0.74553350  0.09928996  1
  Te  Te88  1  0.41594633  0.73983561  0.40370305  1
  Te  Te89  1  0.44323647  0.72850658  0.77452932  1
  Te  Te90  1  0.77895848  0.09342758  0.05547879  1
  Te  Te91  1  0.75647376  0.09191118  0.42191001  1
  Te  Te92  1  0.78437545  0.05955420  0.78246061  1
  Te  Te93  1  0.78927015  0.39863458  0.11120343  1
  Te  Te94  1  0.78889405  0.44827946  0.38290376  1
  Te  Te95  1  0.75177880  0.45722430  0.77102663  1
  Te  Te96  1  0.73951289  0.77740100  0.08859558  1
  Te  Te97  1  0.78611128  0.74787154  0.43943125  1
  Te  Te98  1  0.75798644  0.74566809  0.75896365  1
  Te  Te99  1  0.04436618  0.24251928  0.25201518  1
  Te  Te100  1  0.07337488  0.24624612  0.58473353  1
  Te  Te101  1  0.04450671  0.28228385  0.91122839  1
  Te  Te102  1  0.08187223  0.57845057  0.22732219  1
  Te  Te103  1  0.08324947  0.57676045  0.60128673  1
  Te  Te104  1  0.08592734  0.58354511  0.92658622  1
  Te  Te105  1  0.08801190  0.91589164  0.25391761  1
  Te  Te106  1  0.04475320  0.90771328  0.56969844  1
  Te  Te107  1  0.02381268  0.93694157  0.88711970  1
  Te  Te108  1  0.41100121  0.24019729  0.24683335  1
  Te  Te109  1  0.42000175  0.23880803  0.57844252  1
  Te  Te110  1  0.42811299  0.23412571  0.93494588  1
  Te  Te111  1  0.44783794  0.60521429  0.23251559  1
  Te  Te112  1  0.41853716  0.57270460  0.59087127  1
  Te  Te113  1  0.41555037  0.59344433  0.93143122  1
  Te  Te114  1  0.41033777  0.94736721  0.26338597  1
  Te  Te115  1  0.42348760  0.91186091  0.57980629  1
  Te  Te116  1  0.42157889  0.91514905  0.90969240  1
  Te  Te117  1  0.74012369  0.26407888  0.23183112  1
  Te  Te118  1  0.74905183  0.25550507  0.60211095  1
  Te  Te119  1  0.77857595  0.24660132  0.93397021  1
  Te  Te120  1  0.75364951  0.57906071  0.26723999  1
  Te  Te121  1  0.74349645  0.55286643  0.57648986  1
  Te  Te122  1  0.76949972  0.59489346  0.91181737  1
  Te  Te123  1  0.76013870  0.89448554  0.25525910  1
  Te  Te124  1  0.73945200  0.92027707  0.58483479  1
  Te  Te125  1  0.74925780  0.92805692  0.90321981  1
  Te  Te126  1  0.24345626  0.25449630  0.08179371  1
  Te  Te127  1  0.23164241  0.24334998  0.41930299  1
  Te  Te128  1  0.22019480  0.25642648  0.76511511  1
  Te  Te129  1  0.26560964  0.59839234  0.06977675  1
  Te  Te130  1  0.26485181  0.58500648  0.42665573  1
  Te  Te131  1  0.24763531  0.57174722  0.74716090  1
  Te  Te132  1  0.23207533  0.91923050  0.06985281  1
  Te  Te133  1  0.23283362  0.89827246  0.41300696  1
  Te  Te134  1  0.21663142  0.92957168  0.78170187  1
  Te  Te135  1  0.59994767  0.26085591  0.05272971  1
  Te  Te136  1  0.56929161  0.25885446  0.40576299  1
  Te  Te137  1  0.58888766  0.25130146  0.75574447  1
  Te  Te138  1  0.60335330  0.58545031  0.09492422  1
  Te  Te139  1  0.59706299  0.58961339  0.40698561  1
  Te  Te140  1  0.58749080  0.58905434  0.77013919  1
  Te  Te141  1  0.57694278  0.91391292  0.10366846  1
  Te  Te142  1  0.58809066  0.88746170  0.41873195  1
  Te  Te143  1  0.60376716  0.90545426  0.74477721  1
  Te  Te144  1  0.92873357  0.29624510  0.11123627  1
  Te  Te145  1  0.90289367  0.26228215  0.40469572  1
  Te  Te146  1  0.95347966  0.23741364  0.79042784  1
  Te  Te147  1  0.92612114  0.58059598  0.09451568  1
  Te  Te148  1  0.90456629  0.58464061  0.41510839  1
  Te  Te149  1  0.89175206  0.58990006  0.75454236  1
  Te  Te150  1  0.92463550  0.92361089  0.07306767  1
  Te  Te151  1  0.88000069  0.88484697  0.39487700  1
  Te  Te152  1  0.91906756  0.89790190  0.77221107  1
  Te  Te153  1  0.26446735  0.06121848  0.25535090  1
  Te  Te154  1  0.26004307  0.08805779  0.58552866  1
  Te  Te155  1  0.23716895  0.08146586  0.93484685  1
  Te  Te156  1  0.23718490  0.41726079  0.25309483  1
  Te  Te157  1  0.25382413  0.43012463  0.57434089  1
  Te  Te158  1  0.23047381  0.41195107  0.91209068  1
  Te  Te159  1  0.29287575  0.78365253  0.21149328  1
  Te  Te160  1  0.23528273  0.75403563  0.60088657  1
  Te  Te161  1  0.25769787  0.76773993  0.92160125  1
  Te  Te162  1  0.59686401  0.06664522  0.23269486  1
  Te  Te163  1  0.57440879  0.06138403  0.56021581  1
  Te  Te164  1  0.58748879  0.08594616  0.91937037  1
  Te  Te165  1  0.59877858  0.43357024  0.23163798  1
  Te  Te166  1  0.63014733  0.45035924  0.55731087  1
  Te  Te167  1  0.61174962  0.41596944  0.92964205  1
  Te  Te168  1  0.59006330  0.73989878  0.23513310  1
  Te  Te169  1  0.60662737  0.74829462  0.57545864  1
  Te  Te170  1  0.58774504  0.76178384  0.91276090  1
  Te  Te171  1  0.92563341  0.07619181  0.23853087  1
  Te  Te172  1  0.91467385  0.09217919  0.59899952  1
  Te  Te173  1  0.97320465  0.06867182  0.92508308  1
  Te  Te174  1  0.91459360  0.41010522  0.20122406  1
  Te  Te175  1  0.88786101  0.44098543  0.60234491  1
  Te  Te176  1  0.92932772  0.41417015  0.91546857  1
  Te  Te177  1  0.90823780  0.74348684  0.23656304  1
  Te  Te178  1  0.88892751  0.73101696  0.55814158  1
  Te  Te179  1  0.89103978  0.72841949  0.89597992  1
