# generated using pymatgen
data_In2Te3
_symmetry_space_group_name_H-M   'P 1'
_cell_length_a   18.75918493
_cell_length_b   18.76782090
_cell_length_c   18.76232206
_cell_angle_alpha   90.02075496
_cell_angle_beta   90.00842746
_cell_angle_gamma   89.99837856
_symmetry_Int_Tables_number   1
_chemical_formula_structural   In2Te3
_chemical_formula_sum   'In72 Te108'
_cell_volume   6605.63188852
_cell_formula_units_Z   36
loop_
 _symmetry_equiv_pos_site_id
 _symmetry_equiv_pos_as_xyz
  1  'x, y, z'
loop_
 _atom_site_type_symbol
 _atom_site_label
 _atom_site_symmetry_multiplicity
 _atom_site_fract_x
 _atom_site_fract_y
 _atom_site_fract_z
 _atom_site_occupancy
  In  In0  1  0.32839902  0.51825264  0.83504653  1
  In  In1  1  0.67074536  0.15095012  0.83014771  1
  In  In2  1  0.32603581  0.17469119  0.49973349  1
  In  In3  1  0.50539012  0.83620443  0.67206133  1
  In  In4  1  0.65921519  0.51187645  0.83623383  1
  In  In5  1  -0.00723238  0.51160969  0.14191452  1
  In  In6  1  0.49247781  0.66117729  0.51028584  1
  In  In7  1  0.00571728  0.02700185  0.34450589  1
  In  In8  1  0.17741850  0.66167729  0.16394832  1
  In  In9  1  -0.01764209  0.01665824  0.66477899  1
  In  In10  1  0.51241273  0.82581248  0.34286948  1
  In  In11  1  0.35000592  0.49687653  0.15370325  1
  In  In12  1  0.49808570  0.33410457  0.83075969  1
  In  In13  1  0.86846669  0.32920688  0.81452330  1
  In  In14  1  0.67397722  0.52509099  0.51286977  1
  In  In15  1  0.64735228  0.35230840  0.30296661  1
  In  In16  1  0.00094947  0.17390445  0.19878263  1
  In  In17  1  0.16128535  0.80418122  -0.02231991  1
  In  In18  1  0.00736140  0.82787286  0.50767469  1
  In  In19  1  0.32999999  0.19481827  0.16577587  1
  In  In20  1  0.84978646  0.65796130  0.81881377  1
  In  In21  1  0.66517272  -0.00645142  0.34301924  1
  In  In22  1  0.01760075  0.50799601  0.52288247  1
  In  In23  1  0.82160220  0.49583614  0.33269832  1
  In  In24  1  0.48576007  0.33506501  0.50036618  1
  In  In25  1  0.00498059  -0.02849390  -0.00943223  1
  In  In26  1  0.50093606  -0.00423614  0.16885313  1
  In  In27  1  0.14905116  0.50563733  -0.03768609  1
  In  In28  1  0.16508711  0.17835393  0.35584882  1
  In  In29  1  0.01793002  0.68624043  0.36495235  1
  In  In30  1  0.17958700  0.49242795  0.33550764  1
  In  In31  1  0.83501316  0.81901261  -0.02797202  1
  In  In32  1  0.02181447  0.84726594  0.15560220  1
  In  In33  1  0.15220831  -0.00299604  0.17945196  1
  In  In34  1  0.15740653  0.80417969  0.68083583  1
  In  In35  1  0.15057121  0.17948067  0.65079966  1
  In  In36  1  0.66344650  0.83971309  0.52413356  1
  In  In37  1  0.00350742  0.35168800  -0.00850667  1
  In  In38  1  0.66415129  0.17647422  0.12394282  1
  In  In39  1  0.67104184  -0.00343234  0.67276932  1
  In  In40  1  0.34784161  0.81621084  0.15582263  1
  In  In41  1  0.47438637  0.16981306  0.32871431  1
  In  In42  1  0.15869243  0.50603232  0.69217855  1
  In  In43  1  0.66598963  0.33937363  0.66780358  1
  In  In44  1  0.33494408  0.49182116  0.51433142  1
  In  In45  1  0.86562059  0.34414594  0.50714835  1
  In  In46  1  0.30128204  -0.01601811  0.36893157  1
  In  In47  1  0.65526893  0.33856875  0.02013159  1
  In  In48  1  0.85172115  0.84274134  0.33457450  1
  In  In49  1  0.49282408  0.81138222  -0.01693838  1
  In  In50  1  0.84251762  0.65909341  0.13886460  1
  In  In51  1  0.65874554  0.15794989  0.51772628  1
  In  In52  1  0.80500557  0.34014668  0.15358192  1
  In  In53  1  0.49894441  0.66058039  0.82846186  1
  In  In54  1  0.64364961  0.66350198  0.33975197  1
  In  In55  1  0.81569696  0.16738650  0.00087164  1
  In  In56  1  0.31982940  0.65679027  0.33131821  1
  In  In57  1  0.63625224  0.52645114  0.12393558  1
  In  In58  1  0.00030328  0.30866808  0.33451981  1
  In  In59  1  0.85290941  0.17372261  0.35286596  1
  In  In60  1  0.83998988  0.81849989  0.67788936  1
  In  In61  1  0.00212852  0.17272502  0.82217617  1
  In  In62  1  0.66299290  0.81448974  0.16625916  1
  In  In63  1  0.34339007  -0.00955233  0.67108287  1
  In  In64  1  0.82739192  -0.01398592  0.82322248  1
  In  In65  1  0.51349446  0.18552910  -0.02192148  1
  In  In66  1  0.32760177  0.15787936  0.81482686  1
  In  In67  1  0.33808384  0.33927312  0.66851925  1
  In  In68  1  0.82461006  0.67388284  0.52404843  1
  In  In69  1  0.33266161  0.81641175  0.84230495  1
  In  In70  1  0.33462909  -0.00526019  -0.00615405  1
  In  In71  1  0.17511035  0.18076906  -0.00047876  1
  Te  Te72  1  0.07353180  0.08687723  0.08279842  1
  Te  Te73  1  0.11389976  0.06671322  0.43791238  1
  Te  Te74  1  0.09588979  0.07667487  0.75145384  1
  Te  Te75  1  0.09968658  0.41981317  0.08775888  1
  Te  Te76  1  0.07876768  0.41199080  0.41874785  1
  Te  Te77  1  0.04157470  0.43579937  0.75579651  1
  Te  Te78  1  0.07048623  0.72851452  0.07465046  1
  Te  Te79  1  0.12591958  0.75895324  0.44033417  1
  Te  Te80  1  0.07139650  0.73112861  0.78241310  1
  Te  Te81  1  0.41840569  0.09115850  0.08046747  1
  Te  Te82  1  0.41351289  0.07059130  0.42750668  1
  Te  Te83  1  0.43340073  0.07476893  0.75525545  1
  Te  Te84  1  0.45543626  0.40430344  0.09771277  1
  Te  Te85  1  0.40510995  0.41539829  0.40660854  1
  Te  Te86  1  0.42634241  0.43646499  0.74408195  1
  Te  Te87  1  0.41554192  0.71439353  0.06971738  1
  Te  Te88  1  0.40602721  0.75074861  0.42125892  1
  Te  Te89  1  0.40465435  0.73822999  0.73288102  1
  Te  Te90  1  0.74251537  0.06256565  0.07457843  1
  Te  Te91  1  0.75795011  0.07826674  0.42969033  1
  Te  Te92  1  0.77375403  0.09633516  0.73268793  1
  Te  Te93  1  0.75450475  0.44926723  0.06305074  1
  Te  Te94  1  0.74400458  0.40283529  0.42449239  1
  Te  Te95  1  0.75771927  0.42051012  0.75651804  1
  Te  Te96  1  0.73513690  0.73317542  0.05991661  1
  Te  Te97  1  0.74427799  0.75707807  0.40971936  1
  Te  Te98  1  0.74286301  0.74744801  0.76360681  1
  Te  Te99  1  0.11340585  0.26563252  0.23789687  1
  Te  Te100  1  0.06024959  0.26679927  0.57533348  1
  Te  Te101  1  0.09298216  0.26693738  0.90150054  1
  Te  Te102  1  0.07407369  0.58429725  0.25661373  1
  Te  Te103  1  0.10658378  0.60412654  0.58953395  1
  Te  Te104  1  0.07656495  0.60451548  0.87478646  1
  Te  Te105  1  0.08397287  0.90613825  0.28074977  1
  Te  Te106  1  0.08306783  0.91890945  0.60367279  1
  Te  Te107  1  0.10090713  0.91237595  0.89706898  1
  Te  Te108  1  0.39312859  0.27974373  0.27205077  1
  Te  Te109  1  0.42584521  0.23520242  0.59905618  1
  Te  Te110  1  0.39600111  0.25697293  0.91439053  1
  Te  Te111  1  0.42115135  0.59005917  0.24745166  1
  Te  Te112  1  0.40344277  0.58847315  0.60355200  1
  Te  Te113  1  0.43188144  0.57155923  0.93322722  1
  Te  Te114  1  0.40751732  0.91771414  0.26176845  1
  Te  Te115  1  0.41441124  0.90138720  0.57432879  1
  Te  Te116  1  0.42816144  0.92380560  0.89844376  1
  Te  Te117  1  0.74923688  0.23898268  0.25294850  1
  Te  Te118  1  0.75928249  0.25699739  0.57946545  1
  Te  Te119  1  0.74170500  0.26735059  0.91154878  1
  Te  Te120  1  0.73984230  0.58521908  0.24097116  1
  Te  Te121  1  0.76940747  0.57183494  0.61473260  1
  Te  Te122  1  0.75573208  0.59279581  0.91556163  1
  Te  Te123  1  0.75002850  0.91375311  0.24371834  1
  Te  Te124  1  0.77494603  0.92192592  0.58481940  1
  Te  Te125  1  0.73615234  0.91312531  0.91251803  1
  Te  Te126  1  0.26293982  0.27979358  0.06527412  1
  Te  Te127  1  0.25673708  0.27617463  0.41810488  1
  Te  Te128  1  0.23495085  0.26167084  0.75039971  1
  Te  Te129  1  0.24747711  0.57312743  0.06481467  1
  Te  Te130  1  0.23779245  0.58697694  0.43956829  1
  Te  Te131  1  0.25164435  0.60950212  0.74677008  1
  Te  Te132  1  0.24285204  0.91018035  0.08391301  1
  Te  Te133  1  0.23691202  0.88642442  0.46021616  1
  Te  Te134  1  0.24598143  0.90745321  0.75669491  1
  Te  Te135  1  0.54247967  0.27260132  0.10968389  1
  Te  Te136  1  0.58560535  0.24927449  0.41188072  1
  Te  Te137  1  0.57897051  0.23860451  0.74317715  1
  Te  Te138  1  0.54282636  0.60640369  0.04153800  1
  Te  Te139  1  0.56192237  0.56048656  0.41381687  1
  Te  Te140  1  0.57420408  0.57478246  0.73217147  1
  Te  Te141  1  0.57797805  0.90491705  0.07630482  1
  Te  Te142  1  0.56935914  0.92813655  0.44194257  1
  Te  Te143  1  0.60601157  0.89789033  0.76368495  1
  Te  Te144  1  0.91913060  0.25262602  0.08610528  1
  Te  Te145  1  0.96512313  0.21599163  0.46157900  1
  Te  Te146  1  0.93190573  0.24196731  0.70961010  1
  Te  Te147  1  0.92143294  0.58597090  0.03647248  1
  Te  Te148  1  0.90808592  0.58491237  0.42031934  1
  Te  Te149  1  0.96418740  0.56265078  0.76674515  1
  Te  Te150  1  0.90305484  0.90834000  0.08411548  1
  Te  Te151  1  0.92021949  0.93160566  0.43531121  1
  Te  Te152  1  0.93737132  0.90349501  0.76037435  1
  Te  Te153  1  0.25649962  0.08193595  0.25180687  1
  Te  Te154  1  0.24590542  0.07863102  0.58614675  1
  Te  Te155  1  0.23659470  0.07410264  0.90866615  1
  Te  Te156  1  0.25889474  0.41375922  0.23954852  1
  Te  Te157  1  0.23035244  0.40947849  0.58937189  1
  Te  Te158  1  0.24529801  0.41315601  0.89835345  1
  Te  Te159  1  0.24168736  0.76600365  0.25418308  1
  Te  Te160  1  0.25750823  0.78192876  0.57046589  1
  Te  Te161  1  0.26604020  0.71402061  0.92657557  1
  Te  Te162  1  0.58824074  0.09206551  0.25132011  1
  Te  Te163  1  0.56909585  0.07159453  0.59535727  1
  Te  Te164  1  0.59180722  0.07210277  0.92711682  1
  Te  Te165  1  0.55804586  0.44444895  0.22436018  1
  Te  Te166  1  0.57554167  0.42795999  0.58319268  1
  Te  Te167  1  0.56818593  0.42655316  0.92860186  1
  Te  Te168  1  0.55512345  0.72869327  0.23206613  1
  Te  Te169  1  0.59883985  0.72719177  0.59917033  1
  Te  Te170  1  0.59594272  0.75580801  0.89109397  1
  Te  Te171  1  0.89885366  0.07134776  0.24306953  1
  Te  Te172  1  0.92094176  0.11261123  0.57261511  1
  Te  Te173  1  0.91736071  0.08451590  0.91811074  1
  Te  Te174  1  0.91466220  0.41017072  0.24566027  1
  Te  Te175  1  0.92528102  0.43105645  0.61240537  1
  Te  Te176  1  0.91154865  0.43490034  0.91095606  1
  Te  Te177  1  0.92177017  0.74079886  0.24487067  1
  Te  Te178  1  0.94168732  0.72818509  0.60377775  1
  Te  Te179  1  0.94422437  0.75669186  0.88837545  1
