# generated using pymatgen
data_In2Te3
_symmetry_space_group_name_H-M   'P 1'
_cell_length_a   18.99363124
_cell_length_b   18.95896081
_cell_length_c   18.95658940
_cell_angle_alpha   90.19199781
_cell_angle_beta   90.05622260
_cell_angle_gamma   90.11393617
_symmetry_Int_Tables_number   1
_chemical_formula_structural   In2Te3
_chemical_formula_sum   'In72 Te108'
_cell_volume   6826.20340903
_cell_formula_units_Z   36
loop_
 _symmetry_equiv_pos_site_id
 _symmetry_equiv_pos_as_xyz
  1  'x, y, z'
loop_
 _atom_site_type_symbol
 _atom_site_label
 _atom_site_symmetry_multiplicity
 _atom_site_fract_x
 _atom_site_fract_y
 _atom_site_fract_z
 _atom_site_occupancy
  In  In0  1  0.15724119  0.67049145  0.83150686  1
  In  In1  1  0.00840270  0.35350839  0.66447461  1
  In  In2  1  0.68313519  0.48242690  0.48466063  1
  In  In3  1  0.85813110  0.51689786  0.36689156  1
  In  In4  1  0.85176788  0.34553874  0.83131873  1
  In  In5  1  0.66548014  0.30639783  0.65365353  1
  In  In6  1  0.66697612  0.18056456  0.17497547  1
  In  In7  1  0.83746934  0.51188926  0.63339665  1
  In  In8  1  0.00379887  0.22757941  0.42359698  1
  In  In9  1  0.17350943  -0.02204840  0.17937739  1
  In  In10  1  0.17326405  0.77362143  0.31230255  1
  In  In11  1  0.82312852  0.16377119  0.67178382  1
  In  In12  1  0.83547197  0.48904932  -0.01509592  1
  In  In13  1  0.34598516  0.14950778  0.50960085  1
  In  In14  1  0.63863563  0.69026784  0.02424918  1
  In  In15  1  0.49371577  0.84994982  0.01115400  1
  In  In16  1  0.52554534  0.32283598  0.48623659  1
  In  In17  1  0.48058447  0.67243810  0.16901771  1
  In  In18  1  0.24180808  -0.02104831  0.52291553  1
  In  In19  1  -0.01828372  0.83543861  0.15767915  1
  In  In20  1  0.01526441  0.63705539  0.64424350  1
  In  In21  1  0.32694645  0.32152898  0.70965104  1
  In  In22  1  0.50126660  0.33420184  0.17218818  1
  In  In23  1  0.32487795  0.50337737  0.83872971  1
  In  In24  1  0.03927198  0.47319761  0.14056898  1
  In  In25  1  0.82345219  0.82318825  0.32886756  1
  In  In26  1  0.47900225  0.13602028  0.04167203  1
  In  In27  1  0.83150448  0.01830303  0.48493963  1
  In  In28  1  0.32622528  0.50762207  0.17766940  1
  In  In29  1  0.65221252  -0.00364468  0.64763159  1
  In  In30  1  0.31995885  0.83107611  0.83496457  1
  In  In31  1  0.85762637  0.82893897  0.65767031  1
  In  In32  1  0.48575039  0.01571546  0.82446798  1
  In  In33  1  0.65971162  0.83995185  0.18510646  1
  In  In34  1  0.45367737  -0.07441484  0.48372383  1
  In  In35  1  0.65694818  0.81770074  0.48021320  1
  In  In36  1  0.82305648  0.85327674  -0.00126034  1
  In  In37  1  0.15980868  0.16831503  0.33492704  1
  In  In38  1  0.01628225  0.18931058  0.17485182  1
  In  In39  1  0.64527396  0.15661179  0.83250521  1
  In  In40  1  0.51554204  0.48979309  0.32102085  1
  In  In41  1  0.17148350  0.02139039  0.85844401  1
  In  In42  1  0.51210022  0.51879027  -0.01237169  1
  In  In43  1  0.02296470  0.80980579  0.49518060  1
  In  In44  1  0.32864290  -0.02188641  0.32758774  1
  In  In45  1  0.31778289  0.66727849  0.65504086  1
  In  In46  1  0.84638826  0.15680488  0.02973616  1
  In  In47  1  0.48827272  0.68058085  0.49741053  1
  In  In48  1  0.82910827  0.68096175  0.83265016  1
  In  In49  1  0.36680855  0.31946775  0.31114615  1
  In  In50  1  0.49928766  0.83866434  0.32089151  1
  In  In51  1  0.16977940  0.34150804  0.49032065  1
  In  In52  1  0.49147348  0.15775368  0.66946222  1
  In  In53  1  0.67226149  0.84377497  0.82089368  1
  In  In54  1  -0.00378167  -0.00048947  0.69306443  1
  In  In55  1  0.85404175  0.35133799  0.17547371  1
  In  In56  1  0.32499344  0.31745933  0.02180806  1
  In  In57  1  0.30691041  0.50102844  0.50004424  1
  In  In58  1  0.16911663  0.85321885  0.00377450  1
  In  In59  1  0.67204161  0.51439022  0.81626970  1
  In  In60  1  0.48146574  0.65248117  0.81855921  1
  In  In61  1  0.71344450  0.31906844  0.02311962  1
  In  In62  1  0.68734066  0.17733178  0.46671611  1
  In  In63  1  0.16194232  0.81811344  0.67540476  1
  In  In64  1  0.03110937  0.49937621  0.81794029  1
  In  In65  1  0.17387657  0.51218261  0.32337510  1
  In  In66  1  0.01256523  0.66366161  -0.01525954  1
  In  In67  1  0.82990786  0.64082286  0.18773610  1
  In  In68  1  0.47351849  0.35235622  0.86750623  1
  In  In69  1  -0.02206204  0.01194241  0.32374642  1
  In  In70  1  0.02594429  0.17965558  0.86888119  1
  In  In71  1  0.00869012  -0.00149525  -0.00251938  1
  Te  Te72  1  0.08791724  0.07528790  0.09964323  1
  Te  Te73  1  0.07034729  0.08149487  0.41949391  1
  Te  Te74  1  0.09050087  0.10117913  0.75565632  1
  Te  Te75  1  0.12686036  0.37018971  0.08255707  1
  Te  Te76  1  0.08563722  0.44935768  0.42906365  1
  Te  Te77  1  0.10472905  0.38234102  0.77024922  1
  Te  Te78  1  0.08457854  0.75521205  0.08288591  1
  Te  Te79  1  0.07533725  0.70163079  0.40426611  1
  Te  Te80  1  0.05294389  0.74108885  0.74858565  1
  Te  Te81  1  0.39487364  0.03246765  0.10308152  1
  Te  Te82  1  0.42238472  0.06409361  0.41487576  1
  Te  Te83  1  0.38475395  0.09672226  0.75131705  1
  Te  Te84  1  0.41999402  0.43266922  0.08146295  1
  Te  Te85  1  0.41680627  0.41579990  0.42038348  1
  Te  Te86  1  0.42590128  0.43268048  0.74983541  1
  Te  Te87  1  0.39920532  0.76568031  0.08923253  1
  Te  Te88  1  0.40613978  0.78399630  0.42465273  1
  Te  Te89  1  0.40803177  0.75740931  0.73713850  1
  Te  Te90  1  0.73069524  0.08719903  0.08172897  1
  Te  Te91  1  0.74619957  0.07292955  0.37989094  1
  Te  Te92  1  0.73826769  0.06762554  0.75168043  1
  Te  Te93  1  0.75044104  0.44047473  0.10243845  1
  Te  Te94  1  0.77457772  0.39482470  0.40574166  1
  Te  Te95  1  0.75644385  0.40932288  0.73228272  1
  Te  Te96  1  0.76140172  0.74682380  0.09419243  1
  Te  Te97  1  0.74643353  0.72620057  0.40818400  1
  Te  Te98  1  0.74526913  0.74835159  0.72798445  1
  Te  Te99  1  0.06277342  0.27683502  0.29052343  1
  Te  Te100  1  0.06601081  0.25523495  0.55932280  1
  Te  Te101  1  0.12410298  0.23027636  0.96772156  1
  Te  Te102  1  0.10112094  0.58677461  0.21461947  1
  Te  Te103  1  0.06647206  0.52293909  0.56662271  1
  Te  Te104  1  0.11280697  0.56430663  0.93263001  1
  Te  Te105  1  0.07252996  0.90068628  0.26291822  1
  Te  Te106  1  0.07597339  0.91486351  0.59194083  1
  Te  Te107  1  0.07681486  0.90787141  0.89761106  1
  Te  Te108  1  0.42148860  0.21479699  0.21797349  1
  Te  Te109  1  0.41927130  0.26570260  0.58813218  1
  Te  Te110  1  0.41895477  0.23073825  0.93588716  1
  Te  Te111  1  0.41094998  0.58921684  0.27522226  1
  Te  Te112  1  0.41242594  0.57643760  0.58090643  1
  Te  Te113  1  0.39827654  0.60005854  0.93388920  1
  Te  Te114  1  0.42963504  0.93143221  0.22775057  1
  Te  Te115  1  0.35933489  0.93007472  0.59425801  1
  Te  Te116  1  0.40246435  0.92859883  0.91601970  1
  Te  Te117  1  0.78141025  0.24410734  0.25142969  1
  Te  Te118  1  0.77642478  0.25868617  0.56409816  1
  Te  Te119  1  0.75522972  0.24680763  0.89691198  1
  Te  Te120  1  0.74713395  0.58166542  0.29180313  1
  Te  Te121  1  0.73843656  0.59299324  0.56542250  1
  Te  Te122  1  0.74021728  0.60186947  0.92922037  1
  Te  Te123  1  0.75073927  0.92986814  0.25921560  1
  Te  Te124  1  0.75755919  0.91610428  0.57365966  1
  Te  Te125  1  0.72720447  0.93198699  0.92303111  1
  Te  Te126  1  0.22267143  0.25210857  0.10738068  1
  Te  Te127  1  0.26743901  0.24959368  0.41358376  1
  Te  Te128  1  0.27460497  0.21453883  0.79538210  1
  Te  Te129  1  0.23935979  0.61889839  0.13487971  1
  Te  Te130  1  0.25874461  0.60173151  0.40528941  1
  Te  Te131  1  0.23287326  0.57611339  0.74127717  1
  Te  Te132  1  0.26755454  0.94760818  0.06527135  1
  Te  Te133  1  0.22393668  0.89473090  0.39920448  1
  Te  Te134  1  0.23467906  0.92568011  0.75486024  1
  Te  Te135  1  0.58140085  0.25901050  0.05986180  1
  Te  Te136  1  0.58423425  0.24094449  0.37741493  1
  Te  Te137  1  0.56429090  0.26459806  0.76295549  1
  Te  Te138  1  0.58633657  0.57640482  0.10703975  1
  Te  Te139  1  0.57807021  0.57879752  0.42590023  1
  Te  Te140  1  0.58265144  0.59173739  0.73274373  1
  Te  Te141  1  0.58835713  0.92681749  0.09231705  1
  Te  Te142  1  0.58568448  0.92978140  0.40975117  1
  Te  Te143  1  0.56277899  0.91713420  0.73936736  1
  Te  Te144  1  0.93222929  0.27143460  0.07282995  1
  Te  Te145  1  0.86876739  0.27109717  0.38015721  1
  Te  Te146  1  0.92839941  0.24120744  0.75222335  1
  Te  Te147  1  0.92033428  0.58199717  0.07362431  1
  Te  Te148  1  0.94659929  0.61626212  0.43144280  1
  Te  Te149  1  0.90953901  0.57309189  0.76032957  1
  Te  Te150  1  0.90104734  0.94359732  0.09347442  1
  Te  Te151  1  0.92175959  0.90297534  0.42679527  1
  Te  Te152  1  0.89699704  0.91965429  0.76435601  1
  Te  Te153  1  0.25420391  0.08759949  0.25042695  1
  Te  Te154  1  0.22832203  0.11112992  0.58494252  1
  Te  Te155  1  0.24070333  0.13531824  0.92744049  1
  Te  Te156  1  0.25253460  0.39920767  0.25295686  1
  Te  Te157  1  0.25015859  0.40348220  0.60347420  1
  Te  Te158  1  0.25851103  0.40102212  0.91960296  1
  Te  Te159  1  0.27177117  0.75373935  0.20574077  1
  Te  Te160  1  0.21523293  0.72965745  0.57186712  1
  Te  Te161  1  0.24593396  0.74232310  0.93122077  1
  Te  Te162  1  0.55102688  0.13296587  0.25085682  1
  Te  Te163  1  0.59036870  0.10752070  0.56724298  1
  Te  Te164  1  0.57238485  0.07407338  0.93370582  1
  Te  Te165  1  0.60375194  0.38831614  0.26293717  1
  Te  Te166  1  0.58775515  0.41674182  0.58712527  1
  Te  Te167  1  0.60503168  0.42108598  0.91713569  1
  Te  Te168  1  0.58739814  0.73234857  0.26078555  1
  Te  Te169  1  0.56821187  0.76820291  0.58453121  1
  Te  Te170  1  0.57079300  0.75207325  0.90535735  1
  Te  Te171  1  0.91046554  0.10314439  0.23271012  1
  Te  Te172  1  0.92070686  0.08430471  0.58753196  1
  Te  Te173  1  0.91524647  0.08560667  0.91488807  1
  Te  Te174  1  0.94041904  0.44812575  0.25191025  1
  Te  Te175  1  0.93096213  0.42430230  0.55900138  1
  Te  Te176  1  0.95014667  0.41373382  0.92203321  1
  Te  Te177  1  0.92596388  0.73592717  0.25652043  1
  Te  Te178  1  0.91544198  0.72055281  0.56441972  1
  Te  Te179  1  0.91926514  0.76575357  0.91992634  1
