# generated using pymatgen
data_In2Te3
_symmetry_space_group_name_H-M   'P 1'
_cell_length_a   18.77929090
_cell_length_b   18.78359460
_cell_length_c   18.78677114
_cell_angle_alpha   89.97173328
_cell_angle_beta   90.07181824
_cell_angle_gamma   90.02685492
_symmetry_Int_Tables_number   1
_chemical_formula_structural   In2Te3
_chemical_formula_sum   'In72 Te108'
_cell_volume   6626.88751413
_cell_formula_units_Z   36
loop_
 _symmetry_equiv_pos_site_id
 _symmetry_equiv_pos_as_xyz
  1  'x, y, z'
loop_
 _atom_site_type_symbol
 _atom_site_label
 _atom_site_symmetry_multiplicity
 _atom_site_fract_x
 _atom_site_fract_y
 _atom_site_fract_z
 _atom_site_occupancy
  In  In0  1  0.82657793  0.46217444  0.31873628  1
  In  In1  1  0.16130280  0.83008610  -0.00715162  1
  In  In2  1  0.17122878  0.00743201  0.16183645  1
  In  In3  1  0.83047478  0.03832395  0.16756212  1
  In  In4  1  0.50068124  0.03869266  0.16171702  1
  In  In5  1  0.00612520  0.66049787  0.33059273  1
  In  In6  1  0.17772069  0.66127811  0.82012363  1
  In  In7  1  0.33753268  0.48183622  0.51222503  1
  In  In8  1  0.79872238  0.50357217  0.66133592  1
  In  In9  1  0.65839848  0.31871908  0.66158185  1
  In  In10  1  0.49537864  0.66739514  0.81685627  1
  In  In11  1  0.33351994  0.50506657  0.17745150  1
  In  In12  1  0.69091511  0.00829326  0.00175247  1
  In  In13  1  0.62588103  0.02864616  0.65619372  1
  In  In14  1  0.00184617  0.33028892  0.00738969  1
  In  In15  1  0.33840114  0.82659603  0.53024604  1
  In  In16  1  0.47256801  0.66574586  0.18178943  1
  In  In17  1  0.33899693  0.66273298  0.00010586  1
  In  In18  1  0.00615524  0.48180056  0.48658017  1
  In  In19  1  0.50133856  0.84377928  0.34088793  1
  In  In20  1  0.85165907  0.64866021  0.16201338  1
  In  In21  1  0.17787518  0.47991015  0.33503842  1
  In  In22  1  0.00129533  0.66831824  0.66069488  1
  In  In23  1  0.15932695  0.00689345  0.47320483  1
  In  In24  1  0.19355251  0.15145905  -0.02240241  1
  In  In25  1  0.81693779  0.68261630  0.83165453  1
  In  In26  1  0.17038149  0.17528281  0.68299689  1
  In  In27  1  0.17483297  0.49212878  0.65315099  1
  In  In28  1  0.01128917  0.51207354  0.84852785  1
  In  In29  1  0.80429869  0.32366309  0.48896938  1
  In  In30  1  0.33235987  0.31646008  0.32132622  1
  In  In31  1  0.31432671  0.84448347  0.15904315  1
  In  In32  1  0.82661713  0.18012782  0.33036567  1
  In  In33  1  -0.00664923  0.48942530  0.15196286  1
  In  In34  1  -0.00076054  0.31988676  0.66093006  1
  In  In35  1  0.18295200  0.83835165  0.67274048  1
  In  In36  1  0.34378929  0.66016665  0.67158812  1
  In  In37  1  0.83566340  0.65412417  0.52409817  1
  In  In38  1  0.82939862  0.32804874  0.16072258  1
  In  In39  1  0.34303212  0.17707589  0.50300267  1
  In  In40  1  -0.01048040  0.14837270  0.83560458  1
  In  In41  1  0.51792955  0.49434134  -0.01287610  1
  In  In42  1  0.18230686  0.82243132  0.32329686  1
  In  In43  1  0.01554825  0.00927131  -0.00107302  1
  In  In44  1  0.50478185  0.31429889  0.50858930  1
  In  In45  1  0.47793836  0.17380324  -0.01203711  1
  In  In46  1  0.65470021  0.47534927  0.17964558  1
  In  In47  1  0.66408646  0.66305341  -0.01782933  1
  In  In48  1  0.84999400  0.83803058  -0.02740327  1
  In  In49  1  0.34442458  0.00953206  0.68850827  1
  In  In50  1  0.83796242  0.82934791  0.34513977  1
  In  In51  1  -0.01588377  0.80689270  0.51227813  1
  In  In52  1  0.33599921  0.03908558  0.33987079  1
  In  In53  1  0.03020447  0.83905015  0.12739291  1
  In  In54  1  0.82289021  0.00919475  0.53391177  1
  In  In55  1  0.82513387  0.00633098  0.82448730  1
  In  In56  1  0.63630019  0.62210102  0.36718168  1
  In  In57  1  0.65997839  0.83771920  0.15404002  1
  In  In58  1  0.65051167  0.18491529  0.82536650  1
  In  In59  1  0.84201950  0.32373377  0.82460167  1
  In  In60  1  -0.01070192  0.02855054  0.32995843  1
  In  In61  1  0.20286129  0.33495837  0.83623249  1
  In  In62  1  0.50958616  0.84068052  0.67470929  1
  In  In63  1  0.34274155  0.67037978  0.33744741  1
  In  In64  1  0.64867963  0.01217103  0.32928338  1
  In  In65  1  -0.01289240  0.00511519  0.66691668  1
  In  In66  1  0.67297728  0.82695461  0.52448376  1
  In  In67  1  0.67310791  0.34528651  -0.00266638  1
  In  In68  1  0.50116700  0.32712997  0.18756632  1
  In  In69  1  0.32596014  0.32545546  -0.01027957  1
  In  In70  1  0.49154487  0.47212004  0.69503053  1
  In  In71  1  0.47708360  0.86368771  -0.04906866  1
  Te  Te72  1  0.08694122  0.11024331  0.08585779  1
  Te  Te73  1  0.07777342  0.11923781  0.41368797  1
  Te  Te74  1  0.09445353  0.06792974  0.75992354  1
  Te  Te75  1  0.09805993  0.40372533  0.09019593  1
  Te  Te76  1  0.08400894  0.38797357  0.40522750  1
  Te  Te77  1  0.08265050  0.41025805  0.75418893  1
  Te  Te78  1  0.09527399  0.72128789  0.07114094  1
  Te  Te79  1  0.09453167  0.74516781  0.42165059  1
  Te  Te80  1  0.07872315  0.75896067  0.75473331  1
  Te  Te81  1  0.39125341  0.09598479  0.08074074  1
  Te  Te82  1  0.44233768  0.08659124  0.43342716  1
  Te  Te83  1  0.42321162  0.09086920  0.78699364  1
  Te  Te84  1  0.42716438  0.41967991  0.08791504  1
  Te  Te85  1  0.42097707  0.40035456  0.41322131  1
  Te  Te86  1  0.40144642  0.38428960  0.77345671  1
  Te  Te87  1  0.42889154  0.76966677  0.07578064  1
  Te  Te88  1  0.43079879  0.74786457  0.43620433  1
  Te  Te89  1  0.39966434  0.77192193  0.75784156  1
  Te  Te90  1  0.72046931  0.11129229  0.10324033  1
  Te  Te91  1  0.74906524  0.08302964  0.42313753  1
  Te  Te92  1  0.74071916  0.09729066  0.73632468  1
  Te  Te93  1  0.76189385  0.44038252  0.07877800  1
  Te  Te94  1  0.72297410  0.42649097  0.41846586  1
  Te  Te95  1  0.73329333  0.41058160  0.76242297  1
  Te  Te96  1  0.75879857  0.75077976  0.07712387  1
  Te  Te97  1  0.74187577  0.73658470  0.41769360  1
  Te  Te98  1  0.75680712  0.75470649  0.71985955  1
  Te  Te99  1  0.13415800  0.21969660  0.30466953  1
  Te  Te100  1  0.09637182  0.24788655  0.57722875  1
  Te  Te101  1  0.08787364  0.24618851  0.90023681  1
  Te  Te102  1  0.08992310  0.57060493  0.24525901  1
  Te  Te103  1  0.08711719  0.58344115  0.56693387  1
  Te  Te104  1  0.11092904  0.58454567  0.92907887  1
  Te  Te105  1  0.08272111  0.92252191  0.26067227  1
  Te  Te106  1  0.08750936  0.91135458  0.57300942  1
  Te  Te107  1  0.07553378  0.91498638  0.90462927  1
  Te  Te108  1  0.42122236  0.21869964  0.25224087  1
  Te  Te109  1  0.41695449  0.24877827  0.61330292  1
  Te  Te110  1  0.43999778  0.29134765  0.89595054  1
  Te  Te111  1  0.43354025  0.55720484  0.28040274  1
  Te  Te112  1  0.43466415  0.58318679  0.57671073  1
  Te  Te113  1  0.41477590  0.57074775  0.90492758  1
  Te  Te114  1  0.41353001  0.92635836  0.24638519  1
  Te  Te115  1  0.42846170  0.93609657  0.58323786  1
  Te  Te116  1  0.39029324  0.97236557  0.89418627  1
  Te  Te117  1  0.73135866  0.26799507  0.25561055  1
  Te  Te118  1  0.75551451  0.23086431  0.59252920  1
  Te  Te119  1  0.75729236  0.24163576  0.92136483  1
  Te  Te120  1  0.74596016  0.58602900  0.25292705  1
  Te  Te121  1  0.71257925  0.59541426  0.58347124  1
  Te  Te122  1  0.74837694  0.57308271  0.90387445  1
  Te  Te123  1  0.74808825  0.92216017  0.24921198  1
  Te  Te124  1  0.73874546  0.92237331  0.62424936  1
  Te  Te125  1  0.73533311  0.90421758  0.89845274  1
  Te  Te126  1  0.25206498  0.23709691  0.08331098  1
  Te  Te127  1  0.23846333  0.24806493  0.41928572  1
  Te  Te128  1  0.28495166  0.25763008  0.73791840  1
  Te  Te129  1  0.24914833  0.57765374  0.08045689  1
  Te  Te130  1  0.25489683  0.57891619  0.42331186  1
  Te  Te131  1  0.26908523  0.55626643  0.75431608  1
  Te  Te132  1  0.25407275  0.93803603  0.05498964  1
  Te  Te133  1  0.27173705  0.91123298  0.41096324  1
  Te  Te134  1  0.25289818  0.92375508  0.77053489  1
  Te  Te135  1  0.57683938  0.25622125  0.07468537  1
  Te  Te136  1  0.59200541  0.21384060  0.44173621  1
  Te  Te137  1  0.54992941  0.23397168  0.72408477  1
  Te  Te138  1  0.58206536  0.59261227  0.09645622  1
  Te  Te139  1  0.53273519  0.56892985  0.45362433  1
  Te  Te140  1  0.58526529  0.57505184  0.74582506  1
  Te  Te141  1  0.56822162  0.92729268  0.07183778  1
  Te  Te142  1  0.58782509  0.92289961  0.43811342  1
  Te  Te143  1  0.57917898  0.93756796  0.76254659  1
  Te  Te144  1  0.90683544  0.23776169  0.07215906  1
  Te  Te145  1  0.91630820  0.25887004  0.41804755  1
  Te  Te146  1  0.90551727  0.22151428  0.73102176  1
  Te  Te147  1  0.92986492  0.58508033  0.05635425  1
  Te  Te148  1  0.90350776  0.57611984  0.40618827  1
  Te  Te149  1  0.91686092  0.56932376  0.74061673  1
  Te  Te150  1  0.90486795  0.92750692  0.09254944  1
  Te  Te151  1  0.92181040  0.92868315  0.42954587  1
  Te  Te152  1  0.92776465  0.91623531  0.76802252  1
  Te  Te153  1  0.23634130  0.10952467  0.25339384  1
  Te  Te154  1  0.24722973  0.07361394  0.58009474  1
  Te  Te155  1  0.29636302  0.10199176  0.87871503  1
  Te  Te156  1  0.24153096  0.39266653  0.22503295  1
  Te  Te157  1  0.24378191  0.38707341  0.57649863  1
  Te  Te158  1  0.24262798  0.43625771  0.93532764  1
  Te  Te159  1  0.24802862  0.72455132  0.22733326  1
  Te  Te160  1  0.23707108  0.72612120  0.58356490  1
  Te  Te161  1  0.26435544  0.75639496  0.90578189  1
  Te  Te162  1  0.57859526  0.12189749  0.25723453  1
  Te  Te163  1  0.55728937  0.12370355  0.55431074  1
  Te  Te164  1  0.58539450  0.08412085  0.91978558  1
  Te  Te165  1  0.59764514  0.38830079  0.28590198  1
  Te  Te166  1  0.58379280  0.42375152  0.58001206  1
  Te  Te167  1  0.58799957  0.40656689  0.89126926  1
  Te  Te168  1  0.58696354  0.74770268  0.25566803  1
  Te  Te169  1  0.58519467  0.73566691  0.60127385  1
  Te  Te170  1  0.58381450  0.76241843  0.89923762  1
  Te  Te171  1  0.93771833  0.12823732  0.22762554  1
  Te  Te172  1  0.93422156  0.09973948  0.56767423  1
  Te  Te173  1  0.89658913  0.08381247  0.93727104  1
  Te  Te174  1  0.93911405  0.38608160  0.25358334  1
  Te  Te175  1  0.90616799  0.42028820  0.58638194  1
  Te  Te176  1  0.91251023  0.41942478  0.92008309  1
  Te  Te177  1  0.93099359  0.76073769  0.24079187  1
  Te  Te178  1  0.87978709  0.76703850  0.62299056  1
  Te  Te179  1  0.93020142  0.72979196  0.91558658  1
