# generated using pymatgen
data_In2Te3
_symmetry_space_group_name_H-M   'P 1'
_cell_length_a   18.79906921
_cell_length_b   18.79220621
_cell_length_c   18.79215892
_cell_angle_alpha   90.01662124
_cell_angle_beta   90.01641021
_cell_angle_gamma   90.01800494
_symmetry_Int_Tables_number   1
_chemical_formula_structural   In2Te3
_chemical_formula_sum   'In72 Te108'
_cell_volume   6638.81757716
_cell_formula_units_Z   36
loop_
 _symmetry_equiv_pos_site_id
 _symmetry_equiv_pos_as_xyz
  1  'x, y, z'
loop_
 _atom_site_type_symbol
 _atom_site_label
 _atom_site_symmetry_multiplicity
 _atom_site_fract_x
 _atom_site_fract_y
 _atom_site_fract_z
 _atom_site_occupancy
  In  In0  1  -0.01083747  0.51985194  0.49506039  1
  In  In1  1  0.84960279  0.66099397  0.20658951  1
  In  In2  1  0.48372265  0.16717619  0.67491147  1
  In  In3  1  0.03444874  -0.01733661  0.66827886  1
  In  In4  1  0.14067685  0.66362239  0.48608613  1
  In  In5  1  0.32349725  0.15740442  0.15717374  1
  In  In6  1  0.52649683  0.80933800  0.33924259  1
  In  In7  1  0.67965605  0.50369267  0.82814822  1
  In  In8  1  0.16209774  0.82060827  0.33438780  1
  In  In9  1  -0.00033264  -0.01213674  0.33062250  1
  In  In10  1  0.30995945  0.82942994  0.84800825  1
  In  In11  1  0.86091671  0.68119032  0.82047632  1
  In  In12  1  0.86148545  0.00380389  0.84284339  1
  In  In13  1  0.49671490  0.49115264  0.66703059  1
  In  In14  1  0.33537865  0.00828143  0.35035937  1
  In  In15  1  0.35000789  0.80760525  0.16145404  1
  In  In16  1  -0.00472544  0.02272399  0.02211975  1
  In  In17  1  0.30393242  0.65019570  0.66486075  1
  In  In18  1  0.84111644  0.50078489  0.01597495  1
  In  In19  1  0.83136370  0.00576022  0.16952038  1
  In  In20  1  0.50811584  0.32084616  0.83217636  1
  In  In21  1  0.84567199  0.84112965  -0.00631989  1
  In  In22  1  -0.00581422  0.16203844  0.48103780  1
  In  In23  1  0.30828330  0.46339714  0.84848319  1
  In  In24  1  0.68796844  0.68379635  0.66437201  1
  In  In25  1  0.51811118  0.63351734  0.46486751  1
  In  In26  1  0.31647785  0.66091521  0.00336126  1
  In  In27  1  0.15895618  0.49777129  0.31962885  1
  In  In28  1  0.50355924  0.30825815  0.51238112  1
  In  In29  1  0.82325576  0.18365038  0.33934989  1
  In  In30  1  0.33006126  0.17441148  0.82774017  1
  In  In31  1  0.34883322  -0.02388144  0.01141804  1
  In  In32  1  0.17350371  0.16145052  0.68927554  1
  In  In33  1  0.50762682  -0.00494620  0.16947465  1
  In  In34  1  0.14784006  0.51393302  0.67898301  1
  In  In35  1  0.82913552  0.51955473  0.67313271  1
  In  In36  1  0.50300077  0.52235142  0.02695444  1
  In  In37  1  0.65231929  0.66847620  0.01019127  1
  In  In38  1  0.65702702  0.01790321  0.01228521  1
  In  In39  1  0.18433724  0.00415092  0.15410432  1
  In  In40  1  0.67404869  0.83791683  0.17345580  1
  In  In41  1  0.01596292  0.48155099  0.16096699  1
  In  In42  1  0.31227214  0.34529647  0.32968525  1
  In  In43  1  0.67255078  0.81847869  0.48898134  1
  In  In44  1  0.66633376  0.17306015  0.84573879  1
  In  In45  1  0.14199504  0.67146074  0.13785991  1
  In  In46  1  0.49229881  0.68632435  0.85169654  1
  In  In47  1  0.31801301  0.35046749  -0.00507535  1
  In  In48  1  0.67716413  0.18269616  0.16578665  1
  In  In49  1  0.14818454  -0.00799477  0.53552730  1
  In  In50  1  0.67806389  0.34548471  0.01819742  1
  In  In51  1  -0.00349789  0.83287326  0.84320003  1
  In  In52  1  0.85185147  0.35953696  0.84223316  1
  In  In53  1  0.49117876  0.51157129  0.30744193  1
  In  In54  1  0.14954622  0.18098588  -0.00151431  1
  In  In55  1  0.66613927  -0.01300979  0.65986604  1
  In  In56  1  0.50880276  0.84588913  0.67366455  1
  In  In57  1  0.31335580  0.48089705  0.49228106  1
  In  In58  1  0.16867336  0.32727902  0.50567887  1
  In  In59  1  0.50689190  0.33784435  0.15731375  1
  In  In60  1  0.49151288  -0.01926133  0.49012292  1
  In  In61  1  0.36476729  0.82189804  0.49545801  1
  In  In62  1  0.67209952  0.18061176  0.49316679  1
  In  In63  1  0.51059946  0.14930728  0.32492142  1
  In  In64  1  -0.00151892  0.31501377  0.29995226  1
  In  In65  1  0.68690990  0.47092909  0.45357513  1
  In  In66  1  0.16434165  -0.00060312  0.83694248  1
  In  In67  1  0.00029697  0.35608638  0.67703226  1
  In  In68  1  0.85176037  0.69135351  0.49792771  1
  In  In69  1  0.82876895  0.18193750  0.65420929  1
  In  In70  1  0.85047614  -0.02558842  0.49390715  1
  In  In71  1  0.14378023  0.83735141  0.67044617  1
  Te  Te72  1  0.07230151  0.11764801  0.12591426  1
  Te  Te73  1  0.09625191  0.07359487  0.41411182  1
  Te  Te74  1  0.06421100  0.09323028  0.77239353  1
  Te  Te75  1  0.07149804  0.40088136  0.04918471  1
  Te  Te76  1  0.07720573  0.41433629  0.41923749  1
  Te  Te77  1  0.10092576  0.40710662  0.77246731  1
  Te  Te78  1  0.07119228  0.75339932  0.03759187  1
  Te  Te79  1  0.05044262  0.73289564  0.38657384  1
  Te  Te80  1  0.08650600  0.73588113  0.76834223  1
  Te  Te81  1  0.43180675  0.08836119  0.07600211  1
  Te  Te82  1  0.41632054  0.10388077  0.43663596  1
  Te  Te83  1  0.41702853  0.07337703  0.76642753  1
  Te  Te84  1  0.40339268  0.43218593  0.09678012  1
  Te  Te85  1  0.42870600  0.41530916  0.41700102  1
  Te  Te86  1  0.40698013  0.39822294  0.74759994  1
  Te  Te87  1  0.43093104  0.73210406  0.06404407  1
  Te  Te88  1  0.40840743  0.71837116  0.38641205  1
  Te  Te89  1  0.40492508  0.74405171  0.73761218  1
  Te  Te90  1  0.76857164  0.10447170  0.07150837  1
  Te  Te91  1  0.75698746  0.07470073  0.42292210  1
  Te  Te92  1  0.75665583  0.08169543  0.74868645  1
  Te  Te93  1  0.75490950  0.42835413  0.11181530  1
  Te  Te94  1  0.78179787  0.40360975  0.36268885  1
  Te  Te95  1  0.74720771  0.40479416  0.73677717  1
  Te  Te96  1  0.76731155  0.74779825  0.08804180  1
  Te  Te97  1  0.75582433  0.74228461  0.39463135  1
  Te  Te98  1  0.75284497  0.76673921  0.76640786  1
  Te  Te99  1  0.09519992  0.23944792  0.22336930  1
  Te  Te100  1  0.07157394  0.23998283  0.59021631  1
  Te  Te101  1  0.04387564  0.27218379  0.93742132  1
  Te  Te102  1  0.06740182  0.59594398  0.25109477  1
  Te  Te103  1  0.05595245  0.60869567  0.60091670  1
  Te  Te104  1  0.06608234  0.60189731  0.84679169  1
  Te  Te105  1  0.09034095  0.91080589  0.23348236  1
  Te  Te106  1  0.04251038  0.86979560  0.55378797  1
  Te  Te107  1  0.07750633  0.92424851  0.93619404  1
  Te  Te108  1  0.41543539  0.24514270  0.24922235  1
  Te  Te109  1  0.39485707  0.25561621  0.59623034  1
  Te  Te110  1  0.41461544  0.25064983  0.93017371  1
  Te  Te111  1  0.40672198  0.61853530  0.25854343  1
  Te  Te112  1  0.40969813  0.58186024  0.57539435  1
  Te  Te113  1  0.41755291  0.56401642  0.90459471  1
  Te  Te114  1  0.41626010  0.91292135  0.26260978  1
  Te  Te115  1  0.40145114  0.92913348  0.60013665  1
  Te  Te116  1  0.42390105  0.89544648  0.91417360  1
  Te  Te117  1  0.75775823  0.28030526  0.24470372  1
  Te  Te118  1  0.75578692  0.27586239  0.56804098  1
  Te  Te119  1  0.76343385  0.26305992  0.92314562  1
  Te  Te120  1  0.73832123  0.57877480  0.25578990  1
  Te  Te121  1  0.73618996  0.57873711  0.56710311  1
  Te  Te122  1  0.76139622  0.59484900  0.91750655  1
  Te  Te123  1  0.76085970  0.91593508  0.26452707  1
  Te  Te124  1  0.76193757  0.89211880  0.58861272  1
  Te  Te125  1  0.75031370  0.93287941  0.91965939  1
  Te  Te126  1  0.23645723  0.26444477  0.09452210  1
  Te  Te127  1  0.24994044  0.24396841  0.41577742  1
  Te  Te128  1  0.22075162  0.26474457  0.78545381  1
  Te  Te129  1  0.23210768  0.56599775  0.08029581  1
  Te  Te130  1  0.24754271  0.58748620  0.40738873  1
  Te  Te131  1  0.23869168  0.58808455  0.78564445  1
  Te  Te132  1  0.24605577  0.88691408  0.07940299  1
  Te  Te133  1  0.24889866  0.90868320  0.42820631  1
  Te  Te134  1  0.25137541  0.92250766  0.74023845  1
  Te  Te135  1  0.57803740  0.23971217  0.06511955  1
  Te  Te136  1  0.58980644  0.26082667  0.39292682  1
  Te  Te137  1  0.59914246  0.25151369  0.73161358  1
  Te  Te138  1  0.60479632  0.57875352  0.11964469  1
  Te  Te139  1  0.63700855  0.59631216  0.37507891  1
  Te  Te140  1  0.58301928  0.59157293  0.74621057  1
  Te  Te141  1  0.57660709  0.90167993  0.07173096  1
  Te  Te142  1  0.60151436  0.92583354  0.40325493  1
  Te  Te143  1  0.58326562  0.93021972  0.76794110  1
  Te  Te144  1  0.96195045  0.22424440  0.05091734  1
  Te  Te145  1  0.91061643  0.27379991  0.42697808  1
  Te  Te146  1  0.91969958  0.25144831  0.75547025  1
  Te  Te147  1  0.93153090  0.59399633  0.09612255  1
  Te  Te148  1  0.89214411  0.58275606  0.40446745  1
  Te  Te149  1  0.93716985  0.55784022  0.77544267  1
  Te  Te150  1  0.92942217  0.90967096  0.10198908  1
  Te  Te151  1  0.89874353  0.88607589  0.38011428  1
  Te  Te152  1  0.91684109  0.90859059  0.73760510  1
  Te  Te153  1  0.24041560  0.09251162  0.26718177  1
  Te  Te154  1  0.24960256  0.08296230  0.59095546  1
  Te  Te155  1  0.24764690  0.07718792  0.93984074  1
  Te  Te156  1  0.24700175  0.42596463  0.22570474  1
  Te  Te157  1  0.24482116  0.41217598  0.60729040  1
  Te  Te158  1  0.20242111  0.44174277  0.95567489  1
  Te  Te159  1  0.24259742  0.73210017  0.23926430  1
  Te  Te160  1  0.24049712  0.75458233  0.57256262  1
  Te  Te161  1  0.21768095  0.74931217  0.93226494  1
  Te  Te162  1  0.61538820  0.06969889  0.24781712  1
  Te  Te163  1  0.58234753  0.08283039  0.57373086  1
  Te  Te164  1  0.56974042  0.08507055  0.91284106  1
  Te  Te165  1  0.58928061  0.42029462  0.24670247  1
  Te  Te166  1  0.58943781  0.42210007  0.56868646  1
  Te  Te167  1  0.58233185  0.42709798  0.91964624  1
  Te  Te168  1  0.57578589  0.73618267  0.22173749  1
  Te  Te169  1  0.56529960  0.74345796  0.57093951  1
  Te  Te170  1  0.61074457  0.75845681  0.90033637  1
  Te  Te171  1  0.91804728  0.09672567  0.25775963  1
  Te  Te172  1  0.92487619  0.07371758  0.58744035  1
  Te  Te173  1  0.91691059  0.11220401  0.93067020  1
  Te  Te174  1  0.91015890  0.42516221  0.25289790  1
  Te  Te175  1  0.90471444  0.42374945  0.57986438  1
  Te  Te176  1  0.94700157  0.43037240  0.93521332  1
  Te  Te177  1  0.93391153  0.76194332  0.27438738  1
  Te  Te178  1  0.93408212  0.76284267  0.59568092  1
  Te  Te179  1  0.94230143  0.72656572  0.94873635  1
