# generated using pymatgen
data_In2Te3
_symmetry_space_group_name_H-M   'P 1'
_cell_length_a   18.82500175
_cell_length_b   18.82312158
_cell_length_c   18.83323933
_cell_angle_alpha   89.95872302
_cell_angle_beta   90.13757688
_cell_angle_gamma   89.99260832
_symmetry_Int_Tables_number   1
_chemical_formula_structural   In2Te3
_chemical_formula_sum   'In72 Te108'
_cell_volume   6673.44875148
_cell_formula_units_Z   36
loop_
 _symmetry_equiv_pos_site_id
 _symmetry_equiv_pos_as_xyz
  1  'x, y, z'
loop_
 _atom_site_type_symbol
 _atom_site_label
 _atom_site_symmetry_multiplicity
 _atom_site_fract_x
 _atom_site_fract_y
 _atom_site_fract_z
 _atom_site_occupancy
  In  In0  1  0.48392459  0.04379974  0.81714858  1
  In  In1  1  0.16078097  0.67282833  0.18213676  1
  In  In2  1  0.64786201  0.33365220  0.32830153  1
  In  In3  1  0.82686316  0.32491449  0.50812782  1
  In  In4  1  0.50526021  0.65245813  0.50467151  1
  In  In5  1  0.64944412  0.17512827  0.16053658  1
  In  In6  1  0.83359875  0.15341186  0.34021562  1
  In  In7  1  0.33033995  0.85141622  0.48267472  1
  In  In8  1  -0.02100517  0.33453263  0.01771416  1
  In  In9  1  0.52818420  0.81925767  -0.01229175  1
  In  In10  1  0.82478115  0.01039196  0.16563587  1
  In  In11  1  0.49296580  0.32599888  0.16542144  1
  In  In12  1  0.35729181  0.65761618  0.00926134  1
  In  In13  1  0.02345511  0.83944372  0.48716424  1
  In  In14  1  0.00224967  0.67252159  0.34551848  1
  In  In15  1  0.33978095  0.84015805  0.80785026  1
  In  In16  1  0.18037334  0.00823353  0.84527081  1
  In  In17  1  0.16105447  0.16748035  0.00839972  1
  In  In18  1  0.32908437  0.85294835  0.18757788  1
  In  In19  1  0.35043300  0.67470735  0.65310739  1
  In  In20  1  0.77448746  0.48222174  0.02118271  1
  In  In21  1  -0.00463086  0.31349712  0.67151054  1
  In  In22  1  0.19378183  0.84367736  0.01838258  1
  In  In23  1  0.13631200  0.49424172  0.00702596  1
  In  In24  1  0.66643178  0.20120736  0.84059948  1
  In  In25  1  0.82355748  0.17186310  0.67947692  1
  In  In26  1  0.21723982  0.15861082  0.62661660  1
  In  In27  1  0.84623305  -0.00327059  0.85992461  1
  In  In28  1  0.18091329  0.86344843  0.64797615  1
  In  In29  1  0.03324871  0.16421582  0.47873468  1
  In  In30  1  0.67909102  -0.01003533  0.32946640  1
  In  In31  1  0.83132797  0.00833729  0.50762572  1
  In  In32  1  0.49589284  0.17384146  0.00209063  1
  In  In33  1  0.01983788  0.87676014  0.19514962  1
  In  In34  1  0.00884556  0.48232571  0.19365984  1
  In  In35  1  0.65361568  0.00025434  0.65304499  1
  In  In36  1  -0.02028020  0.03311697  0.00324872  1
  In  In37  1  0.32128889  0.33571511  0.35669466  1
  In  In38  1  0.82511847  0.65975465  0.15526859  1
  In  In39  1  0.36002454  0.49602123  0.19459914  1
  In  In40  1  0.50197860  0.83194870  0.34014451  1
  In  In41  1  0.02385342  -0.00657477  0.65593313  1
  In  In42  1  0.36363536  0.32507308  0.64766739  1
  In  In43  1  -0.02240996  0.15403934  0.82818378  1
  In  In44  1  0.49043906  0.51303984  0.34464462  1
  In  In45  1  0.01946238  0.18080624  0.20427396  1
  In  In46  1  0.36048227  0.48027198  0.84162641  1
  In  In47  1  0.82204415  0.79914419  0.67959288  1
  In  In48  1  0.48265693  0.17457317  0.35246948  1
  In  In49  1  0.16090817  0.48528813  0.64652931  1
  In  In50  1  0.01558531  0.47271441  0.45782379  1
  In  In51  1  0.16073631  0.32983977  0.80444358  1
  In  In52  1  0.18321462  0.67109399  0.80110595  1
  In  In53  1  0.50536890  0.81932592  0.66714975  1
  In  In54  1  0.49653347  -0.01342216  0.14891881  1
  In  In55  1  0.84056336  0.82924859  0.34123178  1
  In  In56  1  0.67598626  0.67279780  0.32582767  1
  In  In57  1  0.32694853  0.50676023  0.47515442  1
  In  In58  1  0.62878005  0.34880487  0.65779944  1
  In  In59  1  -0.04569810  0.52312362  0.84372586  1
  In  In60  1  0.34271366  0.00736874  0.00989528  1
  In  In61  1  0.80685483  0.65576525  0.81378064  1
  In  In62  1  0.79474594  0.82538279  0.01914684  1
  In  In63  1  -0.01477128  0.66519267  0.01022507  1
  In  In64  1  0.48338812  0.00944547  0.47944932  1
  In  In65  1  -0.00573841  0.83201643  0.83826115  1
  In  In66  1  0.84566220  0.48467223  0.33278992  1
  In  In67  1  0.66268620  0.63518868  0.65554340  1
  In  In68  1  0.00660043  0.64603487  0.64885536  1
  In  In69  1  0.32598259  0.30969051  0.00801604  1
  In  In70  1  0.66631759  0.48874754  0.81767389  1
  In  In71  1  0.54973136  0.50273016  0.01404197  1
  Te  Te72  1  0.08225166  0.07864616  0.10490768  1
  Te  Te73  1  0.10538569  0.08934320  0.37093082  1
  Te  Te74  1  0.09427365  0.09518867  0.74710879  1
  Te  Te75  1  0.09435021  0.38856164  0.10569318  1
  Te  Te76  1  0.11274547  0.37460809  0.40200581  1
  Te  Te77  1  0.06044904  0.43856755  0.75623245  1
  Te  Te78  1  0.07816426  0.76343629  0.08290030  1
  Te  Te79  1  0.11092191  0.75297513  0.40591089  1
  Te  Te80  1  0.08278001  0.76605975  0.72489416  1
  Te  Te81  1  0.40989074  0.10496392  0.10658747  1
  Te  Te82  1  0.37286453  0.11516015  0.44037988  1
  Te  Te83  1  0.41692495  0.10825770  0.70347310  1
  Te  Te84  1  0.41152004  0.42557845  0.07110686  1
  Te  Te85  1  0.44302362  0.39623966  0.43605636  1
  Te  Te86  1  0.44205456  0.39386420  0.75497197  1
  Te  Te87  1  0.41692622  0.77345255  0.08461737  1
  Te  Te88  1  0.41112260  0.73765506  0.42002050  1
  Te  Te89  1  0.43519324  0.72818136  0.76817723  1
  Te  Te90  1  0.72706393  0.07840480  0.07913380  1
  Te  Te91  1  0.72917502  0.09263686  0.43273587  1
  Te  Te92  1  0.74529653  0.07020669  0.75962693  1
  Te  Te93  1  0.71674903  0.38048143  0.10765431  1
  Te  Te94  1  0.74185801  0.41586122  0.42129220  1
  Te  Te95  1  0.74772268  0.40540941  0.72715630  1
  Te  Te96  1  0.70582064  0.72084792  0.08411869  1
  Te  Te97  1  0.75780613  0.74498145  0.42657260  1
  Te  Te98  1  0.70383854  0.76266936  0.77019199  1
  Te  Te99  1  0.11316833  0.26174388  0.29134014  1
  Te  Te100  1  0.10218157  0.25208429  0.58427690  1
  Te  Te101  1  0.07182563  0.25493812  0.91163543  1
  Te  Te102  1  0.09879031  0.57018225  0.27802273  1
  Te  Te103  1  0.10300116  0.58204309  0.54301081  1
  Te  Te104  1  0.07989156  0.60419029  0.90517411  1
  Te  Te105  1  0.12571524  0.91708066  0.29080707  1
  Te  Te106  1  0.11570432  0.95355590  0.54096645  1
  Te  Te107  1  0.07610322  0.93259081  0.92612507  1
  Te  Te108  1  0.39490149  0.24871411  0.25209543  1
  Te  Te109  1  0.43294883  0.20754813  0.58445960  1
  Te  Te110  1  0.41831075  0.25688266  0.90804990  1
  Te  Te111  1  0.41929428  0.61271371  0.26003419  1
  Te  Te112  1  0.42164433  0.55810959  0.58916161  1
  Te  Te113  1  0.44724684  0.58037375  0.91758355  1
  Te  Te114  1  0.42009680  0.94392797  0.27323615  1
  Te  Te115  1  0.41985008  0.91655960  0.58630934  1
  Te  Te116  1  0.41922957  0.92124860  0.91143951  1
  Te  Te117  1  0.74938121  0.24626950  0.25288148  1
  Te  Te118  1  0.72854473  0.24267695  0.58661551  1
  Te  Te119  1  0.77158690  0.24804749  0.92987398  1
  Te  Te120  1  0.74932602  0.56321028  0.24425994  1
  Te  Te121  1  0.78094454  0.58388143  0.59032130  1
  Te  Te122  1  0.72730011  0.58987075  0.92504758  1
  Te  Te123  1  0.75091025  0.89432103  0.23565205  1
  Te  Te124  1  0.75283880  0.90521408  0.58648426  1
  Te  Te125  1  0.73947298  0.91121134  0.91278050  1
  Te  Te126  1  0.24327670  0.24068037  0.10696268  1
  Te  Te127  1  0.21184522  0.25055910  0.41518097  1
  Te  Te128  1  0.26775550  0.24318067  0.74501585  1
  Te  Te129  1  0.23952730  0.58727886  0.07640141  1
  Te  Te130  1  0.21513564  0.58619350  0.42547963  1
  Te  Te131  1  0.26615090  0.56015875  0.73823086  1
  Te  Te132  1  0.23961324  0.95415042  0.10896558  1
  Te  Te133  1  0.26322657  0.92724228  0.37192650  1
  Te  Te134  1  0.26924676  0.95389546  0.73391703  1
  Te  Te135  1  0.60161645  0.28381112  0.05951896  1
  Te  Te136  1  0.57817394  0.25429266  0.43244108  1
  Te  Te137  1  0.56680846  0.23879837  0.73951165  1
  Te  Te138  1  0.60285590  0.60431774  0.10405195  1
  Te  Te139  1  0.60580861  0.57427606  0.42313007  1
  Te  Te140  1  0.56535063  0.56449484  0.73764090  1
  Te  Te141  1  0.60006281  0.92045458  0.07048585  1
  Te  Te142  1  0.59397973  0.91458001  0.43169420  1
  Te  Te143  1  0.56540918  0.93003154  0.75548495  1
  Te  Te144  1  0.91702394  0.24043966  0.11328498  1
  Te  Te145  1  0.92355395  0.25051690  0.41593793  1
  Te  Te146  1  0.89255693  0.27092223  0.77323462  1
  Te  Te147  1  0.91778511  0.55268552  0.08594501  1
  Te  Te148  1  0.91161219  0.58392472  0.42903262  1
  Te  Te149  1  0.88134001  0.57109454  0.70717224  1
  Te  Te150  1  0.91378870  0.91280592  0.07481464  1
  Te  Te151  1  0.92531071  0.93298726  0.41421425  1
  Te  Te152  1  0.91265551  0.92426612  0.73528661  1
  Te  Te153  1  0.22432674  0.04977069  0.28097807  1
  Te  Te154  1  0.26179931  0.05434441  0.53440888  1
  Te  Te155  1  0.27033974  0.10598934  0.91775942  1
  Te  Te156  1  0.25095994  0.42778931  0.26342465  1
  Te  Te157  1  0.25853424  0.40042633  0.56721675  1
  Te  Te158  1  0.23287088  0.41910231  0.91380922  1
  Te  Te159  1  0.26364449  0.74245735  0.26144486  1
  Te  Te160  1  0.24957027  0.75089608  0.57137724  1
  Te  Te161  1  0.25851218  0.75505231  0.91269397  1
  Te  Te162  1  0.57840901  0.08215848  0.25982169  1
  Te  Te163  1  0.56161226  0.09332120  0.57981109  1
  Te  Te164  1  0.58771722  0.08749230  0.91755988  1
  Te  Te165  1  0.57164215  0.43152907  0.23991480  1
  Te  Te166  1  0.55005508  0.41196133  0.55023331  1
  Te  Te167  1  0.59070088  0.40346039  0.91406026  1
  Te  Te168  1  0.58280047  0.75506803  0.24440700  1
  Te  Te169  1  0.60019191  0.75026112  0.57211414  1
  Te  Te170  1  0.61427626  0.74227088  0.89801766  1
  Te  Te171  1  0.92841363  0.06587138  0.26116663  1
  Te  Te172  1  0.92858887  0.10403229  0.58709150  1
  Te  Te173  1  0.87293625  0.13110318  0.94354154  1
  Te  Te174  1  0.91549605  0.38372186  0.25064987  1
  Te  Te175  1  0.93358136  0.41231725  0.57433691  1
  Te  Te176  1  0.88509170  0.41898759  0.92805260  1
  Te  Te177  1  0.92547758  0.74631657  0.23342171  1
  Te  Te178  1  0.92832034  0.75760288  0.57707915  1
  Te  Te179  1  0.89197582  0.74372503  0.91656189  1
