# generated using pymatgen
data_In2Te3
_symmetry_space_group_name_H-M   'P 1'
_cell_length_a   18.86608904
_cell_length_b   18.88446994
_cell_length_c   18.89189113
_cell_angle_alpha   89.94955258
_cell_angle_beta   89.99580668
_cell_angle_gamma   90.03740555
_symmetry_Int_Tables_number   1
_chemical_formula_structural   In2Te3
_chemical_formula_sum   'In72 Te108'
_cell_volume   6730.72506753
_cell_formula_units_Z   36
loop_
 _symmetry_equiv_pos_site_id
 _symmetry_equiv_pos_as_xyz
  1  'x, y, z'
loop_
 _atom_site_type_symbol
 _atom_site_label
 _atom_site_symmetry_multiplicity
 _atom_site_fract_x
 _atom_site_fract_y
 _atom_site_fract_z
 _atom_site_occupancy
  In  In0  1  0.62310340  0.34374739  -0.01804219  1
  In  In1  1  0.01535169  0.52673114  0.85185620  1
  In  In2  1  0.32074405  0.84344934  0.50317754  1
  In  In3  1  0.52170581  0.52744063  0.32336566  1
  In  In4  1  0.01684745  -0.01969280  0.34358038  1
  In  In5  1  0.64384770  -0.00351440  0.67979311  1
  In  In6  1  0.48959961  0.81219173  0.35192583  1
  In  In7  1  0.18115122  -0.01045722  0.51627827  1
  In  In8  1  0.31371241  0.80990279  0.16893945  1
  In  In9  1  0.23275728  0.67373849  0.81498399  1
  In  In10  1  0.47530207  0.32281522  0.83460373  1
  In  In11  1  0.83685121  0.19501987  -0.01460894  1
  In  In12  1  0.51596953  -0.01138171  0.15501347  1
  In  In13  1  0.01451609  0.34793164  0.00400915  1
  In  In14  1  0.86114106  -0.01262818  0.14429654  1
  In  In15  1  0.86553358  0.36522874  0.15838508  1
  In  In16  1  0.49873198  0.66346382  0.16055641  1
  In  In17  1  0.48795246  0.52857792  0.67811196  1
  In  In18  1  0.85488618  0.20507271  0.34369420  1
  In  In19  1  0.69011661  -0.02286454  0.34667953  1
  In  In20  1  0.82884628  0.82187056  0.65228637  1
  In  In21  1  -0.00561201  0.82554446  0.82254306  1
  In  In22  1  0.00061067  -0.02494129  -0.00021644  1
  In  In23  1  0.16322024  0.16355559  0.67461953  1
  In  In24  1  0.66210518  0.50443752  0.49211727  1
  In  In25  1  0.66021524  0.34659262  0.30432625  1
  In  In26  1  0.17094161  0.00355404  0.85934231  1
  In  In27  1  0.84274013  0.83062272  0.29090158  1
  In  In28  1  0.62930935  0.01273159  0.00857340  1
  In  In29  1  0.17244114  0.82864495  0.65728523  1
  In  In30  1  0.82691398  0.51372175  0.00712751  1
  In  In31  1  0.84091471  0.48819627  0.69055369  1
  In  In32  1  0.31336936  0.32598829  0.65505542  1
  In  In33  1  0.86077832  0.01609769  0.50454671  1
  In  In34  1  0.82994982  0.14761342  0.66116052  1
  In  In35  1  0.65540606  0.65976763  -0.01141476  1
  In  In36  1  0.85313047  0.65653134  0.16861898  1
  In  In37  1  0.64629574  0.84895581  0.83874782  1
  In  In38  1  0.36098124  -0.02142704  -0.01960063  1
  In  In39  1  0.04136989  0.49727543  0.48698408  1
  In  In40  1  0.31705222  0.49742318  0.51287597  1
  In  In41  1  0.80961908  0.79117080  -0.02048139  1
  In  In42  1  0.48434076  0.32025922  0.50583335  1
  In  In43  1  0.17970282  0.35543599  0.84865158  1
  In  In44  1  0.18828860  0.51635870  -0.01490251  1
  In  In45  1  0.66846708  0.17216050  0.52631693  1
  In  In46  1  0.66965694  0.65087012  0.32928609  1
  In  In47  1  0.36311823  0.01143328  0.34581629  1
  In  In48  1  0.63191433  0.32170663  0.69691091  1
  In  In49  1  0.31058982  0.19942720  0.14269391  1
  In  In50  1  0.86760676  0.49816164  0.34853180  1
  In  In51  1  0.86256673  0.30768615  0.49067365  1
  In  In52  1  0.65283842  0.16680038  0.15314355  1
  In  In53  1  0.16837257  0.66482725  0.49987579  1
  In  In54  1  0.65063805  0.51647819  0.13474513  1
  In  In55  1  0.00710244  0.35586612  0.67329741  1
  In  In56  1  0.33244493  0.50305797  0.16288759  1
  In  In57  1  0.48083766  0.16851776  0.33278162  1
  In  In58  1  0.18304919  0.18457120  0.34968196  1
  In  In59  1  0.83488428  0.65966740  0.50525804  1
  In  In60  1  0.48683901  0.15384840  -0.02778683  1
  In  In61  1  0.79711420  0.32610415  0.84956757  1
  In  In62  1  0.36034925  0.00878059  0.69159498  1
  In  In63  1  0.02858943  0.53947691  0.19042830  1
  In  In64  1  0.65577949  0.81577645  0.51768885  1
  In  In65  1  0.63709145  0.68184431  0.68202156  1
  In  In66  1  0.18968064  0.79084235  0.32608962  1
  In  In67  1  0.31949612  0.35660069  0.33653438  1
  In  In68  1  0.00596081  0.17425799  0.82162049  1
  In  In69  1  0.82081464  -0.00806653  0.81766874  1
  In  In70  1  0.03236974  0.14387148  0.19723329  1
  In  In71  1  0.17658059  -0.00707364  0.16977048  1
  Te  Te72  1  0.09054823  0.07579187  0.07399168  1
  Te  Te73  1  0.09605013  0.07953885  0.42450698  1
  Te  Te74  1  0.07733482  0.06284570  0.74947800  1
  Te  Te75  1  0.09338774  0.44684340  0.08479060  1
  Te  Te76  1  0.06804914  0.38417442  0.39935665  1
  Te  Te77  1  0.10042857  0.44447626  0.75494178  1
  Te  Te78  1  0.03918299  0.77808479  0.13219224  1
  Te  Te79  1  0.09471319  0.77958147  0.43816848  1
  Te  Te80  1  0.09886420  0.73865528  0.75332395  1
  Te  Te81  1  0.41325009  0.08319829  0.09443216  1
  Te  Te82  1  0.43499747  0.08872791  0.44754850  1
  Te  Te83  1  0.42893758  0.09044941  0.79661421  1
  Te  Te84  1  0.44426560  0.42484281  0.10766829  1
  Te  Te85  1  0.43587180  0.43385387  0.41625360  1
  Te  Te86  1  0.39214138  0.42469497  0.74150629  1
  Te  Te87  1  0.40606949  0.74219668  0.07456805  1
  Te  Te88  1  0.36583112  0.74733611  0.39770215  1
  Te  Te89  1  0.36737748  0.74506248  0.78326214  1
  Te  Te90  1  0.76101222  0.09004343  0.07785320  1
  Te  Te91  1  0.75625279  0.09846183  0.41772311  1
  Te  Te92  1  0.72832649  0.09857275  0.76061696  1
  Te  Te93  1  0.74044884  0.39871778  0.07382462  1
  Te  Te94  1  0.75331532  0.40979051  0.41177431  1
  Te  Te95  1  0.72192550  0.42746965  0.76420839  1
  Te  Te96  1  0.73960185  0.72861309  0.09940456  1
  Te  Te97  1  0.75270036  0.75471450  0.40697960  1
  Te  Te98  1  0.74320562  0.75925269  0.76011459  1
  Te  Te99  1  0.12845602  0.24994276  0.22795601  1
  Te  Te100  1  0.09761847  0.27075363  0.59316154  1
  Te  Te101  1  0.09362512  0.24740967  0.92127702  1
  Te  Te102  1  0.12597110  0.58865454  0.29237955  1
  Te  Te103  1  0.09456657  0.57898818  0.59504728  1
  Te  Te104  1  0.10846074  0.62353149  0.91856404  1
  Te  Te105  1  0.07301665  0.89750146  0.22784302  1
  Te  Te106  1  0.07613015  0.89829178  0.56672201  1
  Te  Te107  1  0.09449348  0.88477246  0.92321604  1
  Te  Te108  1  0.40486312  0.26484654  0.24670364  1
  Te  Te109  1  0.42691951  0.23765691  0.61326786  1
  Te  Te110  1  0.38762954  0.25968562  0.93816907  1
  Te  Te111  1  0.40616752  0.60265614  0.26397803  1
  Te  Te112  1  0.39710146  0.59889048  0.58473050  1
  Te  Te113  1  0.35322887  0.59193183  0.87016513  1
  Te  Te114  1  0.41732743  0.90824810  0.24482417  1
  Te  Te115  1  0.41642918  0.91090242  0.59353481  1
  Te  Te116  1  0.40400000  0.88331816  0.87439257  1
  Te  Te117  1  0.75715115  0.25251712  0.23179221  1
  Te  Te118  1  0.75016527  0.27794607  0.60039826  1
  Te  Te119  1  0.70324174  0.22849890  0.91663736  1
  Te  Te120  1  0.75923131  0.55257219  0.24401260  1
  Te  Te121  1  0.73671503  0.58657141  0.59706087  1
  Te  Te122  1  0.74803893  0.58111444  0.90540511  1
  Te  Te123  1  0.74103933  0.91708797  0.21722158  1
  Te  Te124  1  0.74712825  0.93187268  0.57811491  1
  Te  Te125  1  0.75111054  0.92771725  0.93564586  1
  Te  Te126  1  0.24979258  0.30468897  0.06286378  1
  Te  Te127  1  0.27854216  0.25483084  0.43636609  1
  Te  Te128  1  0.24923368  0.24552501  0.76878461  1
  Te  Te129  1  0.27782226  0.60443267  0.06652686  1
  Te  Te130  1  0.23716571  0.57083100  0.40358169  1
  Te  Te131  1  0.27536221  0.53438535  0.75860257  1
  Te  Te132  1  0.25244749  0.90925523  0.07051847  1
  Te  Te133  1  0.24282089  0.92615080  0.38548565  1
  Te  Te134  1  0.24303854  0.92729416  0.74812384  1
  Te  Te135  1  0.55217494  0.24835391  0.07958616  1
  Te  Te136  1  0.59412194  0.25553485  0.40869533  1
  Te  Te137  1  0.53717656  0.21714804  0.74665524  1
  Te  Te138  1  0.54048920  0.56842293  0.04533561  1
  Te  Te139  1  0.57012134  0.61403393  0.43968496  1
  Te  Te140  1  0.55718344  0.60739778  0.78099946  1
  Te  Te141  1  0.56663194  0.88793928  0.05938204  1
  Te  Te142  1  0.57755724  0.91300602  0.42680691  1
  Te  Te143  1  0.55560909  0.88654261  0.72681591  1
  Te  Te144  1  0.93735529  0.24323469  0.09425579  1
  Te  Te145  1  0.97998577  0.25547503  0.40998394  1
  Te  Te146  1  0.90406612  0.26383761  0.75152617  1
  Te  Te147  1  0.94326932  0.58734417  0.06854986  1
  Te  Te148  1  0.94684316  0.60426530  0.41728075  1
  Te  Te149  1  0.92222608  0.59080093  0.75529042  1
  Te  Te150  1  0.92115886  0.86238291  0.07214474  1
  Te  Te151  1  0.90562312  0.90305300  0.41377586  1
  Te  Te152  1  0.91828055  0.92235318  0.72819249  1
  Te  Te153  1  0.26650915  0.08806557  0.24969144  1
  Te  Te154  1  0.26619222  0.08744060  0.59258301  1
  Te  Te155  1  0.27022740  0.08425139  0.93184886  1
  Te  Te156  1  0.23094691  0.43888802  0.25146480  1
  Te  Te157  1  0.22193879  0.39137526  0.55725120  1
  Te  Te158  1  0.28593281  0.40308896  0.94800198  1
  Te  Te159  1  0.20767246  0.70500169  0.20421284  1
  Te  Te160  1  0.27063832  0.73081191  0.59420083  1
  Te  Te161  1  0.29493890  0.78223301  0.90944397  1
  Te  Te162  1  0.59284058  0.07637819  0.26157159  1
  Te  Te163  1  0.56981072  0.07860899  0.58035369  1
  Te  Te164  1  0.55195027  0.04959759  0.88411334  1
  Te  Te165  1  0.55533934  0.41763963  0.21433646  1
  Te  Te166  1  0.57616699  0.42053727  0.58676403  1
  Te  Te167  1  0.55346507  0.43515605  0.89099718  1
  Te  Te168  1  0.58664314  0.75259251  0.25118105  1
  Te  Te169  1  0.54365281  0.75739280  0.59413169  1
  Te  Te170  1  0.56583987  0.76373745  0.92997220  1
  Te  Te171  1  0.91219075  0.07177395  0.26298350  1
  Te  Te172  1  0.94431626  0.11097646  0.57835616  1
  Te  Te173  1  0.91881961  0.07915805  0.91217201  1
  Te  Te174  1  0.96190060  0.41162505  0.26530489  1
  Te  Te175  1  0.91246733  0.43317815  0.56780346  1
  Te  Te176  1  0.91181220  0.41185977  0.91182938  1
  Te  Te177  1  0.95057895  0.73179831  0.25703202  1
  Te  Te178  1  0.92609301  0.72635291  0.59878659  1
  Te  Te179  1  0.91692782  0.72717384  0.90297076  1
