# generated using pymatgen
data_In2Te3
_symmetry_space_group_name_H-M   'P 1'
_cell_length_a   18.90607945
_cell_length_b   18.94027810
_cell_length_c   18.91161067
_cell_angle_alpha   90.04966016
_cell_angle_beta   89.89530907
_cell_angle_gamma   89.99739206
_symmetry_Int_Tables_number   1
_chemical_formula_structural   In2Te3
_chemical_formula_sum   'In72 Te108'
_cell_volume   6771.97677367
_cell_formula_units_Z   36
loop_
 _symmetry_equiv_pos_site_id
 _symmetry_equiv_pos_as_xyz
  1  'x, y, z'
loop_
 _atom_site_type_symbol
 _atom_site_label
 _atom_site_symmetry_multiplicity
 _atom_site_fract_x
 _atom_site_fract_y
 _atom_site_fract_z
 _atom_site_occupancy
  In  In0  1  0.18106822  0.18166507  -0.01539787  1
  In  In1  1  -0.01822701  0.17968485  0.14028134  1
  In  In2  1  0.66634593  0.70225311  -0.01035587  1
  In  In3  1  0.14100205  0.64298890  0.17424705  1
  In  In4  1  0.46983969  0.49862254  -0.01332958  1
  In  In5  1  0.70015608  0.67792179  0.33251838  1
  In  In6  1  -0.01145432  0.50153798  0.52760328  1
  In  In7  1  0.66423820  0.51427202  0.16948904  1
  In  In8  1  0.85364565  0.02286289  0.82468056  1
  In  In9  1  0.47431081  0.00517314  0.81712666  1
  In  In10  1  0.46850412  0.32373951  0.54012268  1
  In  In11  1  -0.00690012  0.82285974  0.48059658  1
  In  In12  1  0.16449595  0.65936402  0.49715055  1
  In  In13  1  0.01486027  0.86635158  0.83267723  1
  In  In14  1  0.65736422  0.18322997  0.50190430  1
  In  In15  1  0.52493525  0.67297024  0.19050160  1
  In  In16  1  0.00174067  0.65326943  -0.00534061  1
  In  In17  1  0.01115811  0.17504961  0.50299140  1
  In  In18  1  0.49109673  0.31051691  0.13048309  1
  In  In19  1  0.17481633  0.17006474  0.33899444  1
  In  In20  1  0.64282891  0.18311660  0.83642119  1
  In  In21  1  0.66114666  0.84404563  0.82187040  1
  In  In22  1  0.30984138  0.01457770  -0.00981415  1
  In  In23  1  0.82024295  0.83869258  0.02438016  1
  In  In24  1  0.47832463  0.03140533  0.49787097  1
  In  In25  1  0.32822374  0.33956616  -0.01816607  1
  In  In26  1  0.82058096  0.47916508  0.67352272  1
  In  In27  1  0.17986167  0.32225619  0.53076330  1
  In  In28  1  0.17469430  0.82925917  0.32741980  1
  In  In29  1  0.68367166  0.83611336  0.49531155  1
  In  In30  1  0.65674914  -0.01062057  0.64549392  1
  In  In31  1  0.32394593  0.34031057  0.32547910  1
  In  In32  1  0.33647140  0.64425961  0.66192275  1
  In  In33  1  0.54559400  0.84582639  -0.02616250  1
  In  In34  1  0.32807822  0.01364757  0.65365289  1
  In  In35  1  0.85657583  0.48056833  0.35246895  1
  In  In36  1  0.63551413  0.49082595  0.50966241  1
  In  In37  1  0.66158628  0.65159796  0.66887356  1
  In  In38  1  0.32478607  0.66356790  0.35179266  1
  In  In39  1  0.65416701  0.00116101  0.32649922  1
  In  In40  1  0.51063587  0.00190713  0.16937150  1
  In  In41  1  0.65446132  0.48738500  0.80999047  1
  In  In42  1  0.15408183  0.82290867  0.01870800  1
  In  In43  1  0.82009938  0.00291513  0.18658053  1
  In  In44  1  0.47891418  0.48751112  0.33493355  1
  In  In45  1  0.33592871  0.67275315  0.02198564  1
  In  In46  1  0.49748818  0.66348093  0.49648718  1
  In  In47  1  0.83448818  0.67869606  0.84053553  1
  In  In48  1  0.65000758  0.33068665  0.34679630  1
  In  In49  1  0.82547056  0.16368964  0.33544841  1
  In  In50  1  0.01897456  0.31030770  0.34981566  1
  In  In51  1  0.00956950  0.01651180  0.66123324  1
  In  In52  1  0.18499570  0.18223145  0.69595191  1
  In  In53  1  0.02104268  0.47768937  0.80401515  1
  In  In54  1  0.29955761  0.49838777  0.83460116  1
  In  In55  1  0.27165740  0.50619402  0.17309913  1
  In  In56  1  0.00027689  0.00006200  -0.00799661  1
  In  In57  1  0.85935251  0.51042227  -0.02003931  1
  In  In58  1  0.00043361  0.68164366  0.65715669  1
  In  In59  1  0.00521191  0.18285734  0.83268871  1
  In  In60  1  0.18537154  0.81421879  0.67073271  1
  In  In61  1  0.36670823  0.84140405  0.19089607  1
  In  In62  1  0.68052458  0.02489930  0.01194286  1
  In  In63  1  0.83344352  0.16690963  0.66073228  1
  In  In64  1  0.72685575  0.81306065  0.18269310  1
  In  In65  1  0.32531785  0.15110265  0.18118882  1
  In  In66  1  0.14312915  -0.02100348  0.18112302  1
  In  In67  1  0.67419197  0.32289205  0.00414370  1
  In  In68  1  0.85168749  0.34322884  0.17627023  1
  In  In69  1  0.47266916  0.32186189  0.82066055  1
  In  In70  1  0.33882318  0.82116618  0.81565930  1
  In  In71  1  0.16881432  -0.02027569  0.48377204  1
  Te  Te72  1  0.10100155  0.08440765  0.07977549  1
  Te  Te73  1  0.07706453  0.07649306  0.40852607  1
  Te  Te74  1  0.09567036  0.07887092  0.76812207  1
  Te  Te75  1  0.14630704  0.44338433  0.12517128  1
  Te  Te76  1  0.08480777  0.40518246  0.44689249  1
  Te  Te77  1  0.10358507  0.39714911  0.71151763  1
  Te  Te78  1  0.05364775  0.75140695  0.10318175  1
  Te  Te79  1  0.07892931  0.73031960  0.39472602  1
  Te  Te80  1  0.08416807  0.74999456  0.76556468  1
  Te  Te81  1  0.41431405  0.07947382  0.08047574  1
  Te  Te82  1  0.40218605  0.06705961  0.37830114  1
  Te  Te83  1  0.41793222  0.11041748  0.72825613  1
  Te  Te84  1  0.39479839  0.42805282  0.09814230  1
  Te  Te85  1  0.39477733  0.41722599  0.43759777  1
  Te  Te86  1  0.39521486  0.42397319  0.74488069  1
  Te  Te87  1  0.44770286  0.75958641  0.08460604  1
  Te  Te88  1  0.43911488  0.74591443  0.38934706  1
  Te  Te89  1  0.42146474  0.75203421  0.71837279  1
  Te  Te90  1  0.77916468  0.10288148  0.08620840  1
  Te  Te91  1  0.73967903  0.07839024  0.42636593  1
  Te  Te92  1  0.73301321  0.07909923  0.75217816  1
  Te  Te93  1  0.75860119  0.43342046  0.08057498  1
  Te  Te94  1  0.74306869  0.41315733  0.43053818  1
  Te  Te95  1  0.76257765  0.39358523  0.78079099  1
  Te  Te96  1  0.78221100  0.70333040  0.08507004  1
  Te  Te97  1  0.78096122  0.73519013  0.44250106  1
  Te  Te98  1  0.75333475  0.75629324  0.73872837  1
  Te  Te99  1  0.08881205  0.23789223  0.23505602  1
  Te  Te100  1  0.07047433  0.25361465  0.62022731  1
  Te  Te101  1  0.09789941  0.27501396  0.90597946  1
  Te  Te102  1  0.02699934  0.57430409  0.23571454  1
  Te  Te103  1  0.09716507  0.57786187  0.60502566  1
  Te  Te104  1  0.07900766  0.58187952  0.89244224  1
  Te  Te105  1  0.05562017  0.90402970  0.27518339  1
  Te  Te106  1  0.08379299  0.89806504  0.58999598  1
  Te  Te107  1  0.11763174  0.93510549  0.92051260  1
  Te  Te108  1  0.41968940  0.24899154  0.25091260  1
  Te  Te109  1  0.38907971  0.22720591  0.62199416  1
  Te  Te110  1  0.41300355  0.23249315  0.92306028  1
  Te  Te111  1  0.41152497  0.58164058  0.23651097  1
  Te  Te112  1  0.41748435  0.56397187  0.56693973  1
  Te  Te113  1  0.40181461  0.60067601  0.90376210  1
  Te  Te114  1  0.42476223  0.94743240  0.28216089  1
  Te  Te115  1  0.40907055  0.92368457  0.57134533  1
  Te  Te116  1  0.41187494  0.91147993  0.92835953  1
  Te  Te117  1  0.74617133  0.26107052  0.24964903  1
  Te  Te118  1  0.75477511  0.26149572  0.57928805  1
  Te  Te119  1  0.75511993  0.25220070  0.90337598  1
  Te  Te120  1  0.77605007  0.56964775  0.25516045  1
  Te  Te121  1  0.74869258  0.57049654  0.57470052  1
  Te  Te122  1  0.73668511  0.58312539  0.90827531  1
  Te  Te123  1  0.79976277  0.90037839  0.30828400  1
  Te  Te124  1  0.76838555  0.92534832  0.57717189  1
  Te  Te125  1  0.75881350  0.92571779  0.91007262  1
  Te  Te126  1  0.25735460  0.25492150  0.09312833  1
  Te  Te127  1  0.26780458  0.24439561  0.43184681  1
  Te  Te128  1  0.29049556  0.28792123  0.72611874  1
  Te  Te129  1  0.21716559  0.58111626  0.04788038  1
  Te  Te130  1  0.23240237  0.56509333  0.40515064  1
  Te  Te131  1  0.23293102  0.60602326  0.75989572  1
  Te  Te132  1  0.26167034  0.91053507  0.09925816  1
  Te  Te133  1  0.26809317  0.89109259  0.42203495  1
  Te  Te134  1  0.24912336  0.92585453  0.75208361  1
  Te  Te135  1  0.59546307  0.22246480  0.07871270  1
  Te  Te136  1  0.54642094  0.25257871  0.42333100  1
  Te  Te137  1  0.58403910  0.27389840  0.73430232  1
  Te  Te138  1  0.57506369  0.58618842  0.06723258  1
  Te  Te139  1  0.59062408  0.57545878  0.38873030  1
  Te  Te140  1  0.56103450  0.55889766  0.72470573  1
  Te  Te141  1  0.61527208  0.91187074  0.09384381  1
  Te  Te142  1  0.57937092  0.92770427  0.43283101  1
  Te  Te143  1  0.55786048  0.91108658  0.73245023  1
  Te  Te144  1  0.93829899  0.29744976  0.06612533  1
  Te  Te145  1  0.90245321  0.25454015  0.42903925  1
  Te  Te146  1  0.90816153  0.25655275  0.75041243  1
  Te  Te147  1  0.95137909  0.55036233  0.09237294  1
  Te  Te148  1  0.93569953  0.58541729  0.41811749  1
  Te  Te149  1  0.90991968  0.58840466  0.74560289  1
  Te  Te150  1  0.92202136  0.92516076  0.09633908  1
  Te  Te151  1  0.93386411  0.92264844  0.39102265  1
  Te  Te152  1  0.91389531  0.91828979  0.73252727  1
  Te  Te153  1  0.24436868  0.05416838  0.26673023  1
  Te  Te154  1  0.22098260  0.08838943  0.57624935  1
  Te  Te155  1  0.28505642  0.12400535  0.89340259  1
  Te  Te156  1  0.20230321  0.40777076  0.26871863  1
  Te  Te157  1  0.23987723  0.41225479  0.63561509  1
  Te  Te158  1  0.21554139  0.39890515  0.90758580  1
  Te  Te159  1  0.25581562  0.73871993  0.22548446  1
  Te  Te160  1  0.26680169  0.74845789  0.56325905  1
  Te  Te161  1  0.25021840  0.75445229  0.92481720  1
  Te  Te162  1  0.59676059  0.10083679  0.23734499  1
  Te  Te163  1  0.57036811  0.10319431  0.59683271  1
  Te  Te164  1  0.57428416  0.07103829  0.91446117  1
  Te  Te165  1  0.57307625  0.40961695  0.23252270  1
  Te  Te166  1  0.58626032  0.38828464  0.60572659  1
  Te  Te167  1  0.56880777  0.40515159  0.92167337  1
  Te  Te168  1  0.60321287  0.77582434  0.26628445  1
  Te  Te169  1  0.58725464  0.75059465  0.58085784  1
  Te  Te170  1  0.56989081  0.73324691  0.87609783  1
  Te  Te171  1  0.92848962  0.09105452  0.25128126  1
  Te  Te172  1  0.91180753  0.07626315  0.56408951  1
  Te  Te173  1  0.91345563  0.10886485  0.93358564  1
  Te  Te174  1  0.96022314  0.41689076  0.25628402  1
  Te  Te175  1  0.90920819  0.39562248  0.59107961  1
  Te  Te176  1  0.92877384  0.41008016  0.89930760  1
  Te  Te177  1  0.85878782  0.77683335  0.24144880  1
  Te  Te178  1  0.90152568  0.74761446  0.57030561  1
  Te  Te179  1  0.92077100  0.77670522  0.91889912  1
