# generated using pymatgen
data_In2Te3
_symmetry_space_group_name_H-M   'P 1'
_cell_length_a   18.78692270
_cell_length_b   18.78480519
_cell_length_c   18.78680610
_cell_angle_alpha   90.03786772
_cell_angle_beta   90.00208998
_cell_angle_gamma   89.98996869
_symmetry_Int_Tables_number   1
_chemical_formula_structural   In2Te3
_chemical_formula_sum   'In72 Te108'
_cell_volume   6630.02544510
_cell_formula_units_Z   36
loop_
 _symmetry_equiv_pos_site_id
 _symmetry_equiv_pos_as_xyz
  1  'x, y, z'
loop_
 _atom_site_type_symbol
 _atom_site_label
 _atom_site_symmetry_multiplicity
 _atom_site_fract_x
 _atom_site_fract_y
 _atom_site_fract_z
 _atom_site_occupancy
  In  In0  1  0.36170291  0.15644829  0.51012842  1
  In  In1  1  0.20013858  -0.01765919  0.80352448  1
  In  In2  1  0.17906301  0.51677076  0.00843650  1
  In  In3  1  0.48324243  -0.01773088  0.81663512  1
  In  In4  1  0.50454193  0.30193451  0.82461276  1
  In  In5  1  0.00108419  0.83305265  0.79402276  1
  In  In6  1  0.00176110  0.15282377  0.82984265  1
  In  In7  1  0.50123220  0.48677619  0.65623065  1
  In  In8  1  0.50648993  0.66154374  0.48748454  1
  In  In9  1  0.47566444  0.34656011  0.49352445  1
  In  In10  1  -0.01110168  0.34826523  -0.02138175  1
  In  In11  1  0.03076657  0.52015778  0.50996112  1
  In  In12  1  0.00225430  0.83897093  0.19255414  1
  In  In13  1  0.15448554  -0.01011291  0.50215418  1
  In  In14  1  0.00165455  0.14461501  0.52282011  1
  In  In15  1  0.85187524  0.67490757  0.18165296  1
  In  In16  1  0.48416900  0.67884540  0.80035635  1
  In  In17  1  0.82875349  0.64906200  0.79627146  1
  In  In18  1  0.30706230  0.71302607  0.65178339  1
  In  In19  1  0.67863053  0.48508926  0.84267550  1
  In  In20  1  0.65593227  0.83803340  0.19624399  1
  In  In21  1  0.50167952  0.84875007  0.36519758  1
  In  In22  1  0.52300208  0.15345580  0.32583751  1
  In  In23  1  0.00790274  0.52958552  0.16149433  1
  In  In24  1  0.68451429  0.69838144  0.36668597  1
  In  In25  1  0.81905370  0.46363839  -0.00704478  1
  In  In26  1  0.63351752  0.65463784  0.01555029  1
  In  In27  1  0.83254319  -0.00786184  0.81436176  1
  In  In28  1  0.19107615  0.34331181  0.18104330  1
  In  In29  1  0.50104295  0.34721302  0.15541620  1
  In  In30  1  -0.01364526  0.19716967  0.17141760  1
  In  In31  1  0.16763754  0.33565206  0.50320027  1
  In  In32  1  0.15688272  0.36323397  0.79509849  1
  In  In33  1  0.01130642  0.69194114  0.34677125  1
  In  In34  1  0.01642068  0.66504715  -0.02472636  1
  In  In35  1  0.01459863  -0.01136053  0.34418969  1
  In  In36  1  0.01550324  0.34057292  0.34557380  1
  In  In37  1  0.01016865  0.01054178  -0.03056620  1
  In  In38  1  -0.00715041  0.82293719  0.51682280  1
  In  In39  1  0.19258155  0.83123320  0.00472150  1
  In  In40  1  0.15884766  -0.01701998  0.17378588  1
  In  In41  1  0.31493450  0.53728918  0.49251335  1
  In  In42  1  0.16454260  0.68782967  0.82053237  1
  In  In43  1  0.83930132  0.34838894  0.50820986  1
  In  In44  1  0.84928485  0.53042114  0.64963091  1
  In  In45  1  0.82002434  0.14171806  0.35452429  1
  In  In46  1  0.48926194  0.83664526  0.67135203  1
  In  In47  1  0.65791195  0.32054849  0.00681933  1
  In  In48  1  0.47800764  0.50748387  0.02970022  1
  In  In49  1  0.68358926  0.67508206  0.65241268  1
  In  In50  1  0.85107547  0.52157215  0.32983721  1
  In  In51  1  0.84316761  0.15304840  0.66503468  1
  In  In52  1  0.83377770  0.83715755  0.00503402  1
  In  In53  1  0.81420792  0.34100522  0.15895635  1
  In  In54  1  0.66053495  0.00451275  0.00760885  1
  In  In55  1  0.50303676  0.00914407  0.18030463  1
  In  In56  1  0.66839277  0.80006898  0.79615400  1
  In  In57  1  0.33120111  0.35213663  0.34801205  1
  In  In58  1  0.63751379  0.12857904  0.53528329  1
  In  In59  1  0.82881645  0.32001393  0.83879555  1
  In  In60  1  0.17103772  0.15676145  0.66123114  1
  In  In61  1  0.32932040  0.50798198  0.84705807  1
  In  In62  1  0.34092503  0.15878728  0.16506303  1
  In  In63  1  0.46087713  0.81044690  0.01031819  1
  In  In64  1  0.17927007  0.14089380  -0.01496123  1
  In  In65  1  0.80704033  -0.00998642  0.17301783  1
  In  In66  1  0.19520196  0.69165200  0.18830449  1
  In  In67  1  0.31340465  0.31457316  0.65920423  1
  In  In68  1  0.49541385  0.17431873  -0.00437170  1
  In  In69  1  0.65532215  0.33205595  0.32370633  1
  In  In70  1  0.64907296  0.32881789  0.66231273  1
  In  In71  1  0.32935150  -0.01647411  0.33370759  1
  Te  Te72  1  0.07656747  0.09105695  0.09075536  1
  Te  Te73  1  0.09599783  0.10000889  0.41249944  1
  Te  Te74  1  0.08209344  0.06118705  0.73991512  1
  Te  Te75  1  0.07854817  0.41461448  0.08618527  1
  Te  Te76  1  0.11181825  0.44172305  0.40658434  1
  Te  Te77  1  0.08543964  0.45608785  0.70677781  1
  Te  Te78  1  0.07539620  0.74192060  0.09351432  1
  Te  Te79  1  0.10509904  0.73701011  0.45556276  1
  Te  Te80  1  0.08476198  0.74579368  0.70596959  1
  Te  Te81  1  0.41460084  0.06585530  0.07041040  1
  Te  Te82  1  0.43455813  0.06405878  0.41264056  1
  Te  Te83  1  0.41470233  0.06527737  0.71426917  1
  Te  Te84  1  0.38831893  0.40114107  0.07787830  1
  Te  Te85  1  0.42060278  0.46199735  0.41001314  1
  Te  Te86  1  0.40925769  0.41207251  0.75221396  1
  Te  Te87  1  0.39492589  0.72347752  0.11378717  1
  Te  Te88  1  0.40316862  0.75111127  0.42602611  1
  Te  Te89  1  0.37671958  0.78731550  0.77364497  1
  Te  Te90  1  0.75652752  0.09024613  0.07916770  1
  Te  Te91  1  0.72490958  0.05663577  0.43447770  1
  Te  Te92  1  0.73820720  0.07246002  0.73193836  1
  Te  Te93  1  0.71202614  0.43600277  0.09699763  1
  Te  Te94  1  0.76137905  0.41854305  0.39935769  1
  Te  Te95  1  0.75715833  0.41648361  0.73049723  1
  Te  Te96  1  0.74265511  0.75009881  0.09140418  1
  Te  Te97  1  0.77727105  0.76127486  0.47238176  1
  Te  Te98  1  0.79369649  0.77448207  0.71010952  1
  Te  Te99  1  0.10158815  0.24675763  0.26073349  1
  Te  Te100  1  0.07637017  0.25656693  0.59633959  1
  Te  Te101  1  0.08605813  0.24812721  0.91550061  1
  Te  Te102  1  0.09627564  0.59501213  0.26241768  1
  Te  Te103  1  0.08522378  0.59411646  0.62815655  1
  Te  Te104  1  0.09228124  0.56491215  0.89319237  1
  Te  Te105  1  0.11319844  0.88737353  0.28489227  1
  Te  Te106  1  0.07077917  0.91996442  0.60206184  1
  Te  Te107  1  0.09224801  0.89779828  0.90670929  1
  Te  Te108  1  0.41648672  0.24867738  0.26456605  1
  Te  Te109  1  0.43972502  0.24854920  0.60551823  1
  Te  Te110  1  0.39911200  0.24444257  0.90863505  1
  Te  Te111  1  0.40040032  0.59854460  0.19723992  1
  Te  Te112  1  0.41738681  0.60295644  0.60217806  1
  Te  Te113  1  0.42389832  0.60137315  0.92070470  1
  Te  Te114  1  0.41916137  0.89986714  0.24287302  1
  Te  Te115  1  0.42072062  0.93767168  0.58716537  1
  Te  Te116  1  0.40025881  0.91242193  0.92055707  1
  Te  Te117  1  0.75270280  0.23733522  0.25244256  1
  Te  Te118  1  0.74929473  0.24216177  0.57108180  1
  Te  Te119  1  0.72219870  0.23905556  0.90049193  1
  Te  Te120  1  0.74418449  0.59679151  0.25370722  1
  Te  Te121  1  0.73851154  0.57199205  0.56109753  1
  Te  Te122  1  0.74681106  0.60114826  0.91898452  1
  Te  Te123  1  0.75567630  0.90620431  0.28215415  1
  Te  Te124  1  0.69805228  0.87863981  0.54183640  1
  Te  Te125  1  0.73829100  0.90495129  0.90838455  1
  Te  Te126  1  0.24811020  0.24418591  0.07897997  1
  Te  Te127  1  0.26121392  0.24152172  0.42806356  1
  Te  Te128  1  0.24445923  0.23548473  0.76859838  1
  Te  Te129  1  0.27384792  0.59331646  0.09831370  1
  Te  Te130  1  0.25563233  0.63240940  0.39705857  1
  Te  Te131  1  0.26133127  0.59394708  0.74358814  1
  Te  Te132  1  0.26631984  0.91112361  0.10324442  1
  Te  Te133  1  0.26183814  0.90189554  0.44009529  1
  Te  Te134  1  0.25360391  0.87169262  0.72174873  1
  Te  Te135  1  0.58518629  0.22997446  0.10622754  1
  Te  Te136  1  0.58408865  0.24599275  0.43295964  1
  Te  Te137  1  0.60703925  0.22091443  0.75497665  1
  Te  Te138  1  0.55567804  0.59296009  0.12706114  1
  Te  Te139  1  0.59786337  0.58232638  0.40284069  1
  Te  Te140  1  0.59255369  0.58025637  0.74930291  1
  Te  Te141  1  0.57470275  0.89877605  0.07879600  1
  Te  Te142  1  0.61073369  0.93214844  0.42721166  1
  Te  Te143  1  0.60311954  0.92136713  0.73535621  1
  Te  Te144  1  0.89711434  0.25659491  0.06068844  1
  Te  Te145  1  0.92027138  0.24384700  0.41714805  1
  Te  Te146  1  0.92838600  0.25488719  0.74262150  1
  Te  Te147  1  0.90380561  0.58181593  0.06294991  1
  Te  Te148  1  0.92366266  0.60112196  0.43572759  1
  Te  Te149  1  0.95535410  0.59903293  0.73257506  1
  Te  Te150  1  0.93294276  0.92298859  0.08352079  1
  Te  Te151  1  0.91849851  0.93212535  0.44138613  1
  Te  Te152  1  0.92573591  0.93313782  0.71373077  1
  Te  Te153  1  0.24379605  0.08323315  0.25557437  1
  Te  Te154  1  0.26402797  0.06474692  0.58552034  1
  Te  Te155  1  0.27370395  0.05817144  0.90780598  1
  Te  Te156  1  0.26454667  0.44602657  0.25551590  1
  Te  Te157  1  0.25030307  0.43190732  0.58781307  1
  Te  Te158  1  0.23926158  0.40678071  0.91753713  1
  Te  Te159  1  0.28288074  0.74584570  0.29669605  1
  Te  Te160  1  0.22883088  0.78374704  0.54748196  1
  Te  Te161  1  0.25655660  0.72127777  0.93161107  1
  Te  Te162  1  0.61735428  0.06490487  0.25413156  1
  Te  Te163  1  0.52561849  0.04936666  0.60505502  1
  Te  Te164  1  0.57162778  0.07516866  0.90718481  1
  Te  Te165  1  0.55988063  0.42692702  0.26452591  1
  Te  Te166  1  0.59496928  0.42454691  0.55461408  1
  Te  Te167  1  0.56744277  0.41740905  0.91971457  1
  Te  Te168  1  0.56734404  0.74322045  0.27314073  1
  Te  Te169  1  0.58531919  0.76510855  0.57236152  1
  Te  Te170  1  0.57497905  0.75304681  0.91040312  1
  Te  Te171  1  0.92363094  0.07982117  0.25040926  1
  Te  Te172  1  0.89103786  0.05357128  0.56141102  1
  Te  Te173  1  0.89233934  0.09090989  0.91683546  1
  Te  Te174  1  0.92525512  0.41384048  0.23970856  1
  Te  Te175  1  0.94378799  0.41823813  0.58970854  1
  Te  Te176  1  0.91855358  0.43980400  0.87926522  1
  Te  Te177  1  0.89815109  0.77681379  0.28519481  1
  Te  Te178  1  0.88872229  0.73470390  0.57909310  1
  Te  Te179  1  0.91530877  0.75542022  0.90264304  1
