# generated using pymatgen
data_In2Te3
_symmetry_space_group_name_H-M   'P 1'
_cell_length_a   18.91402743
_cell_length_b   18.91054928
_cell_length_c   18.91845278
_cell_angle_alpha   89.94949407
_cell_angle_beta   89.87580991
_cell_angle_gamma   89.98465747
_symmetry_Int_Tables_number   1
_chemical_formula_structural   In2Te3
_chemical_formula_sum   'In72 Te108'
_cell_volume   6766.63217179
_cell_formula_units_Z   36
loop_
 _symmetry_equiv_pos_site_id
 _symmetry_equiv_pos_as_xyz
  1  'x, y, z'
loop_
 _atom_site_type_symbol
 _atom_site_label
 _atom_site_symmetry_multiplicity
 _atom_site_fract_x
 _atom_site_fract_y
 _atom_site_fract_z
 _atom_site_occupancy
  In  In0  1  0.15905152  -0.01025264  0.49917803  1
  In  In1  1  0.16300220  0.32961485  0.48031089  1
  In  In2  1  0.20183348  0.79017927  -0.01702811  1
  In  In3  1  0.31991816  0.01423913  0.34186575  1
  In  In4  1  0.79826181  0.19505680  -0.03289304  1
  In  In5  1  -0.00807396  0.17813401  0.14703950  1
  In  In6  1  0.67858431  0.00691993  0.68641417  1
  In  In7  1  0.81860613  0.01380374  0.16990763  1
  In  In8  1  0.66789514  0.17060760  0.51362819  1
  In  In9  1  -0.00314047  0.01586804  0.65325841  1
  In  In10  1  0.67467935  0.32699731  0.32327155  1
  In  In11  1  0.47628198  0.49253186  -0.01919411  1
  In  In12  1  0.67204741  0.65884039  -0.01277631  1
  In  In13  1  0.48964065  0.13799500  0.68762832  1
  In  In14  1  0.52627734  0.33871834  0.83414883  1
  In  In15  1  0.49575769  0.67193918  0.18680730  1
  In  In16  1  0.50377367  0.49927729  0.33415799  1
  In  In17  1  0.68899894  0.65877082  0.71206613  1
  In  In18  1  -0.00703515  0.51570889  0.82614555  1
  In  In19  1  0.66552065  0.83085387  0.51259103  1
  In  In20  1  0.51205648  0.82931070  -0.00271001  1
  In  In21  1  0.49977336  0.01363131  0.14071646  1
  In  In22  1  -0.01207397  0.33178916  0.65931705  1
  In  In23  1  0.50386658  0.82952814  0.68569905  1
  In  In24  1  0.30969472  0.49974855  0.47491289  1
  In  In25  1  0.65528517  0.17264853  0.14923770  1
  In  In26  1  0.83308779  0.48800765  0.68271407  1
  In  In27  1  0.31576998  0.36386970  0.30861406  1
  In  In28  1  0.66094844  -0.02706460  0.33777848  1
  In  In29  1  0.33165523  0.66812617  0.66532738  1
  In  In30  1  0.00321469  0.81330383  0.83336294  1
  In  In31  1  0.47834719  0.67810124  0.50291119  1
  In  In32  1  0.15941471  0.51115584  0.00981248  1
  In  In33  1  0.32947446  0.33299184  0.65866078  1
  In  In34  1  0.83362603  0.67088248  0.15110653  1
  In  In35  1  0.82002236  0.84870221  0.00126759  1
  In  In36  1  0.01295116  0.67185481  0.32922972  1
  In  In37  1  0.34556832  0.83010441  0.51502761  1
  In  In38  1  0.02101230  -0.02293142  -0.01500357  1
  In  In39  1  0.16517574  0.14297817  0.66065176  1
  In  In40  1  0.19043034  0.82451135  0.68293701  1
  In  In41  1  0.33142738  -0.01482168  0.01705579  1
  In  In42  1  0.30404159  0.15136531  0.51865710  1
  In  In43  1  0.33020510  0.17915851  0.18071353  1
  In  In44  1  0.47906878  0.17226598  0.33995218  1
  In  In45  1  0.83420883  0.33369115  0.47721233  1
  In  In46  1  0.86109862  0.80553534  0.64978680  1
  In  In47  1  0.14816352  0.15553173  0.32467754  1
  In  In48  1  0.33224390  0.14975731  0.83117657  1
  In  In49  1  0.66008024  0.33901892  0.67776367  1
  In  In50  1  -0.01559462  0.16201769  0.81983117  1
  In  In51  1  0.81951806  -0.00596820  0.83902575  1
  In  In52  1  0.32940280  0.52705077  0.82409188  1
  In  In53  1  0.54110725  0.14473230  -0.03408629  1
  In  In54  1  0.86295379  0.51018481  0.31392590  1
  In  In55  1  0.52910994  0.51092336  0.67882326  1
  In  In56  1  0.04645297  0.53837060  0.50413658  1
  In  In57  1  0.02049371  0.84970325  0.20074757  1
  In  In58  1  0.14153049  0.34385730  0.83918363  1
  In  In59  1  -0.00310348  0.65930189  -0.01700229  1
  In  In60  1  0.66451554  0.70810166  0.34201450  1
  In  In61  1  0.33822070  0.33100656  0.01138241  1
  In  In62  1  0.32747882  0.83545079  0.18393863  1
  In  In63  1  0.87194481  -0.01683233  0.48999676  1
  In  In64  1  0.00981778  0.46839039  0.16716988  1
  In  In65  1  0.18209254  0.16833927  0.01402330  1
  In  In66  1  0.66283140  0.49691953  0.53022235  1
  In  In67  1  0.85045562  0.16172022  0.34839456  1
  In  In68  1  0.30930561  0.66412844  0.34560902  1
  In  In69  1  0.68728821  0.49921755  0.14473961  1
  In  In70  1  0.16885300  0.66313961  0.15169487  1
  In  In71  1  0.82505697  0.47282152  -0.01660638  1
  Te  Te72  1  0.08643451  0.07167739  0.08416833  1
  Te  Te73  1  0.07657001  0.09479723  0.43815179  1
  Te  Te74  1  0.08885863  0.06538679  0.76596313  1
  Te  Te75  1  0.06667151  0.40201835  0.04669633  1
  Te  Te76  1  0.07565990  0.42715227  0.41267120  1
  Te  Te77  1  0.07977922  0.42881717  0.73131627  1
  Te  Te78  1  0.06527744  0.75195605  0.08207664  1
  Te  Te79  1  0.05371930  0.77396459  0.42898233  1
  Te  Te80  1  0.09130480  0.73037726  0.74650253  1
  Te  Te81  1  0.41063875  0.11323014  0.06851323  1
  Te  Te82  1  0.41585975  0.07733019  0.43976951  1
  Te  Te83  1  0.40889495  0.03979603  0.76673156  1
  Te  Te84  1  0.40802544  0.42866426  0.09434349  1
  Te  Te85  1  0.41480862  0.40647067  0.41648925  1
  Te  Te86  1  0.41943297  0.41585411  0.75066689  1
  Te  Te87  1  0.41005666  0.75287408  0.09059795  1
  Te  Te88  1  0.41758677  0.75972321  0.39305128  1
  Te  Te89  1  0.39674029  0.75766890  0.76589858  1
  Te  Te90  1  0.74093954  0.08359130  0.06170170  1
  Te  Te91  1  0.74723376  0.07599847  0.42326675  1
  Te  Te92  1  0.77386341  0.09996181  0.74812905  1
  Te  Te93  1  0.76819242  0.38860481  0.09040510  1
  Te  Te94  1  0.74082950  0.43657936  0.41182274  1
  Te  Te95  1  0.73894958  0.41799540  0.77831979  1
  Te  Te96  1  0.73061518  0.75958951  0.08781321  1
  Te  Te97  1  0.76626666  0.76203190  0.43007651  1
  Te  Te98  1  0.75497159  0.78414176  0.74813336  1
  Te  Te99  1  0.07799422  0.25369944  0.24138272  1
  Te  Te100  1  0.08431754  0.24298418  0.58063834  1
  Te  Te101  1  0.08050285  0.23134847  0.91883733  1
  Te  Te102  1  0.10053185  0.56243985  0.24843681  1
  Te  Te103  1  0.03743942  0.62817645  0.62255338  1
  Te  Te104  1  0.10470385  0.59720944  0.89780684  1
  Te  Te105  1  0.07657701  0.93776264  0.30127307  1
  Te  Te106  1  0.08502285  0.90551671  0.59994923  1
  Te  Te107  1  0.11502869  0.88875481  0.90354412  1
  Te  Te108  1  0.42920297  0.27521273  0.24161593  1
  Te  Te109  1  0.41551800  0.23072307  0.58885719  1
  Te  Te110  1  0.41784085  0.25153484  0.90472697  1
  Te  Te111  1  0.39838927  0.57729108  0.25714649  1
  Te  Te112  1  0.41470476  0.56282098  0.57939852  1
  Te  Te113  1  0.40076852  0.60925102  0.92430768  1
  Te  Te114  1  0.41533721  0.94141935  0.24666757  1
  Te  Te115  1  0.44428275  0.91494975  0.58103690  1
  Te  Te116  1  0.41531050  0.91308326  0.92239134  1
  Te  Te117  1  0.75903444  0.23063352  0.24501408  1
  Te  Te118  1  0.75951558  0.26345417  0.58989717  1
  Te  Te119  1  0.73901625  0.30130946  0.88473110  1
  Te  Te120  1  0.74333704  0.59337044  0.25353822  1
  Te  Te121  1  0.75897313  0.59352591  0.59364514  1
  Te  Te122  1  0.77326179  0.58700809  0.90741060  1
  Te  Te123  1  0.76540963  0.90967681  0.25816044  1
  Te  Te124  1  0.76985556  0.92221887  0.58717116  1
  Te  Te125  1  0.71743943  0.92829662  0.92677213  1
  Te  Te126  1  0.23494245  0.27427025  0.10955643  1
  Te  Te127  1  0.26427444  0.24258561  0.40240089  1
  Te  Te128  1  0.23782113  0.25035360  0.75143915  1
  Te  Te129  1  0.26703899  0.58799885  0.07211734  1
  Te  Te130  1  0.20882577  0.60086038  0.43622078  1
  Te  Te131  1  0.23626429  0.57080837  0.72109763  1
  Te  Te132  1  0.22763993  0.89843202  0.08761101  1
  Te  Te133  1  0.25038722  0.90270259  0.41609683  1
  Te  Te134  1  0.28234574  0.92952979  0.72930037  1
  Te  Te135  1  0.57531573  0.25369655  0.05675011  1
  Te  Te136  1  0.58214980  0.25385278  0.41936065  1
  Te  Te137  1  0.59253877  0.22591295  0.75681054  1
  Te  Te138  1  0.57527810  0.58698629  0.08695888  1
  Te  Te139  1  0.58401295  0.58990995  0.42712098  1
  Te  Te140  1  0.57603310  0.59794086  0.78671192  1
  Te  Te141  1  0.59297095  0.91541682  0.08773800  1
  Te  Te142  1  0.56884737  0.90713918  0.43128742  1
  Te  Te143  1  0.58547928  0.92498896  0.77205717  1
  Te  Te144  1  0.89247616  0.25237595  0.06522973  1
  Te  Te145  1  0.93910517  0.26730638  0.39969048  1
  Te  Te146  1  0.90103871  0.26434053  0.75671200  1
  Te  Te147  1  0.92385998  0.57032088  0.08412835  1
  Te  Te148  1  0.92152702  0.59208131  0.42316479  1
  Te  Te149  1  0.91039117  0.60278818  0.73835742  1
  Te  Te150  1  0.92468289  0.91571954  0.09058883  1
  Te  Te151  1  0.96599448  0.90462448  0.40627815  1
  Te  Te152  1  0.92455376  0.91599073  0.75169994  1
  Te  Te153  1  0.23568725  0.07170490  0.23036581  1
  Te  Te154  1  0.26668452  0.03606580  0.61528587  1
  Te  Te155  1  0.24194990  0.06592940  0.91956424  1
  Te  Te156  1  0.21439820  0.45576240  0.26439030  1
  Te  Te157  1  0.23327357  0.42002925  0.58150466  1
  Te  Te158  1  0.25481569  0.41472251  0.91085645  1
  Te  Te159  1  0.22257997  0.75546952  0.25998524  1
  Te  Te160  1  0.23890021  0.73571251  0.56490591  1
  Te  Te161  1  0.28968743  0.73488643  0.87971931  1
  Te  Te162  1  0.57969164  0.09013431  0.25767839  1
  Te  Te163  1  0.58186659  0.06921219  0.58552865  1
  Te  Te164  1  0.59099017  0.03249014  0.88754227  1
  Te  Te165  1  0.59058877  0.41993838  0.23791377  1
  Te  Te166  1  0.55996344  0.39748771  0.58027646  1
  Te  Te167  1  0.59656908  0.41993796  0.93431274  1
  Te  Te168  1  0.57661602  0.77723953  0.24977210  1
  Te  Te169  1  0.58289586  0.72653974  0.60164907  1
  Te  Te170  1  0.58286338  0.73963909  0.90085229  1
  Te  Te171  1  0.92943922  0.07846832  0.24933792  1
  Te  Te172  1  0.91272661  0.10031142  0.56837197  1
  Te  Te173  1  0.91762824  0.07449037  0.93023839  1
  Te  Te174  1  0.90841168  0.39172249  0.24336355  1
  Te  Te175  1  0.91508987  0.43014751  0.56770924  1
  Te  Te176  1  0.94724823  0.41299543  0.92263147  1
  Te  Te177  1  0.91073646  0.75452809  0.25071490  1
  Te  Te178  1  0.96501480  0.75148354  0.55997831  1
  Te  Te179  1  0.89227225  0.74629231  0.91354491  1
