# generated using pymatgen
data_In2Te3
_symmetry_space_group_name_H-M   'P 1'
_cell_length_a   18.93121102
_cell_length_b   18.92394744
_cell_length_c   18.92285748
_cell_angle_alpha   90.02680884
_cell_angle_beta   90.18967419
_cell_angle_gamma   90.03095196
_symmetry_Int_Tables_number   1
_chemical_formula_structural   In2Te3
_chemical_formula_sum   'In72 Te108'
_cell_volume   6779.13616234
_cell_formula_units_Z   36
loop_
 _symmetry_equiv_pos_site_id
 _symmetry_equiv_pos_as_xyz
  1  'x, y, z'
loop_
 _atom_site_type_symbol
 _atom_site_label
 _atom_site_symmetry_multiplicity
 _atom_site_fract_x
 _atom_site_fract_y
 _atom_site_fract_z
 _atom_site_occupancy
  In  In0  1  -0.00630064  0.15001848  0.16822572  1
  In  In1  1  0.00605588  0.14986061  0.49615030  1
  In  In2  1  0.84589272  0.00539146  0.83875663  1
  In  In3  1  0.31879092  0.33872881  0.66137109  1
  In  In4  1  0.48463047  0.82627006  0.64270566  1
  In  In5  1  0.69980007  0.18184428  0.85949053  1
  In  In6  1  0.65702799  0.15041575  0.16770944  1
  In  In7  1  0.17938562  0.16717285  0.00434605  1
  In  In8  1  0.32930332  0.49724026  0.50844491  1
  In  In9  1  0.17991602  0.49709661  0.34980546  1
  In  In10  1  0.18048385  -0.00111488  0.18092070  1
  In  In11  1  0.17018328  0.50614642  0.00708198  1
  In  In12  1  0.31361776  0.70618110  0.66979633  1
  In  In13  1  0.64504544  0.32868155  0.33378861  1
  In  In14  1  0.67236735  0.66079988  0.67526035  1
  In  In15  1  0.67044554  0.50143957  0.17068660  1
  In  In16  1  0.51132876  0.49126357  0.65468692  1
  In  In17  1  0.71224230  -0.00204914  0.02027878  1
  In  In18  1  0.33643149  0.83802725  0.47615942  1
  In  In19  1  0.82108107  0.84597638  0.67386224  1
  In  In20  1  0.00110305  0.64076584  0.66490513  1
  In  In21  1  0.32450844  0.82907834  0.17606310  1
  In  In22  1  0.49912155  0.01138150  0.48059622  1
  In  In23  1  0.49449112  0.66092450  0.49126095  1
  In  In24  1  0.50182802  0.33609224  0.15571830  1
  In  In25  1  0.19653743  0.14558925  0.32266473  1
  In  In26  1  0.31348379  0.01616294  0.69223042  1
  In  In27  1  0.83585926  0.32723938  0.13594659  1
  In  In28  1  0.50181173  0.69095259  0.81360388  1
  In  In29  1  0.82096428  0.64713985  0.49947319  1
  In  In30  1  0.01834116  0.49355186  0.17319845  1
  In  In31  1  0.18524421  0.34787087  0.15899508  1
  In  In32  1  0.16036529  -0.00136295  0.85758088  1
  In  In33  1  0.14821707  0.66882335  0.85621546  1
  In  In34  1  0.82876845  0.48258339  0.69332616  1
  In  In35  1  0.85241640  0.68901059  0.16923500  1
  In  In36  1  0.17232444  0.18152308  0.68457770  1
  In  In37  1  0.33284450  0.67717243  0.00012984  1
  In  In38  1  0.47246667  0.62807018  0.17707958  1
  In  In39  1  0.34678778  0.17098957  0.48032701  1
  In  In40  1  0.00361918  0.70341634  0.31436716  1
  In  In41  1  0.49388977  0.01935943  0.83913957  1
  In  In42  1  0.16037880  0.36103942  0.50855818  1
  In  In43  1  -0.00899475  0.51438968  0.52744776  1
  In  In44  1  0.82917082  0.00283981  0.49334254  1
  In  In45  1  0.48673157  0.84719319  0.31145182  1
  In  In46  1  0.49805061  0.86602371  -0.01016060  1
  In  In47  1  0.49472094  0.14503637  0.02375881  1
  In  In48  1  0.00786507  0.66150463  0.01432931  1
  In  In49  1  0.17540877  -0.01605266  0.48730686  1
  In  In50  1  -0.00859194  0.81658367  0.84367141  1
  In  In51  1  0.00499365  0.82742699  0.49888380  1
  In  In52  1  0.51113693  0.29322263  0.84643736  1
  In  In53  1  0.67302816  0.83311429  0.82466421  1
  In  In54  1  0.14557800  0.82657141  0.00830807  1
  In  In55  1  0.67306846  0.81638336  0.14875032  1
  In  In56  1  0.34769958  0.32717475  0.31622561  1
  In  In57  1  0.65275061  0.65278938  0.35066888  1
  In  In58  1  -0.01211695  0.30071561  0.32736242  1
  In  In59  1  0.32786857  0.50473698  0.83611233  1
  In  In60  1  0.85440364  0.81236376  0.31489885  1
  In  In61  1  0.64164171  0.01266612  0.64133613  1
  In  In62  1  0.79441974  0.16771048  0.63250193  1
  In  In63  1  0.52406978  0.48283690  -0.00152506  1
  In  In64  1  -0.01125456  0.16896549  0.83123626  1
  In  In65  1  0.52119412  0.33792418  0.51058664  1
  In  In66  1  0.83922590  0.48839733  -0.03452244  1
  In  In67  1  0.81755034  0.48515756  0.35868493  1
  In  In68  1  0.66210734  -0.00339939  0.32991020  1
  In  In69  1  0.83583632  0.14086246  0.31041368  1
  In  In70  1  -0.01535640  0.34231333  0.69223913  1
  In  In71  1  0.16966433  0.34934972  0.82230885  1
  Te  Te72  1  0.08880618  0.06994087  0.08162696  1
  Te  Te73  1  0.08538616  0.07168768  0.39336945  1
  Te  Te74  1  0.08239018  0.08157347  0.74933612  1
  Te  Te75  1  0.07529946  0.40130724  0.06795690  1
  Te  Te76  1  0.05734752  0.41316889  0.40895313  1
  Te  Te77  1  0.07801356  0.43907478  0.75004025  1
  Te  Te78  1  0.12416270  0.70724120  0.09515415  1
  Te  Te79  1  0.10435796  0.77864845  0.39655642  1
  Te  Te80  1  0.08012544  0.74642217  0.74383771  1
  Te  Te81  1  0.40846359  0.06636096  0.11376985  1
  Te  Te82  1  0.39223746  0.06318488  0.38882408  1
  Te  Te83  1  0.42581210  0.09829268  0.73632820  1
  Te  Te84  1  0.41601353  0.42666490  0.07770802  1
  Te  Te85  1  0.41829126  0.41270636  0.42376340  1
  Te  Te86  1  0.41946650  0.41580460  0.75256300  1
  Te  Te87  1  0.43191535  0.75503537  0.08672760  1
  Te  Te88  1  0.41210857  0.73846824  0.39024612  1
  Te  Te89  1  0.39989871  0.79128886  0.76418286  1
  Te  Te90  1  0.78406323  0.11327078  0.09250015  1
  Te  Te91  1  0.73699902  0.09667829  0.41754471  1
  Te  Te92  1  0.74126384  0.06807075  0.74596407  1
  Te  Te93  1  0.73979477  0.41969236  0.06534822  1
  Te  Te94  1  0.73877106  0.38797777  0.43514165  1
  Te  Te95  1  0.74872565  0.41764502  0.80453552  1
  Te  Te96  1  0.76353160  0.73860053  0.06279461  1
  Te  Te97  1  0.75145925  0.75016424  0.41257932  1
  Te  Te98  1  0.77141124  0.73405186  0.76419798  1
  Te  Te99  1  0.10127433  0.24567031  0.24369557  1
  Te  Te100  1  0.07624495  0.25898787  0.58536428  1
  Te  Te101  1  0.09182143  0.25135741  0.90736659  1
  Te  Te102  1  0.09366959  0.58838840  0.26158152  1
  Te  Te103  1  0.09435013  0.61424234  0.55348786  1
  Te  Te104  1  0.06142810  0.55915857  0.91516975  1
  Te  Te105  1  0.11743624  0.88532613  0.25417714  1
  Te  Te106  1  0.07878688  0.92568058  0.57957784  1
  Te  Te107  1  0.05213441  0.92109137  0.93579823  1
  Te  Te108  1  0.45223270  0.24000848  0.25937858  1
  Te  Te109  1  0.41763166  0.25290698  0.58736237  1
  Te  Te110  1  0.41493383  0.23360557  0.93792080  1
  Te  Te111  1  0.36803806  0.57808233  0.26194827  1
  Te  Te112  1  0.41381767  0.60166466  0.60866879  1
  Te  Te113  1  0.42650091  0.59367224  0.91254809  1
  Te  Te114  1  0.42469671  0.93763073  0.20972332  1
  Te  Te115  1  0.40456697  0.93984440  0.58202050  1
  Te  Te116  1  0.39571740  0.95197478  0.92702984  1
  Te  Te117  1  0.75059546  0.25863889  0.24538974  1
  Te  Te118  1  0.72300598  0.28307486  0.57731117  1
  Te  Te119  1  0.80656106  0.24566106  0.94095449  1
  Te  Te120  1  0.76359875  0.59123651  0.25394639  1
  Te  Te121  1  0.74008062  0.55681165  0.58786606  1
  Te  Te122  1  0.73102125  0.54646580  0.88336090  1
  Te  Te123  1  0.75246822  0.90885290  0.24580056  1
  Te  Te124  1  0.73338568  0.91345563  0.57015529  1
  Te  Te125  1  0.77212798  0.89893741  0.91742761  1
  Te  Te126  1  0.27015427  0.24898195  0.09192367  1
  Te  Te127  1  0.23713846  0.26993998  0.41406913  1
  Te  Te128  1  0.27406082  0.24745049  0.77390443  1
  Te  Te129  1  0.24776810  0.59911414  0.09451230  1
  Te  Te130  1  0.24535098  0.59515900  0.43839261  1
  Te  Te131  1  0.24261029  0.60055921  0.75705718  1
  Te  Te132  1  0.24979999  0.91403374  0.07395076  1
  Te  Te133  1  0.27878868  0.94409966  0.38722340  1
  Te  Te134  1  0.22557914  0.91788038  0.75258609  1
  Te  Te135  1  0.59656581  0.25086807  0.07237217  1
  Te  Te136  1  0.55414055  0.23700755  0.40642265  1
  Te  Te137  1  0.60462528  0.22536986  0.75602991  1
  Te  Te138  1  0.58760002  0.59391130  0.08317704  1
  Te  Te139  1  0.58247877  0.55732015  0.43597951  1
  Te  Te140  1  0.58444175  0.57356651  0.76289570  1
  Te  Te141  1  0.59236845  0.93051651  0.08994145  1
  Te  Te142  1  0.58160447  0.90058634  0.41738252  1
  Te  Te143  1  0.57486752  0.91158729  0.74003570  1
  Te  Te144  1  0.94240244  0.24990188  0.07130091  1
  Te  Te145  1  0.89857630  0.23051852  0.42437186  1
  Te  Te146  1  0.88906632  0.23432398  0.73500982  1
  Te  Te147  1  0.90987087  0.56323928  0.09128345  1
  Te  Te148  1  0.92496200  0.59427077  0.40181270  1
  Te  Te149  1  0.91610654  0.57669189  0.76464148  1
  Te  Te150  1  0.83408880  0.97231689  0.10753834  1
  Te  Te151  1  0.91942339  0.91602978  0.40877699  1
  Te  Te152  1  0.93080043  0.91883346  0.74614785  1
  Te  Te153  1  0.28258643  0.11084727  0.20491919  1
  Te  Te154  1  0.24078770  0.10611113  0.57045629  1
  Te  Te155  1  0.26651449  0.07902212  0.92266477  1
  Te  Te156  1  0.27920115  0.44544155  0.24308381  1
  Te  Te157  1  0.22704195  0.44840378  0.61195229  1
  Te  Te158  1  0.25972228  0.41012631  0.93167652  1
  Te  Te159  1  0.22036716  0.77755456  0.26795205  1
  Te  Te160  1  0.23892398  0.78314284  0.57066753  1
  Te  Te161  1  0.24959162  0.76721292  0.91166042  1
  Te  Te162  1  0.56613296  0.08551777  0.26225718  1
  Te  Te163  1  0.57891093  0.11173728  0.55365015  1
  Te  Te164  1  0.60549652  0.07532764  0.92613006  1
  Te  Te165  1  0.56785994  0.43515126  0.25712707  1
  Te  Te166  1  0.61085246  0.38206593  0.62550138  1
  Te  Te167  1  0.60132093  0.39425660  0.90911014  1
  Te  Te168  1  0.58172788  0.73970859  0.24795151  1
  Te  Te169  1  0.59244957  0.74458390  0.57578905  1
  Te  Te170  1  0.58477208  0.75791157  0.92229445  1
  Te  Te171  1  0.93032756  0.04522127  0.25078443  1
  Te  Te172  1  0.91529278  0.07739423  0.59333346  1
  Te  Te173  1  0.91693292  0.09158598  0.93454344  1
  Te  Te174  1  0.90838219  0.41029707  0.25245449  1
  Te  Te175  1  0.90353406  0.40539779  0.57885251  1
  Te  Te176  1  0.88531612  0.36762443  0.89191147  1
  Te  Te177  1  0.95452587  0.79659178  0.19793629  1
  Te  Te178  1  0.90077864  0.74608087  0.58500180  1
  Te  Te179  1  0.90952784  0.74125403  0.94033298  1
