# generated using pymatgen
data_In2Te3
_symmetry_space_group_name_H-M   'P 1'
_cell_length_a   19.06199621
_cell_length_b   19.06972068
_cell_length_c   19.04166871
_cell_angle_alpha   90.19829394
_cell_angle_beta   90.16724828
_cell_angle_gamma   89.61087119
_symmetry_Int_Tables_number   1
_chemical_formula_structural   In2Te3
_chemical_formula_sum   'In72 Te108'
_cell_volume   6921.54868296
_cell_formula_units_Z   36
loop_
 _symmetry_equiv_pos_site_id
 _symmetry_equiv_pos_as_xyz
  1  'x, y, z'
loop_
 _atom_site_type_symbol
 _atom_site_label
 _atom_site_symmetry_multiplicity
 _atom_site_fract_x
 _atom_site_fract_y
 _atom_site_fract_z
 _atom_site_occupancy
  In  In0  1  0.30537181  0.67150997  0.00230886  1
  In  In1  1  0.31327185  0.68818637  0.69691175  1
  In  In2  1  0.65762670  0.18766688  0.47904652  1
  In  In3  1  0.45209648  0.35273527  0.18893919  1
  In  In4  1  0.17609653  0.83495655  0.33256127  1
  In  In5  1  0.51016085  0.66543958  0.16206411  1
  In  In6  1  0.47000676  0.14269734  0.04513724  1
  In  In7  1  -0.00712535  0.12957200  0.84497182  1
  In  In8  1  -0.00567204  0.15559939  0.15630393  1
  In  In9  1  0.47167838  0.68067857  0.85669242  1
  In  In10  1  0.45687402  0.52094478  0.33556301  1
  In  In11  1  0.31944678  -0.01663369  0.67517650  1
  In  In12  1  0.65794950  0.15121291  0.16271742  1
  In  In13  1  0.32876626  -0.00481782  0.32895256  1
  In  In14  1  0.48634913  0.68557539  0.50052730  1
  In  In15  1  0.67443670  0.64320693  0.33478773  1
  In  In16  1  0.48473293  0.00996833  0.51583164  1
  In  In17  1  0.83903319  -0.01723176  0.46361275  1
  In  In18  1  -0.00062021  0.32367463  0.68643016  1
  In  In19  1  0.52730432  0.33483189  0.49967250  1
  In  In20  1  0.80173974  0.14255838  0.66537697  1
  In  In21  1  0.85031651  0.50065920  0.67829726  1
  In  In22  1  0.50494967  0.81663894  0.67779669  1
  In  In23  1  0.32544009  0.18195619  0.47658353  1
  In  In24  1  0.17740333  0.67842955  0.53014403  1
  In  In25  1  0.33258964  0.67358502  0.33956529  1
  In  In26  1  0.85549483  0.82782942  0.00144716  1
  In  In27  1  0.67690451  0.66670499  -0.01571722  1
  In  In28  1  0.84783500  0.35002214  0.49619938  1
  In  In29  1  0.66484908  0.84369561  0.15528630  1
  In  In30  1  0.16603523  0.66177945  0.83639757  1
  In  In31  1  0.16226146  0.01432215  0.84161895  1
  In  In32  1  0.35041481  0.52208721  0.51813129  1
  In  In33  1  0.85219691  0.47988591  0.01681077  1
  In  In34  1  0.14667066  -0.00345082  0.51339765  1
  In  In35  1  0.64787498  -0.00762806  0.00959354  1
  In  In36  1  0.84349297  0.67532172  0.51046832  1
  In  In37  1  0.67680347  0.64291043  0.67984729  1
  In  In38  1  -0.01187607  0.18397727  0.51769018  1
  In  In39  1  0.64891399  0.00391197  0.32123287  1
  In  In40  1  0.63658789  0.32119861  0.68058457  1
  In  In41  1  0.00258801  0.49217146  0.16822315  1
  In  In42  1  0.42763428  0.90023982  0.00926500  1
  In  In43  1  0.00482166  0.31460650  0.01138177  1
  In  In44  1  0.68495918  0.82392539  0.47147367  1
  In  In45  1  0.36149825  0.31583096  0.00563782  1
  In  In46  1  0.00917659  0.32792013  0.33804795  1
  In  In47  1  0.49616270  0.16999960  0.68042599  1
  In  In48  1  0.66693461  0.83126178  0.82346894  1
  In  In49  1  0.86709222  0.65737373  0.85300828  1
  In  In50  1  0.87004274  0.83057794  0.66937622  1
  In  In51  1  0.12188906  0.69522338  0.13291001  1
  In  In52  1  0.63827868  0.49610585  0.14642458  1
  In  In53  1  0.65278225  0.47393786  0.83346735  1
  In  In54  1  0.84478267  0.49292382  0.33839861  1
  In  In55  1  0.45787715  0.46947206  0.68420964  1
  In  In56  1  0.31573894  0.84439215  0.15609648  1
  In  In57  1  0.19044232  0.37246408  0.48221812  1
  In  In58  1  0.00372430  -0.02268835  0.67264761  1
  In  In59  1  0.82420682  0.31046477  0.86585150  1
  In  In60  1  0.19082333  0.19682377  0.67553858  1
  In  In61  1  -0.00113620  0.67450175  0.32523374  1
  In  In62  1  0.62404379  0.32906043  -0.01136693  1
  In  In63  1  0.18569860  0.17385408  0.00404979  1
  In  In64  1  0.86610601  0.66984690  0.18952142  1
  In  In65  1  0.01798739  0.51648810  0.81801373  1
  In  In66  1  0.66560952  0.32358190  0.31239278  1
  In  In67  1  0.03040342  -0.01038082  0.31635520  1
  In  In68  1  0.16577024  0.16264235  0.30842301  1
  In  In69  1  0.19978925  0.32412312  0.83957224  1
  In  In70  1  0.66251477  -0.02043829  0.67173172  1
  In  In71  1  -0.01934712  -0.00244723  0.01648832  1
  Te  Te72  1  0.09790808  0.07873079  0.07569875  1
  Te  Te73  1  0.08638555  0.10701593  0.42642175  1
  Te  Te74  1  0.08449731  0.10108047  0.72254051  1
  Te  Te75  1  0.08795765  0.40966278  0.08091770  1
  Te  Te76  1  0.07980081  0.43293655  0.40921544  1
  Te  Te77  1  0.10219206  0.41050490  0.75125728  1
  Te  Te78  1  0.12990095  0.80511917  0.03350909  1
  Te  Te79  1  0.09401578  0.74581014  0.41904729  1
  Te  Te80  1  0.09344074  0.71466183  0.71818611  1
  Te  Te81  1  0.35785203  0.06761071  0.10705706  1
  Te  Te82  1  0.42121723  0.08968255  0.40462738  1
  Te  Te83  1  0.41371400  0.06978817  0.74568307  1
  Te  Te84  1  0.40930470  0.43700911  0.07813973  1
  Te  Te85  1  0.41490870  0.40982790  0.43301251  1
  Te  Te86  1  0.43613133  0.36373381  0.77972241  1
  Te  Te87  1  0.41754912  0.75283955  0.07667622  1
  Te  Te88  1  0.43241473  0.76618703  0.39100176  1
  Te  Te89  1  0.39729391  0.78589720  0.77944860  1
  Te  Te90  1  0.74373336  0.04127356  0.11079501  1
  Te  Te91  1  0.74627546  0.08732931  0.40759469  1
  Te  Te92  1  0.75684998  0.04516327  0.76189255  1
  Te  Te93  1  0.73335252  0.40607014  0.06956925  1
  Te  Te94  1  0.73994138  0.41533453  0.41350370  1
  Te  Te95  1  0.75839322  0.40150843  0.75032620  1
  Te  Te96  1  0.75926405  0.73235649  0.09143203  1
  Te  Te97  1  0.77761297  0.74138984  0.38702573  1
  Te  Te98  1  0.76647549  0.74041350  0.75369841  1
  Te  Te99  1  0.08290896  0.25782010  0.22627872  1
  Te  Te100  1  0.09854490  0.26994019  0.57381393  1
  Te  Te101  1  0.08132723  0.23966903  0.89761777  1
  Te  Te102  1  0.09065414  0.58686397  0.24464744  1
  Te  Te103  1  0.09187991  0.60356080  0.62113507  1
  Te  Te104  1  0.08840418  0.57897972  0.93088545  1
  Te  Te105  1  0.12344360  0.92081404  0.22746076  1
  Te  Te106  1  0.10816245  0.89310703  0.60989975  1
  Te  Te107  1  0.07678684  0.92720182  0.92517478  1
  Te  Te108  1  0.36886590  0.23280214  0.20596176  1
  Te  Te109  1  0.42679224  0.24648103  0.57085604  1
  Te  Te110  1  0.42400540  0.21057192  0.92177651  1
  Te  Te111  1  0.39421272  0.57974968  0.20781162  1
  Te  Te112  1  0.43406743  0.60877376  0.61971463  1
  Te  Te113  1  0.37121593  0.58298788  0.89991557  1
  Te  Te114  1  0.40892129  0.89360313  0.25843638  1
  Te  Te115  1  0.41503691  0.89786486  0.58527512  1
  Te  Te116  1  0.36244754  0.98350081  0.90611214  1
  Te  Te117  1  0.75218057  0.23500680  0.23822165  1
  Te  Te118  1  0.75135532  0.26276078  0.57843306  1
  Te  Te119  1  0.71311369  0.23330489  0.91815822  1
  Te  Te120  1  0.75448862  0.56550934  0.22819028  1
  Te  Te121  1  0.75839470  0.56850372  0.57703947  1
  Te  Te122  1  0.76167008  0.56283396  0.90798270  1
  Te  Te123  1  0.74849131  0.92606671  0.24285950  1
  Te  Te124  1  0.76047852  0.90703751  0.57884469  1
  Te  Te125  1  0.74739357  0.90438016  0.92796506  1
  Te  Te126  1  0.26065626  0.25984712  0.10618369  1
  Te  Te127  1  0.24540144  0.26917608  0.38466549  1
  Te  Te128  1  0.29725441  0.27868235  0.73602113  1
  Te  Te129  1  0.20021770  0.58929530  0.06506218  1
  Te  Te130  1  0.24893856  0.58781310  0.42682938  1
  Te  Te131  1  0.26562182  0.57079226  0.77063181  1
  Te  Te132  1  0.28230677  0.94482103  0.04408322  1
  Te  Te133  1  0.25056488  0.91984044  0.43308576  1
  Te  Te134  1  0.21301492  0.91208132  0.74638689  1
  Te  Te135  1  0.55959057  0.26438479  0.10693272  1
  Te  Te136  1  0.55781390  0.24327438  0.38115664  1
  Te  Te137  1  0.60643813  0.21180375  0.76901455  1
  Te  Te138  1  0.56815936  0.58108649  0.04433964  1
  Te  Te139  1  0.57074112  0.58528813  0.42611959  1
  Te  Te140  1  0.57708835  0.59487399  0.78037982  1
  Te  Te141  1  0.54887271  0.92354352  0.10034863  1
  Te  Te142  1  0.58026185  0.92211885  0.43084028  1
  Te  Te143  1  0.56110314  0.92503555  0.76846920  1
  Te  Te144  1  0.90214850  0.22759498  0.06300847  1
  Te  Te145  1  0.90444132  0.24226322  0.40695052  1
  Te  Te146  1  0.89878974  0.23171339  0.74986844  1
  Te  Te147  1  0.93131090  0.59211515  0.07553828  1
  Te  Te148  1  0.92918170  0.58173319  0.42431866  1
  Te  Te149  1  0.93964772  0.61322909  0.72540631  1
  Te  Te150  1  0.92350309  0.89934828  0.11047152  1
  Te  Te151  1  0.95647804  0.91031439  0.41767286  1
  Te  Te152  1  0.93197601  0.90642857  0.77684546  1
  Te  Te153  1  0.25477934  0.07549693  0.22567205  1
  Te  Te154  1  0.25433262  0.09172308  0.57567680  1
  Te  Te155  1  0.26574984  0.10871662  0.89491101  1
  Te  Te156  1  0.34289747  0.44704573  0.26859212  1
  Te  Te157  1  0.26391033  0.43275804  0.59285035  1
  Te  Te158  1  0.26496338  0.40626350  0.93868006  1
  Te  Te159  1  0.24262214  0.73073635  0.23127545  1
  Te  Te160  1  0.28549539  0.76394067  0.57546205  1
  Te  Te161  1  0.22801106  0.77207697  0.92161626  1
  Te  Te162  1  0.55633087  0.08268806  0.24151324  1
  Te  Te163  1  0.59950930  0.08821872  0.57873136  1
  Te  Te164  1  0.55782092  0.08555431  0.93988688  1
  Te  Te165  1  0.57328771  0.43794640  0.26794490  1
  Te  Te166  1  0.58056923  0.43563947  0.60108335  1
  Te  Te167  1  0.53594109  0.40523836  0.89258632  1
  Te  Te168  1  0.59882585  0.74653196  0.25307579  1
  Te  Te169  1  0.61125032  0.74942869  0.58630655  1
  Te  Te170  1  0.57856924  0.76532062  0.92607638  1
  Te  Te171  1  0.92999121  0.07786552  0.26041416  1
  Te  Te172  1  0.91127947  0.07000238  0.57906326  1
  Te  Te173  1  0.89436621  0.09598123  0.94574064  1
  Te  Te174  1  0.90904034  0.39957409  0.24089506  1
  Te  Te175  1  0.94344904  0.42403281  0.58612142  1
  Te  Te176  1  0.92643971  0.41734108  0.89968889  1
  Te  Te177  1  0.95191337  0.78088122  0.23220086  1
  Te  Te178  1  0.93811570  0.77897170  0.55106880  1
  Te  Te179  1  0.95181019  0.75286556  0.91965247  1
