# generated using pymatgen
data_In2Te3
_symmetry_space_group_name_H-M   'P 1'
_cell_length_a   18.99611907
_cell_length_b   18.99424565
_cell_length_c   18.97837349
_cell_angle_alpha   89.79984696
_cell_angle_beta   89.99887048
_cell_angle_gamma   89.88687057
_symmetry_Int_Tables_number   1
_chemical_formula_structural   In2Te3
_chemical_formula_sum   'In72 Te108'
_cell_volume   6847.66374621
_cell_formula_units_Z   36
loop_
 _symmetry_equiv_pos_site_id
 _symmetry_equiv_pos_as_xyz
  1  'x, y, z'
loop_
 _atom_site_type_symbol
 _atom_site_label
 _atom_site_symmetry_multiplicity
 _atom_site_fract_x
 _atom_site_fract_y
 _atom_site_fract_z
 _atom_site_occupancy
  In  In0  1  0.34528792  0.52043599  0.82756531  1
  In  In1  1  0.16044067  0.53860001  0.67679925  1
  In  In2  1  0.20968553  0.83134476  -0.01768114  1
  In  In3  1  0.34238069  0.79972468  0.81812982  1
  In  In4  1  0.18432571  0.51757493  0.03851143  1
  In  In5  1  0.67063350  0.15719024  0.17651172  1
  In  In6  1  0.49028647  0.03912928  0.80072688  1
  In  In7  1  0.16478980  0.34273086  0.81491429  1
  In  In8  1  0.15872549  0.01582172  0.51832561  1
  In  In9  1  0.16039689  0.35754794  0.47476264  1
  In  In10  1  0.34989738  0.83515407  0.49669819  1
  In  In11  1  0.65987533  0.67917985  -0.00405255  1
  In  In12  1  -0.01268188  0.18161563  0.49216563  1
  In  In13  1  0.81510635  0.53487085  0.01321397  1
  In  In14  1  0.84511704  0.69539217  0.14419461  1
  In  In15  1  0.49170902  0.50550227  0.35659222  1
  In  In16  1  -0.01304576  -0.02900229  0.67616109  1
  In  In17  1  0.04700230  0.17502467  0.16862496  1
  In  In18  1  0.65085677  0.53233937  0.19306361  1
  In  In19  1  0.82259319  0.16353485  0.66698463  1
  In  In20  1  0.33969595  0.19046231  0.16074099  1
  In  In21  1  0.79823111  -0.00364469  0.50812777  1
  In  In22  1  0.21311848  0.16696230  0.36456091  1
  In  In23  1  -0.01287889  0.51395038  0.84889426  1
  In  In24  1  0.62940522  0.34514324  -0.01582598  1
  In  In25  1  0.14670488  0.15194351  0.64062151  1
  In  In26  1  0.02397038  0.51459912  0.19048860  1
  In  In27  1  0.47282468  0.50517572  0.65006536  1
  In  In28  1  0.33708225  0.82403232  0.17189117  1
  In  In29  1  0.16827984  0.82382340  0.33179245  1
  In  In30  1  0.48745371  0.32256484  0.80181709  1
  In  In31  1  0.49683451  0.66931475  0.19542183  1
  In  In32  1  0.35681401  -0.00781187  0.33555880  1
  In  In33  1  0.64583190  0.53523230  0.52860385  1
  In  In34  1  0.34907158  0.34120913  -0.03100258  1
  In  In35  1  0.68859113  0.15199055  0.84180274  1
  In  In36  1  0.46890879  0.17992805  0.32580195  1
  In  In37  1  0.66720419  0.81851963  0.53827279  1
  In  In38  1  0.00964288  0.32616229  0.32234533  1
  In  In39  1  0.01604024  0.36609846  -0.00001705  1
  In  In40  1  0.02920822  0.83989322  0.14546442  1
  In  In41  1  0.83520487  0.50773314  0.34534028  1
  In  In42  1  0.02192552  0.69833656  -0.01335405  1
  In  In43  1  0.66259154  -0.03042367  0.34791118  1
  In  In44  1  0.32662502  0.01542097  -0.03046247  1
  In  In45  1  0.79268210  0.37101049  0.53484059  1
  In  In46  1  0.82829613  0.80188808  0.35378239  1
  In  In47  1  0.47920047  0.83455613  -0.00078271  1
  In  In48  1  0.47487503  0.36301133  0.17243933  1
  In  In49  1  0.00286340  0.64735359  0.34220403  1
  In  In50  1  0.49555376  -0.00037421  0.14911685  1
  In  In51  1  0.17149457  0.66235655  0.47521613  1
  In  In52  1  0.51137626  0.22836432  -0.02759484  1
  In  In53  1  0.16859591  0.81145120  0.68086876  1
  In  In54  1  0.82648590  -0.04526542  0.18853925  1
  In  In55  1  0.86776496  0.17447955  0.31329042  1
  In  In56  1  0.02386196  0.74252887  0.58445073  1
  In  In57  1  -0.00063798  -0.02002435  0.33003188  1
  In  In58  1  0.02433670  -0.01512355  -0.01582622  1
  In  In59  1  0.82687590  0.67669722  0.84015922  1
  In  In60  1  0.18005712  0.17412958  -0.03003977  1
  In  In61  1  0.66372156  -0.02766470  -0.02693911  1
  In  In62  1  0.80061796  0.48414272  0.70740128  1
  In  In63  1  0.47922553  0.67172367  0.50557429  1
  In  In64  1  0.65950827  0.83931650  0.80505595  1
  In  In65  1  0.64505815  0.13743102  0.48706171  1
  In  In66  1  0.82707907  0.33147975  0.13906420  1
  In  In67  1  0.84813167  0.13318840  0.00326564  1
  In  In68  1  0.83499060  0.30347591  0.83529980  1
  In  In69  1  0.50162244  -0.01308754  0.52777523  1
  In  In70  1  0.50531544  0.32170194  0.51346034  1
  In  In71  1  0.31607669  0.30640413  0.61200531  1
  Te  Te72  1  0.11060613  0.08233018  0.07074637  1
  Te  Te73  1  0.07738409  0.09411559  0.40274757  1
  Te  Te74  1  0.06838965  0.07445915  0.73875204  1
  Te  Te75  1  0.10513681  0.41101602  0.11371489  1
  Te  Te76  1  0.04963116  0.44085396  0.40751372  1
  Te  Te77  1  0.06650334  0.43525635  0.74688115  1
  Te  Te78  1  0.12696506  0.74388937  0.08582633  1
  Te  Te79  1  0.06230877  0.76762029  0.42345783  1
  Te  Te80  1  0.05854587  0.72411495  0.73570507  1
  Te  Te81  1  0.41587125  0.09929534  0.06756680  1
  Te  Te82  1  0.42376875  0.08463038  0.43351573  1
  Te  Te83  1  0.40428867  0.10055481  0.69848307  1
  Te  Te84  1  0.42334441  0.43974943  0.05432040  1
  Te  Te85  1  0.41260791  0.41612637  0.44548736  1
  Te  Te86  1  0.38216476  0.40485930  0.72774246  1
  Te  Te87  1  0.40882843  0.72921406  0.07908280  1
  Te  Te88  1  0.40373722  0.74185299  0.39674653  1
  Te  Te89  1  0.41084982  0.71322760  0.71825453  1
  Te  Te90  1  0.74708197  0.05414699  0.09629022  1
  Te  Te91  1  0.76471136  0.08342324  0.38211970  1
  Te  Te92  1  0.77794198  0.06239926  0.76639499  1
  Te  Te93  1  0.72550674  0.43198671  0.08637418  1
  Te  Te94  1  0.72269143  0.44536896  0.42480198  1
  Te  Te95  1  0.72300077  0.37094999  0.76328587  1
  Te  Te96  1  0.76243760  0.77020182  0.04989751  1
  Te  Te97  1  0.75168659  0.72961200  0.45447366  1
  Te  Te98  1  0.72979474  0.72620235  0.73860031  1
  Te  Te99  1  0.13003516  0.25511704  0.26543574  1
  Te  Te100  1  0.07435005  0.26975741  0.57184640  1
  Te  Te101  1  0.07073648  0.26359797  0.90506494  1
  Te  Te102  1  0.11406227  0.60803436  0.25518619  1
  Te  Te103  1  0.07118317  0.59531115  0.56708027  1
  Te  Te104  1  0.09754659  0.58172553  0.92681868  1
  Te  Te105  1  0.10889230  0.92908468  0.23840843  1
  Te  Te106  1  0.08096858  0.90158612  0.57689427  1
  Te  Te107  1  0.10537623  0.89532676  0.90158607  1
  Te  Te108  1  0.38043412  0.29085202  0.26742428  1
  Te  Te109  1  0.44259306  0.22044932  0.60532102  1
  Te  Te110  1  0.39354232  0.22936068  0.87796422  1
  Te  Te111  1  0.40665091  0.56026097  0.24620034  1
  Te  Te112  1  0.38616293  0.55790115  0.53883333  1
  Te  Te113  1  0.47703787  0.56985520  0.87121359  1
  Te  Te114  1  0.44178464  0.90057459  0.25110694  1
  Te  Te115  1  0.40704441  0.90926006  0.60814906  1
  Te  Te116  1  0.42532790  0.92854422  0.89243887  1
  Te  Te117  1  0.75329101  0.25975507  0.25025141  1
  Te  Te118  1  0.73554400  0.23488941  0.56536809  1
  Te  Te119  1  0.74899818  0.24000680  0.95748184  1
  Te  Te120  1  0.77190512  0.60404069  0.24498611  1
  Te  Te121  1  0.73501986  0.59398219  0.63294658  1
  Te  Te122  1  0.72457108  0.57589965  0.90206304  1
  Te  Te123  1  0.71739505  0.86014623  0.25384381  1
  Te  Te124  1  0.76596910  0.90124063  0.61594737  1
  Te  Te125  1  0.76026981  0.92587244  0.87427387  1
  Te  Te126  1  0.25409165  0.26905978  0.06414110  1
  Te  Te127  1  0.27211077  0.24881795  0.47157274  1
  Te  Te128  1  0.23473947  0.24520514  0.72766216  1
  Te  Te129  1  0.30995829  0.53299926  0.11211600  1
  Te  Te130  1  0.26166589  0.55767423  0.42249744  1
  Te  Te131  1  0.27610057  0.61455033  0.73481004  1
  Te  Te132  1  0.27133528  0.92720827  0.08193252  1
  Te  Te133  1  0.24352308  0.93114548  0.41808357  1
  Te  Te134  1  0.25642027  0.90158844  0.75460053  1
  Te  Te135  1  0.57108828  0.25353461  0.11398968  1
  Te  Te136  1  0.58099357  0.24634757  0.40273901  1
  Te  Te137  1  0.61182456  0.24760760  0.75795441  1
  Te  Te138  1  0.57104284  0.59032723  0.08067113  1
  Te  Te139  1  0.58508682  0.61045366  0.41151760  1
  Te  Te140  1  0.53193208  0.61699890  0.73093598  1
  Te  Te141  1  0.58788926  0.89989981  0.08236184  1
  Te  Te142  1  0.57374535  0.88851272  0.43535607  1
  Te  Te143  1  0.58351575  0.94682229  0.73093209  1
  Te  Te144  1  0.94158326  0.24792784  0.08252928  1
  Te  Te145  1  0.89502788  0.27918057  0.42073610  1
  Te  Te146  1  0.92090954  0.24951211  0.73190884  1
  Te  Te147  1  0.94268374  0.58835602  0.07778660  1
  Te  Te148  1  0.89799999  0.60425859  0.43601148  1
  Te  Te149  1  0.93514332  0.61613142  0.75398524  1
  Te  Te150  1  0.91789498  0.91355963  0.07506399  1
  Te  Te151  1  0.89878445  0.91630495  0.42216626  1
  Te  Te152  1  0.95133942  0.85581592  0.76595008  1
  Te  Te153  1  0.27225127  0.08561591  0.24943258  1
  Te  Te154  1  0.26550750  0.06701037  0.60563230  1
  Te  Te155  1  0.23151844  0.07450789  0.87595845  1
  Te  Te156  1  0.19988547  0.43974151  0.35162015  1
  Te  Te157  1  0.22515659  0.43137526  0.59399915  1
  Te  Te158  1  0.23897345  0.43623469  0.91107116  1
  Te  Te159  1  0.27608869  0.73929408  0.27768258  1
  Te  Te160  1  0.25214964  0.74570354  0.57157654  1
  Te  Te161  1  0.28025170  0.71697238  0.92190820  1
  Te  Te162  1  0.57458806  0.07319278  0.26275807  1
  Te  Te163  1  0.60792007  0.05788050  0.60501120  1
  Te  Te164  1  0.57636664  0.08822778  0.93002900  1
  Te  Te165  1  0.58073892  0.41896136  0.26390514  1
  Te  Te166  1  0.58503057  0.41604152  0.60141000  1
  Te  Te167  1  0.55295085  0.43012066  0.88457918  1
  Te  Te168  1  0.61160843  0.74608122  0.23787129  1
  Te  Te169  1  0.56017872  0.74015018  0.60987577  1
  Te  Te170  1  0.57113514  0.76147375  0.90329628  1
  Te  Te171  1  0.93468197  0.07384497  0.22189362  1
  Te  Te172  1  0.91932343  0.07173043  0.56970957  1
  Te  Te173  1  0.93900579  0.07741548  0.90563391  1
  Te  Te174  1  0.90949957  0.41724937  0.23516484  1
  Te  Te175  1  0.89782363  0.43607278  0.60890214  1
  Te  Te176  1  0.89035184  0.42113764  0.93111930  1
  Te  Te177  1  0.93728284  0.76272332  0.24452607  1
  Te  Te178  1  0.89649286  0.80534361  0.63396555  1
  Te  Te179  1  0.91553614  0.77072791  0.91507773  1
