# generated using pymatgen
data_In2Te3
_symmetry_space_group_name_H-M   'P 1'
_cell_length_a   18.93340655
_cell_length_b   18.93458755
_cell_length_c   18.95268713
_cell_angle_alpha   90.16965399
_cell_angle_beta   90.01328625
_cell_angle_gamma   89.87254729
_symmetry_Int_Tables_number   1
_chemical_formula_structural   In2Te3
_chemical_formula_sum   'In72 Te108'
_cell_volume   6794.42037713
_cell_formula_units_Z   36
loop_
 _symmetry_equiv_pos_site_id
 _symmetry_equiv_pos_as_xyz
  1  'x, y, z'
loop_
 _atom_site_type_symbol
 _atom_site_label
 _atom_site_symmetry_multiplicity
 _atom_site_fract_x
 _atom_site_fract_y
 _atom_site_fract_z
 _atom_site_occupancy
  In  In0  1  0.80750639  0.68130385  0.15591353  1
  In  In1  1  0.84074640  0.35996055  0.82320733  1
  In  In2  1  0.50919028  0.47938470  0.33911648  1
  In  In3  1  0.37668271  0.19452380  0.19049517  1
  In  In4  1  0.85036755  0.52380973  -0.02769258  1
  In  In5  1  0.35906545  0.82461173  0.16745642  1
  In  In6  1  0.82302106  0.33472258  0.16621749  1
  In  In7  1  0.76464234  0.15441474  -0.01625741  1
  In  In8  1  0.83933232  0.47993274  0.35859707  1
  In  In9  1  0.84614881  0.85225420  0.35751384  1
  In  In10  1  0.67968786  0.33116963  0.36542404  1
  In  In11  1  0.48914811  0.50943629  0.00472084  1
  In  In12  1  0.15247999  0.83581790  0.66033194  1
  In  In13  1  0.33447769  0.48207884  0.47533409  1
  In  In14  1  0.65363684  0.01119491  0.65770251  1
  In  In15  1  0.65431123  0.35276103  -0.00407712  1
  In  In16  1  0.68352274  0.67054774  0.33676264  1
  In  In17  1  0.33678108  0.66068192  0.65474295  1
  In  In18  1  0.15450263  0.32193819  0.52092879  1
  In  In19  1  0.82674002  0.14626165  0.63537963  1
  In  In20  1  0.30666493  0.48233802  0.84442651  1
  In  In21  1  0.15086194  0.00051799  0.79064765  1
  In  In22  1  0.63501518  0.53261736  0.17336160  1
  In  In23  1  0.51309971  0.66688623  0.81956723  1
  In  In24  1  0.33863469  0.51474494  0.18227947  1
  In  In25  1  0.64946014  0.82138404  0.15982338  1
  In  In26  1  0.18175983  0.14623339  0.35367927  1
  In  In27  1  0.49603412  0.85042313  -0.00925437  1
  In  In28  1  0.49448337  0.49799539  0.65156349  1
  In  In29  1  0.62820539  0.29574172  0.67415302  1
  In  In30  1  0.30782709  0.32079593  0.65432390  1
  In  In31  1  0.33142709  0.02555933  0.01810816  1
  In  In32  1  0.00956427  0.00692773  0.36957050  1
  In  In33  1  0.68460263  0.49511392  0.52863571  1
  In  In34  1  0.01015746  0.00267204  -0.01073121  1
  In  In35  1  0.20020286  -0.02977783  0.18538472  1
  In  In36  1  0.18241653  0.82539632  0.33818239  1
  In  In37  1  0.67518221  0.86159275  0.80080486  1
  In  In38  1  0.34415134  0.35204962  -0.00848994  1
  In  In39  1  0.64836705  0.18983508  0.19669223  1
  In  In40  1  0.01116028  0.64561270  0.33800647  1
  In  In41  1  0.52476139  0.14953029  -0.00576073  1
  In  In42  1  0.01318803  0.16382104  0.19452929  1
  In  In43  1  0.74753936  0.52399470  0.80138795  1
  In  In44  1  -0.00756763  0.69630826  -0.03654695  1
  In  In45  1  0.14027722  0.67261215  0.79743869  1
  In  In46  1  0.15482324  0.17886406  0.00034580  1
  In  In47  1  0.85696122  0.85019430  0.65711636  1
  In  In48  1  0.51692708  0.84376041  0.63762924  1
  In  In49  1  0.15960946  0.47036415  0.34314451  1
  In  In50  1  -0.00822112  0.82614839  0.15959043  1
  In  In51  1  0.30945837  0.66247810  0.01406446  1
  In  In52  1  0.67131555  0.82255358  0.51020442  1
  In  In53  1  -0.02501837  0.48189252  0.16898961  1
  In  In54  1  0.32149945  0.14333780  0.80401386  1
  In  In55  1  0.82989814  -0.01739406  0.82099310  1
  In  In56  1  0.48830171  0.31256082  0.83718064  1
  In  In57  1  -0.04638936  0.32094215  -0.01481702  1
  In  In58  1  0.70141371  0.02248643  0.35635481  1
  In  In59  1  0.35342191  0.69996950  0.34130925  1
  In  In60  1  0.09061043  0.49364974  0.67027785  1
  In  In61  1  0.15536104  0.65659604  0.49655672  1
  In  In62  1  0.14016754  0.83199172  -0.02102963  1
  In  In63  1  0.31901189  0.14415026  0.52102157  1
  In  In64  1  0.34884847  0.84786035  0.85445036  1
  In  In65  1  0.17634065  0.35192443  0.16004474  1
  In  In66  1  0.69378385  0.68745605  0.67314470  1
  In  In67  1  0.51023675  -0.00173869  0.49000388  1
  In  In68  1  0.00745325  0.29390631  0.39225721  1
  In  In69  1  0.84840458  -0.00444854  0.15838335  1
  In  In70  1  -0.01886689  0.13408644  0.80371336  1
  In  In71  1  0.35480013  -0.05873891  0.35602723  1
  Te  Te72  1  0.09236275  0.07180472  0.09823427  1
  Te  Te73  1  0.07395006  0.11583056  0.45346994  1
  Te  Te74  1  0.10141509  0.11951174  0.71352814  1
  Te  Te75  1  0.05788661  0.39443417  0.07618382  1
  Te  Te76  1  0.06181831  0.42558796  0.44756633  1
  Te  Te77  1  0.07839566  0.35936895  0.73241941  1
  Te  Te78  1  0.08993838  0.73901008  0.08541556  1
  Te  Te79  1  0.07294555  0.76034140  0.41851964  1
  Te  Te80  1  0.04005775  0.76418420  0.73362925  1
  Te  Te81  1  0.44003647  0.08538934  0.10540947  1
  Te  Te82  1  0.40346644  0.07705686  0.41487338  1
  Te  Te83  1  0.42578266  0.11805631  0.70496797  1
  Te  Te84  1  0.42597196  0.41440196  0.10261057  1
  Te  Te85  1  0.43065476  0.38308030  0.42064183  1
  Te  Te86  1  0.41023935  0.41414251  0.74680268  1
  Te  Te87  1  0.42975425  0.73320884  0.06900075  1
  Te  Te88  1  0.40271941  0.81274018  0.42179217  1
  Te  Te89  1  0.41769480  0.75812991  0.74105112  1
  Te  Te90  1  0.73535982  0.08761804  0.11670906  1
  Te  Te91  1  0.77291654  0.11333074  0.44941532  1
  Te  Te92  1  0.74524644  0.08793553  0.75001162  1
  Te  Te93  1  0.76525001  0.42968912  0.06388118  1
  Te  Te94  1  0.78023251  0.39262295  0.46671191  1
  Te  Te95  1  0.73511971  0.39438400  0.71667811  1
  Te  Te96  1  0.74956028  0.77511986  0.06201194  1
  Te  Te97  1  0.77500992  0.74135385  0.43465006  1
  Te  Te98  1  0.79024225  0.75974925  0.77154817  1
  Te  Te99  1  0.10700007  0.25836370  0.26636502  1
  Te  Te100  1  0.05340083  0.27071925  0.61497917  1
  Te  Te101  1  0.04927804  0.23100073  0.90734916  1
  Te  Te102  1  0.08733544  0.55735776  0.24052394  1
  Te  Te103  1  0.04871532  0.61367960  0.59184268  1
  Te  Te104  1  0.08130313  0.59449804  0.90612482  1
  Te  Te105  1  0.07233468  0.91663813  0.25162005  1
  Te  Te106  1  0.13891269  0.94996929  0.56524969  1
  Te  Te107  1  0.06180322  0.91230203  0.87885523  1
  Te  Te108  1  0.45132503  0.26674813  0.29377273  1
  Te  Te109  1  0.41499704  0.23520907  0.59477789  1
  Te  Te110  1  0.40225136  0.22200377  0.92590997  1
  Te  Te111  1  0.43585003  0.59458728  0.26648243  1
  Te  Te112  1  0.41891061  0.58446409  0.55158757  1
  Te  Te113  1  0.40597844  0.59105927  0.89885382  1
  Te  Te114  1  0.44319179  0.91840761  0.23947230  1
  Te  Te115  1  0.41097837  0.91562014  0.56568585  1
  Te  Te116  1  0.42475227  0.96492273  0.91332005  1
  Te  Te117  1  0.76808543  0.24483315  0.27353695  1
  Te  Te118  1  0.70933540  0.21775759  0.57082685  1
  Te  Te119  1  0.73418211  0.27283699  0.89574057  1
  Te  Te120  1  0.76531403  0.56033308  0.24730546  1
  Te  Te121  1  0.77824309  0.59426912  0.59244454  1
  Te  Te122  1  0.74049028  0.60718765  0.92224977  1
  Te  Te123  1  0.75797523  0.91158892  0.24948896  1
  Te  Te124  1  0.75400856  0.92863483  0.57807830  1
  Te  Te125  1  0.72836018  0.93559264  0.91905922  1
  Te  Te126  1  0.25995515  0.24423074  0.09019093  1
  Te  Te127  1  0.25559750  0.25357823  0.43066271  1
  Te  Te128  1  0.24199341  0.26237362  0.77175790  1
  Te  Te129  1  0.24187359  0.55084601  0.07768214  1
  Te  Te130  1  0.25040799  0.59015872  0.39581053  1
  Te  Te131  1  0.24382617  0.57561333  0.73877655  1
  Te  Te132  1  0.25823199  0.89764964  0.06048048  1
  Te  Te133  1  0.21951230  0.94210800  0.42305631  1
  Te  Te134  1  0.26316210  0.90868038  0.74495790  1
  Te  Te135  1  0.57287796  0.26190921  0.08401514  1
  Te  Te136  1  0.57601931  0.22388061  0.37626816  1
  Te  Te137  1  0.55482444  0.20037376  0.76357352  1
  Te  Te138  1  0.59636403  0.60030923  0.05084670  1
  Te  Te139  1  0.60746095  0.56639753  0.41839413  1
  Te  Te140  1  0.59866840  0.57263690  0.73628189  1
  Te  Te141  1  0.56789448  0.92551794  0.09435654  1
  Te  Te142  1  0.60659442  0.91162174  0.40824009  1
  Te  Te143  1  0.55466078  0.93985693  0.74789706  1
  Te  Te144  1  0.91211852  0.22895075  0.09925178  1
  Te  Te145  1  0.89779964  0.20859562  0.44497317  1
  Te  Te146  1  0.88952407  0.23721151  0.74285640  1
  Te  Te147  1  0.92212011  0.59890951  0.08695238  1
  Te  Te148  1  0.91984055  0.57902966  0.43067758  1
  Te  Te149  1  0.87289409  0.56364753  0.72984805  1
  Te  Te150  1  0.91432123  0.90414743  0.05584195  1
  Te  Te151  1  0.92667573  0.92306223  0.45664156  1
  Te  Te152  1  0.93473870  0.95970354  0.72023259  1
  Te  Te153  1  0.26872567  0.09287605  0.24110987  1
  Te  Te154  1  0.21936626  0.07781076  0.60757654  1
  Te  Te155  1  0.22245980  0.07018297  0.91409067  1
  Te  Te156  1  0.27269522  0.40506608  0.26488713  1
  Te  Te157  1  0.23739203  0.44072293  0.58277447  1
  Te  Te158  1  0.22107737  0.39477335  0.92416914  1
  Te  Te159  1  0.25218824  0.73998921  0.23372298  1
  Te  Te160  1  0.24719505  0.75069521  0.57230135  1
  Te  Te161  1  0.24404782  0.74382267  0.89632519  1
  Te  Te162  1  0.58652920  0.08549645  0.28336016  1
  Te  Te163  1  0.59053541  0.10266174  0.55873046  1
  Te  Te164  1  0.64140175  0.08220589  0.93294984  1
  Te  Te165  1  0.60818174  0.40712623  0.24765920  1
  Te  Te166  1  0.57346373  0.39674612  0.57157401  1
  Te  Te167  1  0.56628329  0.42827653  0.89946299  1
  Te  Te168  1  0.58040775  0.73746602  0.25857271  1
  Te  Te169  1  0.57995428  0.72112357  0.57548226  1
  Te  Te170  1  0.58718683  0.77351175  0.89393352  1
  Te  Te171  1  0.91602671  0.07579549  0.26940122  1
  Te  Te172  1  0.95036671  0.11331137  0.55744473  1
  Te  Te173  1  0.89746789  0.08678611  0.93037557  1
  Te  Te174  1  0.92889523  0.38388994  0.27559706  1
  Te  Te175  1  0.94475554  0.44622683  0.66833190  1
  Te  Te176  1  0.95012652  0.44137441  0.89247491  1
  Te  Te177  1  0.91130788  0.74255715  0.25797130  1
  Te  Te178  1  0.94998219  0.74639604  0.60705953  1
  Te  Te179  1  0.90072793  0.77085466  0.88166211  1
