# generated using pymatgen
data_In2Te3
_symmetry_space_group_name_H-M   'P 1'
_cell_length_a   19.02106051
_cell_length_b   19.04098807
_cell_length_c   18.99113636
_cell_angle_alpha   89.94038910
_cell_angle_beta   90.03041913
_cell_angle_gamma   90.08653392
_symmetry_Int_Tables_number   1
_chemical_formula_structural   In2Te3
_chemical_formula_sum   'In72 Te108'
_cell_volume   6878.19317618
_cell_formula_units_Z   36
loop_
 _symmetry_equiv_pos_site_id
 _symmetry_equiv_pos_as_xyz
  1  'x, y, z'
loop_
 _atom_site_type_symbol
 _atom_site_label
 _atom_site_symmetry_multiplicity
 _atom_site_fract_x
 _atom_site_fract_y
 _atom_site_fract_z
 _atom_site_occupancy
  In  In0  1  0.35724286  0.16644921  0.17553371  1
  In  In1  1  0.66400394  0.01384867  0.32532203  1
  In  In2  1  0.68908312  0.35178774  0.67014915  1
  In  In3  1  0.50988098  0.65615962  0.84020691  1
  In  In4  1  0.34769795  0.34899680  0.01156231  1
  In  In5  1  0.19430222  0.78072094  0.29828530  1
  In  In6  1  0.16217442  0.33055600  0.85120944  1
  In  In7  1  0.83616827  0.00660076  0.48618742  1
  In  In8  1  -0.00101589  0.64961527  -0.00441971  1
  In  In9  1  -0.00254561  0.82374257  0.17830699  1
  In  In10  1  0.47329874  0.84618174  0.29715193  1
  In  In11  1  0.48527309  0.67752096  0.51026995  1
  In  In12  1  0.21636607  0.80650653  0.04638679  1
  In  In13  1  0.48947352  0.49721527  0.31870305  1
  In  In14  1  -0.00447128  -0.02501356  0.67887084  1
  In  In15  1  0.48381310  0.00855135  0.50204811  1
  In  In16  1  0.52129426  0.81604809  0.68067515  1
  In  In17  1  0.16599938  0.50663690  0.65945221  1
  In  In18  1  0.81930575  0.00020278  0.18405931  1
  In  In19  1  0.64955814  0.30648024  0.03741327  1
  In  In20  1  0.33644076  0.16743645  0.48052776  1
  In  In21  1  0.65206327  0.52815576  0.16069095  1
  In  In22  1  0.83224076  0.69175259  0.16704332  1
  In  In23  1  -0.01699651  0.80327037  0.49707727  1
  In  In24  1  0.01001765  0.81369587  0.86429582  1
  In  In25  1  0.84784191  0.50505449  0.31720943  1
  In  In26  1  0.00950046  0.32016600  0.66219138  1
  In  In27  1  0.33893971  0.01098780  0.32809422  1
  In  In28  1  0.15884742  0.00854814  0.50074477  1
  In  In29  1  0.83791424  0.82771441  0.68615529  1
  In  In30  1  0.65830151  0.49049552  0.50862383  1
  In  In31  1  0.14790736  0.54576494  0.29421859  1
  In  In32  1  -0.01027068  0.01969529  0.00581548  1
  In  In33  1  -0.01027069  0.15456546  0.81217622  1
  In  In34  1  0.49141408  0.01457794  0.15926788  1
  In  In35  1  0.81644165  0.16146301  0.66118962  1
  In  In36  1  0.51438227  0.33895406  0.48349690  1
  In  In37  1  0.66274011  0.00426705  0.03427038  1
  In  In38  1  0.02000277  -0.02010952  0.31407291  1
  In  In39  1  0.84171456  0.32997283  0.14404021  1
  In  In40  1  0.83288868  0.63891611  0.49631506  1
  In  In41  1  0.66658347  0.83823538  0.86107765  1
  In  In42  1  0.16617762  0.64989687  0.49412606  1
  In  In43  1  0.33400500  0.82648300  0.48886031  1
  In  In44  1  0.18293515  0.13927547  0.00809499  1
  In  In45  1  0.34039491  -0.02156688  0.70865135  1
  In  In46  1  0.84040636  0.66905487  0.83554002  1
  In  In47  1  -0.01042147  0.17541551  0.47630586  1
  In  In48  1  -0.01677587  0.17349015  0.15320119  1
  In  In49  1  0.50222387  0.33731399  0.83425965  1
  In  In50  1  0.49598047  -0.01993249  0.86301034  1
  In  In51  1  0.86305984  0.51436558  0.69140231  1
  In  In52  1  0.33980538  0.32151277  0.31489581  1
  In  In53  1  0.83993507  0.33379506  0.50289855  1
  In  In54  1  0.15663311  0.16367609  0.62408025  1
  In  In55  1  0.33291089  0.50284283  0.15950665  1
  In  In56  1  0.01812454  0.35330792  0.32780874  1
  In  In57  1  0.33470983  0.19511679  0.82916560  1
  In  In58  1  0.84722460  0.50586245  -0.00923697  1
  In  In59  1  0.64249351  0.70282766  0.33661919  1
  In  In60  1  0.15547393  -0.03292758  0.85420267  1
  In  In61  1  0.64992884  0.49500436  0.83136603  1
  In  In62  1  0.67236467  0.85788304  0.49551282  1
  In  In63  1  0.68379885  0.30794050  0.31023550  1
  In  In64  1  0.14706991  0.35986357  0.13548351  1
  In  In65  1  0.68906757  0.16084883  0.85789720  1
  In  In66  1  0.31776445  0.83608714  0.85922337  1
  In  In67  1  0.32856520  0.63986787  -0.00994309  1
  In  In68  1  0.51688112  0.17300226  0.65034857  1
  In  In69  1  0.32829172  0.64712145  0.66941339  1
  In  In70  1  0.65584694  0.68218765  0.02018885  1
  In  In71  1  0.33146310  0.36443133  0.67618721  1
  Te  Te72  1  0.09096044  0.07305700  0.10641217  1
  Te  Te73  1  0.08630334  0.09049659  0.39728110  1
  Te  Te74  1  0.09979263  0.06997910  0.73769024  1
  Te  Te75  1  0.04399891  0.40254097  0.03322030  1
  Te  Te76  1  0.07628991  0.46713161  0.39925567  1
  Te  Te77  1  0.08069815  0.41264910  0.75537045  1
  Te  Te78  1  0.08925973  0.72654431  0.09727350  1
  Te  Te79  1  0.09152804  0.74863757  0.40242046  1
  Te  Te80  1  0.09726422  0.79022316  0.75178172  1
  Te  Te81  1  0.40864335  0.08944823  0.06332781  1
  Te  Te82  1  0.44075949  0.10306693  0.39277420  1
  Te  Te83  1  0.42799008  0.09501195  0.75417736  1
  Te  Te84  1  0.43971097  0.41809744  0.10343897  1
  Te  Te85  1  0.40557520  0.41620108  0.41475710  1
  Te  Te86  1  0.40482093  0.43551438  0.78054648  1
  Te  Te87  1  0.35831385  0.75189123  0.08639025  1
  Te  Te88  1  0.41367562  0.74214714  0.39488098  1
  Te  Te89  1  0.41050575  0.75880102  0.76482949  1
  Te  Te90  1  0.75007110  0.10399140  0.10396716  1
  Te  Te91  1  0.73972598  0.09396768  0.42292827  1
  Te  Te92  1  0.75409613  0.07479100  0.75938057  1
  Te  Te93  1  0.74378025  0.43333668  0.08301717  1
  Te  Te94  1  0.75142738  0.42064937  0.41203302  1
  Te  Te95  1  0.77095195  0.42380793  0.77326158  1
  Te  Te96  1  0.74914362  0.77603734  0.08262335  1
  Te  Te97  1  0.75501526  0.75149962  0.42610522  1
  Te  Te98  1  0.73417315  0.74669474  0.75954154  1
  Te  Te99  1  0.08388981  0.25887067  0.23002908  1
  Te  Te100  1  0.08759277  0.27126009  0.54150490  1
  Te  Te101  1  0.08982349  0.21347723  0.91240404  1
  Te  Te102  1  0.05750940  0.62363838  0.20853909  1
  Te  Te103  1  0.06981399  0.58895170  0.58557693  1
  Te  Te104  1  0.09869819  0.53865774  0.97667231  1
  Te  Te105  1  0.12030245  0.89734650  0.23482574  1
  Te  Te106  1  0.07228749  0.90511054  0.56963261  1
  Te  Te107  1  0.08654792  0.90251008  0.96840163  1
  Te  Te108  1  0.44573193  0.28187597  0.21613825  1
  Te  Te109  1  0.40853325  0.25444997  0.58307147  1
  Te  Te110  1  0.42990000  0.24718638  0.93261064  1
  Te  Te111  1  0.42051668  0.59773593  0.23495183  1
  Te  Te112  1  0.41204469  0.57160422  0.57750262  1
  Te  Te113  1  0.41743372  0.55966462  0.90379853  1
  Te  Te114  1  0.36579946  0.91329645  0.21502168  1
  Te  Te115  1  0.41987279  0.90014716  0.59355795  1
  Te  Te116  1  0.39916667  0.91628682  0.95617623  1
  Te  Te117  1  0.76317876  0.22544088  0.21640423  1
  Te  Te118  1  0.73367669  0.24914293  0.56904722  1
  Te  Te119  1  0.74952874  0.26686953  0.93764569  1
  Te  Te120  1  0.73913567  0.59971371  0.26442230  1
  Te  Te121  1  0.74900252  0.56831001  0.60057706  1
  Te  Te122  1  0.73707397  0.59342467  0.92135602  1
  Te  Te123  1  0.75083981  0.90888575  0.27565580  1
  Te  Te124  1  0.76533771  0.92590313  0.59444665  1
  Te  Te125  1  0.74826410  0.92357622  0.94470653  1
  Te  Te126  1  0.24814684  0.25478741  0.08342722  1
  Te  Te127  1  0.24569321  0.24721051  0.39975217  1
  Te  Te128  1  0.23231893  0.24771922  0.72744311  1
  Te  Te129  1  0.22840434  0.55402103  0.06413830  1
  Te  Te130  1  0.25042912  0.60081181  0.38443479  1
  Te  Te131  1  0.23096507  0.59144524  0.76055375  1
  Te  Te132  1  0.29127864  0.93193923  0.07296734  1
  Te  Te133  1  0.24510212  0.91981410  0.41050280  1
  Te  Te134  1  0.21968934  0.88568613  0.73781170  1
  Te  Te135  1  0.57357307  0.22523028  0.13433838  1
  Te  Te136  1  0.59215226  0.24408787  0.40555365  1
  Te  Te137  1  0.60141337  0.25295967  0.75420993  1
  Te  Te138  1  0.55355509  0.59336895  0.07612193  1
  Te  Te139  1  0.57999002  0.58239896  0.41691484  1
  Te  Te140  1  0.57717609  0.57855762  0.73711100  1
  Te  Te141  1  0.57838816  0.90875366  0.10997894  1
  Te  Te142  1  0.55817989  0.91057314  0.40906332  1
  Te  Te143  1  0.58782504  0.92669466  0.75681677  1
  Te  Te144  1  0.92483622  0.25692695  0.04678052  1
  Te  Te145  1  0.90727838  0.26408898  0.38713932  1
  Te  Te146  1  0.90003854  0.25686611  0.74523311  1
  Te  Te147  1  0.91454140  0.58125545  0.10472520  1
  Te  Te148  1  0.93572380  0.57396069  0.41337211  1
  Te  Te149  1  0.95085092  0.59079230  0.78107023  1
  Te  Te150  1  0.91599580  0.92196519  0.09694033  1
  Te  Te151  1  0.92194742  0.91114980  0.40844986  1
  Te  Te152  1  0.91514111  0.90941733  0.78671909  1
  Te  Te153  1  0.25310193  0.10609212  0.25851826  1
  Te  Te154  1  0.27375639  0.06794566  0.58457810  1
  Te  Te155  1  0.25486360  0.07857714  0.88941477  1
  Te  Te156  1  0.23629828  0.41731899  0.24649304  1
  Te  Te157  1  0.24738965  0.42031985  0.57283916  1
  Te  Te158  1  0.25542827  0.41828020  0.92069986  1
  Te  Te159  1  0.28969971  0.70418317  0.21716379  1
  Te  Te160  1  0.25031043  0.74495727  0.58098834  1
  Te  Te161  1  0.22676203  0.73151418  0.91471978  1
  Te  Te162  1  0.58615712  0.10446629  0.23324463  1
  Te  Te163  1  0.59042315  0.07081682  0.57925428  1
  Te  Te164  1  0.57972355  0.08344849  0.93152630  1
  Te  Te165  1  0.59750745  0.41779242  0.24967929  1
  Te  Te166  1  0.56696176  0.41468104  0.60393800  1
  Te  Te167  1  0.58664829  0.40869883  0.93716240  1
  Te  Te168  1  0.57371708  0.76605947  0.22371187  1
  Te  Te169  1  0.60317517  0.74642177  0.57565738  1
  Te  Te170  1  0.55761689  0.76352542  0.93462079  1
  Te  Te171  1  0.92272116  0.08210448  0.26007011  1
  Te  Te172  1  0.93559530  0.08890096  0.58785600  1
  Te  Te173  1  0.90393852  0.08351618  0.90634307  1
  Te  Te174  1  0.93234984  0.42317253  0.22385651  1
  Te  Te175  1  0.92643183  0.42262102  0.58526654  1
  Te  Te176  1  0.95196042  0.43561211  0.91702425  1
  Te  Te177  1  0.92488920  0.73711930  0.27215153  1
  Te  Te178  1  0.90880577  0.72533896  0.60230082  1
  Te  Te179  1  0.89860129  0.75137877  0.94737991  1
