# generated using pymatgen
data_In2Te3
_symmetry_space_group_name_H-M   'P 1'
_cell_length_a   18.77690900
_cell_length_b   18.77937864
_cell_length_c   18.78182967
_cell_angle_alpha   89.95868953
_cell_angle_beta   90.02490898
_cell_angle_gamma   89.96619926
_symmetry_Int_Tables_number   1
_chemical_formula_structural   In2Te3
_chemical_formula_sum   'In72 Te108'
_cell_volume   6622.82055591
_cell_formula_units_Z   36
loop_
 _symmetry_equiv_pos_site_id
 _symmetry_equiv_pos_as_xyz
  1  'x, y, z'
loop_
 _atom_site_type_symbol
 _atom_site_label
 _atom_site_symmetry_multiplicity
 _atom_site_fract_x
 _atom_site_fract_y
 _atom_site_fract_z
 _atom_site_occupancy
  In  In0  1  0.68363907  0.83633080  0.18940293  1
  In  In1  1  0.67148640  0.47489849  0.15929441  1
  In  In2  1  0.34036940  0.67808935  0.34198713  1
  In  In3  1  0.82498224  0.34025994  0.51357977  1
  In  In4  1  0.82331711  0.32218935  0.83538796  1
  In  In5  1  0.32270801  0.15456768  0.13192669  1
  In  In6  1  0.67410201  0.84773452  0.82013315  1
  In  In7  1  0.85177308  0.68305562  0.16940835  1
  In  In8  1  0.17931239  0.34358250  0.49190667  1
  In  In9  1  0.49135610  0.50588403  0.64720519  1
  In  In10  1  0.33342226  0.50643933  0.51199973  1
  In  In11  1  0.02089530  0.35745809  0.69677132  1
  In  In12  1  0.33241336  0.32274035  0.32574358  1
  In  In13  1  0.67437797  0.65643825  0.37152346  1
  In  In14  1  0.82983449  0.50497174  0.35288050  1
  In  In15  1  0.31864940  0.17044624  0.83363511  1
  In  In16  1  0.82541573  -0.01338013  0.53928834  1
  In  In17  1  -0.00355190  0.15536715  0.84227656  1
  In  In18  1  0.32300960  0.48510103  0.12993331  1
  In  In19  1  0.32262671  0.83626029  0.84836467  1
  In  In20  1  0.32000020  -0.00716583  0.32108804  1
  In  In21  1  0.67728382  0.62527082  -0.02228727  1
  In  In22  1  0.49109841  0.02709121  0.14426535  1
  In  In23  1  0.00416116  0.83856149  0.51165902  1
  In  In24  1  -0.00942711  0.85245843  0.80597264  1
  In  In25  1  0.84622147  0.31949593  0.16312735  1
  In  In26  1  -0.00215785  0.01628903  0.32981887  1
  In  In27  1  0.50193908  0.17500319  0.65874923  1
  In  In28  1  0.00782100  0.49606427  0.15033457  1
  In  In29  1  0.66123154  0.01981196  -0.00061707  1
  In  In30  1  0.17158484  0.49080921  -0.02205316  1
  In  In31  1  -0.01586468  0.15511737  0.50028242  1
  In  In32  1  0.48219481  0.67380720  0.16764434  1
  In  In33  1  0.48961923  0.15759939  0.33454010  1
  In  In34  1  0.17559391  0.17341728  -0.01697071  1
  In  In35  1  0.33137098  0.00649374  0.67579038  1
  In  In36  1  0.83281866  0.16358568  0.32274775  1
  In  In37  1  0.66417520  0.50938895  0.50456633  1
  In  In38  1  -0.01523733  0.32576566  -0.00964970  1
  In  In39  1  0.81556587  0.49773054  -0.02786136  1
  In  In40  1  0.84195327  0.83645928  0.00453747  1
  In  In41  1  0.66450141  0.16932386  0.51860823  1
  In  In42  1  0.00440058  0.67321858  0.32661735  1
  In  In43  1  0.49577772  0.82834797  0.36675450  1
  In  In44  1  0.33969867  0.35102809  0.67801081  1
  In  In45  1  0.67489484  0.67620500  0.67090671  1
  In  In46  1  0.16056758  -0.00590956  0.50308406  1
  In  In47  1  0.48725106  0.83238788  -0.00519236  1
  In  In48  1  0.16853537  0.82898063  -0.00048913  1
  In  In49  1  0.16738785  0.83811841  0.34195481  1
  In  In50  1  0.49281350  0.31129784  0.83911918  1
  In  In51  1  0.68867623  0.14466782  0.81371671  1
  In  In52  1  -0.00470040  0.64526974  0.69673430  1
  In  In53  1  -0.01291836  0.00560793  -0.00484926  1
  In  In54  1  0.67291545  0.48589161  0.82969174  1
  In  In55  1  0.48888352  0.49704409  -0.02645357  1
  In  In56  1  0.02768983  0.29510260  0.29525510  1
  In  In57  1  0.02605173  0.67692577  -0.01287885  1
  In  In58  1  0.14755293  0.16319188  0.67739859  1
  In  In59  1  0.51519884  0.82177741  0.67838340  1
  In  In60  1  0.16999958  0.00135459  0.14969812  1
  In  In61  1  0.49847089  0.33966165  0.50897183  1
  In  In62  1  0.18156915  0.81575729  0.64503294  1
  In  In63  1  0.33071887  0.84380479  0.15722981  1
  In  In64  1  0.53391541  0.50792993  0.31985262  1
  In  In65  1  0.03163571  0.50650913  0.53007164  1
  In  In66  1  0.17344295  0.49460675  0.32738554  1
  In  In67  1  0.65503383  0.19216382  0.12755671  1
  In  In68  1  0.82444663  0.68754559  0.51413302  1
  In  In69  1  0.50319509  -0.00212473  0.49769200  1
  In  In70  1  0.67433549  -0.02005393  0.33004028  1
  In  In71  1  0.47529639  0.66928818  0.84273997  1
  Te  Te72  1  0.07927302  0.10551286  0.08353825  1
  Te  Te73  1  0.09606086  0.09909750  0.41240012  1
  Te  Te74  1  0.07836310  0.06234368  0.75928271  1
  Te  Te75  1  0.09034593  0.39522964  0.07695447  1
  Te  Te76  1  0.06810542  0.41635998  0.40737744  1
  Te  Te77  1  0.10494427  0.46133338  0.76722044  1
  Te  Te78  1  0.07519698  0.76383236  0.09485900  1
  Te  Te79  1  0.09196385  0.74176565  0.43308434  1
  Te  Te80  1  0.09441826  0.75176789  0.75474838  1
  Te  Te81  1  0.42400745  0.09899656  0.03489693  1
  Te  Te82  1  0.39630039  0.07959238  0.42505386  1
  Te  Te83  1  0.42708071  0.08989584  0.76004211  1
  Te  Te84  1  0.43827504  0.40057625  0.07984800  1
  Te  Te85  1  0.41647964  0.42361260  0.40969151  1
  Te  Te86  1  0.42994230  0.43409911  0.76838154  1
  Te  Te87  1  0.38949937  0.73654341  0.06472822  1
  Te  Te88  1  0.40047688  0.75501908  0.45602264  1
  Te  Te89  1  0.39441467  0.74934345  0.74289904  1
  Te  Te90  1  0.74587871  0.07789878  0.10658667  1
  Te  Te91  1  0.75416968  0.07989599  0.42782070  1
  Te  Te92  1  0.76721304  0.04424630  0.73202711  1
  Te  Te93  1  0.75334488  0.39204631  0.06177144  1
  Te  Te94  1  0.72927533  0.40709091  0.41051512  1
  Te  Te95  1  0.75377816  0.40770810  0.73508388  1
  Te  Te96  1  0.73585812  0.73770366  0.07566885  1
  Te  Te97  1  0.76490235  0.76789349  0.40507846  1
  Te  Te98  1  0.77230794  0.75996642  0.74810764  1
  Te  Te99  1  0.10890946  0.21209220  0.20919714  1
  Te  Te100  1  0.07429371  0.26281034  0.57801066  1
  Te  Te101  1  0.08833632  0.26569615  0.89539192  1
  Te  Te102  1  0.09372072  0.58918138  0.23578666  1
  Te  Te103  1  0.10697438  0.60751804  0.60556601  1
  Te  Te104  1  0.07631036  0.57201907  0.89180595  1
  Te  Te105  1  0.08295603  0.91926046  0.24546288  1
  Te  Te106  1  0.07548500  0.92944792  0.60959146  1
  Te  Te107  1  0.07945327  0.91911976  0.91122358  1
  Te  Te108  1  0.41443228  0.23696181  0.23023917  1
  Te  Te109  1  0.39632015  0.24929895  0.57627719  1
  Te  Te110  1  0.39796371  0.24847334  0.93521628  1
  Te  Te111  1  0.40386515  0.56704039  0.24842117  1
  Te  Te112  1  0.38493588  0.60623703  0.61230429  1
  Te  Te113  1  0.38233163  0.58944438  0.92653575  1
  Te  Te114  1  0.43503448  0.91573822  0.25291080  1
  Te  Te115  1  0.41871661  0.91418987  0.59270330  1
  Te  Te116  1  0.42852017  0.92844701  0.89997222  1
  Te  Te117  1  0.73712161  0.25507581  0.24805498  1
  Te  Te118  1  0.76248041  0.24069327  0.60213930  1
  Te  Te119  1  0.75662700  0.22324496  0.92312946  1
  Te  Te120  1  0.74826169  0.58456622  0.24901254  1
  Te  Te121  1  0.76504598  0.57434174  0.59787828  1
  Te  Te122  1  0.78195547  0.60284209  0.86161682  1
  Te  Te123  1  0.78026547  0.93899891  0.23422965  1
  Te  Te124  1  0.75714947  0.90495895  0.64854874  1
  Te  Te125  1  0.75643784  0.93029430  0.91894519  1
  Te  Te126  1  0.25572753  0.26862579  0.06532763  1
  Te  Te127  1  0.25005714  0.23969328  0.41612200  1
  Te  Te128  1  0.23406144  0.26712671  0.75040816  1
  Te  Te129  1  0.22843693  0.58525837  0.07985490  1
  Te  Te130  1  0.24086587  0.59096075  0.42224501  1
  Te  Te131  1  0.24565533  0.52298846  0.78486200  1
  Te  Te132  1  0.27080592  0.93796231  0.05596231  1
  Te  Te133  1  0.26581258  0.90656146  0.43531624  1
  Te  Te134  1  0.23525000  0.91524510  0.74896237  1
  Te  Te135  1  0.55065107  0.28707841  0.08902299  1
  Te  Te136  1  0.58058711  0.24899099  0.41746342  1
  Te  Te137  1  0.59858083  0.25309960  0.74570065  1
  Te  Te138  1  0.57279337  0.57856811  0.08837308  1
  Te  Te139  1  0.55257294  0.59513347  0.44275453  1
  Te  Te140  1  0.57741735  0.58773821  0.75670038  1
  Te  Te141  1  0.58185463  0.90554483  0.09369991  1
  Te  Te142  1  0.60861232  0.89982816  0.44221925  1
  Te  Te143  1  0.56000492  0.92846294  0.77251229  1
  Te  Te144  1  0.91192071  0.22499785  0.07089183  1
  Te  Te145  1  0.91488392  0.26242262  0.41211319  1
  Te  Te146  1  0.92286909  0.24895168  0.74383583  1
  Te  Te147  1  0.90864913  0.58136448  0.06855511  1
  Te  Te148  1  0.92569336  0.58909361  0.43625185  1
  Te  Te149  1  0.90774120  0.55607834  0.77588678  1
  Te  Te150  1  0.93195417  0.91020607  0.09496051  1
  Te  Te151  1  0.91476962  0.93052039  0.42826082  1
  Te  Te152  1  0.88152330  0.93561087  0.74521191  1
  Te  Te153  1  0.23622104  0.09827442  0.25136411  1
  Te  Te154  1  0.24614758  0.09359586  0.58326490  1
  Te  Te155  1  0.23112773  0.06803847  0.89533165  1
  Te  Te156  1  0.24029347  0.39949951  0.23070492  1
  Te  Te157  1  0.23343586  0.43403402  0.60155664  1
  Te  Te158  1  0.26893830  0.42063048  0.88927186  1
  Te  Te159  1  0.24686332  0.75059114  0.24381330  1
  Te  Te160  1  0.27765285  0.73055719  0.57199368  1
  Te  Te161  1  0.23844227  0.73208749  0.91183596  1
  Te  Te162  1  0.59180341  0.08221841  0.24802922  1
  Te  Te163  1  0.59245959  0.06411862  0.60247754  1
  Te  Te164  1  0.58178887  0.10725335  0.91237580  1
  Te  Te165  1  0.57766470  0.39150256  0.24013254  1
  Te  Te166  1  0.59860161  0.40713499  0.60048715  1
  Te  Te167  1  0.59379823  0.39630692  0.92277235  1
  Te  Te168  1  0.57975096  0.73991448  0.26546680  1
  Te  Te169  1  0.59102965  0.74853598  0.57377436  1
  Te  Te170  1  0.58982881  0.74364379  0.91749075  1
  Te  Te171  1  0.93011464  0.10213843  0.23075411  1
  Te  Te172  1  0.91247749  0.08521125  0.60820356  1
  Te  Te173  1  0.88843370  0.09539162  0.92696913  1
  Te  Te174  1  0.91645427  0.42482411  0.25313310  1
  Te  Te175  1  0.92242942  0.42559736  0.59825296  1
  Te  Te176  1  0.92805193  0.43010033  0.89331414  1
  Te  Te177  1  0.90892659  0.77176930  0.27171426  1
  Te  Te178  1  0.92279929  0.75402592  0.60764300  1
  Te  Te179  1  0.92294180  0.75445030  0.90542677  1
