# generated using pymatgen
data_In2Te3
_symmetry_space_group_name_H-M   'P 1'
_cell_length_a   18.77512350
_cell_length_b   18.76910648
_cell_length_c   18.77459068
_cell_angle_alpha   89.91957580
_cell_angle_beta   89.99488765
_cell_angle_gamma   89.99433836
_symmetry_Int_Tables_number   1
_chemical_formula_structural   In2Te3
_chemical_formula_sum   'In72 Te108'
_cell_volume   6616.01446686
_cell_formula_units_Z   36
loop_
 _symmetry_equiv_pos_site_id
 _symmetry_equiv_pos_as_xyz
  1  'x, y, z'
loop_
 _atom_site_type_symbol
 _atom_site_label
 _atom_site_symmetry_multiplicity
 _atom_site_fract_x
 _atom_site_fract_y
 _atom_site_fract_z
 _atom_site_occupancy
  In  In0  1  0.02466405  0.67164985  0.34110550  1
  In  In1  1  0.48302008  0.66648545  0.80817199  1
  In  In2  1  0.16928898  0.50971285  0.64862114  1
  In  In3  1  0.48355697  0.82631183  0.64899636  1
  In  In4  1  0.01559883  0.52020041  0.50356682  1
  In  In5  1  0.66808661  0.52791331  0.84823718  1
  In  In6  1  0.48837728  0.32649827  0.48266461  1
  In  In7  1  0.50832335  0.85720037  0.35157464  1
  In  In8  1  0.01502420  -0.00326113  0.00152922  1
  In  In9  1  0.84265238  0.66218071  0.16571194  1
  In  In10  1  0.66513260  0.83632629  0.83992206  1
  In  In11  1  0.47856447  -0.03569242  0.85296018  1
  In  In12  1  0.51353105  0.50643688  -0.00676372  1
  In  In13  1  -0.00932257  0.51300901  0.83431758  1
  In  In14  1  0.17237317  -0.00173335  0.49198709  1
  In  In15  1  0.33863007  0.16306227  0.49158868  1
  In  In16  1  0.67243191  0.31805117  0.63640683  1
  In  In17  1  0.84747457  -0.00148662  0.82217225  1
  In  In18  1  0.15788956  0.00964815  0.83672427  1
  In  In19  1  0.01001311  0.85018587  0.18560175  1
  In  In20  1  0.66830274  0.65454179  0.00317509  1
  In  In21  1  0.86013228  0.81824069  0.00997361  1
  In  In22  1  0.47567115  0.64629383  0.52378166  1
  In  In23  1  0.32815297  0.33046187  -0.01297083  1
  In  In24  1  0.67156071  0.32334957  0.01510595  1
  In  In25  1  0.34893040  0.83343994  0.83802406  1
  In  In26  1  0.83880290  0.51258099  0.68849124  1
  In  In27  1  0.00638938  0.66855111  0.01528790  1
  In  In28  1  -0.00218381  0.17155470  0.82258371  1
  In  In29  1  0.51700368  0.33070053  0.16742528  1
  In  In30  1  0.83196178  0.32204523  0.18572024  1
  In  In31  1  0.85292740  0.85711620  0.64734317  1
  In  In32  1  0.33848907  0.67482081  0.00063958  1
  In  In33  1  0.67213069  0.01480520  0.02677200  1
  In  In34  1  0.84485042  0.66389326  0.82721799  1
  In  In35  1  0.50246428  0.15748191  0.34824519  1
  In  In36  1  0.67542545  0.85818284  0.21340027  1
  In  In37  1  0.46493401  0.83779608  0.00653292  1
  In  In38  1  0.65816887  0.00932603  0.63055940  1
  In  In39  1  0.84080264  0.32175675  0.82458518  1
  In  In40  1  0.01226432  0.31003457  0.64634105  1
  In  In41  1  0.66270449  0.16048685  0.83018257  1
  In  In42  1  0.31066101  0.82242649  0.51750955  1
  In  In43  1  0.18573629  -0.01468321  0.16572447  1
  In  In44  1  0.64769700  0.66597791  0.65589435  1
  In  In45  1  0.15948336  0.33468010  0.17129809  1
  In  In46  1  0.01153174  0.15484637  0.49809820  1
  In  In47  1  0.50728999  0.16210552  0.64707321  1
  In  In48  1  0.47951838  -0.00539575  0.16658915  1
  In  In49  1  0.18046431  0.33609262  0.82609353  1
  In  In50  1  0.00163015  0.00954303  0.65255678  1
  In  In51  1  0.82541637  0.87269343  0.35152831  1
  In  In52  1  0.45020271  0.35697557  0.80443511  1
  In  In53  1  0.83981928  0.30958276  0.51108169  1
  In  In54  1  0.01654402  0.32873327  0.01427296  1
  In  In55  1  0.16116367  0.66999730  0.80848913  1
  In  In56  1  0.32669033  0.14682627  0.17073929  1
  In  In57  1  0.31754327  0.16798582  0.83023412  1
  In  In58  1  0.16387134  0.66798298  0.17651644  1
  In  In59  1  0.48955311  0.48442902  0.31879634  1
  In  In60  1  0.85705438  0.49223092  0.33569292  1
  In  In61  1  0.66545198  0.49378692  0.50629787  1
  In  In62  1  0.66793225  0.69190606  0.34476296  1
  In  In63  1  0.64705823  0.49951461  0.16422698  1
  In  In64  1  0.67813570  0.17035892  0.17847632  1
  In  In65  1  0.00709659  0.33136002  0.35274893  1
  In  In66  1  0.32349982  0.33175641  0.35606215  1
  In  In67  1  0.33569746  -0.01199138  0.65825876  1
  In  In68  1  0.32521411  0.50738667  0.18081874  1
  In  In69  1  0.29526716  0.65837922  0.35303073  1
  In  In70  1  0.00433905  0.82994927  0.48384451  1
  In  In71  1  -0.01695795  0.13955428  0.19454458  1
  Te  Te72  1  0.08951320  0.08770558  0.09730122  1
  Te  Te73  1  0.07594848  0.06345827  0.39538038  1
  Te  Te74  1  0.09608041  0.10223483  0.72970893  1
  Te  Te75  1  0.10076169  0.43201581  0.07621275  1
  Te  Te76  1  0.09890033  0.42370806  0.42761431  1
  Te  Te77  1  0.06985090  0.41741776  0.74017128  1
  Te  Te78  1  0.09406038  0.77206061  0.08503490  1
  Te  Te79  1  0.11700413  0.76521370  0.40822793  1
  Te  Te80  1  0.11999843  0.76297454  0.70094831  1
  Te  Te81  1  0.42328324  0.09397226  0.07240267  1
  Te  Te82  1  0.39938503  0.06451992  0.39912355  1
  Te  Te83  1  0.42683460  0.07297768  0.75147675  1
  Te  Te84  1  0.42041086  0.42103624  0.08878424  1
  Te  Te85  1  0.39887181  0.44230913  0.43401499  1
  Te  Te86  1  0.37314796  0.45116234  0.72123771  1
  Te  Te87  1  0.37538002  0.77341073  0.10890361  1
  Te  Te88  1  0.41530524  0.74406529  0.42464327  1
  Te  Te89  1  0.38124612  0.73759062  0.71980145  1
  Te  Te90  1  0.77366629  0.10395065  0.08433112  1
  Te  Te91  1  0.74542315  0.01565588  0.38967511  1
  Te  Te92  1  0.74947972  0.07755691  0.73602020  1
  Te  Te93  1  0.75696555  0.42291269  0.09093171  1
  Te  Te94  1  0.76177151  0.40998605  0.42253164  1
  Te  Te95  1  0.74019040  0.41229497  0.75010126  1
  Te  Te96  1  0.74228842  0.76068477  0.09060829  1
  Te  Te97  1  0.76492754  0.76068209  0.43062502  1
  Te  Te98  1  0.74744083  0.75012845  0.74444665  1
  Te  Te99  1  0.08423443  0.23592173  0.26046085  1
  Te  Te100  1  0.11029271  0.25620452  0.54966913  1
  Te  Te101  1  0.09547071  0.24287935  0.91481396  1
  Te  Te102  1  0.08103825  0.57051463  0.25131300  1
  Te  Te103  1  0.10629992  0.62311550  0.56585455  1
  Te  Te104  1  0.09296339  0.58386375  0.91947970  1
  Te  Te105  1  0.08736384  0.94140900  0.27309198  1
  Te  Te106  1  0.09357475  0.90700494  0.58686061  1
  Te  Te107  1  0.08585864  0.90368007  0.91248340  1
  Te  Te108  1  0.41472061  0.25710434  0.25419143  1
  Te  Te109  1  0.40438666  0.26066166  0.59131923  1
  Te  Te110  1  0.42684832  0.24621943  0.90751632  1
  Te  Te111  1  0.41283808  0.60120274  0.26010194  1
  Te  Te112  1  0.39619129  0.57221441  0.62217968  1
  Te  Te113  1  0.40930630  0.57447261  0.90644295  1
  Te  Te114  1  0.40339348  0.91321429  0.26322501  1
  Te  Te115  1  0.42642674  0.92873152  0.55387270  1
  Te  Te116  1  0.35874584  0.94337444  0.95356595  1
  Te  Te117  1  0.75191482  0.24474250  0.28281509  1
  Te  Te118  1  0.73893807  0.21104919  0.56045733  1
  Te  Te119  1  0.75830136  0.23673038  0.92194337  1
  Te  Te120  1  0.74586242  0.58075381  0.25671644  1
  Te  Te121  1  0.75778113  0.58911771  0.58248131  1
  Te  Te122  1  0.78214351  0.57624514  0.93673911  1
  Te  Te123  1  0.77487942  0.97265635  0.23597305  1
  Te  Te124  1  0.74989904  0.91722684  0.55699591  1
  Te  Te125  1  0.76093822  0.91809476  0.92467278  1
  Te  Te126  1  0.24580921  0.24497121  0.08238869  1
  Te  Te127  1  0.22874179  0.23870063  0.42236616  1
  Te  Te128  1  0.25946693  0.25854235  0.72854664  1
  Te  Te129  1  0.24373728  0.58106915  0.07640326  1
  Te  Te130  1  0.24621144  0.56067321  0.45215024  1
  Te  Te131  1  0.25541052  0.55963299  0.76230876  1
  Te  Te132  1  0.27212771  0.89931343  0.07846091  1
  Te  Te133  1  0.25534609  0.90579027  0.40996420  1
  Te  Te134  1  0.24639030  0.91250276  0.75296412  1
  Te  Te135  1  0.57118979  0.22556745  0.07389465  1
  Te  Te136  1  0.59568338  0.24200306  0.42809906  1
  Te  Te137  1  0.57654393  0.25790920  0.74788099  1
  Te  Te138  1  0.55783682  0.60682998  0.09934705  1
  Te  Te139  1  0.57850899  0.57983129  0.41287409  1
  Te  Te140  1  0.57004488  0.56242272  0.73675919  1
  Te  Te141  1  0.58395299  0.90103377  0.08247446  1
  Te  Te142  1  0.62091775  0.93512519  0.41433995  1
  Te  Te143  1  0.58193875  0.91337724  0.73825605  1
  Te  Te144  1  0.92069970  0.23847295  0.09283534  1
  Te  Te145  1  0.90813873  0.22691497  0.40322165  1
  Te  Te146  1  0.90190396  0.23134761  0.71872465  1
  Te  Te147  1  0.92609635  0.56909609  0.08920773  1
  Te  Te148  1  0.91349760  0.60229524  0.42276399  1
  Te  Te149  1  0.94844900  0.61294965  0.72527819  1
  Te  Te150  1  0.91314938  0.93031364  0.09627017  1
  Te  Te151  1  0.94170392  0.95038748  0.41276956  1
  Te  Te152  1  0.94770090  0.90659582  0.75634767  1
  Te  Te153  1  0.24997146  0.07239584  0.27062161  1
  Te  Te154  1  0.24543987  0.08922474  0.59135726  1
  Te  Te155  1  0.23551983  0.09608674  0.92977129  1
  Te  Te156  1  0.23608568  0.42449327  0.27058193  1
  Te  Te157  1  0.24154307  0.43324718  0.54314627  1
  Te  Te158  1  0.24592302  0.43103923  0.91842619  1
  Te  Te159  1  0.24136656  0.76151799  0.26223874  1
  Te  Te160  1  0.22961091  0.72884262  0.60038469  1
  Te  Te161  1  0.24100833  0.75243977  0.91138750  1
  Te  Te162  1  0.58225664  0.07350316  0.24968736  1
  Te  Te163  1  0.56521877  0.07943579  0.53730174  1
  Te  Te164  1  0.57891521  0.06638712  0.91661242  1
  Te  Te165  1  0.60601271  0.39687644  0.27139902  1
  Te  Te166  1  0.56495204  0.41523180  0.58758596  1
  Te  Te167  1  0.59129118  0.40472818  0.91107827  1
  Te  Te168  1  0.56811184  0.75540794  0.24943028  1
  Te  Te169  1  0.58359117  0.75853319  0.55558524  1
  Te  Te170  1  0.56953300  0.74364795  0.91531231  1
  Te  Te171  1  0.89633252  0.06076020  0.28810103  1
  Te  Te172  1  0.90342780  0.08203974  0.56959366  1
  Te  Te173  1  0.91785085  0.08880173  0.92218309  1
  Te  Te174  1  0.94314650  0.41421197  0.23918106  1
  Te  Te175  1  0.91453448  0.42408499  0.58551330  1
  Te  Te176  1  0.91966188  0.40827796  0.92054542  1
  Te  Te177  1  0.90772862  0.76182479  0.26075373  1
  Te  Te178  1  0.91724003  0.74762442  0.57322451  1
  Te  Te179  1  0.94397806  0.75375641  0.90072632  1
