# generated using pymatgen
data_In2Te3
_symmetry_space_group_name_H-M   'P 1'
_cell_length_a   18.91304641
_cell_length_b   18.88728677
_cell_length_c   18.87862516
_cell_angle_alpha   89.92215759
_cell_angle_beta   90.08720821
_cell_angle_gamma   90.03780434
_symmetry_Int_Tables_number   1
_chemical_formula_structural   In2Te3
_chemical_formula_sum   'In72 Te108'
_cell_volume   6743.73394760
_cell_formula_units_Z   36
loop_
 _symmetry_equiv_pos_site_id
 _symmetry_equiv_pos_as_xyz
  1  'x, y, z'
loop_
 _atom_site_type_symbol
 _atom_site_label
 _atom_site_symmetry_multiplicity
 _atom_site_fract_x
 _atom_site_fract_y
 _atom_site_fract_z
 _atom_site_occupancy
  In  In0  1  0.52638223  0.32496093  0.50321820  1
  In  In1  1  0.00509235  0.50726781  0.14834242  1
  In  In2  1  0.00001863  0.48453475  0.49641718  1
  In  In3  1  0.83549717  0.50018372  0.34446828  1
  In  In4  1  0.00430865  0.30228210  0.30377615  1
  In  In5  1  0.86372897  -0.00095353  0.51236347  1
  In  In6  1  0.48461803  0.50041351  0.30126990  1
  In  In7  1  0.32514917  0.83527494  0.51641064  1
  In  In8  1  0.68483363  0.02618292  0.29952934  1
  In  In9  1  -0.02840474  0.66743860  0.27232254  1
  In  In10  1  0.32193234  0.33592370  0.29904767  1
  In  In11  1  -0.01019104  0.20026015  0.85760720  1
  In  In12  1  0.68944029  0.21248092  0.84451843  1
  In  In13  1  0.16198318  0.68150210  0.15671372  1
  In  In14  1  -0.02640434  0.81374745  0.49427515  1
  In  In15  1  0.49893783  0.48967700  -0.01041006  1
  In  In16  1  -0.01382386  0.65009752  -0.00806317  1
  In  In17  1  0.19194041  0.32357521  0.87331053  1
  In  In18  1  0.51420212  -0.01008996  0.45399301  1
  In  In19  1  0.12223255  0.81736136  0.30166543  1
  In  In20  1  0.67847320  0.01425532  -0.01169212  1
  In  In21  1  0.66250537  -0.01374571  0.69292616  1
  In  In22  1  0.35700682  0.63932884  0.32982587  1
  In  In23  1  0.48296019  0.84337089  -0.00328495  1
  In  In24  1  0.15670356  0.50713951  0.00517305  1
  In  In25  1  0.20274002  0.06861872  0.08456111  1
  In  In26  1  0.83363270  0.83675270  0.00957080  1
  In  In27  1  0.32700732  -0.01495568  0.32312138  1
  In  In28  1  0.49102115  0.83967117  0.32186033  1
  In  In29  1  0.67397734  0.18620621  0.52929609  1
  In  In30  1  0.16158212  0.18505024  0.29920097  1
  In  In31  1  0.00178802  0.83787393  0.84960642  1
  In  In32  1  0.19944089  0.64352532  0.48632081  1
  In  In33  1  0.17482167  0.34343433  0.49391067  1
  In  In34  1  0.50524266  0.15559236  0.67453562  1
  In  In35  1  0.48429235  0.81867487  0.67349403  1
  In  In36  1  -0.05124821  0.39498533  0.72009459  1
  In  In37  1  0.35555245  0.32627954  0.68437496  1
  In  In38  1  0.16304178  0.81308097  -0.01483982  1
  In  In39  1  0.16079969  -0.00017509  0.53334356  1
  In  In40  1  0.47558166  0.31822467  0.85725168  1
  In  In41  1  0.49131942  0.67151640  0.83322179  1
  In  In42  1  0.50212065  0.48014159  0.69317821  1
  In  In43  1  0.85333775  0.32931459  0.11932245  1
  In  In44  1  0.84078965  0.02815885  0.83159528  1
  In  In45  1  0.32944944  0.64881713  0.70487169  1
  In  In46  1  0.66129878  0.81688698  0.80684804  1
  In  In47  1  0.44845995  0.05352616  0.91827082  1
  In  In48  1  0.31892237  0.00210322  0.68723422  1
  In  In49  1  0.16883845  0.83393461  0.71141107  1
  In  In50  1  0.66928815  0.66794465  0.31897581  1
  In  In51  1  -0.00359694  0.18006561  0.49704852  1
  In  In52  1  0.35947183  0.50465346  0.49950001  1
  In  In53  1  0.84081424  0.01290762  0.16328811  1
  In  In54  1  0.67763684  0.47260646  0.15184182  1
  In  In55  1  0.69849045  0.36224127  0.68566345  1
  In  In56  1  -0.01517610  0.62264538  0.68312104  1
  In  In57  1  0.53704801  0.66462753  0.50026902  1
  In  In58  1  0.69458183  0.61313606  0.66035771  1
  In  In59  1  0.83056890  0.80680637  0.67483588  1
  In  In60  1  0.17572234  0.50105581  0.70439632  1
  In  In61  1  0.82727141  0.17930145  0.33593426  1
  In  In62  1  0.02036684  0.01827024  0.68409774  1
  In  In63  1  0.13902535  0.17691491  0.68628466  1
  In  In64  1  0.70946816  0.78983859  0.49392544  1
  In  In65  1  0.68693218  0.62792198  -0.02200828  1
  In  In66  1  0.01474377  0.00378373  0.31911710  1
  In  In67  1  0.65351468  0.19052655  0.17312718  1
  In  In68  1  0.64825940  0.81610814  0.14876707  1
  In  In69  1  0.32684610  0.81945365  0.15446996  1
  In  In70  1  0.49547658  0.16988317  0.34484448  1
  In  In71  1  0.48967990  0.32499141  0.13209168  1
  Te  Te72  1  0.06736276  0.13450404  0.07871130  1
  Te  Te73  1  0.09195990  0.08845849  0.42224376  1
  Te  Te74  1  0.08666474  0.08849461  0.79817773  1
  Te  Te75  1  0.07939288  0.40055618  0.07782973  1
  Te  Te76  1  0.07974765  0.40531104  0.39410291  1
  Te  Te77  1  0.09334495  0.39968807  0.77724824  1
  Te  Te78  1  0.05333785  0.75298425  0.08123439  1
  Te  Te79  1  0.09408379  0.74406460  0.43136454  1
  Te  Te80  1  0.06346744  0.73578913  0.75432684  1
  Te  Te81  1  0.40988582  0.11371407  0.05164805  1
  Te  Te82  1  0.39713060  0.08040720  0.42070276  1
  Te  Te83  1  0.40870064  0.09288440  0.77020946  1
  Te  Te84  1  0.39138448  0.41444484  0.06506383  1
  Te  Te85  1  0.42648921  0.39861563  0.41142595  1
  Te  Te86  1  0.39361273  0.43286814  0.78557198  1
  Te  Te87  1  0.40989243  0.73424313  0.06627902  1
  Te  Te88  1  0.42062334  0.74948390  0.43403177  1
  Te  Te89  1  0.38512283  0.77259202  0.77761040  1
  Te  Te90  1  0.74912079  0.10605988  0.08493245  1
  Te  Te91  1  0.75637799  0.07424878  0.42424835  1
  Te  Te92  1  0.74153920  0.10407684  0.74434542  1
  Te  Te93  1  0.72523222  0.37119608  0.05055203  1
  Te  Te94  1  0.73825914  0.44606226  0.43893093  1
  Te  Te95  1  0.77309929  0.44502347  0.78671281  1
  Te  Te96  1  0.75003874  0.72964313  0.07762973  1
  Te  Te97  1  0.78918864  0.73982724  0.37815803  1
  Te  Te98  1  0.75884299  0.70657662  0.76365294  1
  Te  Te99  1  0.11362175  0.28695032  0.20276458  1
  Te  Te100  1  0.07536585  0.27505923  0.58683792  1
  Te  Te101  1  0.09392603  0.24632723  0.95825643  1
  Te  Te102  1  0.09221937  0.58190051  0.24877212  1
  Te  Te103  1  0.09899537  0.56994345  0.58857364  1
  Te  Te104  1  0.06485026  0.56391104  0.90324419  1
  Te  Te105  1  0.08992265  0.93095351  0.21663186  1
  Te  Te106  1  0.06413197  0.89803916  0.59197071  1
  Te  Te107  1  0.07251226  0.92428266  0.94350262  1
  Te  Te108  1  0.41417412  0.23592202  0.23450385  1
  Te  Te109  1  0.42300379  0.24091745  0.57708050  1
  Te  Te110  1  0.38903853  0.23387419  0.94687173  1
  Te  Te111  1  0.38678543  0.56069343  0.20593823  1
  Te  Te112  1  0.43358134  0.59830494  0.60108076  1
  Te  Te113  1  0.41599493  0.60481342  0.94001956  1
  Te  Te114  1  0.41956610  0.92563838  0.21891533  1
  Te  Te115  1  0.42090551  0.93020337  0.58657831  1
  Te  Te116  1  0.38039771  0.92368580  0.93040531  1
  Te  Te117  1  0.76278436  0.27358927  0.23785210  1
  Te  Te118  1  0.77213000  0.27197955  0.59438085  1
  Te  Te119  1  0.79892426  0.28830833  0.92071581  1
  Te  Te120  1  0.75577799  0.57348184  0.23654407  1
  Te  Te121  1  0.76569146  0.55713967  0.54407691  1
  Te  Te122  1  0.79792992  0.53207752  0.94645557  1
  Te  Te123  1  0.74366274  0.90744766  0.22944249  1
  Te  Te124  1  0.75583964  0.91521744  0.58643121  1
  Te  Te125  1  0.74854257  0.91349455  0.89555734  1
  Te  Te126  1  0.28051529  0.21190736  0.06446677  1
  Te  Te127  1  0.25277110  0.24880978  0.40526108  1
  Te  Te128  1  0.25640439  0.24170072  0.76169484  1
  Te  Te129  1  0.24761917  0.60873771  0.06516442  1
  Te  Te130  1  0.25107495  0.53703772  0.39140792  1
  Te  Te131  1  0.23161557  0.59825654  0.80699454  1
  Te  Te132  1  0.23976304  0.91245410  0.07533293  1
  Te  Te133  1  0.23469096  0.91782098  0.42577703  1
  Te  Te134  1  0.22787856  0.94388197  0.78652514  1
  Te  Te135  1  0.59205870  0.25209922  0.05304069  1
  Te  Te136  1  0.61301906  0.24806735  0.40405858  1
  Te  Te137  1  0.57998105  0.26915158  0.74327166  1
  Te  Te138  1  0.58994410  0.57524837  0.08198827  1
  Te  Te139  1  0.58641655  0.56637282  0.39945614  1
  Te  Te140  1  0.59122326  0.57550231  0.76887492  1
  Te  Te141  1  0.58292231  0.93183869  0.07349247  1
  Te  Te142  1  0.60833226  0.87993995  0.41216963  1
  Te  Te143  1  0.55312278  0.91873787  0.77098113  1
  Te  Te144  1  0.93342362  0.21402527  0.06932684  1
  Te  Te145  1  0.90553239  0.27571128  0.42307785  1
  Te  Te146  1  0.91032129  0.25362638  0.74572129  1
  Te  Te147  1  0.89050483  0.56989687  0.07642238  1
  Te  Te148  1  0.94209647  0.59128475  0.40388638  1
  Te  Te149  1  0.90212116  0.53400640  0.76992383  1
  Te  Te150  1  0.92364693  0.93722723  0.06733189  1
  Te  Te151  1  0.91604142  0.91653228  0.39602815  1
  Te  Te152  1  0.91029195  0.91858784  0.74164456  1
  Te  Te153  1  0.25086980  0.08176161  0.23456711  1
  Te  Te154  1  0.24592791  0.10436136  0.59860745  1
  Te  Te155  1  0.26097866  0.11336098  0.95216341  1
  Te  Te156  1  0.26329228  0.45769623  0.24505530  1
  Te  Te157  1  0.26471861  0.42181473  0.59724659  1
  Te  Te158  1  0.27078731  0.42197420  0.95204834  1
  Te  Te159  1  0.25891016  0.75097329  0.27773343  1
  Te  Te160  1  0.24504491  0.74099874  0.60587323  1
  Te  Te161  1  0.23404857  0.73619677  0.88257467  1
  Te  Te162  1  0.56140045  0.08217936  0.23697127  1
  Te  Te163  1  0.58542380  0.06929125  0.57290963  1
  Te  Te164  1  0.59556189  0.10743042  0.90206724  1
  Te  Te165  1  0.57712916  0.39863408  0.23973840  1
  Te  Te166  1  0.59621304  0.42981255  0.58612299  1
  Te  Te167  1  0.58446801  0.40440439  0.90507824  1
  Te  Te168  1  0.55623991  0.73161056  0.23677727  1
  Te  Te169  1  0.60493935  0.75115001  0.60724719  1
  Te  Te170  1  0.59477533  0.74816575  0.92543894  1
  Te  Te171  1  0.92777325  0.10695569  0.24875993  1
  Te  Te172  1  0.91978585  0.10367661  0.60546128  1
  Te  Te173  1  0.90820268  0.10149522  0.93966914  1
  Te  Te174  1  0.91677593  0.41251330  0.23895609  1
  Te  Te175  1  0.88945969  0.44746280  0.58814560  1
  Te  Te176  1  0.88954148  0.40564401  0.90856658  1
  Te  Te177  1  0.88387543  0.77977155  0.25486536  1
  Te  Te178  1  0.90576095  0.71042358  0.58468677  1
  Te  Te179  1  0.89788345  0.74374382  0.90700136  1
