# generated using pymatgen
data_In2Te3
_symmetry_space_group_name_H-M   'P 1'
_cell_length_a   18.93070040
_cell_length_b   18.95177079
_cell_length_c   18.95114060
_cell_angle_alpha   89.94262376
_cell_angle_beta   89.88585824
_cell_angle_gamma   90.07129210
_symmetry_Int_Tables_number   1
_chemical_formula_structural   In2Te3
_chemical_formula_sum   'In72 Te108'
_cell_volume   6799.08411965
_cell_formula_units_Z   36
loop_
 _symmetry_equiv_pos_site_id
 _symmetry_equiv_pos_as_xyz
  1  'x, y, z'
loop_
 _atom_site_type_symbol
 _atom_site_label
 _atom_site_symmetry_multiplicity
 _atom_site_fract_x
 _atom_site_fract_y
 _atom_site_fract_z
 _atom_site_occupancy
  In  In0  1  0.84450112  0.01626322  0.15645372  1
  In  In1  1  0.17604121  0.80790262  -0.01166362  1
  In  In2  1  0.34133677  0.84800188  0.17028934  1
  In  In3  1  0.00418432  0.19140656  0.48900911  1
  In  In4  1  0.18151379  0.36344464  0.49583599  1
  In  In5  1  0.32659411  0.50207280  0.15094473  1
  In  In6  1  0.66427090  0.31229115  0.01147359  1
  In  In7  1  0.31954007  0.34452001  0.33973870  1
  In  In8  1  0.80394432  0.48335141  0.35427351  1
  In  In9  1  0.01056103  0.00852825  0.01343370  1
  In  In10  1  0.00890103  0.82155859  0.17147227  1
  In  In11  1  0.67619585  0.03645784  0.34400670  1
  In  In12  1  0.78184904  0.32080082  0.19877932  1
  In  In13  1  0.66886826  0.50542783  0.80751079  1
  In  In14  1  0.16531025  0.33327815  0.15147604  1
  In  In15  1  -0.00395253  -0.01161606  0.67981346  1
  In  In16  1  0.19837736  0.18051486  0.67314316  1
  In  In17  1  -0.00196592  0.65528294  0.68323785  1
  In  In18  1  0.81748598  0.64318825  0.50271482  1
  In  In19  1  0.47942615  0.17217249  0.00796461  1
  In  In20  1  0.37006349  0.19134788  0.52710448  1
  In  In21  1  0.51198652  0.65533568  0.84237047  1
  In  In22  1  0.17771201  0.66188691  0.83309460  1
  In  In23  1  -0.02887166  0.49341876  0.51116272  1
  In  In24  1  0.51800114  0.48497310  0.32813758  1
  In  In25  1  0.83227258  0.83521400  0.33305411  1
  In  In26  1  0.52036771  0.01218762  0.50420698  1
  In  In27  1  0.50725564  0.81982574  0.67445823  1
  In  In28  1  0.49512977  0.83238746  0.33592712  1
  In  In29  1  0.62835166  0.01309331  -0.00315097  1
  In  In30  1  0.34280227  0.48129656  0.83513875  1
  In  In31  1  0.34066537  0.82152870  0.48595491  1
  In  In32  1  0.51677621  0.31638648  0.82277716  1
  In  In33  1  0.84028239  -0.01482098  0.83822955  1
  In  In34  1  0.83096520  0.79608037  -0.01180532  1
  In  In35  1  0.18391989  0.33186487  0.83055961  1
  In  In36  1  0.65989363  0.49161911  0.17641677  1
  In  In37  1  0.20775154  0.12773821  0.31301257  1
  In  In38  1  0.82926093  0.16494813  -0.00897694  1
  In  In39  1  -0.01699360  0.33687443  0.67563516  1
  In  In40  1  0.19780007  0.17593252  0.01108305  1
  In  In41  1  0.20350370  0.86735800  0.66949341  1
  In  In42  1  0.00284909  0.33647636  -0.02303471  1
  In  In43  1  0.16323546  0.68744088  0.16818537  1
  In  In44  1  0.15314016  0.50819081  -0.00644259  1
  In  In45  1  0.81827257  0.65716470  0.79191811  1
  In  In46  1  0.20033341  0.00938686  0.80846686  1
  In  In47  1  0.18427068  0.86997724  0.31025057  1
  In  In48  1  -0.01328194  0.17722661  0.17113249  1
  In  In49  1  -0.03728996  0.32006308  0.32818955  1
  In  In50  1  0.48918032  0.19060952  0.34670972  1
  In  In51  1  0.83130380  0.17112586  0.66175672  1
  In  In52  1  0.32274369  -0.01075705  0.00686222  1
  In  In53  1  0.00031224  0.69569757  0.31088548  1
  In  In54  1  0.69222231  0.82116073  0.82850436  1
  In  In55  1  0.17250147  0.48802943  0.66036159  1
  In  In56  1  0.85500729  0.53122023  0.01152937  1
  In  In57  1  0.19301526  0.68087476  0.50864376  1
  In  In58  1  0.63695058  0.48561967  0.51456734  1
  In  In59  1  0.16002320  0.53715391  0.35808796  1
  In  In60  1  0.66902439  -0.01157735  0.65624718  1
  In  In61  1  0.15910276  0.03133060  0.50246768  1
  In  In62  1  0.67380331  0.82153560  0.52635617  1
  In  In63  1  0.00973975  0.84344305  0.83111752  1
  In  In64  1  0.48743842  0.65952639  0.16596516  1
  In  In65  1  0.39032859  0.50155828  0.54470955  1
  In  In66  1  0.63378675  0.16368106  0.51148412  1
  In  In67  1  0.80861459  0.33217775  0.84325725  1
  In  In68  1  0.67044083  0.83427361  0.14386356  1
  In  In69  1  -0.01297121  0.81718465  0.48210494  1
  In  In70  1  0.50745080  0.83993527  0.00086533  1
  In  In71  1  0.48395915  0.48184406  0.00110234  1
  Te  Te72  1  0.09555744  0.09851897  0.09849393  1
  Te  Te73  1  0.07675805  0.09706124  0.39465218  1
  Te  Te74  1  0.09164385  0.08970838  0.74010709  1
  Te  Te75  1  0.06350416  0.42394241  0.08492763  1
  Te  Te76  1  0.06610405  0.41908021  0.41119149  1
  Te  Te77  1  0.08069934  0.41913137  0.75878941  1
  Te  Te78  1  0.06199327  0.73272144  0.05650974  1
  Te  Te79  1  0.10767497  0.75690722  0.40820690  1
  Te  Te80  1  0.09642483  0.76698433  0.73058184  1
  Te  Te81  1  0.39707174  0.08050507  0.10032448  1
  Te  Te82  1  0.41240379  0.08563590  0.42714951  1
  Te  Te83  1  0.39410253  0.07624429  0.70978783  1
  Te  Te84  1  0.42246490  0.40030041  0.10762878  1
  Te  Te85  1  0.42421683  0.41164532  0.42393781  1
  Te  Te86  1  0.45220028  0.42986243  0.74753332  1
  Te  Te87  1  0.40724088  0.75128362  0.07443916  1
  Te  Te88  1  0.41393284  0.72825363  0.40076687  1
  Te  Te89  1  0.42406611  0.75590151  0.77969868  1
  Te  Te90  1  0.73412136  0.08788830  0.07972165  1
  Te  Te91  1  0.74497263  0.07401468  0.46876565  1
  Te  Te92  1  0.75241336  0.07286067  0.75200928  1
  Te  Te93  1  0.75668406  0.41659391  0.07439136  1
  Te  Te94  1  0.70966112  0.39045997  0.41910345  1
  Te  Te95  1  0.73044180  0.39389022  0.73562091  1
  Te  Te96  1  0.73706030  0.72389058  0.07451438  1
  Te  Te97  1  0.74379570  0.74328333  0.41476283  1
  Te  Te98  1  0.72519382  0.73845229  0.71275315  1
  Te  Te99  1  0.08568659  0.25743824  0.25663516  1
  Te  Te100  1  0.09504817  0.26740158  0.58940610  1
  Te  Te101  1  0.09624942  0.23741648  0.91280647  1
  Te  Te102  1  0.07648387  0.58436494  0.23992561  1
  Te  Te103  1  0.08709622  0.58322797  0.57342013  1
  Te  Te104  1  0.07280254  0.58371239  0.89719375  1
  Te  Te105  1  0.06556824  0.93125702  0.25032862  1
  Te  Te106  1  0.08660237  0.91632031  0.57455484  1
  Te  Te107  1  0.09958831  0.93622463  0.91107351  1
  Te  Te108  1  0.38553786  0.24523399  0.25391926  1
  Te  Te109  1  0.48513326  0.26390593  0.59210702  1
  Te  Te110  1  0.41221961  0.26249408  0.91151642  1
  Te  Te111  1  0.40644416  0.57121056  0.25859776  1
  Te  Te112  1  0.46225320  0.61346593  0.61037538  1
  Te  Te113  1  0.40354004  0.58589147  0.92668063  1
  Te  Te114  1  0.40421018  0.93439732  0.27380108  1
  Te  Te115  1  0.43317646  0.90501024  0.57094061  1
  Te  Te116  1  0.43867244  0.94605348  0.92312559  1
  Te  Te117  1  0.73916715  0.19310728  0.25398137  1
  Te  Te118  1  0.71228879  0.24613148  0.61049875  1
  Te  Te119  1  0.72009708  0.22209234  0.90255875  1
  Te  Te120  1  0.73361270  0.57975637  0.26896630  1
  Te  Te121  1  0.74812316  0.55019798  0.59188951  1
  Te  Te122  1  0.75258254  0.58270730  0.90716338  1
  Te  Te123  1  0.74759749  0.93091994  0.24360010  1
  Te  Te124  1  0.76833177  0.92971448  0.56234474  1
  Te  Te125  1  0.74458290  0.92394289  0.93969353  1
  Te  Te126  1  0.27960681  0.25146849  0.10862309  1
  Te  Te127  1  0.24874300  0.24186612  0.43413156  1
  Te  Te128  1  0.28898601  0.26364357  0.75231769  1
  Te  Te129  1  0.24469659  0.60196634  0.07167513  1
  Te  Te130  1  0.27269553  0.56581849  0.45266641  1
  Te  Te131  1  0.26437655  0.57511018  0.74307256  1
  Te  Te132  1  0.22393829  0.90640248  0.09093100  1
  Te  Te133  1  0.25178899  0.93237927  0.42866473  1
  Te  Te134  1  0.31513026  0.93909638  0.74184660  1
  Te  Te135  1  0.55776161  0.26286680  0.09927386  1
  Te  Te136  1  0.59909444  0.26940609  0.41271768  1
  Te  Te137  1  0.57720127  0.23351162  0.71440963  1
  Te  Te138  1  0.57722993  0.57471043  0.07881585  1
  Te  Te139  1  0.60125398  0.57893126  0.40458767  1
  Te  Te140  1  0.56610564  0.57867030  0.72400374  1
  Te  Te141  1  0.56184862  0.93411314  0.10862184  1
  Te  Te142  1  0.59918386  0.91283943  0.41626533  1
  Te  Te143  1  0.59125889  0.91243097  0.76301776  1
  Te  Te144  1  0.90583086  0.26359917  0.07652486  1
  Te  Te145  1  0.88309791  0.25988331  0.43648685  1
  Te  Te146  1  0.91182619  0.24327479  0.77031220  1
  Te  Te147  1  0.92672549  0.62900138  0.09023547  1
  Te  Te148  1  0.92777363  0.59259844  0.40287988  1
  Te  Te149  1  0.89557040  0.55613966  0.71591830  1
  Te  Te150  1  0.91336131  0.90516523  0.06814430  1
  Te  Te151  1  0.93103259  0.92163968  0.39738425  1
  Te  Te152  1  0.89681263  0.88817084  0.73687291  1
  Te  Te153  1  0.30124999  0.05771898  0.22349815  1
  Te  Te154  1  0.27737396  0.07779573  0.59151852  1
  Te  Te155  1  0.27517110  0.09708531  0.90704683  1
  Te  Te156  1  0.22651295  0.43606450  0.25782235  1
  Te  Te157  1  0.28274760  0.40316212  0.60074907  1
  Te  Te158  1  0.25528342  0.41047219  0.93930315  1
  Te  Te159  1  0.26204083  0.74840859  0.26318018  1
  Te  Te160  1  0.27891247  0.74816076  0.61097341  1
  Te  Te161  1  0.26861746  0.76731729  0.88284558  1
  Te  Te162  1  0.58502700  0.11277870  0.25882693  1
  Te  Te163  1  0.53017143  0.07112029  0.64872917  1
  Te  Te164  1  0.54287151  0.08614705  0.90263843  1
  Te  Te165  1  0.57210450  0.38556771  0.23116577  1
  Te  Te166  1  0.53071310  0.41363085  0.59586624  1
  Te  Te167  1  0.59644947  0.42002126  0.91924109  1
  Te  Te168  1  0.58234125  0.75193016  0.23943298  1
  Te  Te169  1  0.56352586  0.72886408  0.56681614  1
  Te  Te170  1  0.60125608  0.74701271  0.92551738  1
  Te  Te171  1  0.88763477  0.11176069  0.26202693  1
  Te  Te172  1  0.93618397  0.09082059  0.58484082  1
  Te  Te173  1  0.93014644  0.08464344  0.90987243  1
  Te  Te174  1  0.89066784  0.42000243  0.24299766  1
  Te  Te175  1  0.89552502  0.37735503  0.56197165  1
  Te  Te176  1  0.90738329  0.43013602  0.90746528  1
  Te  Te177  1  0.88681704  0.74005315  0.22002209  1
  Te  Te178  1  0.91240396  0.73497789  0.58158497  1
  Te  Te179  1  0.91878193  0.73410432  0.88359854  1
