# generated using pymatgen
data_In2Te3
_symmetry_space_group_name_H-M   'P 1'
_cell_length_a   18.77858771
_cell_length_b   18.77772832
_cell_length_c   18.78201226
_cell_angle_alpha   89.97809129
_cell_angle_beta   90.03688518
_cell_angle_gamma   89.95609938
_symmetry_Int_Tables_number   1
_chemical_formula_structural   In2Te3
_chemical_formula_sum   'In72 Te108'
_cell_volume   6622.89467942
_cell_formula_units_Z   36
loop_
 _symmetry_equiv_pos_site_id
 _symmetry_equiv_pos_as_xyz
  1  'x, y, z'
loop_
 _atom_site_type_symbol
 _atom_site_label
 _atom_site_symmetry_multiplicity
 _atom_site_fract_x
 _atom_site_fract_y
 _atom_site_fract_z
 _atom_site_occupancy
  In  In0  1  0.18280225  0.18437069  0.33944385  1
  In  In1  1  0.35208191  0.50666937  0.82713760  1
  In  In2  1  0.35009559  0.34197016  -0.00809344  1
  In  In3  1  -0.00722156  0.80364171  0.49138471  1
  In  In4  1  0.17083783  0.02837896  0.16217177  1
  In  In5  1  0.48770380  0.17633599  0.32517110  1
  In  In6  1  0.63597845  0.52355260  0.81655357  1
  In  In7  1  0.82305015  0.49424836  0.67297823  1
  In  In8  1  0.82563115  0.34906574  0.15949422  1
  In  In9  1  0.82814013  0.64643030  0.16267139  1
  In  In10  1  0.00923251  0.00632401  0.32913456  1
  In  In11  1  0.67161666  0.32985848  0.00042495  1
  In  In12  1  0.31927029  -0.00227881  0.68452604  1
  In  In13  1  -0.00014900  0.80785739  0.14183859  1
  In  In14  1  0.32968779  0.84219557  0.13099834  1
  In  In15  1  0.63189642  0.47658916  0.51660554  1
  In  In16  1  0.83592370  0.85281901  -0.00751298  1
  In  In17  1  0.31484793  0.69230704  -0.02518881  1
  In  In18  1  0.83230694  -0.00438345  0.15003665  1
  In  In19  1  0.16037957  0.81737385  0.33847988  1
  In  In20  1  0.82241148  0.00166429  0.82197170  1
  In  In21  1  0.17950206  0.33919743  0.17988559  1
  In  In22  1  0.33366727  0.33846621  0.33403686  1
  In  In23  1  0.17043652  0.01668079  0.52395279  1
  In  In24  1  -0.00229400  0.50403736  0.82388432  1
  In  In25  1  0.17226594  0.50183235  -0.00494513  1
  In  In26  1  0.03676880  0.67509602  0.32948787  1
  In  In27  1  0.00753170  0.33627226  0.65738624  1
  In  In28  1  0.49710593  0.18812169  -0.00212514  1
  In  In29  1  0.82576768  0.34538080  0.83667373  1
  In  In30  1  0.81160481  -0.01549909  0.54738975  1
  In  In31  1  0.65537865  0.65670324  -0.01882837  1
  In  In32  1  0.49205848  0.50153700  0.01599614  1
  In  In33  1  0.48703157  0.00545300  0.82166476  1
  In  In34  1  0.01872570  0.15065815  0.82849884  1
  In  In35  1  0.81708388  0.15998576  0.66662752  1
  In  In36  1  0.33993971  0.01083932  -0.02682333  1
  In  In37  1  0.65590754  0.34512517  0.33730179  1
  In  In38  1  0.51950945  0.80368769  -0.02876463  1
  In  In39  1  0.35718895  0.01216145  0.35435646  1
  In  In40  1  0.17045208  0.18975828  0.68750677  1
  In  In41  1  0.19563120  0.48993109  0.67399302  1
  In  In42  1  0.17300811  0.64852185  0.16201061  1
  In  In43  1  0.53261800  0.84314243  0.34535474  1
  In  In44  1  0.48809156  0.81822895  0.68667428  1
  In  In45  1  0.17571329  0.82103999  0.66362644  1
  In  In46  1  0.49742405  0.67012481  0.51805749  1
  In  In47  1  0.50723987  0.02109965  0.49947592  1
  In  In48  1  0.82930923  0.49689676  0.33839428  1
  In  In49  1  0.68542578  0.67277668  0.33065533  1
  In  In50  1  0.68404582  0.00258148  -0.01548513  1
  In  In51  1  0.01017336  0.32668453  0.34029964  1
  In  In52  1  0.00200683  0.32785925  -0.00768815  1
  In  In53  1  0.64933666  0.82701039  0.17762362  1
  In  In54  1  0.31709651  0.81846527  0.52279530  1
  In  In55  1  0.50362572  0.32018775  0.80104160  1
  In  In56  1  0.81846193  0.64573239  0.52918326  1
  In  In57  1  -0.01503320  0.66160469  0.66045276  1
  In  In58  1  0.49644069  0.01005902  0.16341436  1
  In  In59  1  0.84137926  0.18023529  0.34328401  1
  In  In60  1  0.49479164  0.48920051  0.31971674  1
  In  In61  1  0.62233645  0.01106286  0.35869739  1
  In  In62  1  0.00963215  0.49261224  0.48046376  1
  In  In63  1  0.83191619  0.17854038  -0.02066563  1
  In  In64  1  0.33985870  0.48579642  0.51781992  1
  In  In65  1  -0.01288553  0.01518074  0.67059654  1
  In  In66  1  0.82029243  0.83265019  0.34852988  1
  In  In67  1  0.17844749  0.15387002  -0.01008159  1
  In  In68  1  0.33484022  0.63558185  0.35093946  1
  In  In69  1  0.67246004  0.17194399  0.51275585  1
  In  In70  1  -0.00898953  0.66027607  -0.01010001  1
  In  In71  1  0.01703625  0.84373148  0.85574633  1
  Te  Te72  1  0.07251528  0.09774187  0.07795549  1
  Te  Te73  1  0.08632703  0.09693680  0.42334663  1
  Te  Te74  1  0.10760446  0.05456147  0.75187459  1
  Te  Te75  1  0.08383126  0.41740186  0.08518661  1
  Te  Te76  1  0.11064411  0.41238058  0.41009491  1
  Te  Te77  1  0.09542771  0.40675312  0.75956530  1
  Te  Te78  1  0.10517600  0.73966222  0.05882632  1
  Te  Te79  1  0.11633346  0.72430335  0.45197542  1
  Te  Te80  1  0.07524736  0.74512216  0.75065704  1
  Te  Te81  1  0.40256813  0.09755420  0.08198740  1
  Te  Te82  1  0.40649911  0.12368048  0.44559356  1
  Te  Te83  1  0.42042839  0.09727663  0.72559215  1
  Te  Te84  1  0.41854256  0.40693687  0.10553691  1
  Te  Te85  1  0.43694100  0.40513174  0.43128280  1
  Te  Te86  1  0.39951523  0.40179349  0.72464523  1
  Te  Te87  1  0.42757825  0.74129683  0.07694586  1
  Te  Te88  1  0.41316218  0.75986212  0.41674300  1
  Te  Te89  1  0.42640436  0.70639126  0.76142758  1
  Te  Te90  1  0.74494524  0.10208869  0.08217429  1
  Te  Te91  1  0.75152065  0.07053735  0.41957843  1
  Te  Te92  1  0.72347860  0.08989750  0.75674369  1
  Te  Te93  1  0.75449352  0.43475355  0.06264993  1
  Te  Te94  1  0.74915599  0.41382929  0.43744792  1
  Te  Te95  1  0.72136156  0.40966003  0.74774572  1
  Te  Te96  1  0.75591012  0.76213140  0.08899525  1
  Te  Te97  1  0.73878345  0.75359534  0.44808071  1
  Te  Te98  1  0.73918920  0.76834265  0.67250543  1
  Te  Te99  1  0.08107719  0.23678106  0.23805440  1
  Te  Te100  1  0.08797984  0.24241524  0.57765036  1
  Te  Te101  1  0.10001527  0.25646134  0.90248117  1
  Te  Te102  1  0.09199277  0.56374076  0.25205994  1
  Te  Te103  1  0.08022080  0.56325804  0.59622796  1
  Te  Te104  1  0.09617015  0.59340809  0.89923220  1
  Te  Te105  1  0.08450561  0.90749196  0.23830536  1
  Te  Te106  1  0.07398978  0.90894694  0.57677706  1
  Te  Te107  1  0.12876996  0.90915188  0.92543158  1
  Te  Te108  1  0.41335273  0.26303458  0.23236053  1
  Te  Te109  1  0.44504085  0.29272210  0.61770285  1
  Te  Te110  1  0.39904981  0.23550010  0.88510952  1
  Te  Te111  1  0.41071641  0.58129655  0.23868015  1
  Te  Te112  1  0.43341634  0.56755702  0.60726520  1
  Te  Te113  1  0.42891230  0.60301841  0.91780290  1
  Te  Te114  1  0.41696394  0.91102736  0.24830934  1
  Te  Te115  1  0.41349417  0.92128447  0.57982196  1
  Te  Te116  1  0.41714762  0.89685800  0.90634537  1
  Te  Te117  1  0.74618973  0.25519805  0.25110587  1
  Te  Te118  1  0.75734721  0.26864700  0.58593035  1
  Te  Te119  1  0.72595229  0.24028524  0.88838830  1
  Te  Te120  1  0.73016596  0.55812848  0.23953308  1
  Te  Te121  1  0.70905574  0.57483210  0.60751377  1
  Te  Te122  1  0.74706788  0.57089047  0.90288946  1
  Te  Te123  1  0.74021439  0.92438763  0.25417907  1
  Te  Te124  1  0.72433256  0.91786275  0.64987665  1
  Te  Te125  1  0.73125820  0.89357341  0.88885765  1
  Te  Te126  1  0.25506397  0.25455250  0.07679221  1
  Te  Te127  1  0.25524142  0.26624610  0.43926124  1
  Te  Te128  1  0.27316707  0.22904057  0.78608189  1
  Te  Te129  1  0.27638287  0.57792904  0.07511968  1
  Te  Te130  1  0.24028102  0.56055975  0.43258134  1
  Te  Te131  1  0.25689187  0.59915862  0.75573989  1
  Te  Te132  1  0.23007028  0.92987354  0.05868519  1
  Te  Te133  1  0.24287170  0.92726242  0.41486036  1
  Te  Te134  1  0.26777915  0.88301077  0.76755130  1
  Te  Te135  1  0.57972050  0.26248585  0.09529058  1
  Te  Te136  1  0.57442650  0.25281183  0.42708114  1
  Te  Te137  1  0.57378939  0.24003598  0.69290082  1
  Te  Te138  1  0.58788029  0.58635900  0.09051869  1
  Te  Te139  1  0.58511804  0.58560059  0.41539281  1
  Te  Te140  1  0.52924734  0.59283972  0.73496662  1
  Te  Te141  1  0.57945813  0.91907408  0.07081686  1
  Te  Te142  1  0.60438085  0.90314329  0.46423308  1
  Te  Te143  1  0.58184820  0.92214380  0.73992963  1
  Te  Te144  1  0.91579490  0.24635482  0.08731646  1
  Te  Te145  1  0.91830803  0.26170454  0.43726534  1
  Te  Te146  1  0.92056174  0.24986099  0.75935236  1
  Te  Te147  1  0.93528086  0.57249372  0.09503994  1
  Te  Te148  1  0.91303877  0.60285209  0.41342294  1
  Te  Te149  1  0.89111353  0.59663276  0.76273048  1
  Te  Te150  1  0.94411744  0.92992704  0.06751015  1
  Te  Te151  1  0.91806840  0.92412113  0.42406257  1
  Te  Te152  1  0.91969108  0.90698428  0.75237102  1
  Te  Te153  1  0.27279667  0.09422459  0.25307261  1
  Te  Te154  1  0.26552258  0.11127857  0.59084605  1
  Te  Te155  1  0.25829556  0.09218243  0.87642331  1
  Te  Te156  1  0.24984869  0.43956263  0.26206219  1
  Te  Te157  1  0.25274440  0.38379346  0.58618159  1
  Te  Te158  1  0.25256423  0.41496486  0.89985621  1
  Te  Te159  1  0.25919880  0.75358425  0.24099876  1
  Te  Te160  1  0.26639793  0.71283636  0.61207903  1
  Te  Te161  1  0.23221252  0.79044747  0.89598128  1
  Te  Te162  1  0.59272695  0.10026836  0.23935904  1
  Te  Te163  1  0.58365005  0.09370302  0.60607768  1
  Te  Te164  1  0.57878310  0.08867450  0.91407178  1
  Te  Te165  1  0.58026262  0.40911591  0.22780860  1
  Te  Te166  1  0.56510994  0.39301609  0.62213753  1
  Te  Te167  1  0.56570468  0.41257947  0.90770400  1
  Te  Te168  1  0.56444233  0.72566922  0.25022072  1
  Te  Te169  1  0.59578808  0.74516218  0.60466387  1
  Te  Te170  1  0.61280042  0.74741148  0.87122021  1
  Te  Te171  1  0.91408721  0.08786569  0.24283378  1
  Te  Te172  1  0.91583355  0.09662040  0.56580875  1
  Te  Te173  1  0.92133746  0.07160387  0.91600707  1
  Te  Te174  1  0.92601229  0.42126604  0.25051107  1
  Te  Te175  1  0.91049675  0.41936063  0.57369470  1
  Te  Te176  1  0.91076171  0.43266272  0.92816868  1
  Te  Te177  1  0.91227531  0.75055899  0.25738947  1
  Te  Te178  1  0.88967137  0.76874490  0.60073168  1
  Te  Te179  1  0.90254321  0.74928686  0.90319322  1
