# generated using pymatgen
data_In2Te3
_symmetry_space_group_name_H-M   'P 1'
_cell_length_a   18.94566067
_cell_length_b   18.94969749
_cell_length_c   18.93087946
_cell_angle_alpha   90.04952915
_cell_angle_beta   89.94216528
_cell_angle_gamma   89.96030292
_symmetry_Int_Tables_number   1
_chemical_formula_structural   In2Te3
_chemical_formula_sum   'In72 Te108'
_cell_volume   6796.45331138
_cell_formula_units_Z   36
loop_
 _symmetry_equiv_pos_site_id
 _symmetry_equiv_pos_as_xyz
  1  'x, y, z'
loop_
 _atom_site_type_symbol
 _atom_site_label
 _atom_site_symmetry_multiplicity
 _atom_site_fract_x
 _atom_site_fract_y
 _atom_site_fract_z
 _atom_site_occupancy
  In  In0  1  0.48551904  0.00368266  0.15437801  1
  In  In1  1  0.31534022  0.83803485  0.49738426  1
  In  In2  1  0.16909335  0.33050412  0.84409992  1
  In  In3  1  0.49058703  0.68711563  0.82739686  1
  In  In4  1  0.15730331  0.16412773  0.68469743  1
  In  In5  1  0.81794122  0.63827646  0.14843463  1
  In  In6  1  0.01421976  0.66632514  0.68077122  1
  In  In7  1  0.48489702  -0.00160266  0.48072291  1
  In  In8  1  0.02140637  0.47634206  0.52563655  1
  In  In9  1  0.32929044  0.66406207  0.35662643  1
  In  In10  1  0.84331359  0.52270805  0.32087934  1
  In  In11  1  0.50584168  0.17570516  -0.00211010  1
  In  In12  1  0.34842109  0.50609817  0.14403936  1
  In  In13  1  0.82773407  0.81537998  0.67416946  1
  In  In14  1  0.67839663  0.17894611  0.84582851  1
  In  In15  1  0.03775015  0.67467334  -0.00771009  1
  In  In16  1  0.85598597  -0.00057769  0.50323209  1
  In  In17  1  0.01694209  0.51819346  0.83060921  1
  In  In18  1  0.31593038  0.53591209  0.54647744  1
  In  In19  1  0.65899126  0.00182114  -0.00720845  1
  In  In20  1  0.29773249  0.69498345  -0.02805202  1
  In  In21  1  0.16413945  0.83700657  0.33623685  1
  In  In22  1  0.82452037  0.16892896  0.34864677  1
  In  In23  1  0.32100940  0.16113981  0.50067451  1
  In  In24  1  0.67420039  0.50706835  0.50635215  1
  In  In25  1  0.65401671  0.15830714  0.14100260  1
  In  In26  1  0.02225080  0.81112518  0.17209707  1
  In  In27  1  0.49356854  0.68791226  0.14716525  1
  In  In28  1  0.83486664  0.33117855  0.51749113  1
  In  In29  1  0.49199022  0.49515710  -0.02550009  1
  In  In30  1  0.00281690  0.83664196  0.83555427  1
  In  In31  1  0.65380064  0.66820794  0.32573501  1
  In  In32  1  0.00580198  0.01413636  0.66146351  1
  In  In33  1  0.16529476  0.31333715  0.50097008  1
  In  In34  1  0.32011583  0.32743010  -0.01164960  1
  In  In35  1  0.82965140  0.02657866  0.84564954  1
  In  In36  1  0.63722021  -0.03577214  0.69535226  1
  In  In37  1  0.50740136  0.49995342  0.66022769  1
  In  In38  1  0.66503848  0.64395756  -0.00037197  1
  In  In39  1  0.32575762  0.00980383  0.30008262  1
  In  In40  1  0.32236374  -0.01870336  0.00237806  1
  In  In41  1  0.81412354  0.00034043  0.17390080  1
  In  In42  1  0.16141922  0.84238352  0.68068198  1
  In  In43  1  0.69734135  0.47322568  0.83131405  1
  In  In44  1  0.66250563  0.66566556  0.66829851  1
  In  In45  1  0.46232263  0.66666348  0.52710720  1
  In  In46  1  0.00975890  0.48298976  0.16605252  1
  In  In47  1  0.68154665  0.15601471  0.49821480  1
  In  In48  1  0.81525054  0.46161790  0.01066054  1
  In  In49  1  0.35953392  0.28906088  0.26669840  1
  In  In50  1  0.51356050  0.34631850  0.48311427  1
  In  In51  1  0.65120207  0.83212885  0.49436468  1
  In  In52  1  0.31542433  -0.01072961  0.67569235  1
  In  In53  1  0.00733536  0.67997063  0.34083374  1
  In  In54  1  0.81868686  0.84150585  0.32627618  1
  In  In55  1  -0.00882835  0.17448281  0.14043245  1
  In  In56  1  0.82846737  0.82946264  0.00013375  1
  In  In57  1  0.18003808  0.33639683  0.16567270  1
  In  In58  1  0.36612719  0.34324382  0.66809964  1
  In  In59  1  -0.02141085  0.34610486  0.33984479  1
  In  In60  1  0.66834580  0.33005002  0.31539531  1
  In  In61  1  -0.01076209  0.32062326  0.71184675  1
  In  In62  1  -0.01256939  0.00545747  -0.00245424  1
  In  In63  1  0.52996803  0.17334707  0.68058831  1
  In  In64  1  0.84353519  0.66272572  0.53495065  1
  In  In65  1  0.33287311  0.14746681  0.84920203  1
  In  In66  1  0.01345003  -0.00250423  0.34072116  1
  In  In67  1  0.47827557  0.83398708  -0.01529284  1
  In  In68  1  0.15560735  0.68090031  0.16477773  1
  In  In69  1  0.00727870  0.32442879  -0.00926202  1
  In  In70  1  0.50158533  0.48312847  0.33573961  1
  In  In71  1  0.16625272  0.15802913  0.32977566  1
  Te  Te72  1  0.08164963  0.07350542  0.08944366  1
  Te  Te73  1  0.07916061  0.09493041  0.42781126  1
  Te  Te74  1  0.07816456  0.07845183  0.77290427  1
  Te  Te75  1  0.10277511  0.42005686  0.06560763  1
  Te  Te76  1  0.09540030  0.41444607  0.40782627  1
  Te  Te77  1  0.09826080  0.42116139  0.74477305  1
  Te  Te78  1  0.12126584  0.79271865  0.05096113  1
  Te  Te79  1  0.09997866  0.74585220  0.43088197  1
  Te  Te80  1  0.10371134  0.73759870  0.77948837  1
  Te  Te81  1  0.40199921  0.09821847  0.07288771  1
  Te  Te82  1  0.40911831  0.09713912  0.39513675  1
  Te  Te83  1  0.41657744  0.08871710  0.73516377  1
  Te  Te84  1  0.42602338  0.39832266  0.07307781  1
  Te  Te85  1  0.40858554  0.44656453  0.44721323  1
  Te  Te86  1  0.42979465  0.43142347  0.76495294  1
  Te  Te87  1  0.38091904  0.76552272  0.07998588  1
  Te  Te88  1  0.42343154  0.76562101  0.41740250  1
  Te  Te89  1  0.41180892  0.79966366  0.76931557  1
  Te  Te90  1  0.76422718  0.08714491  0.06076696  1
  Te  Te91  1  0.74798045  0.05304310  0.40844915  1
  Te  Te92  1  0.72979579  0.07390356  0.74095727  1
  Te  Te93  1  0.69993804  0.40167152  0.07641270  1
  Te  Te94  1  0.75654389  0.42164871  0.40988372  1
  Te  Te95  1  0.77185019  0.35584240  0.77471856  1
  Te  Te96  1  0.73471163  0.74954877  0.08842511  1
  Te  Te97  1  0.75738707  0.73035753  0.42810178  1
  Te  Te98  1  0.73464282  0.74937269  0.76475147  1
  Te  Te99  1  0.07064212  0.26125619  0.25130338  1
  Te  Te100  1  0.06838282  0.24940779  0.59652757  1
  Te  Te101  1  0.07697301  0.23056301  0.89941782  1
  Te  Te102  1  0.08553867  0.57960410  0.25618553  1
  Te  Te103  1  0.09994327  0.58167948  0.59193050  1
  Te  Te104  1  0.12153083  0.58775278  0.90928796  1
  Te  Te105  1  0.09740734  0.92873402  0.23497625  1
  Te  Te106  1  0.08274234  0.91831158  0.58271565  1
  Te  Te107  1  0.08275590  0.93382762  0.90980414  1
  Te  Te108  1  0.48341183  0.22704624  0.22003560  1
  Te  Te109  1  0.43468055  0.23870596  0.56865623  1
  Te  Te110  1  0.42432311  0.25728191  0.90010130  1
  Te  Te111  1  0.42551785  0.58909990  0.25523187  1
  Te  Te112  1  0.41058559  0.62103172  0.66370886  1
  Te  Te113  1  0.39986402  0.59795637  0.90985338  1
  Te  Te114  1  0.41125578  0.90896572  0.23758301  1
  Te  Te115  1  0.41289997  0.91509811  0.58508746  1
  Te  Te116  1  0.42469726  0.94303761  0.89844372  1
  Te  Te117  1  0.75303154  0.23480241  0.23416649  1
  Te  Te118  1  0.74332068  0.24693914  0.59402782  1
  Te  Te119  1  0.78354901  0.27062588  0.90100006  1
  Te  Te120  1  0.72113628  0.56261889  0.23947389  1
  Te  Te121  1  0.76359958  0.56159534  0.61560881  1
  Te  Te122  1  0.77185406  0.57409441  0.91812042  1
  Te  Te123  1  0.72085384  0.91327880  0.24513998  1
  Te  Te124  1  0.74713141  0.91114937  0.58401388  1
  Te  Te125  1  0.74518186  0.91225969  0.90471824  1
  Te  Te126  1  0.23688951  0.23880196  0.07238731  1
  Te  Te127  1  0.27148159  0.26482732  0.39827180  1
  Te  Te128  1  0.26893832  0.24781036  0.74351032  1
  Te  Te129  1  0.24561049  0.59229000  0.07780639  1
  Te  Te130  1  0.23537015  0.58527307  0.43424779  1
  Te  Te131  1  0.25755530  0.59854200  0.66979196  1
  Te  Te132  1  0.24298597  0.88621132  0.07951178  1
  Te  Te133  1  0.24519970  0.94060919  0.41161806  1
  Te  Te134  1  0.23507981  0.92511886  0.78350225  1
  Te  Te135  1  0.61666632  0.26931961  0.04596392  1
  Te  Te136  1  0.58968669  0.23890438  0.40823817  1
  Te  Te137  1  0.59183169  0.27162206  0.76819446  1
  Te  Te138  1  0.56695687  0.57026717  0.08662526  1
  Te  Te139  1  0.57041670  0.59320805  0.43897624  1
  Te  Te140  1  0.59328832  0.57294267  0.77308036  1
  Te  Te141  1  0.57606798  0.90870398  0.07646029  1
  Te  Te142  1  0.57658926  0.91525747  0.40077882  1
  Te  Te143  1  0.53326569  0.90236782  0.77855723  1
  Te  Te144  1  0.89978726  0.26553710  0.07419197  1
  Te  Te145  1  0.92586294  0.24078492  0.43518751  1
  Te  Te146  1  0.88441360  0.23984442  0.78138765  1
  Te  Te147  1  0.94208777  0.58740022  0.07868426  1
  Te  Te148  1  0.92680914  0.57297564  0.43662617  1
  Te  Te149  1  0.91368652  0.58736683  0.75254664  1
  Te  Te150  1  0.91567592  0.90173613  0.10275462  1
  Te  Te151  1  0.92761917  0.89620442  0.41529120  1
  Te  Te152  1  0.90344830  0.92193504  0.75379814  1
  Te  Te153  1  0.24466422  0.10402366  0.21934735  1
  Te  Te154  1  0.22954614  0.07483391  0.58270485  1
  Te  Te155  1  0.23960233  0.09109884  0.94606741  1
  Te  Te156  1  0.27653834  0.42047167  0.24662844  1
  Te  Te157  1  0.24987089  0.40022222  0.58996100  1
  Te  Te158  1  0.25967556  0.42960349  0.90138876  1
  Te  Te159  1  0.25677607  0.75049079  0.25335714  1
  Te  Te160  1  0.25318078  0.75273661  0.60180524  1
  Te  Te161  1  0.28615035  0.78926174  0.85737016  1
  Te  Te162  1  0.56729346  0.09568888  0.24401896  1
  Te  Te163  1  0.58453497  0.06419240  0.58170136  1
  Te  Te164  1  0.57255098  0.08167465  0.89955716  1
  Te  Te165  1  0.55953671  0.39208498  0.23618600  1
  Te  Te166  1  0.60432638  0.40244985  0.59157233  1
  Te  Te167  1  0.60934387  0.40851361  0.93525323  1
  Te  Te168  1  0.57466796  0.76091411  0.24584573  1
  Te  Te169  1  0.56729258  0.75779456  0.59599095  1
  Te  Te170  1  0.59089033  0.74999032  0.92160111  1
  Te  Te171  1  0.91536594  0.08142838  0.25643882  1
  Te  Te172  1  0.90312419  0.09897614  0.59825833  1
  Te  Te173  1  0.92935231  0.11300797  0.91229509  1
  Te  Te174  1  0.89297800  0.41034636  0.23158553  1
  Te  Te175  1  0.91584482  0.41483330  0.61470004  1
  Te  Te176  1  0.92539134  0.42591662  0.91413282  1
  Te  Te177  1  0.89911108  0.73137149  0.24654550  1
  Te  Te178  1  0.94101601  0.76431115  0.58725315  1
  Te  Te179  1  0.91954978  0.74013510  0.91944721  1
