# generated using pymatgen
data_In2Te3
_symmetry_space_group_name_H-M   'P 1'
_cell_length_a   18.96479638
_cell_length_b   18.95650325
_cell_length_c   18.96065239
_cell_angle_alpha   90.01182028
_cell_angle_beta   89.88065702
_cell_angle_gamma   90.28500168
_symmetry_Int_Tables_number   1
_chemical_formula_structural   In2Te3
_chemical_formula_sum   'In72 Te108'
_cell_volume   6816.37330296
_cell_formula_units_Z   36
loop_
 _symmetry_equiv_pos_site_id
 _symmetry_equiv_pos_as_xyz
  1  'x, y, z'
loop_
 _atom_site_type_symbol
 _atom_site_label
 _atom_site_symmetry_multiplicity
 _atom_site_fract_x
 _atom_site_fract_y
 _atom_site_fract_z
 _atom_site_occupancy
  In  In0  1  0.15895467  0.30923270  0.85900676  1
  In  In1  1  0.36739633  0.48797885  0.49471812  1
  In  In2  1  0.15408351  0.32203312  0.49079984  1
  In  In3  1  0.31940054  0.18094121  0.49193829  1
  In  In4  1  0.00911040  0.68950106  -0.01408300  1
  In  In5  1  0.65633121  0.81834257  0.46427281  1
  In  In6  1  0.85513686  -0.03312732  0.53243898  1
  In  In7  1  0.81791281  0.51557668  0.34033876  1
  In  In8  1  0.31753794  0.83941060  0.17715690  1
  In  In9  1  0.47456316  0.49312272  -0.00125452  1
  In  In10  1  0.03511754  0.48979329  0.50140560  1
  In  In11  1  0.49187569  0.17034803  0.32684531  1
  In  In12  1  0.67551904  0.03087977  0.31616281  1
  In  In13  1  0.14979501  0.66775509  0.51781062  1
  In  In14  1  0.14974600  0.86501038  0.68568844  1
  In  In15  1  -0.01707692  0.31077396  0.68376335  1
  In  In16  1  -0.00899127  0.00626197  0.69909328  1
  In  In17  1  0.17859415  0.50394541  0.65885165  1
  In  In18  1  0.82534028  0.67844683  0.13463588  1
  In  In19  1  0.65116741  0.17951293  0.14668003  1
  In  In20  1  0.17181437  0.13101830  -0.02171519  1
  In  In21  1  0.01257178  0.50068454  0.83870543  1
  In  In22  1  0.16737002  0.00702220  0.16022950  1
  In  In23  1  0.63699543  0.34386702  0.00177937  1
  In  In24  1  0.01144173  0.66184126  0.34296476  1
  In  In25  1  0.49907743  -0.01113767  0.48007132  1
  In  In26  1  0.84799220  0.15119731  -0.00062609  1
  In  In27  1  0.66870595  0.66536361  0.00414843  1
  In  In28  1  0.47013988  0.49197670  0.31751931  1
  In  In29  1  0.67827163  0.16010348  0.52374676  1
  In  In30  1  0.48449581  0.82109307  0.01624374  1
  In  In31  1  0.31165220  0.33252362  0.02403178  1
  In  In32  1  0.16665831  0.84728557  -0.01098780  1
  In  In33  1  0.18939135  -0.00037694  0.48998313  1
  In  In34  1  0.51430022  0.66910693  0.85015386  1
  In  In35  1  0.31785522  0.67821661  0.33732423  1
  In  In36  1  0.63132174  0.50484993  0.16580030  1
  In  In37  1  0.32202779  0.84184844  0.84332592  1
  In  In38  1  0.69274329  0.00768179  0.67917231  1
  In  In39  1  0.86159320  0.70573904  0.56575218  1
  In  In40  1  0.84315717  0.50444414  -0.01679557  1
  In  In41  1  0.36153031  0.12677057  0.13342528  1
  In  In42  1  0.53444501  0.29778927  0.82858957  1
  In  In43  1  0.30900655  0.69713784  0.67823118  1
  In  In44  1  0.00374321  0.49287978  0.19119245  1
  In  In45  1  0.51334760  0.84901334  0.65752366  1
  In  In46  1  0.00067935  0.82459818  0.15965825  1
  In  In47  1  0.64029530  -0.00003657  0.01580860  1
  In  In48  1  0.20129312  0.51918071  0.04415304  1
  In  In49  1  0.04406057  0.31109767  0.00559119  1
  In  In50  1  0.02377004  0.30066175  0.28840109  1
  In  In51  1  0.66527392  0.52525422  0.50422031  1
  In  In52  1  0.20883605  0.49628291  0.30715094  1
  In  In53  1  0.51664295  0.02179819  0.83383839  1
  In  In54  1  0.34578756  0.15102620  0.86140297  1
  In  In55  1  0.35549360  0.83281332  0.46366803  1
  In  In56  1  0.81362829  0.33223464  0.84322607  1
  In  In57  1  0.81745345  0.30968009  0.50203055  1
  In  In58  1  0.51170287  0.52128019  0.68247786  1
  In  In59  1  0.32850293  0.50065305  0.80948187  1
  In  In60  1  -0.01716369  0.00310097  0.34264603  1
  In  In61  1  0.79439860  0.83189451  0.32992027  1
  In  In62  1  0.80651047  0.84272776  -0.01435040  1
  In  In63  1  0.46598262  0.67659230  0.47544287  1
  In  In64  1  0.81576302  0.32001467  0.15767103  1
  In  In65  1  -0.00302679  -0.02990415  -0.04312590  1
  In  In66  1  0.50906312  0.33968584  0.49000590  1
  In  In67  1  0.83770266  0.16087851  0.33476551  1
  In  In68  1  0.71015928  0.71368911  0.67727018  1
  In  In69  1  0.01047134  0.14816235  0.50069436  1
  In  In70  1  0.84102700  0.47117997  0.68821451  1
  In  In71  1  0.33769031  0.30008373  0.66820607  1
  Te  Te72  1  0.06530502  0.06062381  0.05923438  1
  Te  Te73  1  0.09844450  0.08575033  0.39701602  1
  Te  Te74  1  0.07289106  0.08528346  0.78979041  1
  Te  Te75  1  0.09861901  0.41944958  0.09861622  1
  Te  Te76  1  0.09288373  0.41711797  0.38054002  1
  Te  Te77  1  0.09444583  0.40377036  0.74406847  1
  Te  Te78  1  0.10577311  0.74426092  0.08855968  1
  Te  Te79  1  0.06692673  0.75730409  0.43862704  1
  Te  Te80  1  0.06688196  0.76155851  0.74779452  1
  Te  Te81  1  0.41938691  0.12100380  -0.00311909  1
  Te  Te82  1  0.40254903  0.07964330  0.40961846  1
  Te  Te83  1  0.43261180  0.10578615  0.75010822  1
  Te  Te84  1  0.40171444  0.42031760  0.10810675  1
  Te  Te85  1  0.39799377  0.38039091  0.39456263  1
  Te  Te86  1  0.42338771  0.40573393  0.73901350  1
  Te  Te87  1  0.37167913  0.74010302  0.07605034  1
  Te  Te88  1  0.44954473  0.77200038  0.35228357  1
  Te  Te89  1  0.42949795  0.75442718  0.75074408  1
  Te  Te90  1  0.75177017  0.08088073  0.09365577  1
  Te  Te91  1  0.76974317  0.06942255  0.43763906  1
  Te  Te92  1  0.74676607  0.12506185  0.75256586  1
  Te  Te93  1  0.74749820  0.43122244  0.08016978  1
  Te  Te94  1  0.73947293  0.41702024  0.42555352  1
  Te  Te95  1  0.72753314  0.42039145  0.76545669  1
  Te  Te96  1  0.72008584  0.77689051  0.09599295  1
  Te  Te97  1  0.77426609  0.71800834  0.44123030  1
  Te  Te98  1  0.79466591  0.78327045  0.77648890  1
  Te  Te99  1  0.12680101  0.23871964  0.21066897  1
  Te  Te100  1  0.08687632  0.23800025  0.59786993  1
  Te  Te101  1  0.05320825  0.20113830  0.89346409  1
  Te  Te102  1  0.10543686  0.59149305  0.24709503  1
  Te  Te103  1  0.06131878  0.58889216  0.61368260  1
  Te  Te104  1  0.09614650  0.57361574  0.94094309  1
  Te  Te105  1  0.07429089  0.92191745  0.24738622  1
  Te  Te106  1  0.07892896  0.94824515  0.58319990  1
  Te  Te107  1  0.07054462  0.86991422  0.87473155  1
  Te  Te108  1  0.41080750  0.23447359  0.22157977  1
  Te  Te109  1  0.43957106  0.23665999  0.57752109  1
  Te  Te110  1  0.41283435  0.28122316  0.91998451  1
  Te  Te111  1  0.39944001  0.59853522  0.24096820  1
  Te  Te112  1  0.40259728  0.59092370  0.60207265  1
  Te  Te113  1  0.39912650  0.59059634  0.91021975  1
  Te  Te114  1  0.42724370  0.88982879  0.26014570  1
  Te  Te115  1  0.40583400  0.91968078  0.57968410  1
  Te  Te116  1  0.42993784  0.91856809  0.91340570  1
  Te  Te117  1  0.73615982  0.24514185  0.26116797  1
  Te  Te118  1  0.73087848  0.26619350  0.61504889  1
  Te  Te119  1  0.74050172  0.24936754  0.94635211  1
  Te  Te120  1  0.74476324  0.58647501  0.22951734  1
  Te  Te121  1  0.76641470  0.58327384  0.60130877  1
  Te  Te122  1  0.74999057  0.58806639  0.90964802  1
  Te  Te123  1  0.76597280  0.94450839  0.24041352  1
  Te  Te124  1  0.72893503  0.89979006  0.57651748  1
  Te  Te125  1  0.74265511  0.95709859  0.91496360  1
  Te  Te126  1  0.22032002  0.22822258  0.08602667  1
  Te  Te127  1  0.23748234  0.25368774  0.39317247  1
  Te  Te128  1  0.24492596  0.23118579  0.76306568  1
  Te  Te129  1  0.29341044  0.60922350  0.11646659  1
  Te  Te130  1  0.25152318  0.57570381  0.43877003  1
  Te  Te131  1  0.22500307  0.60370531  0.76355629  1
  Te  Te132  1  0.26364155  0.93236478  0.06805936  1
  Te  Te133  1  0.24834861  0.90429140  0.39096025  1
  Te  Te134  1  0.26255867  0.93715858  0.74670826  1
  Te  Te135  1  0.55541959  0.28429857  0.10830444  1
  Te  Te136  1  0.59468493  0.23529690  0.42087942  1
  Te  Te137  1  0.62535847  0.21613954  0.74485205  1
  Te  Te138  1  0.55316407  0.59891721  0.07877063  1
  Te  Te139  1  0.56227691  0.57873677  0.40845038  1
  Te  Te140  1  0.61082122  0.61435645  0.74737510  1
  Te  Te141  1  0.54641964  0.92401471  0.10249460  1
  Te  Te142  1  0.58581156  0.92417686  0.37701778  1
  Te  Te143  1  0.60116579  0.91551028  0.75965511  1
  Te  Te144  1  0.92787125  0.24825836  0.08775929  1
  Te  Te145  1  0.93331311  0.25286289  0.41666481  1
  Te  Te146  1  0.88692696  0.23106926  0.76229699  1
  Te  Te147  1  0.93424496  0.57857053  0.08607113  1
  Te  Te148  1  0.92545825  0.57205854  0.43133354  1
  Te  Te149  1  0.91094071  0.57433566  0.76592834  1
  Te  Te150  1  0.91363513  0.90864581  0.07293484  1
  Te  Te151  1  0.91184524  0.89105466  0.41638694  1
  Te  Te152  1  0.88424428  0.90722023  0.73894375  1
  Te  Te153  1  0.28181941  0.05976154  0.23629038  1
  Te  Te154  1  0.24324745  0.09760070  0.58506685  1
  Te  Te155  1  0.23474420  0.04690121  0.87508799  1
  Te  Te156  1  0.27021239  0.42541805  0.19394795  1
  Te  Te157  1  0.26081075  0.40436827  0.57912955  1
  Te  Te158  1  0.24555133  0.42422029  0.91366525  1
  Te  Te159  1  0.22575431  0.77699918  0.27984026  1
  Te  Te160  1  0.24952927  0.77434591  0.56503732  1
  Te  Te161  1  0.24280002  0.74390743  0.91619500  1
  Te  Te162  1  0.56489820  0.08225414  0.22638526  1
  Te  Te163  1  0.58121209  0.06122444  0.58419784  1
  Te  Te164  1  0.57338678  0.11099172  0.94076887  1
  Te  Te165  1  0.58177380  0.41116285  0.26556404  1
  Te  Te166  1  0.58612728  0.42725166  0.58935547  1
  Te  Te167  1  0.57345987  0.43407882  0.90018895  1
  Te  Te168  1  0.66652700  0.75175610  0.32553435  1
  Te  Te169  1  0.56965442  0.73859433  0.56968712  1
  Te  Te170  1  0.59672902  0.77162508  0.92148435  1
  Te  Te171  1  0.92622463  0.09246172  0.24192607  1
  Te  Te172  1  0.90755137  0.09316721  0.59615511  1
  Te  Te173  1  0.88180957  0.04562519  0.89901925  1
  Te  Te174  1  0.89633878  0.40881685  0.25967879  1
  Te  Te175  1  0.92509076  0.40270851  0.56983195  1
  Te  Te176  1  0.94026911  0.39601864  0.92565233  1
  Te  Te177  1  0.91167899  0.73553481  0.24772450  1
  Te  Te178  1  0.94607780  0.79271728  0.65147571  1
  Te  Te179  1  0.89118988  0.74207697  0.91374684  1
