# generated using pymatgen
data_In2Te3
_symmetry_space_group_name_H-M   'P 1'
_cell_length_a   18.78582583
_cell_length_b   18.79519971
_cell_length_c   18.80348719
_cell_angle_alpha   89.91307696
_cell_angle_beta   90.02282296
_cell_angle_gamma   90.04543456
_symmetry_Int_Tables_number   1
_chemical_formula_structural   In2Te3
_chemical_formula_sum   'In72 Te108'
_cell_volume   6639.18796314
_cell_formula_units_Z   36
loop_
 _symmetry_equiv_pos_site_id
 _symmetry_equiv_pos_as_xyz
  1  'x, y, z'
loop_
 _atom_site_type_symbol
 _atom_site_label
 _atom_site_symmetry_multiplicity
 _atom_site_fract_x
 _atom_site_fract_y
 _atom_site_fract_z
 _atom_site_occupancy
  In  In0  1  0.16006988  0.65557184  0.83609773  1
  In  In1  1  0.35949268  0.48302939  0.15841013  1
  In  In2  1  0.64187520  0.34302728  0.65176361  1
  In  In3  1  0.68099576  0.64816247  0.00838123  1
  In  In4  1  0.83255424  0.33284659  0.15633529  1
  In  In5  1  0.50628189  0.16370650  0.65321633  1
  In  In6  1  0.04898038  0.16982711  0.82228462  1
  In  In7  1  0.83870716  -0.00605768  0.81232712  1
  In  In8  1  0.51229477  0.68790061  0.80465790  1
  In  In9  1  0.48458635  0.34819123  0.84182366  1
  In  In10  1  0.18064897  0.51499659  0.32248865  1
  In  In11  1  0.19129097  0.33286206  0.13747172  1
  In  In12  1  0.68752842  0.16131141  0.84667920  1
  In  In13  1  0.16642586  0.83797186  -0.00677511  1
  In  In14  1  0.35051809  0.69440932  0.37036114  1
  In  In15  1  0.02308318  -0.00462577  0.00722275  1
  In  In16  1  0.80919223  0.16313596  0.34947584  1
  In  In17  1  -0.01698068  0.51286547  0.50670648  1
  In  In18  1  0.63253265  0.81946158  0.18914998  1
  In  In19  1  0.83284342  0.82253252  -0.02194941  1
  In  In20  1  -0.01387563  0.66573079  0.65069694  1
  In  In21  1  -0.00005702  0.82155441  0.50725910  1
  In  In22  1  0.66361303  0.49235051  0.85593471  1
  In  In23  1  0.30924146  0.66442875  0.00972455  1
  In  In24  1  0.19967601  0.83992479  0.38602418  1
  In  In25  1  0.00631660  0.16490222  0.48838876  1
  In  In26  1  0.17491298  0.50128459  -0.01534568  1
  In  In27  1  0.01130820  0.50854220  0.15908699  1
  In  In28  1  0.37764010  0.30635868  0.33146237  1
  In  In29  1  0.14686476  0.68731330  0.18298888  1
  In  In30  1  0.82193163  0.01036337  0.17218664  1
  In  In31  1  0.00732411  0.81263166  0.16324098  1
  In  In32  1  0.00066303  0.00649441  0.66711509  1
  In  In33  1  0.63924471  0.15603276  0.49144911  1
  In  In34  1  0.67372536  -0.04120491  0.61079796  1
  In  In35  1  0.64213993  0.00969104  0.01532563  1
  In  In36  1  0.82781357  0.16617845  0.65793413  1
  In  In37  1  0.64159988  0.33215075  0.34535443  1
  In  In38  1  0.50318345  0.86221427  0.00215908  1
  In  In39  1  0.83627825  0.15434254  -0.00096813  1
  In  In40  1  -0.00513211  0.33026296  0.32721444  1
  In  In41  1  0.79555150  0.81562741  0.36725630  1
  In  In42  1  0.36673448  0.86504669  0.20052727  1
  In  In43  1  0.48761187  0.84928651  0.63884776  1
  In  In44  1  0.18850490  0.84703388  0.65726123  1
  In  In45  1  0.32532340  0.50329487  0.51563054  1
  In  In46  1  0.68238900  0.67360505  0.65693677  1
  In  In47  1  -0.00661414  0.15834057  0.14453655  1
  In  In48  1  0.35446301  0.50415367  0.80940180  1
  In  In49  1  0.48245878  0.48386894  0.65477727  1
  In  In50  1  0.47331155  0.01876504  0.81789829  1
  In  In51  1  0.48380655  0.49971469  0.01244610  1
  In  In52  1  0.02340623  0.35875379  0.68653995  1
  In  In53  1  0.31844984  0.32908265  -0.00145174  1
  In  In54  1  0.18045794  0.02018326  0.17159526  1
  In  In55  1  0.52091918  0.50546974  0.33692027  1
  In  In56  1  0.83606347  0.32600253  0.84728145  1
  In  In57  1  0.66913879  0.82156855  0.81070583  1
  In  In58  1  0.01020442  -0.02306051  0.34130923  1
  In  In59  1  0.00352351  0.84977936  0.83611890  1
  In  In60  1  0.83441113  0.51084274  0.65819335  1
  In  In61  1  0.83953232  0.48310381  0.00032633  1
  In  In62  1  0.82539230  0.65780549  0.19386590  1
  In  In63  1  0.35068782  0.14973327  0.49614550  1
  In  In64  1  0.50174206  0.68269193  0.18610748  1
  In  In65  1  0.16205102  0.33107708  0.51231020  1
  In  In66  1  0.33542652  0.68361227  0.64774806  1
  In  In67  1  0.18520933  0.15074125  0.31790560  1
  In  In68  1  0.80407709  0.51288997  0.36023496  1
  In  In69  1  0.32691229  0.03491950  -0.00264988  1
  In  In70  1  0.33645448  0.00893532  0.65092950  1
  In  In71  1  0.62839890  0.01296817  0.33759877  1
  Te  Te72  1  0.11185479  0.10557186  0.06422201  1
  Te  Te73  1  0.10360957  0.06949765  0.41933389  1
  Te  Te74  1  0.11775467  0.06721685  0.73550734  1
  Te  Te75  1  0.08002505  0.40823401  0.06739839  1
  Te  Te76  1  0.08771324  0.42057576  0.40922581  1
  Te  Te77  1  0.12465036  0.41416829  0.77608906  1
  Te  Te78  1  0.07591422  0.73158403  0.05387449  1
  Te  Te79  1  0.08150941  0.75512820  0.40275831  1
  Te  Te80  1  0.08844212  0.75896923  0.73911084  1
  Te  Te81  1  0.43967616  0.06532661  0.08864061  1
  Te  Te82  1  0.40036603  0.05853973  0.38724628  1
  Te  Te83  1  0.39172402  0.12342114  0.74534597  1
  Te  Te84  1  0.43977287  0.37622862  0.09120067  1
  Te  Te85  1  0.41476158  0.42701056  0.41569535  1
  Te  Te86  1  0.39375500  0.38014239  0.72374564  1
  Te  Te87  1  0.41430005  0.75433537  0.08094917  1
  Te  Te88  1  0.45171328  0.79190032  0.41791433  1
  Te  Te89  1  0.40528689  0.77712714  0.74832704  1
  Te  Te90  1  0.72948135  0.10503520  0.09777485  1
  Te  Te91  1  0.74212550  0.05679699  0.43333659  1
  Te  Te92  1  0.73053155  0.06861715  0.72867832  1
  Te  Te93  1  0.73810605  0.42474136  0.08963290  1
  Te  Te94  1  0.74608865  0.39633771  0.42932268  1
  Te  Te95  1  0.74527412  0.40754405  0.75219077  1
  Te  Te96  1  0.74524904  0.76706796  0.09161150  1
  Te  Te97  1  0.71761898  0.70871378  0.43326917  1
  Te  Te98  1  0.77183276  0.73059328  0.76033575  1
  Te  Te99  1  0.08629371  0.24631782  0.23831702  1
  Te  Te100  1  0.07831412  0.23914936  0.59956697  1
  Te  Te101  1  0.12128818  0.24136718  0.93183917  1
  Te  Te102  1  0.06131515  0.59766740  0.27323914  1
  Te  Te103  1  0.08721375  0.58135149  0.58446417  1
  Te  Te104  1  0.06615238  0.57331154  0.91517403  1
  Te  Te105  1  0.10116273  0.90785999  0.24058573  1
  Te  Te106  1  0.09048124  0.92705141  0.57097833  1
  Te  Te107  1  0.11139816  0.94176272  0.89570772  1
  Te  Te108  1  0.45101228  0.21863941  0.23811482  1
  Te  Te109  1  0.43036053  0.25586830  0.56424476  1
  Te  Te110  1  0.40447606  0.24355485  0.91036503  1
  Te  Te111  1  0.39939027  0.58912522  0.26168305  1
  Te  Te112  1  0.43427214  0.60089493  0.56748407  1
  Te  Te113  1  0.41768284  0.59847438  0.91469991  1
  Te  Te114  1  0.46041378  0.92366626  0.30465378  1
  Te  Te115  1  0.38236976  0.90770233  0.54724659  1
  Te  Te116  1  0.39761893  0.92561147  0.91333240  1
  Te  Te117  1  0.74145901  0.25167072  0.24830089  1
  Te  Te118  1  0.73341476  0.24834492  0.57203450  1
  Te  Te119  1  0.73824094  0.26258098  0.94766507  1
  Te  Te120  1  0.71896034  0.57934098  0.25755985  1
  Te  Te121  1  0.73657941  0.57071852  0.56423613  1
  Te  Te122  1  0.76976077  0.58969936  0.90169523  1
  Te  Te123  1  0.73893523  0.91741156  0.25880035  1
  Te  Te124  1  0.77041458  0.85291300  0.57869652  1
  Te  Te125  1  0.74125113  0.93211138  0.92055385  1
  Te  Te126  1  0.28558855  0.22644861  0.10284655  1
  Te  Te127  1  0.25082591  0.25572641  0.41158478  1
  Te  Te128  1  0.19244406  0.22874440  0.79790405  1
  Te  Te129  1  0.23590842  0.57493522  0.11081455  1
  Te  Te130  1  0.24280560  0.60066357  0.43048222  1
  Te  Te131  1  0.25167002  0.58805610  0.73293792  1
  Te  Te132  1  0.25929252  0.91286825  0.08770143  1
  Te  Te133  1  0.28505922  0.95452100  0.42061508  1
  Te  Te134  1  0.26416960  0.92930054  0.75410180  1
  Te  Te135  1  0.54075452  0.18163759  0.11228646  1
  Te  Te136  1  0.54245014  0.24161140  0.41597803  1
  Te  Te137  1  0.58826751  0.24794284  0.76167273  1
  Te  Te138  1  0.58024119  0.58043374  0.10049766  1
  Te  Te139  1  0.60488197  0.60043563  0.41378172  1
  Te  Te140  1  0.58275822  0.56493957  0.74749853  1
  Te  Te141  1  0.55854662  0.93987223  0.12404882  1
  Te  Te142  1  0.56949984  0.89855381  0.41644892  1
  Te  Te143  1  0.57714090  0.92485832  0.74889130  1
  Te  Te144  1  0.92778423  0.26322216  0.05751476  1
  Te  Te145  1  0.90288142  0.25864112  0.42533819  1
  Te  Te146  1  0.92098056  0.23724842  0.75442640  1
  Te  Te147  1  0.91017003  0.59568146  0.08494242  1
  Te  Te148  1  0.90685080  0.60189313  0.41744304  1
  Te  Te149  1  0.93960692  0.56253402  0.74642805  1
  Te  Te150  1  0.91488093  0.92083153  0.08682172  1
  Te  Te151  1  0.90339967  0.91266245  0.42503439  1
  Te  Te152  1  0.90930763  0.89606594  0.72301450  1
  Te  Te153  1  0.29552691  0.07474940  0.25078188  1
  Te  Te154  1  0.24245664  0.10541454  0.58678399  1
  Te  Te155  1  0.25249142  0.13263887  0.91082076  1
  Te  Te156  1  0.26274600  0.40338733  0.25675294  1
  Te  Te157  1  0.24012548  0.41806439  0.60229494  1
  Te  Te158  1  0.24534962  0.41639634  0.87909524  1
  Te  Te159  1  0.26237203  0.75882232  0.25447603  1
  Te  Te160  1  0.24945883  0.75977503  0.55198627  1
  Te  Te161  1  0.25685411  0.75658417  0.90047393  1
  Te  Te162  1  0.58343575  0.13349782  0.26058986  1
  Te  Te163  1  0.55680743  0.05012221  0.56587419  1
  Te  Te164  1  0.56619949  0.09591773  0.91454865  1
  Te  Te165  1  0.57154647  0.40839582  0.23846436  1
  Te  Te166  1  0.57513973  0.42895150  0.55354287  1
  Te  Te167  1  0.58357804  0.40055959  0.94587830  1
  Te  Te168  1  0.58109865  0.73473774  0.30343829  1
  Te  Te169  1  0.59398124  0.76434364  0.57845986  1
  Te  Te170  1  0.58700306  0.75134308  0.93066509  1
  Te  Te171  1  0.92448698  0.08806297  0.26346137  1
  Te  Te172  1  0.90751517  0.07510619  0.56639976  1
  Te  Te173  1  0.92848193  0.07478729  0.90640653  1
  Te  Te174  1  0.91035844  0.43058696  0.24844077  1
  Te  Te175  1  0.91555923  0.40066176  0.58627194  1
  Te  Te176  1  0.93358042  0.41979124  0.90516311  1
  Te  Te177  1  0.90555548  0.76552307  0.26536994  1
  Te  Te178  1  0.88432366  0.74348069  0.56957037  1
  Te  Te179  1  0.92976468  0.74153140  0.90487542  1
