# generated using pymatgen
data_In2Te3
_symmetry_space_group_name_H-M   'P 1'
_cell_length_a   18.80087182
_cell_length_b   18.80232927
_cell_length_c   18.79494553
_cell_angle_alpha   89.97815834
_cell_angle_beta   89.97352227
_cell_angle_gamma   89.98169139
_symmetry_Int_Tables_number   1
_chemical_formula_structural   In2Te3
_chemical_formula_sum   'In72 Te108'
_cell_volume   6644.01514420
_cell_formula_units_Z   36
loop_
 _symmetry_equiv_pos_site_id
 _symmetry_equiv_pos_as_xyz
  1  'x, y, z'
loop_
 _atom_site_type_symbol
 _atom_site_label
 _atom_site_symmetry_multiplicity
 _atom_site_fract_x
 _atom_site_fract_y
 _atom_site_fract_z
 _atom_site_occupancy
  In  In0  1  0.49129397  0.66948486  0.84327629  1
  In  In1  1  0.68255750  0.66138752  0.29823153  1
  In  In2  1  0.68306377  0.34260400  0.01689945  1
  In  In3  1  0.83948775  0.65618392  0.84062034  1
  In  In4  1  0.14525633  0.50149788  0.00056628  1
  In  In5  1  -0.02698424  0.66030363  0.66874135  1
  In  In6  1  -0.01679066  0.21658347  0.15649242  1
  In  In7  1  0.48514580  0.33534042  0.84211564  1
  In  In8  1  0.14194350  0.20576061  -0.00494567  1
  In  In9  1  0.70588380  0.50683427  0.16113490  1
  In  In10  1  0.30667112  0.49893637  0.48750351  1
  In  In11  1  0.49552237  0.19045114  -0.04444705  1
  In  In12  1  0.68486696  0.46792049  0.49297521  1
  In  In13  1  0.15972759  0.35341988  0.49566466  1
  In  In14  1  0.67808486  0.32092353  0.33674364  1
  In  In15  1  0.51452490  0.00716732  0.50023394  1
  In  In16  1  0.31541711  0.66998863  0.68316490  1
  In  In17  1  0.16273326  0.48697226  0.65845205  1
  In  In18  1  0.33401724  0.18727395  0.83674896  1
  In  In19  1  0.11904218  0.50386654  0.28946993  1
  In  In20  1  -0.01250667  -0.01186410  0.32960125  1
  In  In21  1  0.49687935  0.15696425  0.35767374  1
  In  In22  1  0.67094872  0.32356247  0.65652708  1
  In  In23  1  0.68781604  -0.00054419  0.01613375  1
  In  In24  1  0.50250393  0.67043930  0.49269997  1
  In  In25  1  0.66696683  0.84221325  0.51052923  1
  In  In26  1  0.51644281  -0.00467262  0.14663432  1
  In  In27  1  0.69006979  -0.02852696  0.32518776  1
  In  In28  1  0.14643320  0.17773111  0.32926458  1
  In  In29  1  0.86392125  0.66676194  0.48752252  1
  In  In30  1  0.68256477  0.16155846  0.50046534  1
  In  In31  1  0.65969270  0.66450507  0.66964530  1
  In  In32  1  0.32446515  0.83298876  0.15931565  1
  In  In33  1  0.66437765  -0.00934715  0.67825140  1
  In  In34  1  0.16374909  -0.00970582  0.84224590  1
  In  In35  1  0.65773739  0.17635540  0.82977748  1
  In  In36  1  0.83355299  0.17647990  0.32493533  1
  In  In37  1  0.13881409  0.79306095  0.34377855  1
  In  In38  1  0.34493117  0.00639395  0.00120435  1
  In  In39  1  0.32018762  0.00249469  0.66720434  1
  In  In40  1  0.35591225  -0.00244958  0.35268644  1
  In  In41  1  0.15569809  0.65607063  0.84437266  1
  In  In42  1  0.14331558  0.78700730  0.01960599  1
  In  In43  1  0.00030160  0.34407240  0.68095910  1
  In  In44  1  0.49866632  0.67051418  0.18667624  1
  In  In45  1  0.48418870  0.50046477  0.33918948  1
  In  In46  1  0.31245625  0.63936706  0.00288903  1
  In  In47  1  0.85346671  0.81907399  0.32536217  1
  In  In48  1  0.83416040  0.49320737  0.67732840  1
  In  In49  1  0.15678462  0.82998340  0.65249803  1
  In  In50  1  0.31593864  0.65744625  0.33648830  1
  In  In51  1  0.49499395  0.49864272  -0.00068832  1
  In  In52  1  0.18651602  0.17181611  0.67234071  1
  In  In53  1  0.49459546  0.34640892  0.16645072  1
  In  In54  1  0.15969403  0.00449568  0.18621598  1
  In  In55  1  0.00007076  0.50680075  0.49080834  1
  In  In56  1  0.48812741  0.51492278  0.69527750  1
  In  In57  1  0.69616073  0.66124436  -0.00301071  1
  In  In58  1  0.84446770  0.82181905  0.65787592  1
  In  In59  1  0.33322889  0.84174032  0.49832424  1
  In  In60  1  0.00111336  -0.01708464  0.01236202  1
  In  In61  1  0.68978795  0.16357994  0.16546637  1
  In  In62  1  0.49099614  0.00290186  0.80498035  1
  In  In63  1  0.50955317  0.85157565  -0.00124208  1
  In  In64  1  -0.00892681  -0.00915162  0.64689400  1
  In  In65  1  -0.00152994  0.18334250  0.83973921  1
  In  In66  1  0.83943266  -0.00068711  0.82840100  1
  In  In67  1  0.84369889  0.81430881  0.01108101  1
  In  In68  1  0.83971132  0.33766255  0.85464342  1
  In  In69  1  -0.01621034  0.16116304  0.48668936  1
  In  In70  1  0.30956697  0.19471719  0.15056831  1
  In  In71  1  0.30847962  0.34545493  0.33520678  1
  Te  Te72  1  0.08484486  0.09454501  0.08716982  1
  Te  Te73  1  0.08587457  0.06978740  0.41525280  1
  Te  Te74  1  0.08025206  0.08306247  0.75367546  1
  Te  Te75  1  0.05535432  0.41686148  0.10529759  1
  Te  Te76  1  0.05990842  0.40253991  0.39363451  1
  Te  Te77  1  0.08563893  0.42689147  0.77125730  1
  Te  Te78  1  0.02978676  0.74177400  0.10188343  1
  Te  Te79  1  0.04864270  0.72478083  0.43803577  1
  Te  Te80  1  0.07398450  0.74395556  0.74839103  1
  Te  Te81  1  0.42394587  0.10466558  0.08671667  1
  Te  Te82  1  0.39645092  0.09925554  0.46196899  1
  Te  Te83  1  0.41067627  0.10957730  0.72940523  1
  Te  Te84  1  0.40046494  0.43221434  0.09256860  1
  Te  Te85  1  0.42235132  0.40141062  0.43746674  1
  Te  Te86  1  0.40233802  0.40429210  0.74076195  1
  Te  Te87  1  0.41717589  0.74657385  0.07024672  1
  Te  Te88  1  0.41567640  0.75452913  0.40001410  1
  Te  Te89  1  0.41983960  0.75252666  0.74433680  1
  Te  Te90  1  0.78501793  0.08601092  0.08502541  1
  Te  Te91  1  0.76693564  0.07019891  0.41271775  1
  Te  Te92  1  0.75504901  0.09540689  0.74427416  1
  Te  Te93  1  0.79456968  0.42233045  0.07572542  1
  Te  Te94  1  0.77932911  0.41288544  0.39550591  1
  Te  Te95  1  0.73977507  0.41145112  0.76312329  1
  Te  Te96  1  0.77720417  0.71932047  0.10501945  1
  Te  Te97  1  0.74329333  0.74367869  0.42302839  1
  Te  Te98  1  0.75209107  0.75033688  0.75648511  1
  Te  Te99  1  0.09750750  0.27584077  0.23118390  1
  Te  Te100  1  0.07915221  0.25224923  0.58399979  1
  Te  Te101  1  0.07992740  0.30004525  0.89425600  1
  Te  Te102  1  0.05248597  0.62664454  0.22817454  1
  Te  Te103  1  0.08392712  0.59248156  0.58431525  1
  Te  Te104  1  0.05139371  0.60258741  0.93765517  1
  Te  Te105  1  0.07382067  0.89549474  0.24308653  1
  Te  Te106  1  0.09819625  0.93227513  0.56332562  1
  Te  Te107  1  0.08000166  0.89024794  0.92082221  1
  Te  Te108  1  0.41687251  0.25296024  0.26229472  1
  Te  Te109  1  0.44137786  0.26117216  0.51346737  1
  Te  Te110  1  0.37721003  0.29003483  0.94789720  1
  Te  Te111  1  0.39533378  0.57045571  0.23695022  1
  Te  Te112  1  0.40667740  0.58418289  0.57517828  1
  Te  Te113  1  0.39740169  0.56355669  0.90147362  1
  Te  Te114  1  0.42370795  0.91654744  0.23992702  1
  Te  Te115  1  0.42542560  0.91980034  0.59100784  1
  Te  Te116  1  0.40802170  0.91282913  0.90103619  1
  Te  Te117  1  0.77181947  0.27685671  0.22479681  1
  Te  Te118  1  0.76840199  0.26360495  0.56345274  1
  Te  Te119  1  0.75310959  0.23477592  0.93159198  1
  Te  Te120  1  0.79581553  0.57352073  0.26026317  1
  Te  Te121  1  0.75893924  0.58791501  0.58098949  1
  Te  Te122  1  0.77843774  0.55706575  0.93245842  1
  Te  Te123  1  0.78584313  0.91344611  0.22789116  1
  Te  Te124  1  0.76720685  0.93090285  0.58221309  1
  Te  Te125  1  0.75749568  0.90716706  0.91666086  1
  Te  Te126  1  0.22201903  0.29860775  0.08540600  1
  Te  Te127  1  0.24264378  0.24318354  0.42770638  1
  Te  Te128  1  0.23937675  0.27420740  0.76340950  1
  Te  Te129  1  0.21505137  0.58935529  0.10005899  1
  Te  Te130  1  0.20725182  0.57405407  0.40257346  1
  Te  Te131  1  0.24696925  0.56214211  0.76483619  1
  Te  Te132  1  0.23620211  0.92430415  0.07160516  1
  Te  Te133  1  0.24318444  0.90241883  0.39098432  1
  Te  Te134  1  0.24906024  0.89965443  0.75447650  1
  Te  Te135  1  0.57895317  0.24512206  0.08512196  1
  Te  Te136  1  0.57538259  0.26643741  0.44190308  1
  Te  Te137  1  0.56298325  0.25089588  0.73812171  1
  Te  Te138  1  0.58502353  0.58395414  0.09194754  1
  Te  Te139  1  0.59603541  0.57762968  0.41411990  1
  Te  Te140  1  0.59907819  0.57812522  0.77908656  1
  Te  Te141  1  0.61742025  0.89056768  0.10007328  1
  Te  Te142  1  0.57607566  0.90630797  0.40446071  1
  Te  Te143  1  0.58959373  0.90062811  0.76622048  1
  Te  Te144  1  0.91511927  0.27771854  0.04094661  1
  Te  Te145  1  0.93207652  0.26313020  0.39354229  1
  Te  Te146  1  0.89882202  0.24858082  0.74431324  1
  Te  Te147  1  0.96588301  0.54055540  0.12199325  1
  Te  Te148  1  0.91560021  0.57279386  0.38575968  1
  Te  Te149  1  0.93548213  0.55470874  0.77152655  1
  Te  Te150  1  0.90434333  0.91691285  0.10366129  1
  Te  Te151  1  0.90304780  0.91561922  0.42640902  1
  Te  Te152  1  0.93188574  0.90090952  0.75689885  1
  Te  Te153  1  0.26781968  0.08776363  0.25628868  1
  Te  Te154  1  0.22754491  0.06978048  0.57333384  1
  Te  Te155  1  0.24101584  0.09639575  0.92673033  1
  Te  Te156  1  0.24365910  0.43656311  0.23924714  1
  Te  Te157  1  0.26781131  0.39596931  0.59482023  1
  Te  Te158  1  0.25111907  0.40324080  0.96120745  1
  Te  Te159  1  0.23507894  0.73547663  0.23168539  1
  Te  Te160  1  0.24402792  0.73736840  0.56566132  1
  Te  Te161  1  0.25168738  0.75192428  0.91816983  1
  Te  Te162  1  0.59493832  0.08166656  0.25568675  1
  Te  Te163  1  0.58634822  0.09666348  0.59928855  1
  Te  Te164  1  0.58140205  0.06682927  0.92010528  1
  Te  Te165  1  0.59486519  0.42744481  0.25120611  1
  Te  Te166  1  0.58171520  0.43459138  0.59768889  1
  Te  Te167  1  0.59248541  0.41483000  0.91736669  1
  Te  Te168  1  0.58640796  0.76483443  0.25728851  1
  Te  Te169  1  0.56847072  0.76204933  0.59579421  1
  Te  Te170  1  0.59452746  0.74992419  0.92250100  1
  Te  Te171  1  0.92968099  0.09572990  0.23808249  1
  Te  Te172  1  0.90298326  0.09400940  0.59003814  1
  Te  Te173  1  0.92178465  0.08306846  0.92592428  1
  Te  Te174  1  0.94734337  0.41795005  0.20888933  1
  Te  Te175  1  0.91295708  0.41278818  0.57483153  1
  Te  Te176  1  0.95339199  0.38838615  0.93765747  1
  Te  Te177  1  0.94530124  0.74228248  0.23572902  1
  Te  Te178  1  0.95308824  0.77354359  0.55472630  1
  Te  Te179  1  0.93723483  0.72802944  0.92951770  1
