# generated using pymatgen
data_In2Te3
_symmetry_space_group_name_H-M   'P 1'
_cell_length_a   19.03009293
_cell_length_b   19.00534910
_cell_length_c   19.00604888
_cell_angle_alpha   89.96325824
_cell_angle_beta   89.53906229
_cell_angle_gamma   90.17830665
_symmetry_Int_Tables_number   1
_chemical_formula_structural   In2Te3
_chemical_formula_sum   'In72 Te108'
_cell_volume   6873.72809995
_cell_formula_units_Z   36
loop_
 _symmetry_equiv_pos_site_id
 _symmetry_equiv_pos_as_xyz
  1  'x, y, z'
loop_
 _atom_site_type_symbol
 _atom_site_label
 _atom_site_symmetry_multiplicity
 _atom_site_fract_x
 _atom_site_fract_y
 _atom_site_fract_z
 _atom_site_occupancy
  In  In0  1  0.16130431  0.18273517  0.02704063  1
  In  In1  1  0.17651944  0.36042203  0.82626408  1
  In  In2  1  0.85073522  0.51698416  -0.03172357  1
  In  In3  1  0.50885452  0.48628250  0.32860954  1
  In  In4  1  0.29259495  -0.01169386  0.64483412  1
  In  In5  1  0.50652770  0.81177875  0.69697233  1
  In  In6  1  0.49028756  0.68345047  0.50610761  1
  In  In7  1  0.16603077  0.48470257  0.34583066  1
  In  In8  1  0.68888631  0.84727684  0.48170663  1
  In  In9  1  0.21140265  -0.01116660  0.20290175  1
  In  In10  1  0.46507908  0.86166176  0.31395151  1
  In  In11  1  0.86381401  0.37299606  0.72991105  1
  In  In12  1  0.49363321  0.66889534  0.15879734  1
  In  In13  1  0.64008153  0.81729484  0.13089558  1
  In  In14  1  0.81734511  0.81406072  -0.01627312  1
  In  In15  1  0.02662561  0.80360898  0.79137069  1
  In  In16  1  0.83565584  -0.00411415  0.82095383  1
  In  In17  1  0.33667609  0.32338193  0.67039563  1
  In  In18  1  -0.00512786  0.51518335  0.16879788  1
  In  In19  1  0.65722850  0.15389944  0.18990521  1
  In  In20  1  0.19375091  0.32383829  0.47839096  1
  In  In21  1  0.49841566  0.34991244  0.13078102  1
  In  In22  1  0.34977094  0.49254509  0.87152128  1
  In  In23  1  0.49157595  0.15086863  0.01756508  1
  In  In24  1  0.63679606  -0.00487561  0.00599126  1
  In  In25  1  0.31541432  0.85475067  0.49695574  1
  In  In26  1  0.31068576  0.65214940  0.31458740  1
  In  In27  1  0.03540995  0.81821181  0.14605997  1
  In  In28  1  0.82526061  0.52057251  0.36603937  1
  In  In29  1  0.33692417  0.51208066  0.48867157  1
  In  In30  1  0.65062884  -0.02042761  0.65253822  1
  In  In31  1  0.85769529  0.85120595  0.31598564  1
  In  In32  1  0.49031693  0.83115984  -0.03321153  1
  In  In33  1  0.46194323  0.17404089  0.32106253  1
  In  In34  1  0.68000820  0.67593453  0.69724869  1
  In  In35  1  0.01853238  0.33950982  0.36469696  1
  In  In36  1  0.33768394  0.14856137  0.83742723  1
  In  In37  1  0.66278126  0.48766608  0.52069203  1
  In  In38  1  0.50931696  0.31187734  0.47863355  1
  In  In39  1  0.48345507  0.16086504  0.66418563  1
  In  In40  1  0.83363400  0.19199995  -0.00571384  1
  In  In41  1  0.29501433  0.80381696  0.16699449  1
  In  In42  1  0.65471258  0.50432172  0.16765892  1
  In  In43  1  0.82663493  0.35733715  0.50979017  1
  In  In44  1  0.18101795  -0.01773327  0.81827987  1
  In  In45  1  0.82285278  -0.01726481  0.15642475  1
  In  In46  1  0.84536171  -0.00396834  0.51224592  1
  In  In47  1  0.02478175  -0.02698573  -0.02667995  1
  In  In48  1  0.00840082  0.69109521  0.35482941  1
  In  In49  1  0.86141133  0.68523400  0.52261675  1
  In  In50  1  0.18703444  0.54507610  -0.02549542  1
  In  In51  1  0.84257674  0.33911014  0.16686980  1
  In  In52  1  0.65652539  0.14875311  0.83827610  1
  In  In53  1  0.17403916  0.31451211  0.21764298  1
  In  In54  1  0.31796574  0.66840254  0.66684055  1
  In  In55  1  0.03464709  -0.00193316  0.63956829  1
  In  In56  1  0.67703665  0.65727862  0.31985979  1
  In  In57  1  0.00270940  0.49670275  0.80761802  1
  In  In58  1  0.46493134  0.01715142  0.50379465  1
  In  In59  1  -0.01078921  0.17626961  0.82046906  1
  In  In60  1  0.15701114  0.53231844  0.66858001  1
  In  In61  1  0.66877907  0.32548054  0.66664739  1
  In  In62  1  0.50188864  0.34766736  0.87825214  1
  In  In63  1  0.02872646  0.38628665  -0.01538493  1
  In  In64  1  0.66011324  0.35268894  -0.01936147  1
  In  In65  1  0.85004685  0.18074679  0.36550474  1
  In  In66  1  0.08270893  -0.00801523  0.38582630  1
  In  In67  1  0.85724515  0.67440890  0.81580224  1
  In  In68  1  0.65668287  0.01324072  0.33071044  1
  In  In69  1  0.49897899  0.65231824  0.84922443  1
  In  In70  1  0.33989137  -0.00733955  0.01111748  1
  In  In71  1  -0.00507328  0.16276563  0.17896556  1
  Te  Te72  1  0.07021728  0.07389680  0.08190397  1
  Te  Te73  1  0.12941078  0.09540655  0.48568122  1
  Te  Te74  1  0.09126681  0.08483395  0.75378047  1
  Te  Te75  1  0.08462508  0.40349310  0.12120722  1
  Te  Te76  1  0.08385606  0.42842854  0.46656582  1
  Te  Te77  1  0.08360083  0.40412556  0.71787377  1
  Te  Te78  1  0.12580272  0.71549529  0.08869401  1
  Te  Te79  1  0.06173185  0.78608631  0.45561376  1
  Te  Te80  1  0.11104566  0.68756702  0.74916554  1
  Te  Te81  1  0.39113568  0.09102086  0.10580661  1
  Te  Te82  1  0.38446121  0.07393432  0.39872028  1
  Te  Te83  1  0.40064302  0.05666209  0.73625912  1
  Te  Te84  1  0.44603057  0.44277132  0.03296333  1
  Te  Te85  1  0.40943214  0.40567374  0.40913191  1
  Te  Te86  1  0.41876800  0.40861991  0.76610578  1
  Te  Te87  1  0.40691777  0.75754217  0.07566843  1
  Te  Te88  1  0.40504694  0.74907311  0.40027594  1
  Te  Te89  1  0.39756412  0.74032553  0.77298184  1
  Te  Te90  1  0.74658673  0.08505620  0.07063326  1
  Te  Te91  1  0.75178238  0.07988598  0.42663781  1
  Te  Te92  1  0.74126427  0.07620820  0.73627712  1
  Te  Te93  1  0.76091018  0.42370607  0.07299829  1
  Te  Te94  1  0.72719792  0.41464720  0.40482463  1
  Te  Te95  1  0.73032117  0.43149034  0.74574867  1
  Te  Te96  1  0.75793886  0.74147741  0.09544476  1
  Te  Te97  1  0.77988970  0.74978885  0.40398302  1
  Te  Te98  1  0.77708433  0.77359309  0.74212021  1
  Te  Te99  1  0.07247639  0.21110633  0.29834668  1
  Te  Te100  1  0.13794327  0.22710547  0.57708894  1
  Te  Te101  1  0.08529413  0.25947233  0.91047012  1
  Te  Te102  1  0.08121788  0.58602530  0.26910159  1
  Te  Te103  1  0.05831480  0.63209122  0.62200457  1
  Te  Te104  1  0.04996018  0.57372161  0.92572363  1
  Te  Te105  1  0.08153506  0.92117805  0.24734179  1
  Te  Te106  1  0.09057456  0.87131083  0.58429033  1
  Te  Te107  1  0.11181726  0.87474718  0.90261545  1
  Te  Te108  1  0.41162122  0.26445702  0.21388875  1
  Te  Te109  1  0.40349193  0.23866548  0.56325789  1
  Te  Te110  1  0.40632060  0.24272246  0.93342370  1
  Te  Te111  1  0.41657892  0.56724437  0.24135650  1
  Te  Te112  1  0.42089209  0.58166957  0.59329250  1
  Te  Te113  1  0.42484900  0.58244928  0.96246447  1
  Te  Te114  1  0.34832195  0.92385949  0.24805753  1
  Te  Te115  1  0.42644347  0.89797398  0.59267703  1
  Te  Te116  1  0.39480760  0.91742720  0.89890518  1
  Te  Te117  1  0.76418520  0.24233952  0.25318332  1
  Te  Te118  1  0.74361116  0.25096382  0.56682275  1
  Te  Te119  1  0.74685606  0.25712569  0.89262333  1
  Te  Te120  1  0.77407317  0.57389961  0.23626761  1
  Te  Te121  1  0.74126375  0.60486054  0.57392820  1
  Te  Te122  1  0.75869838  0.60583711  0.90196508  1
  Te  Te123  1  0.72645825  0.90599771  0.24605042  1
  Te  Te124  1  0.77068414  0.89600333  0.59819911  1
  Te  Te125  1  0.74088534  0.92444167  0.91723202  1
  Te  Te126  1  0.25807563  0.25201855  0.11055480  1
  Te  Te127  1  0.23739905  0.24744779  0.35747600  1
  Te  Te128  1  0.24670787  0.24165771  0.76098118  1
  Te  Te129  1  0.23615417  0.60480349  0.10283486  1
  Te  Te130  1  0.22732753  0.59657400  0.43267024  1
  Te  Te131  1  0.26261594  0.56696423  0.76803786  1
  Te  Te132  1  0.23057273  0.90997485  0.07449361  1
  Te  Te133  1  0.22162914  0.95272950  0.43860911  1
  Te  Te134  1  0.22532421  0.88180155  0.71952827  1
  Te  Te135  1  0.60627110  0.23932165  0.07383937  1
  Te  Te136  1  0.58133997  0.22027713  0.39148922  1
  Te  Te137  1  0.56311681  0.24372936  0.76216231  1
  Te  Te138  1  0.59687619  0.60260927  0.07894899  1
  Te  Te139  1  0.57791640  0.58302086  0.42272020  1
  Te  Te140  1  0.56347271  0.59491523  0.72921842  1
  Te  Te141  1  0.54058066  0.91914676  0.09194729  1
  Te  Te142  1  0.56961403  0.91710146  0.41691909  1
  Te  Te143  1  0.59068606  0.90849515  0.76495273  1
  Te  Te144  1  0.93892230  0.26463370  0.07527872  1
  Te  Te145  1  0.93656521  0.25631086  0.46273514  1
  Te  Te146  1  0.90162281  0.23150011  0.71923442  1
  Te  Te147  1  0.94166688  0.59511950  0.05614674  1
  Te  Te148  1  0.93873893  0.58326809  0.43997789  1
  Te  Te149  1  0.92439849  0.58475711  0.71558611  1
  Te  Te150  1  0.92592212  0.90658291  0.07628218  1
  Te  Te151  1  0.93778915  0.93749571  0.40804211  1
  Te  Te152  1  0.94535269  0.92625424  0.74771063  1
  Te  Te153  1  0.21393239  0.12001476  0.27133864  1
  Te  Te154  1  0.24744154  0.11416029  0.58506652  1
  Te  Te155  1  0.23168219  0.08507451  0.92745600  1
  Te  Te156  1  0.25813417  0.43108429  0.24654265  1
  Te  Te157  1  0.25883304  0.42397702  0.58864702  1
  Te  Te158  1  0.25056506  0.40589385  0.94776157  1
  Te  Te159  1  0.22005585  0.76230099  0.28713244  1
  Te  Te160  1  0.24798434  0.74071601  0.56027657  1
  Te  Te161  1  0.23316305  0.69002868  0.97190963  1
  Te  Te162  1  0.54952052  0.06435921  0.24039723  1
  Te  Te163  1  0.57989102  0.08694366  0.57273166  1
  Te  Te164  1  0.54959581  0.06523578  0.90561205  1
  Te  Te165  1  0.59362073  0.39256487  0.24595767  1
  Te  Te166  1  0.55859055  0.40296414  0.58774617  1
  Te  Te167  1  0.60775846  0.45018822  0.88509159  1
  Te  Te168  1  0.57418634  0.75827972  0.26373789  1
  Te  Te169  1  0.59894975  0.76246853  0.57400492  1
  Te  Te170  1  0.59359604  0.74486691  0.91249951  1
  Te  Te171  1  0.88842315  0.08120306  0.25039221  1
  Te  Te172  1  0.92699298  0.08611321  0.59275715  1
  Te  Te173  1  0.91987080  0.08024288  0.92792702  1
  Te  Te174  1  0.92276819  0.41281681  0.27216203  1
  Te  Te175  1  0.88208056  0.45390335  0.60613740  1
  Te  Te176  1  0.90970204  0.39797757  0.89061180  1
  Te  Te177  1  0.93104176  0.74629882  0.23696468  1
  Te  Te178  1  0.96282587  0.77843652  0.58027118  1
  Te  Te179  1  0.93707452  0.76137223  0.91199735  1
