# generated using pymatgen
data_In2Te3
_symmetry_space_group_name_H-M   'P 1'
_cell_length_a   18.72660172
_cell_length_b   18.71947028
_cell_length_c   18.72954924
_cell_angle_alpha   90.04959963
_cell_angle_beta   90.02783130
_cell_angle_gamma   90.00521704
_symmetry_Int_Tables_number   1
_chemical_formula_structural   In2Te3
_chemical_formula_sum   'In72 Te108'
_cell_volume   6565.67888706
_cell_formula_units_Z   36
loop_
 _symmetry_equiv_pos_site_id
 _symmetry_equiv_pos_as_xyz
  1  'x, y, z'
loop_
 _atom_site_type_symbol
 _atom_site_label
 _atom_site_symmetry_multiplicity
 _atom_site_fract_x
 _atom_site_fract_y
 _atom_site_fract_z
 _atom_site_occupancy
  In  In0  1  0.01879728  0.35238645  0.34592688  1
  In  In1  1  0.66579828  0.31897461  0.34453911  1
  In  In2  1  -0.01193391  0.16477984  0.15435313  1
  In  In3  1  0.84055620  0.32098241  0.13779566  1
  In  In4  1  0.15837544  0.50275057  0.34429787  1
  In  In5  1  0.17038856  0.17191335  -0.02487633  1
  In  In6  1  0.01570610  0.84597080  0.49744208  1
  In  In7  1  0.47971436  0.66401657  0.51534156  1
  In  In8  1  0.18806271  0.00400588  0.82284099  1
  In  In9  1  0.64154297  0.50081331  0.52234172  1
  In  In10  1  0.85978356  0.49967561  -0.00478412  1
  In  In11  1  0.14866945  0.86885989  0.32613672  1
  In  In12  1  -0.01199189  -0.01165226  0.65495674  1
  In  In13  1  0.64393239  0.83608468  0.84701138  1
  In  In14  1  0.00354560  0.65165668  0.65640384  1
  In  In15  1  0.51529735  0.83435774  0.35121578  1
  In  In16  1  0.69763126  0.67679763  0.33802817  1
  In  In17  1  0.17614851  0.66733046  0.14625676  1
  In  In18  1  0.48436626  0.31700785  0.81439724  1
  In  In19  1  0.33152674  -0.00132720  0.35499924  1
  In  In20  1  0.35339803  0.68248133  0.35340193  1
  In  In21  1  0.67718812  0.02004559  0.01081971  1
  In  In22  1  0.03681682  0.50630523  0.49235487  1
  In  In23  1  0.66891938  0.13975443  0.14661257  1
  In  In24  1  0.15277609  0.34202885  0.14872377  1
  In  In25  1  0.82443849  0.47655233  0.66836363  1
  In  In26  1  0.33094319  0.16035531  0.16393587  1
  In  In27  1  0.17864517  0.15613509  0.35598233  1
  In  In28  1  0.65960800  0.53118139  0.16461156  1
  In  In29  1  0.82665561  0.30840984  0.52507787  1
  In  In30  1  0.47927044  0.84881504  0.66608290  1
  In  In31  1  0.83041260  0.84680594  0.67453419  1
  In  In32  1  0.46439208  0.36752755  0.12989219  1
  In  In33  1  0.82374802  0.50417444  0.32747141  1
  In  In34  1  0.46071067  -0.00428355  0.82710622  1
  In  In35  1  0.20300584  0.16529335  0.68090080  1
  In  In36  1  0.63260334  0.68297201  -0.01967447  1
  In  In37  1  0.50686341  0.00593363  0.15358293  1
  In  In38  1  -0.02098264  0.83988312  0.82244430  1
  In  In39  1  0.66162647  0.49819405  0.80700439  1
  In  In40  1  0.49515844  0.49157470  0.67287873  1
  In  In41  1  0.83762031  0.83863745  -0.00430801  1
  In  In42  1  0.01392672  0.48610411  0.84593797  1
  In  In43  1  0.68489198  0.86214404  0.16686037  1
  In  In44  1  0.82922182  0.68340297  0.84434598  1
  In  In45  1  0.46777964  0.31043344  0.55052535  1
  In  In46  1  -0.02594036  0.70844311  0.30088179  1
  In  In47  1  0.65335672  0.84760694  0.50884617  1
  In  In48  1  0.01809714  0.32777669  0.68904745  1
  In  In49  1  0.31663955  0.83933587  0.15818886  1
  In  In50  1  0.49818157  0.13861494  0.33882876  1
  In  In51  1  0.68234083  0.14595053  0.81312563  1
  In  In52  1  0.18696577  0.63953342  0.82169536  1
  In  In53  1  0.49025631  0.69127432  0.13770645  1
  In  In54  1  0.32632732  0.65647578  -0.00605607  1
  In  In55  1  0.63790931  0.14362053  0.53880409  1
  In  In56  1  0.17854598  0.86137620  0.68580227  1
  In  In57  1  -0.00494913  0.17203811  0.84451524  1
  In  In58  1  0.32841683  0.30715982  0.33640640  1
  In  In59  1  0.01076824  0.14926284  0.50270899  1
  In  In60  1  0.17470712  0.81667976  -0.00051377  1
  In  In61  1  0.67098115  0.31934653  -0.02502737  1
  In  In62  1  0.84105193  0.00163810  0.50307602  1
  In  In63  1  0.33545142  0.48693509  0.13048459  1
  In  In64  1  0.32618030  0.47404037  0.53864195  1
  In  In65  1  0.18125980  0.68311004  0.52157950  1
  In  In66  1  0.81067133  0.65540640  0.49030044  1
  In  In67  1  0.01655539  0.49614201  0.13685537  1
  In  In68  1  0.84437524  0.13608319  0.32484107  1
  In  In69  1  -0.00320185  0.00446444  0.00488237  1
  In  In70  1  0.48752909  0.18663341  -0.00977224  1
  In  In71  1  0.48684536  0.49657377  0.32288970  1
  Te  Te72  1  0.10160869  0.08805097  0.08235563  1
  Te  Te73  1  0.08353791  0.05744898  0.41268013  1
  Te  Te74  1  0.08140647  0.08076055  0.74240040  1
  Te  Te75  1  0.07593111  0.40325092  0.03655594  1
  Te  Te76  1  0.12778643  0.39030008  0.44586848  1
  Te  Te77  1  0.11397698  0.42363722  0.75392336  1
  Te  Te78  1  0.07604561  0.76269534  0.09619393  1
  Te  Te79  1  0.08429810  0.73594873  0.41499126  1
  Te  Te80  1  0.08084769  0.75305216  0.74471800  1
  Te  Te81  1  0.40581210  0.07303939  0.06278319  1
  Te  Te82  1  0.40796772  0.08880003  0.44645912  1
  Te  Te83  1  0.42519175  0.10212104  0.72618166  1
  Te  Te84  1  0.40067992  0.42934500  -0.00267402  1
  Te  Te85  1  0.42018941  0.41048870  0.43317852  1
  Te  Te86  1  0.38802850  0.42191973  0.75574806  1
  Te  Te87  1  0.41238454  0.78815988  0.04780649  1
  Te  Te88  1  0.40877693  0.78576845  0.45071869  1
  Te  Te89  1  0.39037812  0.74054952  0.71495401  1
  Te  Te90  1  0.78913110  0.07324674  0.09411554  1
  Te  Te91  1  0.74209377  0.09569701  0.42993077  1
  Te  Te92  1  0.75713483  0.05147296  0.72686756  1
  Te  Te93  1  0.74098459  0.42324487  0.08126722  1
  Te  Te94  1  0.75203661  0.42232474  0.43723740  1
  Te  Te95  1  0.75642032  0.39067517  0.76723879  1
  Te  Te96  1  0.73583746  0.75134632  0.07178348  1
  Te  Te97  1  0.76520576  0.78457938  0.42151326  1
  Te  Te98  1  0.73414968  0.75353990  0.74862833  1
  Te  Te99  1  0.09056072  0.24784039  0.25495335  1
  Te  Te100  1  0.09666861  0.23834952  0.59035389  1
  Te  Te101  1  0.09646219  0.27069457  0.89436619  1
  Te  Te102  1  0.07625729  0.58877945  0.24943431  1
  Te  Te103  1  0.12121690  0.56874963  0.60539865  1
  Te  Te104  1  0.08176654  0.59749458  0.91697042  1
  Te  Te105  1  0.05295336  0.93338644  0.23733176  1
  Te  Te106  1  0.10920934  0.94054009  0.57403404  1
  Te  Te107  1  0.08455010  0.91933320  0.90307251  1
  Te  Te108  1  0.43652394  0.24787961  0.24471077  1
  Te  Te109  1  0.37707094  0.21689551  0.62710002  1
  Te  Te110  1  0.38167819  0.23021597  0.88974295  1
  Te  Te111  1  0.40308515  0.59584362  0.23067728  1
  Te  Te112  1  0.38015882  0.59989937  0.61930472  1
  Te  Te113  1  0.42293525  0.57011875  0.92563564  1
  Te  Te114  1  0.42076301  0.91344787  0.24895515  1
  Te  Te115  1  0.41947582  0.96063745  0.58325952  1
  Te  Te116  1  0.43876343  0.89069982  0.92871598  1
  Te  Te117  1  0.76136455  0.24342737  0.24641466  1
  Te  Te118  1  0.72722501  0.23977237  0.61029965  1
  Te  Te119  1  0.76067536  0.21575500  0.92203365  1
  Te  Te120  1  0.77789808  0.60914884  0.22557352  1
  Te  Te121  1  0.73698489  0.58847506  0.60578629  1
  Te  Te122  1  0.74191106  0.58243735  0.92134967  1
  Te  Te123  1  0.77596295  0.91257112  0.26953331  1
  Te  Te124  1  0.73297715  0.94393416  0.60226912  1
  Te  Te125  1  0.74895999  0.92784682  0.91036995  1
  Te  Te126  1  0.26796185  0.26890493  0.07395328  1
  Te  Te127  1  0.26339624  0.23598477  0.44740967  1
  Te  Te128  1  0.26059223  0.28786683  0.74986123  1
  Te  Te129  1  0.22141033  0.55712784  0.05178577  1
  Te  Te130  1  0.26794238  0.57915577  0.42987266  1
  Te  Te131  1  0.28820080  0.56050698  0.74806904  1
  Te  Te132  1  0.23694724  0.92994671  0.07361273  1
  Te  Te133  1  0.24684921  0.90296139  0.43041665  1
  Te  Te134  1  0.29409621  0.91941802  0.76139000  1
  Te  Te135  1  0.58113595  0.25434325  0.09303989  1
  Te  Te136  1  0.56622788  0.24689994  0.43588900  1
  Te  Te137  1  0.58375410  0.23309039  0.74173514  1
  Te  Te138  1  0.55431179  0.57337473  0.06162540  1
  Te  Te139  1  0.58090256  0.59503504  0.41061414  1
  Te  Te140  1  0.56736112  0.59615952  0.74888475  1
  Te  Te141  1  0.58232160  0.90801528  0.06323992  1
  Te  Te142  1  0.58523513  0.94492576  0.41967414  1
  Te  Te143  1  0.57981881  0.93248775  0.74781842  1
  Te  Te144  1  0.94171005  0.25955305  0.05019650  1
  Te  Te145  1  0.91892177  0.25234262  0.41196775  1
  Te  Te146  1  0.90912960  0.24762253  0.74780259  1
  Te  Te147  1  0.92166867  0.59807201  0.08660759  1
  Te  Te148  1  0.92678090  0.58707945  0.41482068  1
  Te  Te149  1  0.90931160  0.58324852  0.75543205  1
  Te  Te150  1  0.92677171  0.90642915  0.09688476  1
  Te  Te151  1  0.92279393  0.92065948  0.40878518  1
  Te  Te152  1  0.89145944  0.95555282  0.77283923  1
  Te  Te153  1  0.24495561  0.06765936  0.24746670  1
  Te  Te154  1  0.29032675  0.07285752  0.60217233  1
  Te  Te155  1  0.27681578  0.09463387  0.90299246  1
  Te  Te156  1  0.25414516  0.41769019  0.25053767  1
  Te  Te157  1  0.25158661  0.38633125  0.63475392  1
  Te  Te158  1  0.28043004  0.35274959  0.94192940  1
  Te  Te159  1  0.24530004  0.74840175  0.26392914  1
  Te  Te160  1  0.27130687  0.76627076  0.60963213  1
  Te  Te161  1  0.26246487  0.75347215  0.89126195  1
  Te  Te162  1  0.60416339  0.05973315  0.26035702  1
  Te  Te163  1  0.53577671  0.06387452  0.61481295  1
  Te  Te164  1  0.57258039  0.08384874  0.91438446  1
  Te  Te165  1  0.58899968  0.41479517  0.24069154  1
  Te  Te166  1  0.58923629  0.38818116  0.60948492  1
  Te  Te167  1  0.57610156  0.41074356  0.90216891  1
  Te  Te168  1  0.58635495  0.74505196  0.24656990  1
  Te  Te169  1  0.58073639  0.74607831  0.59511156  1
  Te  Te170  1  0.53333695  0.74157285  0.88427931  1
  Te  Te171  1  0.95187270  0.05549003  0.25392963  1
  Te  Te172  1  0.90312987  0.10473447  0.60018065  1
  Te  Te173  1  0.90126822  0.09095275  0.92978376  1
  Te  Te174  1  0.91991153  0.41586367  0.24444510  1
  Te  Te175  1  0.93194847  0.41933497  0.57393597  1
  Te  Te176  1  0.90216004  0.40086437  0.89419580  1
  Te  Te177  1  0.88246478  0.80322907  0.23256194  1
  Te  Te178  1  0.91529690  0.75401911  0.58221692  1
  Te  Te179  1  0.94020468  0.74072810  0.93208092  1
