# generated using pymatgen
data_In2Te3
_symmetry_space_group_name_H-M   'P 1'
_cell_length_a   18.92814861
_cell_length_b   18.93024363
_cell_length_c   18.96678152
_cell_angle_alpha   89.75454678
_cell_angle_beta   90.01505736
_cell_angle_gamma   89.90813947
_symmetry_Int_Tables_number   1
_chemical_formula_structural   In2Te3
_chemical_formula_sum   'In72 Te108'
_cell_volume   6796.00082174
_cell_formula_units_Z   36
loop_
 _symmetry_equiv_pos_site_id
 _symmetry_equiv_pos_as_xyz
  1  'x, y, z'
loop_
 _atom_site_type_symbol
 _atom_site_label
 _atom_site_symmetry_multiplicity
 _atom_site_fract_x
 _atom_site_fract_y
 _atom_site_fract_z
 _atom_site_occupancy
  In  In0  1  0.20204318  0.33529619  0.83128653  1
  In  In1  1  0.83426647  0.13105886  0.66883823  1
  In  In2  1  -0.01180470  0.66365799  0.35182462  1
  In  In3  1  0.68496200  0.49492884  0.82343558  1
  In  In4  1  -0.01243600  0.14846949  0.49320321  1
  In  In5  1  0.66166482  0.51916056  0.17493277  1
  In  In6  1  0.50349755  0.35677678  0.15276946  1
  In  In7  1  0.67903063  0.51158928  0.49005274  1
  In  In8  1  0.84458208  0.34895903  0.48749263  1
  In  In9  1  0.19847333  0.51300901  0.32951884  1
  In  In10  1  0.65813993  0.13907861  0.47035942  1
  In  In11  1  0.02875808  0.13109532  0.80671894  1
  In  In12  1  0.14935722  0.13885930  0.00749909  1
  In  In13  1  0.15696404  0.14789800  0.35762609  1
  In  In14  1  0.00578594  0.86904275  0.19637618  1
  In  In15  1  0.85748584  0.27739298  0.85023352  1
  In  In16  1  0.33870543  0.68414235  0.34938453  1
  In  In17  1  0.18822862  0.66987633  0.83488245  1
  In  In18  1  0.67234286  0.62686219  0.64817737  1
  In  In19  1  0.16498193  0.31302722  0.49528755  1
  In  In20  1  -0.00056966  0.50004722  0.81522546  1
  In  In21  1  0.84424301  0.54463085  -0.00895749  1
  In  In22  1  0.35250364  0.34060512  0.32765849  1
  In  In23  1  0.83504872  0.33134032  0.18434205  1
  In  In24  1  0.50032055  0.13771772  -0.02698219  1
  In  In25  1  0.52365734  0.34373968  0.49390114  1
  In  In26  1  -0.00093731  0.70669310  -0.01236551  1
  In  In27  1  0.84868928  0.70217534  0.84336964  1
  In  In28  1  0.69458987  0.85858529  0.81835209  1
  In  In29  1  0.32398712  0.52465790  0.48951016  1
  In  In30  1  0.70464909  0.30269996  0.05534078  1
  In  In31  1  0.27592021  0.84330058  0.51895057  1
  In  In32  1  0.52807772  0.31769165  0.84903355  1
  In  In33  1  0.48792099  0.83735139  0.64949348  1
  In  In34  1  0.30877117  0.84363775  0.81546346  1
  In  In35  1  0.50519216  0.69959388  0.83634959  1
  In  In36  1  0.15902078  0.52931641  0.03904247  1
  In  In37  1  0.48955718  0.83960449  0.32400759  1
  In  In38  1  0.49160298  -0.01287373  0.50142014  1
  In  In39  1  0.50425778  0.54232218  -0.01726962  1
  In  In40  1  0.48334541  0.14965427  0.64374768  1
  In  In41  1  0.85542696  0.82068615  0.66013272  1
  In  In42  1  0.84178146  0.15044052  -0.00704104  1
  In  In43  1  0.29069474  0.09479654  0.50216968  1
  In  In44  1  0.85315277  -0.02545028  0.49567334  1
  In  In45  1  0.14291944  0.52387293  0.65879043  1
  In  In46  1  0.82405413  0.49399901  0.63756539  1
  In  In47  1  0.15927285  -0.00270289  0.16776757  1
  In  In48  1  0.34774177  0.51415775  0.85852532  1
  In  In49  1  0.14601443  0.30798703  0.14916077  1
  In  In50  1  0.00198999  0.32595320  -0.00637422  1
  In  In51  1  0.47715254  0.50451725  0.64710620  1
  In  In52  1  0.81180971  0.69090675  0.16500219  1
  In  In53  1  0.33593544  0.00455496  0.01052389  1
  In  In54  1  0.67048811  0.71543277  0.02726290  1
  In  In55  1  0.29108047  0.12162432  0.83424663  1
  In  In56  1  0.31736609  0.53601132  0.19620746  1
  In  In57  1  0.67962591  0.68162191  0.34688652  1
  In  In58  1  0.34132521  -0.00393058  0.33165363  1
  In  In59  1  0.34669939  0.17421379  0.14531744  1
  In  In60  1  0.32662908  0.34612354  0.68028300  1
  In  In61  1  0.83584832  0.12758420  0.28663539  1
  In  In62  1  0.06313722  0.86253057  0.81598602  1
  In  In63  1  0.68064555  0.81883375  0.50288000  1
  In  In64  1  0.64415244  0.12073745  0.18524462  1
  In  In65  1  0.15348378  0.69265508  0.19784128  1
  In  In66  1  0.66469647  0.11236276  0.85049732  1
  In  In67  1  0.49833231  -0.00169112  0.83623602  1
  In  In68  1  -0.01551468  0.67236262  0.63791321  1
  In  In69  1  0.68228665  0.29749451  0.66197132  1
  In  In70  1  0.37339278  0.34494462  -0.01252955  1
  In  In71  1  -0.00387910  0.33390639  0.33733898  1
  Te  Te72  1  0.05405829  0.08746759  0.10856292  1
  Te  Te73  1  0.05156412  0.05222405  0.39940185  1
  Te  Te74  1  0.12571251  0.05041483  0.72849108  1
  Te  Te75  1  0.06210210  0.42332294  0.09371020  1
  Te  Te76  1  0.10270779  0.41691345  0.40560405  1
  Te  Te77  1  0.09463280  0.40607292  0.74491256  1
  Te  Te78  1  0.08022575  0.77576859  0.09254449  1
  Te  Te79  1  0.05563313  0.77524470  0.42434596  1
  Te  Te80  1  0.06817493  0.72109594  0.75431378  1
  Te  Te81  1  0.44293682  0.06727956  0.09786006  1
  Te  Te82  1  0.41895831  0.09298120  0.42035106  1
  Te  Te83  1  0.39921176  0.06629020  0.74126430  1
  Te  Te84  1  0.41044669  0.46106999  0.08011822  1
  Te  Te85  1  0.42581370  0.43605177  0.41807828  1
  Te  Te86  1  0.43010610  0.41178817  0.77306403  1
  Te  Te87  1  0.47589541  0.81452108  0.04213816  1
  Te  Te88  1  0.40224760  0.78717720  0.43752278  1
  Te  Te89  1  0.40031348  0.74964116  0.73739373  1
  Te  Te90  1  0.74744143  0.07679427  0.08034357  1
  Te  Te91  1  0.76390920  0.05419427  0.40158524  1
  Te  Te92  1  0.77755331  0.04761895  0.78031743  1
  Te  Te93  1  0.76227097  0.44407783  0.07932996  1
  Te  Te94  1  0.73875881  0.40798406  0.40756831  1
  Te  Te95  1  0.76714303  0.39052068  0.74744298  1
  Te  Te96  1  0.75051739  0.81274003  0.10457921  1
  Te  Te97  1  0.76724885  0.79291467  0.38773876  1
  Te  Te98  1  0.73858415  0.73497150  0.73353073  1
  Te  Te99  1  0.07384040  0.23129387  0.25705213  1
  Te  Te100  1  0.08079570  0.22744216  0.57928810  1
  Te  Te101  1  0.09131386  0.24501904  0.90136877  1
  Te  Te102  1  0.08032199  0.57628646  0.25741282  1
  Te  Te103  1  0.04836154  0.56866821  0.55283447  1
  Te  Te104  1  0.07378609  0.58244181  0.91988669  1
  Te  Te105  1  0.12899288  0.90033935  0.27901140  1
  Te  Te106  1  0.13696704  0.87769248  0.58303633  1
  Te  Te107  1  0.03908939  0.94461552  0.93574979  1
  Te  Te108  1  0.43677854  0.24845701  0.24154284  1
  Te  Te109  1  0.42001693  0.27325557  0.58337159  1
  Te  Te110  1  0.40177736  0.22460053  0.89046092  1
  Te  Te111  1  0.42610671  0.59623204  0.27008658  1
  Te  Te112  1  0.40127675  0.60916181  0.58080144  1
  Te  Te113  1  0.39891429  0.63832902  0.92866248  1
  Te  Te114  1  0.38415762  0.89470762  0.23211725  1
  Te  Te115  1  0.38416999  0.93260049  0.59245507  1
  Te  Te116  1  0.41128112  0.90176434  0.91744674  1
  Te  Te117  1  0.73392340  0.23509337  0.24194196  1
  Te  Te118  1  0.76439912  0.21896495  0.56363920  1
  Te  Te119  1  0.72442891  0.24355439  0.91336657  1
  Te  Te120  1  0.76426525  0.58494279  0.26383131  1
  Te  Te121  1  0.79136613  0.61265467  0.54184594  1
  Te  Te122  1  0.73128214  0.61112208  0.91405810  1
  Te  Te123  1  0.69198962  0.98268047  0.23131801  1
  Te  Te124  1  0.75393002  0.91445144  0.59473078  1
  Te  Te125  1  0.80354305  0.91911515  0.89374752  1
  Te  Te126  1  0.25368022  0.24925872  0.05107193  1
  Te  Te127  1  0.27139855  0.24185390  0.41395481  1
  Te  Te128  1  0.24432004  0.22986146  0.73099606  1
  Te  Te129  1  0.25547692  0.62959728  0.09371759  1
  Te  Te130  1  0.22365672  0.62263136  0.43011483  1
  Te  Te131  1  0.26052366  0.56950095  0.74690486  1
  Te  Te132  1  0.25293009  0.91303800  0.08962686  1
  Te  Te133  1  0.22690281  0.93509580  0.40590702  1
  Te  Te134  1  0.19613745  0.90697027  0.73622605  1
  Te  Te135  1  0.56087695  0.25473958  0.05589184  1
  Te  Te136  1  0.57963187  0.24333163  0.40451559  1
  Te  Te137  1  0.58495561  0.21440763  0.74688863  1
  Te  Te138  1  0.57568362  0.61607843  0.09338951  1
  Te  Te139  1  0.58390072  0.60130722  0.42689545  1
  Te  Te140  1  0.56699522  0.57847325  0.75737004  1
  Te  Te141  1  0.57061404  0.86378218  0.13653809  1
  Te  Te142  1  0.59036555  0.91163629  0.41646261  1
  Te  Te143  1  0.58135736  0.92042795  0.73582121  1
  Te  Te144  1  0.91579245  0.24435339  0.08789532  1
  Te  Te145  1  0.89969490  0.22785089  0.39346132  1
  Te  Te146  1  0.93472963  0.22774268  0.73228198  1
  Te  Te147  1  0.92780517  0.61673123  0.09019676  1
  Te  Te148  1  0.91244634  0.57998429  0.44770854  1
  Te  Te149  1  0.89279308  0.58522572  0.74821870  1
  Te  Te150  1  0.93592982  0.96938490  0.10891582  1
  Te  Te151  1  0.96354406  0.90092544  0.42506067  1
  Te  Te152  1  0.93988345  0.90539830  0.74434765  1
  Te  Te153  1  0.25430531  0.10226219  0.24151864  1
  Te  Te154  1  0.17018419  0.07375998  0.58056445  1
  Te  Te155  1  0.20887350  0.02967019  0.92247730  1
  Te  Te156  1  0.24846037  0.39297026  0.22779500  1
  Te  Te157  1  0.24427157  0.42338842  0.57788257  1
  Te  Te158  1  0.23915593  0.43708234  0.93919757  1
  Te  Te159  1  0.26460274  0.77320710  0.25469254  1
  Te  Te160  1  0.20883604  0.75598519  0.62142162  1
  Te  Te161  1  0.22234307  0.78295548  0.91973405  1
  Te  Te162  1  0.57129896  0.04288620  0.29005732  1
  Te  Te163  1  0.59519324  0.06530473  0.58717988  1
  Te  Te164  1  0.59851772  0.02167590  0.95186876  1
  Te  Te165  1  0.58514064  0.42219989  0.25335256  1
  Te  Te166  1  0.59841848  0.41404986  0.60835709  1
  Te  Te167  1  0.59314199  0.43142757  0.92838777  1
  Te  Te168  1  0.58857613  0.75377105  0.24880308  1
  Te  Te169  1  0.58278947  0.73537895  0.58592394  1
  Te  Te170  1  0.59555263  0.79194242  0.91711325  1
  Te  Te171  1  0.92118493  0.00762531  0.25342377  1
  Te  Te172  1  0.93866272  0.04708810  0.59847119  1
  Te  Te173  1  0.95051542  0.06964185  0.91892984  1
  Te  Te174  1  0.91438394  0.42715290  0.25865653  1
  Te  Te175  1  0.92983419  0.40383654  0.59072190  1
  Te  Te176  1  0.90729653  0.42087518  0.91530760  1
  Te  Te177  1  0.91722662  0.75843131  0.25322096  1
  Te  Te178  1  0.94016361  0.78023543  0.54008653  1
  Te  Te179  1  0.88184675  0.79710274  0.95422166  1
