# generated using pymatgen
data_In2Te3
_symmetry_space_group_name_H-M   'P 1'
_cell_length_a   18.77257633
_cell_length_b   18.77620217
_cell_length_c   18.77631764
_cell_angle_alpha   89.97993795
_cell_angle_beta   89.99180574
_cell_angle_gamma   90.01166366
_symmetry_Int_Tables_number   1
_chemical_formula_structural   In2Te3
_chemical_formula_sum   'In72 Te108'
_cell_volume   6618.23242791
_cell_formula_units_Z   36
loop_
 _symmetry_equiv_pos_site_id
 _symmetry_equiv_pos_as_xyz
  1  'x, y, z'
loop_
 _atom_site_type_symbol
 _atom_site_label
 _atom_site_symmetry_multiplicity
 _atom_site_fract_x
 _atom_site_fract_y
 _atom_site_fract_z
 _atom_site_occupancy
  In  In0  1  0.00148510  0.17395495  0.51235153  1
  In  In1  1  0.51177021  0.61691124  0.81051700  1
  In  In2  1  0.68114780  0.80241466  0.52070102  1
  In  In3  1  0.50243204  0.48696321  0.34675342  1
  In  In4  1  0.14942088  0.01234957  0.51651631  1
  In  In5  1  0.32846756  0.65705153  0.67124477  1
  In  In6  1  0.51859357  0.65822595  0.51261235  1
  In  In7  1  0.34565658  0.19556062  0.53089172  1
  In  In8  1  0.85640682  0.18437215  0.68465953  1
  In  In9  1  0.66648834  0.83462987  0.18314077  1
  In  In10  1  0.67208072  -0.00870293  0.65240782  1
  In  In11  1  0.51088878  0.19960454  -0.00464933  1
  In  In12  1  0.66140048  0.34631721  0.00905109  1
  In  In13  1  0.83555970  0.49307567  0.67345636  1
  In  In14  1  0.50550548  0.83513906  0.32492393  1
  In  In15  1  0.47063055  0.20346438  0.30715878  1
  In  In16  1  0.83280968  0.65193418  0.50221840  1
  In  In17  1  -0.01656571  0.81578899  0.82310785  1
  In  In18  1  0.16128570  0.22176550  -0.03644482  1
  In  In19  1  0.17140659  0.32725699  0.50524241  1
  In  In20  1  0.83425874  0.52247986  0.33151606  1
  In  In21  1  0.50215644  0.01330391  0.17633596  1
  In  In22  1  0.85315203  0.64147517  0.14664149  1
  In  In23  1  0.15914606  0.01665165  0.82078414  1
  In  In24  1  0.15905576  0.01671826  0.17025096  1
  In  In25  1  0.67647477  0.80477038  0.81816789  1
  In  In26  1  0.00060295  0.82663173  0.16085360  1
  In  In27  1  -0.00066885  0.01248179  0.00332963  1
  In  In28  1  0.84050533  0.32925649  0.15267982  1
  In  In29  1  0.16280695  0.33228671  0.16113750  1
  In  In30  1  0.86630329  0.84616592  0.36340362  1
  In  In31  1  0.01307851  -0.00386811  0.67333921  1
  In  In32  1  0.65795245  0.15768440  0.48153247  1
  In  In33  1  0.66068582  0.48414111  0.52138627  1
  In  In34  1  0.85252620  0.83749400  -0.00157284  1
  In  In35  1  0.66941906  0.00904352  0.33229639  1
  In  In36  1  0.36318886  0.65131553  -0.00818399  1
  In  In37  1  0.48866451  0.02202049  0.80470866  1
  In  In38  1  0.31427379  0.66763201  0.31145606  1
  In  In39  1  0.84585002  0.00583331  0.84732805  1
  In  In40  1  0.32332312  0.01864133  0.32177779  1
  In  In41  1  0.01896143  0.36565959  0.69312994  1
  In  In42  1  0.69189346  0.63443742  -0.01016153  1
  In  In43  1  0.84926462  0.16809085  0.01131790  1
  In  In44  1  0.15949464  0.82474942  0.01134635  1
  In  In45  1  0.34218271  0.48001897  0.51334857  1
  In  In46  1  0.83945413  0.32971277  0.53440948  1
  In  In47  1  0.85863029  0.13433744  0.30451984  1
  In  In48  1  0.49064052  0.00168498  0.51148428  1
  In  In49  1  0.33040222  0.47688440  0.15205238  1
  In  In50  1  0.16195733  0.50273258  0.31335278  1
  In  In51  1  0.47502415  0.34976424  0.82478628  1
  In  In52  1  0.15259252  0.63949616  0.83237582  1
  In  In53  1  0.32318832  0.83801654  0.81961490  1
  In  In54  1  0.65741995  0.33925711  0.32551711  1
  In  In55  1  0.69087081  0.02832568  0.01899948  1
  In  In56  1  -0.00202604  0.66078818  0.65414714  1
  In  In57  1  0.64874492  0.35782771  0.67547932  1
  In  In58  1  0.13150709  0.82715465  0.34858210  1
  In  In59  1  0.15513272  0.15599957  0.34935945  1
  In  In60  1  0.31514528  0.03147106  0.00045455  1
  In  In61  1  0.33276096  0.83493407  0.50076761  1
  In  In62  1  0.82618567  0.64137268  0.82589486  1
  In  In63  1  0.49184576  0.82383716  -0.00863013  1
  In  In64  1  0.15774597  0.65262774  0.17044766  1
  In  In65  1  0.14417156  0.65861097  0.50515039  1
  In  In66  1  0.48429129  0.48614546  -0.00631130  1
  In  In67  1  0.67595127  0.18756413  0.85632152  1
  In  In68  1  0.33537098  0.00578890  0.65577959  1
  In  In69  1  0.01115292  0.33805246  0.33510649  1
  In  In70  1  0.15372308  0.45387573  -0.01610970  1
  In  In71  1  0.50837872  0.67224227  0.14374115  1
  Te  Te72  1  0.10594386  0.10428686  0.05739002  1
  Te  Te73  1  0.04400434  0.06472276  0.40719115  1
  Te  Te74  1  0.07314516  0.11047324  0.74626843  1
  Te  Te75  1  0.06253627  0.42459264  0.10008305  1
  Te  Te76  1  0.08871404  0.42976915  0.42787378  1
  Te  Te77  1  0.12555249  0.39429831  0.80178286  1
  Te  Te78  1  0.06290199  0.72204632  0.06910496  1
  Te  Te79  1  0.04534202  0.73229778  0.42125111  1
  Te  Te80  1  0.09390532  0.75070077  0.74520790  1
  Te  Te81  1  0.42119385  0.10187303  0.08317328  1
  Te  Te82  1  0.41750741  0.09500062  0.41540111  1
  Te  Te83  1  0.39844422  0.11400312  0.73522489  1
  Te  Te84  1  0.42383962  0.37950881  0.08276738  1
  Te  Te85  1  0.40437688  0.39613843  0.40896403  1
  Te  Te86  1  0.38014885  0.38911811  0.71285590  1
  Te  Te87  1  0.39526982  0.76161453  0.09373851  1
  Te  Te88  1  0.41698028  0.73900868  0.41381974  1
  Te  Te89  1  0.42207860  0.73877838  0.76386549  1
  Te  Te90  1  0.77129877  0.09806155  0.11964234  1
  Te  Te91  1  0.77348630  0.07722047  0.42081251  1
  Te  Te92  1  0.74781015  0.08877641  0.76023673  1
  Te  Te93  1  0.75346744  0.43276008  0.08985557  1
  Te  Te94  1  0.75961491  0.41099098  0.42852434  1
  Te  Te95  1  0.76512732  0.39312163  0.75908725  1
  Te  Te96  1  0.74498958  0.75421873  0.07711858  1
  Te  Te97  1  0.75713194  0.74296874  0.40332573  1
  Te  Te98  1  0.78306672  0.75048056  0.73246056  1
  Te  Te99  1  0.07370542  0.23337232  0.24603485  1
  Te  Te100  1  0.08567719  0.25312324  0.60940923  1
  Te  Te101  1  0.05131413  0.29420713  0.89347339  1
  Te  Te102  1  0.05729646  0.59045296  0.25886404  1
  Te  Te103  1  0.10349927  0.56391253  0.61200412  1
  Te  Te104  1  0.06451542  0.56418967  0.92733038  1
  Te  Te105  1  0.06503320  0.93003447  0.25424854  1
  Te  Te106  1  0.06594240  0.90133717  0.56880386  1
  Te  Te107  1  0.07768121  0.91127903  0.91254129  1
  Te  Te108  1  0.39996904  0.28586361  0.20777531  1
  Te  Te109  1  0.43406154  0.28426054  0.60758737  1
  Te  Te110  1  0.40120428  0.25409031  0.91277381  1
  Te  Te111  1  0.41404286  0.58102539  0.23548694  1
  Te  Te112  1  0.43261295  0.56809529  0.60058375  1
  Te  Te113  1  0.39560879  0.54796649  0.88437695  1
  Te  Te114  1  0.40474107  0.91525011  0.24308817  1
  Te  Te115  1  0.42926799  0.89561215  0.60203317  1
  Te  Te116  1  0.40548959  0.92799964  0.91497848  1
  Te  Te117  1  0.76525988  0.24965358  0.26275193  1
  Te  Te118  1  0.73422496  0.23676282  0.59402344  1
  Te  Te119  1  0.77401229  0.27475546  0.92860621  1
  Te  Te120  1  0.74635354  0.57965729  0.22727725  1
  Te  Te121  1  0.72821368  0.58837667  0.61139628  1
  Te  Te122  1  0.76087223  0.53076145  0.90682567  1
  Te  Te123  1  0.76657868  0.91575185  0.26222681  1
  Te  Te124  1  0.76317706  0.91624675  0.56535647  1
  Te  Te125  1  0.74204763  0.91165471  0.91856833  1
  Te  Te126  1  0.25741505  0.26157674  0.07137568  1
  Te  Te127  1  0.26021542  0.24555659  0.41281911  1
  Te  Te128  1  0.25305352  0.30677318  0.77374001  1
  Te  Te129  1  0.24745637  0.57638768  0.06892007  1
  Te  Te130  1  0.25523550  0.58291717  0.42319621  1
  Te  Te131  1  0.24356164  0.56057122  0.74664684  1
  Te  Te132  1  0.24901344  0.92330525  0.08682424  1
  Te  Te133  1  0.24253764  0.92702332  0.41501836  1
  Te  Te134  1  0.23153128  0.91798991  0.72877981  1
  Te  Te135  1  0.60640158  0.24156815  0.09811022  1
  Te  Te136  1  0.56414590  0.25907929  0.41740440  1
  Te  Te137  1  0.57790522  0.24941037  0.76003351  1
  Te  Te138  1  0.58781947  0.56218053  0.07788655  1
  Te  Te139  1  0.60397180  0.57948715  0.41434101  1
  Te  Te140  1  0.61632459  0.56910365  0.72178094  1
  Te  Te141  1  0.57964198  0.91475757  0.08307826  1
  Te  Te142  1  0.58687769  0.91650468  0.42593452  1
  Te  Te143  1  0.58554336  0.91520023  0.75452019  1
  Te  Te144  1  0.94563094  0.26713334  0.06742645  1
  Te  Te145  1  0.90960333  0.25374320  0.41818291  1
  Te  Te146  1  0.91422483  0.29108518  0.77226613  1
  Te  Te147  1  0.92110354  0.53103278  0.05970958  1
  Te  Te148  1  0.93561459  0.57830054  0.42468597  1
  Te  Te149  1  0.94128735  0.56218818  0.75973764  1
  Te  Te150  1  0.90346917  0.93970128  0.10002949  1
  Te  Te151  1  0.95521846  0.93739682  0.43979985  1
  Te  Te152  1  0.90030128  0.91321258  0.74008004  1
  Te  Te153  1  0.25458413  0.11860417  0.23342651  1
  Te  Te154  1  0.23638834  0.10799122  0.59501609  1
  Te  Te155  1  0.25291682  0.11369640  0.89001468  1
  Te  Te156  1  0.26142112  0.39906137  0.26596114  1
  Te  Te157  1  0.24152481  0.41574104  0.60400085  1
  Te  Te158  1  0.26532586  0.38026520  0.90781825  1
  Te  Te159  1  0.22781700  0.77121676  0.24255239  1
  Te  Te160  1  0.24051432  0.75106155  0.58572441  1
  Te  Te161  1  0.25241252  0.74203814  0.91905313  1
  Te  Te162  1  0.58633686  0.11100634  0.25648477  1
  Te  Te163  1  0.57366896  0.09629192  0.59593704  1
  Te  Te164  1  0.58116648  0.07330860  0.91887328  1
  Te  Te165  1  0.57147442  0.41763306  0.23571165  1
  Te  Te166  1  0.54928666  0.39744253  0.56945327  1
  Te  Te167  1  0.58606665  0.42476806  0.89839999  1
  Te  Te168  1  0.59109014  0.72651740  0.26080237  1
  Te  Te169  1  0.57677574  0.75157235  0.61084187  1
  Te  Te170  1  0.58123700  0.72318628  0.91672854  1
  Te  Te171  1  0.93970584  0.06000531  0.20936776  1
  Te  Te172  1  0.90974025  0.08001923  0.58955917  1
  Te  Te173  1  0.94170485  0.10914152  0.89939491  1
  Te  Te174  1  0.91782226  0.42263032  0.25076610  1
  Te  Te175  1  0.94088078  0.43176469  0.57708747  1
  Te  Te176  1  0.91838435  0.47744968  0.92339013  1
  Te  Te177  1  0.90356317  0.74768105  0.24581840  1
  Te  Te178  1  0.90479345  0.75238578  0.58483273  1
  Te  Te179  1  0.91632543  0.72344568  0.92389787  1
