# generated using pymatgen
data_In2Te3
_symmetry_space_group_name_H-M   'P 1'
_cell_length_a   18.74108328
_cell_length_b   18.75191105
_cell_length_c   18.74310502
_cell_angle_alpha   89.96114455
_cell_angle_beta   90.04675484
_cell_angle_gamma   90.04990909
_symmetry_Int_Tables_number   1
_chemical_formula_structural   In2Te3
_chemical_formula_sum   'In72 Te108'
_cell_volume   6586.90430757
_cell_formula_units_Z   36
loop_
 _symmetry_equiv_pos_site_id
 _symmetry_equiv_pos_as_xyz
  1  'x, y, z'
loop_
 _atom_site_type_symbol
 _atom_site_label
 _atom_site_symmetry_multiplicity
 _atom_site_fract_x
 _atom_site_fract_y
 _atom_site_fract_z
 _atom_site_occupancy
  In  In0  1  0.81639880  0.49758725  0.65768460  1
  In  In1  1  0.82976873  0.15626822  0.67993346  1
  In  In2  1  0.66091989  0.47770191  0.17067950  1
  In  In3  1  0.50125353  0.65901207  0.79883563  1
  In  In4  1  0.51051040  0.46845672  -0.02976286  1
  In  In5  1  0.85420023  0.35818073  0.15776264  1
  In  In6  1  0.83051281  0.67348331  0.16497688  1
  In  In7  1  0.86492032  -0.00687826  0.17247142  1
  In  In8  1  0.49333939  0.17912170  0.33157792  1
  In  In9  1  0.31749690  0.00756276  0.66683964  1
  In  In10  1  0.32296590  0.33135122  -0.00177866  1
  In  In11  1  0.65294784  0.00144772  0.34669764  1
  In  In12  1  0.79682873  0.86215017  0.64695614  1
  In  In13  1  0.48739051  0.84909379  -0.00804328  1
  In  In14  1  0.65534910  0.18018260  0.16184467  1
  In  In15  1  0.01749814  0.16311584  0.50556777  1
  In  In16  1  0.65283488  0.50637088  0.50298449  1
  In  In17  1  0.48387495  0.65511218  0.18639193  1
  In  In18  1  0.34635110  0.15908529  0.16971692  1
  In  In19  1  0.01354933  0.82581434  0.15091638  1
  In  In20  1  0.81800242  0.81664526  0.34763912  1
  In  In21  1  0.66151975  0.84216096  0.81858215  1
  In  In22  1  0.83994142  0.47810358  0.29676189  1
  In  In23  1  0.67475380  0.67224206  0.00866547  1
  In  In24  1  0.82758363  0.31688187  0.82036368  1
  In  In25  1  0.67036578  0.33694468  0.66437816  1
  In  In26  1  0.16926176  0.48921451  0.31496344  1
  In  In27  1  0.01229543  0.83463102  0.85003448  1
  In  In28  1  0.20653559  0.70094393  0.52470890  1
  In  In29  1  0.30255693  0.64752839  0.01177854  1
  In  In30  1  0.02064470  0.48156661  0.47490581  1
  In  In31  1  -0.00247723  0.65907473  0.67521614  1
  In  In32  1  0.49695475  0.01211501  0.49811386  1
  In  In33  1  0.64800964  0.67123822  0.36591313  1
  In  In34  1  -0.01377006  0.17877321  0.84741455  1
  In  In35  1  0.00944642  0.84747875  0.50594777  1
  In  In36  1  0.16525569  0.49521793  0.66980132  1
  In  In37  1  0.00755039  0.50195521  0.82003732  1
  In  In38  1  0.33514865  0.49685904  0.83603408  1
  In  In39  1  0.65743319  0.81068883  0.16087127  1
  In  In40  1  0.34472838  0.35364918  0.66858267  1
  In  In41  1  0.80548023  0.66194879  0.51321545  1
  In  In42  1  0.17989078  0.18613356  0.33727097  1
  In  In43  1  0.49958707  0.16783684  0.65095845  1
  In  In44  1  0.35387430  0.18386763  0.83203833  1
  In  In45  1  0.49793538  0.83255716  0.66315453  1
  In  In46  1  0.32944184  0.86099753  0.16447771  1
  In  In47  1  0.01061064  0.62426037  0.33843607  1
  In  In48  1  0.84662765  0.33255941  0.50519881  1
  In  In49  1  0.02351739  0.49156853  0.17315792  1
  In  In50  1  0.17884145  0.17727498  0.66252237  1
  In  In51  1  0.01691397  0.34301686  0.00912784  1
  In  In52  1  0.00541299  -0.00839986  0.33453329  1
  In  In53  1  0.34340345  0.67979332  0.35342338  1
  In  In54  1  0.31973222  -0.00951045  0.33331125  1
  In  In55  1  0.01983079  -0.01054844  0.65740914  1
  In  In56  1  0.84312085  0.02048883  0.83336564  1
  In  In57  1  0.17715965  0.67114569  0.82847251  1
  In  In58  1  0.17841100  -0.01214888  0.83547567  1
  In  In59  1  0.14668590  0.14762111  0.02575021  1
  In  In60  1  0.01299109  0.67667654  -0.00478585  1
  In  In61  1  0.34343634  0.00078001  0.00461441  1
  In  In62  1  0.66228777  0.00283665  -0.01096774  1
  In  In63  1  0.17093533  0.83365463  0.33256043  1
  In  In64  1  0.34670879  0.51737418  0.51479875  1
  In  In65  1  0.64661726  0.15446886  0.82617034  1
  In  In66  1  0.65087866  0.32612129  0.32539121  1
  In  In67  1  0.84536170  0.16096729  -0.01272014  1
  In  In68  1  0.48956623  0.32887053  0.17141536  1
  In  In69  1  0.80779080  0.50670351  -0.00678852  1
  In  In70  1  0.48599746  0.32587052  0.48795591  1
  In  In71  1  0.82456277  0.13510607  0.33267912  1
  Te  Te72  1  0.04045463  0.08814171  0.10759081  1
  Te  Te73  1  0.10317602  0.07264733  0.41777971  1
  Te  Te74  1  0.08078795  0.08822302  0.75810134  1
  Te  Te75  1  0.12129358  0.42312868  0.08146269  1
  Te  Te76  1  0.10654246  0.38134487  0.40220774  1
  Te  Te77  1  0.08678717  0.39934199  0.75076038  1
  Te  Te78  1  0.11486570  0.74793217  0.07511101  1
  Te  Te79  1  0.07816300  0.74148695  0.41684250  1
  Te  Te80  1  0.09003205  0.76140792  0.73828089  1
  Te  Te81  1  0.43843679  0.08968720  0.07709063  1
  Te  Te82  1  0.39468597  0.09853216  0.41740892  1
  Te  Te83  1  0.42581823  0.07721134  0.75063296  1
  Te  Te84  1  0.41665075  0.42958063  0.08064471  1
  Te  Te85  1  0.39444260  0.41696432  0.41563754  1
  Te  Te86  1  0.43951625  0.42909087  0.75415627  1
  Te  Te87  1  0.41343944  0.74704297  0.08420326  1
  Te  Te88  1  0.43515556  0.72863937  0.46185331  1
  Te  Te89  1  0.39635067  0.75717383  0.75050443  1
  Te  Te90  1  0.75811927  0.08336719  0.09410778  1
  Te  Te91  1  0.74969531  0.06626254  0.44377623  1
  Te  Te92  1  0.72821361  0.05841288  0.73999672  1
  Te  Te93  1  0.73417913  0.39328236  0.06889333  1
  Te  Te94  1  0.74758008  0.41593983  0.41799914  1
  Te  Te95  1  0.73090100  0.42880965  0.77257746  1
  Te  Te96  1  0.77375754  0.77415801  0.06597836  1
  Te  Te97  1  0.71750444  0.77500457  0.45516922  1
  Te  Te98  1  0.74626016  0.75442558  0.73381745  1
  Te  Te99  1  0.09813054  0.28673564  0.26540993  1
  Te  Te100  1  0.09272960  0.26636324  0.57991728  1
  Te  Te101  1  0.09875899  0.25175801  0.91822166  1
  Te  Te102  1  0.10788831  0.60837700  0.22528666  1
  Te  Te103  1  0.08506302  0.58840037  0.57178164  1
  Te  Te104  1  0.09829565  0.57401987  0.91904257  1
  Te  Te105  1  0.09761651  0.92417857  0.23360060  1
  Te  Te106  1  0.12007955  0.91850557  0.57383775  1
  Te  Te107  1  0.10303230  0.91184291  0.93984473  1
  Te  Te108  1  0.38601535  0.27134600  0.27047860  1
  Te  Te109  1  0.38915908  0.23963046  0.57383580  1
  Te  Te110  1  0.43524779  0.26379354  0.92715098  1
  Te  Te111  1  0.38746704  0.56904845  0.26021988  1
  Te  Te112  1  0.44524688  0.61388890  0.57758705  1
  Te  Te113  1  0.42647179  0.59274659  0.92389743  1
  Te  Te114  1  0.42736622  0.91881075  0.25919346  1
  Te  Te115  1  0.40332737  0.91807434  0.57395877  1
  Te  Te116  1  0.39918685  0.91630262  0.89575681  1
  Te  Te117  1  0.76483425  0.25688157  0.24954586  1
  Te  Te118  1  0.74892217  0.23942315  0.57816790  1
  Te  Te119  1  0.73634836  0.24128187  0.91738268  1
  Te  Te120  1  0.73699080  0.59238740  0.25681794  1
  Te  Te121  1  0.70717474  0.60100066  0.61912153  1
  Te  Te122  1  0.72591025  0.58737238  0.89771718  1
  Te  Te123  1  0.74800804  0.91214870  0.24908622  1
  Te  Te124  1  0.72558937  0.95387650  0.55724319  1
  Te  Te125  1  0.76052866  0.91689898  0.91144336  1
  Te  Te126  1  0.24133285  0.24506530  0.09674263  1
  Te  Te127  1  0.29380758  0.23793882  0.41635682  1
  Te  Te128  1  0.25225726  0.27127514  0.75949036  1
  Te  Te129  1  0.24412221  0.54261435  0.09950855  1
  Te  Te130  1  0.23436329  0.58662955  0.42342028  1
  Te  Te131  1  0.26665652  0.58914147  0.73384848  1
  Te  Te132  1  0.23272480  0.92936508  0.07473968  1
  Te  Te133  1  0.25935182  0.89641345  0.43324353  1
  Te  Te134  1  0.24628225  0.89611936  0.73923221  1
  Te  Te135  1  0.56836622  0.25554618  0.06925473  1
  Te  Te136  1  0.59640387  0.23221130  0.43146132  1
  Te  Te137  1  0.56794395  0.26218811  0.75130271  1
  Te  Te138  1  0.58139944  0.58085316  0.08862709  1
  Te  Te139  1  0.54868462  0.57584846  0.42075561  1
  Te  Te140  1  0.57352741  0.57177164  0.70567297  1
  Te  Te141  1  0.57863898  0.92168679  0.09147622  1
  Te  Te142  1  0.55529801  0.90854660  0.40729330  1
  Te  Te143  1  0.57123674  0.93234177  0.74561566  1
  Te  Te144  1  0.92936936  0.24380957  0.08626201  1
  Te  Te145  1  0.91563318  0.23404717  0.41330077  1
  Te  Te146  1  0.93330028  0.25948888  0.72720783  1
  Te  Te147  1  0.91374013  0.57039604  0.08866242  1
  Te  Te148  1  0.89399666  0.57048031  0.42295989  1
  Te  Te149  1  0.89444400  0.58530786  0.75945192  1
  Te  Te150  1  0.91840141  0.90415930  0.06810567  1
  Te  Te151  1  0.90339542  0.92086687  0.42341431  1
  Te  Te152  1  0.91521367  0.91356291  0.74313502  1
  Te  Te153  1  0.23685309  0.08019587  0.24045423  1
  Te  Te154  1  0.23829546  0.08307493  0.56581900  1
  Te  Te155  1  0.25079493  0.10116188  0.91397205  1
  Te  Te156  1  0.27059190  0.44280185  0.21583644  1
  Te  Te157  1  0.24549373  0.41360941  0.56844575  1
  Te  Te158  1  0.23714491  0.41934615  0.91450652  1
  Te  Te159  1  0.25978024  0.74811722  0.24285644  1
  Te  Te160  1  0.29177017  0.75686953  0.63101682  1
  Te  Te161  1  0.25428240  0.75517953  0.92315602  1
  Te  Te162  1  0.57104889  0.08234076  0.24352124  1
  Te  Te163  1  0.59941452  0.07519420  0.58822465  1
  Te  Te164  1  0.55813522  0.08137191  0.92097257  1
  Te  Te165  1  0.55661293  0.43098221  0.27118828  1
  Te  Te166  1  0.56288487  0.41444617  0.58761565  1
  Te  Te167  1  0.63009229  0.43222244  0.89647462  1
  Te  Te168  1  0.56372296  0.75685245  0.26877868  1
  Te  Te169  1  0.55242178  0.72982493  0.56757721  1
  Te  Te170  1  0.57706664  0.74850742  0.91482848  1
  Te  Te171  1  0.94946740  0.10528322  0.24227039  1
  Te  Te172  1  0.91725927  0.07517002  0.58308973  1
  Te  Te173  1  0.94893841  0.05935666  0.93713108  1
  Te  Te174  1  0.96063635  0.38210368  0.26784632  1
  Te  Te175  1  0.93258063  0.42560245  0.59111916  1
  Te  Te176  1  0.91054455  0.41095617  0.91800488  1
  Te  Te177  1  0.92500073  0.74470962  0.26287830  1
  Te  Te178  1  0.91215663  0.75008195  0.58210964  1
  Te  Te179  1  0.91465409  0.73660145  0.90370881  1
