# generated using pymatgen
data_In2Te3
_symmetry_space_group_name_H-M   'P 1'
_cell_length_a   18.74879867
_cell_length_b   18.76526381
_cell_length_c   18.76902979
_cell_angle_alpha   90.11197486
_cell_angle_beta   90.11039975
_cell_angle_gamma   90.01398492
_symmetry_Int_Tables_number   1
_chemical_formula_structural   In2Te3
_chemical_formula_sum   'In72 Te108'
_cell_volume   6603.41047638
_cell_formula_units_Z   36
loop_
 _symmetry_equiv_pos_site_id
 _symmetry_equiv_pos_as_xyz
  1  'x, y, z'
loop_
 _atom_site_type_symbol
 _atom_site_label
 _atom_site_symmetry_multiplicity
 _atom_site_fract_x
 _atom_site_fract_y
 _atom_site_fract_z
 _atom_site_occupancy
  In  In0  1  0.64155474  -0.03478073  0.70471511  1
  In  In1  1  0.84361842  0.18620759  0.67157382  1
  In  In2  1  0.51830003  0.64125167  0.16799612  1
  In  In3  1  0.84977202  0.82134704  0.66715872  1
  In  In4  1  0.32784419  0.17183202  0.16848579  1
  In  In5  1  0.32791198  0.33206854  0.00552049  1
  In  In6  1  0.32803322  0.82214108  0.83426061  1
  In  In7  1  0.32272519  0.68300124  -0.00341802  1
  In  In8  1  0.31794599  0.13698408  0.82872855  1
  In  In9  1  0.32638526  0.67148045  0.67431438  1
  In  In10  1  -0.00966598  0.34623708  -0.01992824  1
  In  In11  1  0.67586694  0.66604036  0.35613350  1
  In  In12  1  -0.01124625  0.49798865  0.16180362  1
  In  In13  1  0.01274036  0.17730723  0.49430200  1
  In  In14  1  0.82448190  0.84078913  0.34225898  1
  In  In15  1  0.83244102  -0.01527959  0.82317723  1
  In  In16  1  0.30273776  0.48352573  0.52662047  1
  In  In17  1  0.82302362  -0.01022924  0.46916073  1
  In  In18  1  0.16572662  0.01080724  0.16865160  1
  In  In19  1  0.17177361  0.48778039  0.34615014  1
  In  In20  1  0.00372565  0.51930775  0.81002629  1
  In  In21  1  -0.00724013  0.68298645  -0.04568680  1
  In  In22  1  0.66164063  0.82857744  0.52468413  1
  In  In23  1  0.14504759  0.83868104  0.35011355  1
  In  In24  1  0.84777173  0.35433191  0.49853740  1
  In  In25  1  0.48652082  0.80720652  0.33989554  1
  In  In26  1  0.70247900  0.52196967  0.83223564  1
  In  In27  1  0.50497149  0.49078643  0.66311880  1
  In  In28  1  0.68712787  0.65449136  0.66518769  1
  In  In29  1  0.31836171  0.18043692  0.49107464  1
  In  In30  1  0.53103153  -0.00413294  0.17192059  1
  In  In31  1  0.53100271  0.15315660  -0.01776754  1
  In  In32  1  0.64076853  0.16894782  0.83132289  1
  In  In33  1  0.51226886  0.51943493  0.33396155  1
  In  In34  1  0.51091309  0.15127197  0.34614325  1
  In  In35  1  0.49526966  0.51739330  -0.00471991  1
  In  In36  1  0.32864547  0.52100414  0.83055631  1
  In  In37  1  0.65140508  0.49832847  0.14719983  1
  In  In38  1  0.15631064  -0.00227808  0.50696293  1
  In  In39  1  -0.02160980  -0.00873378  0.68056458  1
  In  In40  1  0.32435669  0.00075809  -0.00694771  1
  In  In41  1  -0.00939856  0.14814049  0.17675150  1
  In  In42  1  -0.02044505  0.16855241  0.81805541  1
  In  In43  1  0.83885731  0.49006801  0.32851153  1
  In  In44  1  0.48825487  -0.01142570  0.52498409  1
  In  In45  1  0.15343913  0.33867031  0.82228817  1
  In  In46  1  0.01519431  0.50211489  0.53019858  1
  In  In47  1  0.14944663  0.83596489  -0.03155805  1
  In  In48  1  0.33718993  0.64945077  0.36661385  1
  In  In49  1  0.14549508  0.32601590  0.16462598  1
  In  In50  1  0.34452072  -0.01762852  0.68800719  1
  In  In51  1  0.70338803  0.83414886  0.15369212  1
  In  In52  1  0.83642695  0.68718420  0.15609267  1
  In  In53  1  0.69074256  0.34466528  -0.00264016  1
  In  In54  1  0.15132848  0.81343709  0.68668448  1
  In  In55  1  0.49360416  0.18010372  0.66557072  1
  In  In56  1  0.68748470  0.15149059  0.48891454  1
  In  In57  1  0.33778801  0.82061683  0.18005997  1
  In  In58  1  0.17343371  0.65886656  0.14766870  1
  In  In59  1  0.15444123  0.18179909  0.66276965  1
  In  In60  1  -0.02637073  0.86851534  0.13725586  1
  In  In61  1  0.53270284  0.80947605  -0.03514903  1
  In  In62  1  0.68674338  0.00488871  0.34796417  1
  In  In63  1  0.83439017  0.34903544  0.80836669  1
  In  In64  1  0.28607046  -0.01265535  0.32595126  1
  In  In65  1  0.81076592  0.32874776  0.18955657  1
  In  In66  1  0.52780432  0.32856403  0.15272195  1
  In  In67  1  0.48889510  0.33833619  0.81799741  1
  In  In68  1  0.31728738  0.32978001  0.34337827  1
  In  In69  1  -0.01075528  0.65676966  0.36447955  1
  In  In70  1  0.51126181  0.34278965  0.50875966  1
  In  In71  1  0.83638374  0.14913444  0.00503733  1
  Te  Te72  1  0.07154345  0.07437514  0.07531617  1
  Te  Te73  1  0.07259330  0.07043446  0.41080926  1
  Te  Te74  1  0.08444240  0.07881930  0.74974582  1
  Te  Te75  1  0.08662231  0.42876775  0.06669647  1
  Te  Te76  1  0.06006904  0.42002126  0.41439729  1
  Te  Te77  1  0.10945427  0.44591998  0.72381191  1
  Te  Te78  1  0.07367969  0.75605704  0.08367291  1
  Te  Te79  1  0.08030612  0.74362344  0.44278163  1
  Te  Te80  1  0.05662833  0.70640339  0.74134057  1
  Te  Te81  1  0.42407711  0.08224592  0.08888915  1
  Te  Te82  1  0.40321621  0.07216937  0.42085516  1
  Te  Te83  1  0.44199190  0.07479244  0.76475765  1
  Te  Te84  1  0.42244702  0.42018879  0.08911999  1
  Te  Te85  1  0.40988950  0.42714028  0.41721638  1
  Te  Te86  1  0.39016767  0.41663940  0.73512145  1
  Te  Te87  1  0.43652379  0.75345365  0.08517660  1
  Te  Te88  1  0.42140835  0.73761447  0.45055129  1
  Te  Te89  1  0.42929563  0.75698166  0.74602092  1
  Te  Te90  1  0.76983489  0.04617442  0.08638648  1
  Te  Te91  1  0.79703732  0.11811459  0.38290963  1
  Te  Te92  1  0.74872196  0.08890277  0.74552120  1
  Te  Te93  1  0.77585681  0.43554347  0.08387089  1
  Te  Te94  1  0.74218309  0.41913268  0.41420131  1
  Te  Te95  1  0.76394236  0.44564448  0.71997862  1
  Te  Te96  1  0.75566545  0.74493117  0.04205508  1
  Te  Te97  1  0.77000064  0.74527439  0.45092679  1
  Te  Te98  1  0.75024417  0.75633586  0.75976769  1
  Te  Te99  1  0.07008015  0.24367105  0.25984494  1
  Te  Te100  1  0.08844269  0.28265404  0.57324382  1
  Te  Te101  1  0.07817137  0.24133632  0.91304493  1
  Te  Te102  1  0.08000203  0.58508056  0.25267374  1
  Te  Te103  1  0.06792832  0.62047852  0.60852710  1
  Te  Te104  1  0.08883838  0.57699658  0.91883203  1
  Te  Te105  1  0.06884972  0.92474959  0.25033503  1
  Te  Te106  1  0.06800309  0.90593672  0.59089345  1
  Te  Te107  1  0.04670251  0.91884386  0.90582253  1
  Te  Te108  1  0.42919908  0.25258278  0.25346617  1
  Te  Te109  1  0.39951154  0.27024849  0.58470985  1
  Te  Te110  1  0.42087990  0.24264505  0.91849433  1
  Te  Te111  1  0.40133097  0.57952991  0.24584021  1
  Te  Te112  1  0.40890737  0.57738090  0.58163382  1
  Te  Te113  1  0.42552776  0.61528646  0.90249043  1
  Te  Te114  1  0.41782327  0.93011646  0.25550563  1
  Te  Te115  1  0.41992329  0.88585908  0.60443433  1
  Te  Te116  1  0.42220288  0.91095141  0.92020081  1
  Te  Te117  1  0.72793041  0.22610159  0.24995913  1
  Te  Te118  1  0.74798702  0.25875657  0.57926645  1
  Te  Te119  1  0.76517125  0.24543137  0.89861184  1
  Te  Te120  1  0.74697182  0.59031231  0.24157621  1
  Te  Te121  1  0.77788618  0.61122394  0.55535765  1
  Te  Te122  1  0.74599431  0.60827335  0.94241598  1
  Te  Te123  1  0.78335809  0.94629246  0.23612953  1
  Te  Te124  1  0.75600950  0.92960970  0.59966218  1
  Te  Te125  1  0.77866942  0.89032677  0.92738986  1
  Te  Te126  1  0.22982807  0.23497775  0.07059073  1
  Te  Te127  1  0.21457713  0.25762439  0.42042254  1
  Te  Te128  1  0.25986369  0.25282248  0.74923572  1
  Te  Te129  1  0.26761215  0.57181048  0.07632321  1
  Te  Te130  1  0.22307961  0.58969969  0.44851656  1
  Te  Te131  1  0.22856595  0.57472829  0.73410369  1
  Te  Te132  1  0.24646032  0.89655950  0.08404004  1
  Te  Te133  1  0.25821309  0.89779391  0.44298489  1
  Te  Te134  1  0.23098283  0.92047896  0.76816811  1
  Te  Te135  1  0.62140899  0.23396508  0.07677782  1
  Te  Te136  1  0.59689316  0.25472965  0.41666551  1
  Te  Te137  1  0.59685974  0.27590027  0.73014413  1
  Te  Te138  1  0.61057026  0.60854163  0.04567738  1
  Te  Te139  1  0.58011799  0.59439432  0.44160889  1
  Te  Te140  1  0.57978364  0.57938953  0.76179061  1
  Te  Te141  1  0.59765400  0.90904954  0.06830296  1
  Te  Te142  1  0.58228753  0.91510750  0.41654440  1
  Te  Te143  1  0.56559740  0.86382450  0.78269622  1
  Te  Te144  1  0.90969875  0.26208006  0.07951207  1
  Te  Te145  1  0.91541644  0.25393056  0.41123195  1
  Te  Te146  1  0.94814933  0.28521364  0.72619179  1
  Te  Te147  1  0.92447192  0.59821096  0.06802419  1
  Te  Te148  1  0.88917609  0.57597499  0.44740108  1
  Te  Te149  1  0.92029360  0.62469130  0.74039741  1
  Te  Te150  1  0.87215702  0.93467063  0.04838241  1
  Te  Te151  1  0.93182242  0.89965129  0.42767692  1
  Te  Te152  1  0.95432077  0.87410929  0.78546631  1
  Te  Te153  1  0.22739418  0.11381385  0.26769330  1
  Te  Te154  1  0.26003805  0.08070105  0.59505225  1
  Te  Te155  1  0.22164144  0.07963003  0.92363738  1
  Te  Te156  1  0.25014222  0.41505876  0.23601197  1
  Te  Te157  1  0.19465447  0.40815503  0.59361502  1
  Te  Te158  1  0.24483983  0.42196060  0.91504772  1
  Te  Te159  1  0.24418160  0.74145195  0.26943259  1
  Te  Te160  1  0.24630587  0.76136138  0.58617217  1
  Te  Te161  1  0.22130977  0.72595638  0.89056584  1
  Te  Te162  1  0.61386032  0.10344382  0.24219412  1
  Te  Te163  1  0.59091451  0.08116320  0.58984535  1
  Te  Te164  1  0.61287412  0.05034075  0.91538929  1
  Te  Te165  1  0.59729978  0.41312168  0.26092489  1
  Te  Te166  1  0.60837497  0.43279773  0.57370256  1
  Te  Te167  1  0.58167372  0.41508876  0.91613886  1
  Te  Te168  1  0.59813384  0.75847098  0.24593322  1
  Te  Te169  1  0.57913658  0.73734679  0.60360846  1
  Te  Te170  1  0.62067660  0.74247216  0.86165685  1
  Te  Te171  1  0.89640579  0.06162845  0.24939782  1
  Te  Te172  1  0.91149499  0.08422928  0.57865751  1
  Te  Te173  1  0.93119448  0.06341418  0.91620498  1
  Te  Te174  1  0.93355541  0.39334506  0.25752857  1
  Te  Te175  1  0.90878043  0.43373375  0.61183145  1
  Te  Te176  1  0.90342394  0.44524471  0.90468681  1
  Te  Te177  1  0.92808607  0.75745194  0.25639070  1
  Te  Te178  1  0.94041475  0.71491986  0.60965220  1
  Te  Te179  1  0.89474114  0.78134671  0.90156372  1
