# generated using pymatgen
data_In2Te3
_symmetry_space_group_name_H-M   'P 1'
_cell_length_a   18.95697043
_cell_length_b   18.96547247
_cell_length_c   18.96253339
_cell_angle_alpha   90.26447561
_cell_angle_beta   90.21624549
_cell_angle_gamma   90.23748305
_symmetry_Int_Tables_number   1
_chemical_formula_structural   In2Te3
_chemical_formula_sum   'In72 Te108'
_cell_volume   6817.37957995
_cell_formula_units_Z   36
loop_
 _symmetry_equiv_pos_site_id
 _symmetry_equiv_pos_as_xyz
  1  'x, y, z'
loop_
 _atom_site_type_symbol
 _atom_site_label
 _atom_site_symmetry_multiplicity
 _atom_site_fract_x
 _atom_site_fract_y
 _atom_site_fract_z
 _atom_site_occupancy
  In  In0  1  0.33787182  0.66363720  0.32538495  1
  In  In1  1  0.85595804  0.66875774  0.14928273  1
  In  In2  1  0.02447004  0.01667991  0.66487912  1
  In  In3  1  0.85345466  0.48916294  0.66113126  1
  In  In4  1  0.35267848  0.17482120  0.46203241  1
  In  In5  1  0.66377103  0.65120292  0.36326196  1
  In  In6  1  0.67892621  0.02648469  0.02760919  1
  In  In7  1  0.15951462  0.69111944  0.18786423  1
  In  In8  1  0.31010286  0.81542173  0.48908005  1
  In  In9  1  0.32543357  -0.02498792  0.65644093  1
  In  In10  1  0.49874004  0.82531526  -0.00470148  1
  In  In11  1  0.17014920  0.35636847  0.80754190  1
  In  In12  1  0.18681265  0.33128565  0.14780422  1
  In  In13  1  0.64451115  0.50365202  0.17262868  1
  In  In14  1  0.49471994  0.66915621  0.83784306  1
  In  In15  1  -0.00826303  0.83760153  0.50261270  1
  In  In16  1  0.85529026  0.80960061  0.67487820  1
  In  In17  1  0.66632951  0.32997725  0.66456154  1
  In  In18  1  0.82884630  0.66586950  0.85781954  1
  In  In19  1  0.34386429  0.64530563  0.65602126  1
  In  In20  1  0.17089282  0.68485095  0.81999730  1
  In  In21  1  0.67733961  0.06736380  0.26052135  1
  In  In22  1  0.33761066  0.86906005  0.84967975  1
  In  In23  1  0.49896156  -0.00396654  0.49547981  1
  In  In24  1  0.01103072  0.00183865  0.00799552  1
  In  In25  1  0.15601206  0.35782905  0.51858945  1
  In  In26  1  0.32342710  0.32135013  0.65671694  1
  In  In27  1  0.83240678  0.50188992  0.32010944  1
  In  In28  1  -0.00367624  0.32859724  0.01758650  1
  In  In29  1  0.17748789  0.17069385  -0.01905123  1
  In  In30  1  0.81994745  0.31111793  0.82703584  1
  In  In31  1  0.48754267  0.03658053  0.85917537  1
  In  In32  1  0.52697219  0.48474341  0.00966149  1
  In  In33  1  0.47681676  0.83423294  0.34625516  1
  In  In34  1  0.81672842  -0.00049392  0.47075672  1
  In  In35  1  0.19120505  0.16630896  0.31201158  1
  In  In36  1  0.67897841  0.81382199  0.15508125  1
  In  In37  1  0.15541032  0.48286095  0.31902729  1
  In  In38  1  0.31510996  0.67125589  0.00900003  1
  In  In39  1  0.85071512  -0.00377670  0.86259992  1
  In  In40  1  0.65682377  0.13860749  0.85516421  1
  In  In41  1  0.48238379  0.48562797  0.66152151  1
  In  In42  1  0.82243322  0.51430267  0.01249925  1
  In  In43  1  0.00143990  0.49836289  0.83644225  1
  In  In44  1  -0.03199695  0.33567044  0.31811171  1
  In  In45  1  0.15227271  0.63477151  0.52116483  1
  In  In46  1  0.48582265  0.16323550  0.66702132  1
  In  In47  1  0.17278223  0.01414632  0.49186291  1
  In  In48  1  0.65012098  0.81218384  0.51467677  1
  In  In49  1  0.47977308  0.34074981  0.21085503  1
  In  In50  1  0.00024224  0.82607920  0.84399030  1
  In  In51  1  0.02458993  0.13263314  0.84396614  1
  In  In52  1  0.34823522  0.47733087  0.83216218  1
  In  In53  1  -0.00420673  0.65714450  0.36140875  1
  In  In54  1  0.68139572  0.64468883  0.69126623  1
  In  In55  1  0.18268964  0.51677140  -0.00012379  1
  In  In56  1  -0.00833999  0.33329634  0.65692154  1
  In  In57  1  0.67337139  0.47641765  0.47872355  1
  In  In58  1  0.01249495  0.19244422  0.47465085  1
  In  In59  1  0.35824842  0.03495801  0.29074909  1
  In  In60  1  0.49980410  0.65289496  0.18531534  1
  In  In61  1  0.52933894  0.82190056  0.68554078  1
  In  In62  1  0.65595938  -0.02698702  0.68214917  1
  In  In63  1  0.40263729  0.30675595  0.00498163  1
  In  In64  1  0.65439818  0.32092498  0.01647494  1
  In  In65  1  0.81506798  0.82977205  0.33345024  1
  In  In66  1  0.83403889  0.15333376  0.64477641  1
  In  In67  1  0.00762949  0.84670508  0.15108829  1
  In  In68  1  0.15616915  0.87129914  0.32632345  1
  In  In69  1  -0.03161317  0.17209715  0.18036379  1
  In  In70  1  0.31783557  0.87892098  0.14099627  1
  In  In71  1  0.64003843  0.20388980  0.48400780  1
  Te  Te72  1  0.07191848  0.12231898  0.07868786  1
  Te  Te73  1  0.08562562  0.08743171  0.39351041  1
  Te  Te74  1  0.12305314  0.09040936  0.74545510  1
  Te  Te75  1  0.08984812  0.42840314  0.08400754  1
  Te  Te76  1  0.06213925  0.41487449  0.41576655  1
  Te  Te77  1  0.08685327  0.44776022  0.71587705  1
  Te  Te78  1  0.10131733  0.76322576  0.07600895  1
  Te  Te79  1  0.09920039  0.76213879  0.41450048  1
  Te  Te80  1  0.06339812  0.74399404  0.74050620  1
  Te  Te81  1  0.40331510  0.09537990  0.15850551  1
  Te  Te82  1  0.46089164  0.09633439  0.39134582  1
  Te  Te83  1  0.39214440  0.07926350  0.74950178  1
  Te  Te84  1  0.41819074  0.42786848  0.09503033  1
  Te  Te85  1  0.44847967  0.33416011  0.36364433  1
  Te  Te86  1  0.42976027  0.37872280  0.75546363  1
  Te  Te87  1  0.41305669  0.74720167  0.09951255  1
  Te  Te88  1  0.42245240  0.72872809  0.43883513  1
  Te  Te89  1  0.40275443  0.75721943  0.75369094  1
  Te  Te90  1  0.74658830  0.11171266  0.13111445  1
  Te  Te91  1  0.71063048  0.08912525  0.41082498  1
  Te  Te92  1  0.75284979  0.07821827  0.74815055  1
  Te  Te93  1  0.74324377  0.41698861  0.09724979  1
  Te  Te94  1  0.74844050  0.39447060  0.38050621  1
  Te  Te95  1  0.74962537  0.42137785  0.75227411  1
  Te  Te96  1  0.77795054  0.75861136  0.06077579  1
  Te  Te97  1  0.76127381  0.73885361  0.44195329  1
  Te  Te98  1  0.74428995  0.76298110  0.76240534  1
  Te  Te99  1  0.08633242  0.26115586  0.24497710  1
  Te  Te100  1  0.09375157  0.24024464  0.59403717  1
  Te  Te101  1  0.07750210  0.27233201  0.90124982  1
  Te  Te102  1  0.06922382  0.58609602  0.24926680  1
  Te  Te103  1  0.06799903  0.55375367  0.60305146  1
  Te  Te104  1  0.08727577  0.59712014  0.91460965  1
  Te  Te105  1  0.07576423  0.94971418  0.23413831  1
  Te  Te106  1  0.09915476  0.91538744  0.57988229  1
  Te  Te107  1  0.08083901  0.93845634  0.89517311  1
  Te  Te108  1  0.35794274  0.26495861  0.26304747  1
  Te  Te109  1  0.42943945  0.25804653  0.56410955  1
  Te  Te110  1  0.43818654  0.19734705  0.91501206  1
  Te  Te111  1  0.43474502  0.56140031  0.28037611  1
  Te  Te112  1  0.39538738  0.54718276  0.55854057  1
  Te  Te113  1  0.40954897  0.58005738  0.93093168  1
  Te  Te114  1  0.43900714  0.91884605  0.22762970  1
  Te  Te115  1  0.43221982  0.89189690  0.58346396  1
  Te  Te116  1  0.41151448  0.94515108  0.95868861  1
  Te  Te117  1  0.79259988  0.21967971  0.23854551  1
  Te  Te118  1  0.75739182  0.25773781  0.56690282  1
  Te  Te119  1  0.74876862  0.23164126  0.93353843  1
  Te  Te120  1  0.74300979  0.60756810  0.24001429  1
  Te  Te121  1  0.74778558  0.56659650  0.58167114  1
  Te  Te122  1  0.73253781  0.57120814  0.91351358  1
  Te  Te123  1  0.74124895  0.92305631  0.24217909  1
  Te  Te124  1  0.75391176  0.91165146  0.58015480  1
  Te  Te125  1  0.73285556  0.93698117  0.92349545  1
  Te  Te126  1  0.28011184  0.24077877  0.07055596  1
  Te  Te127  1  0.23237983  0.25891729  0.42635568  1
  Te  Te128  1  0.25332518  0.24579947  0.76143392  1
  Te  Te129  1  0.25155360  0.58682746  0.11687644  1
  Te  Te130  1  0.23391989  0.58372161  0.40447382  1
  Te  Te131  1  0.25886947  0.57423998  0.75899577  1
  Te  Te132  1  0.22508284  0.96910152  0.06904328  1
  Te  Te133  1  0.27848006  0.93899647  0.40972955  1
  Te  Te134  1  0.23627611  0.91214092  0.75306647  1
  Te  Te135  1  0.57138375  0.25503559  0.12205396  1
  Te  Te136  1  0.59009670  0.26473449  0.35841369  1
  Te  Te137  1  0.59235191  0.23159790  0.75265522  1
  Te  Te138  1  0.59166601  0.60627225  0.07410415  1
  Te  Te139  1  0.56655535  0.55091373  0.40632957  1
  Te  Te140  1  0.57053083  0.56464525  0.75842455  1
  Te  Te141  1  0.59100181  0.91247911  0.08181469  1
  Te  Te142  1  0.59233812  0.90852952  0.41343343  1
  Te  Te143  1  0.56949560  0.92017526  0.79334203  1
  Te  Te144  1  0.88986666  0.27313643  0.10427826  1
  Te  Te145  1  0.89301864  0.22887885  0.39328986  1
  Te  Te146  1  0.92093301  0.22721346  0.74787923  1
  Te  Te147  1  0.93987102  0.58295480  0.06643735  1
  Te  Te148  1  0.90356665  0.56899806  0.43078293  1
  Te  Te149  1  0.91503402  0.59302149  0.75657698  1
  Te  Te150  1  0.90906533  0.93334674  0.08677438  1
  Te  Te151  1  0.92244954  0.92031941  0.39658084  1
  Te  Te152  1  0.91560778  0.93666846  0.73668949  1
  Te  Te153  1  0.23212740  0.06272831  0.20986150  1
  Te  Te154  1  0.27899728  0.09007857  0.56838724  1
  Te  Te155  1  0.25728646  0.05292165  0.94674547  1
  Te  Te156  1  0.26281077  0.39976242  0.25838729  1
  Te  Te157  1  0.26480437  0.43568766  0.58334419  1
  Te  Te158  1  0.25592079  0.40487678  0.92808242  1
  Te  Te159  1  0.26698618  0.78210059  0.25724967  1
  Te  Te160  1  0.23882664  0.73887576  0.59572065  1
  Te  Te161  1  0.24394940  0.77155374  0.92385723  1
  Te  Te162  1  0.54595971  0.11918098  0.19883577  1
  Te  Te163  1  0.59028249  0.07900956  0.59003189  1
  Te  Te164  1  0.55800959  0.11375533  0.97310789  1
  Te  Te165  1  0.61824670  0.39309088  0.27111334  1
  Te  Te166  1  0.57483099  0.40420887  0.57100453  1
  Te  Te167  1  0.57909064  0.39133485  0.91148385  1
  Te  Te168  1  0.58579301  0.75116275  0.26875434  1
  Te  Te169  1  0.57682020  0.70864029  0.59609308  1
  Te  Te170  1  0.59156614  0.74383059  0.91815628  1
  Te  Te171  1  0.87947966  0.10503738  0.27893007  1
  Te  Te172  1  0.92790343  0.07743651  0.55289146  1
  Te  Te173  1  0.91215161  0.10911341  0.93925847  1
  Te  Te174  1  0.91974536  0.43500998  0.22294713  1
  Te  Te175  1  0.90519465  0.39729218  0.55893219  1
  Te  Te176  1  0.90649007  0.40666029  0.91228854  1
  Te  Te177  1  0.92478853  0.75304525  0.25980906  1
  Te  Te178  1  0.92623889  0.72990066  0.57649874  1
  Te  Te179  1  0.90298392  0.76769776  0.93715562  1
