# generated using pymatgen
data_In2Te3
_symmetry_space_group_name_H-M   'P 1'
_cell_length_a   18.88211702
_cell_length_b   18.87684657
_cell_length_c   18.87707901
_cell_angle_alpha   89.83050094
_cell_angle_beta   90.01836807
_cell_angle_gamma   90.11119368
_symmetry_Int_Tables_number   1
_chemical_formula_structural   In2Te3
_chemical_formula_sum   'In72 Te108'
_cell_volume   6728.40592455
_cell_formula_units_Z   36
loop_
 _symmetry_equiv_pos_site_id
 _symmetry_equiv_pos_as_xyz
  1  'x, y, z'
loop_
 _atom_site_type_symbol
 _atom_site_label
 _atom_site_symmetry_multiplicity
 _atom_site_fract_x
 _atom_site_fract_y
 _atom_site_fract_z
 _atom_site_occupancy
  In  In0  1  0.67252312  0.84472110  0.13961125  1
  In  In1  1  0.16706697  0.02424733  0.52175576  1
  In  In2  1  0.84157581  0.69980263  0.13472105  1
  In  In3  1  0.01606535  0.70724851  0.34281448  1
  In  In4  1  0.16237741  -0.00463647  0.16354326  1
  In  In5  1  0.33135511  0.18046698  0.16816285  1
  In  In6  1  0.52268357  -0.00158253  0.16453353  1
  In  In7  1  0.00917756  0.33219640  0.66753141  1
  In  In8  1  0.01337990  0.48599020  0.51265824  1
  In  In9  1  0.63462928  0.49686116  0.53478816  1
  In  In10  1  0.18301344  0.62298243  0.15476491  1
  In  In11  1  0.02158534  0.84634930  0.13849823  1
  In  In12  1  0.18584836  0.17185269  0.67945718  1
  In  In13  1  0.81629363  0.64695805  0.52663677  1
  In  In14  1  0.65696825  0.17395105  0.15115396  1
  In  In15  1  0.46965297  0.32417048  0.54755657  1
  In  In16  1  0.17275516  0.85106414  0.33947907  1
  In  In17  1  0.17913670  0.82426771  0.68128699  1
  In  In18  1  0.17576307  0.80839496  0.00066184  1
  In  In19  1  0.16433971  0.19267257  0.34754196  1
  In  In20  1  0.37947913  0.41731434  -0.07852664  1
  In  In21  1  0.64133990  0.65227161  0.71335194  1
  In  In22  1  0.85810597  0.14140688  0.27936767  1
  In  In23  1  0.18217399  0.16917304  -0.03524718  1
  In  In24  1  0.17645207  0.48791786  0.67672684  1
  In  In25  1  0.32129102  0.67020885  0.31854748  1
  In  In26  1  0.50370417  0.82561134  0.67083481  1
  In  In27  1  0.00863431  0.62233896  -0.03095008  1
  In  In28  1  0.47714274  0.67663417  0.51393931  1
  In  In29  1  0.65118163  0.82492185  0.84349899  1
  In  In30  1  0.18030317  -0.00718914  0.83909356  1
  In  In31  1  0.84577575  0.32239008  0.50827476  1
  In  In32  1  -0.00891482  0.83597906  0.51002107  1
  In  In33  1  0.36505349  0.63406191  0.70548368  1
  In  In34  1  0.81828077  0.49311411  -0.02290689  1
  In  In35  1  0.80979966  0.82681160  0.00790746  1
  In  In36  1  0.65002968  0.01331859  0.35331128  1
  In  In37  1  0.35788249  0.82403015  0.14761761  1
  In  In38  1  0.80797278  0.00522884  0.52153594  1
  In  In39  1  0.66612174  -0.00916499  0.68428015  1
  In  In40  1  0.00539716  0.64156718  0.68955388  1
  In  In41  1  0.66147924  0.51164233  0.14150487  1
  In  In42  1  0.34015784  0.32859334  0.32678950  1
  In  In43  1  0.01865277  0.48413098  0.15516316  1
  In  In44  1  0.81800143  0.19177474  -0.03465333  1
  In  In45  1  0.83151860  0.32543192  0.13864743  1
  In  In46  1  0.65823512  0.32692142  0.36050525  1
  In  In47  1  0.81522365  0.86794715  0.33543956  1
  In  In48  1  0.67252165  0.69470653  0.32713602  1
  In  In49  1  0.32592527  0.17059010  0.81493934  1
  In  In50  1  -0.00699468  0.01197472  0.00538713  1
  In  In51  1  0.50211121  0.15880053  -0.01008904  1
  In  In52  1  0.02337691  0.35557840  0.33717612  1
  In  In53  1  0.48542672  0.02542918  0.49600734  1
  In  In54  1  0.33209885  0.48259850  0.11959993  1
  In  In55  1  0.31878355  0.48060344  0.53103730  1
  In  In56  1  0.50086866  0.66685555  0.12390923  1
  In  In57  1  -0.02728460  0.85413621  0.81229597  1
  In  In58  1  0.17779054  0.32602002  0.13906801  1
  In  In59  1  0.66007748  0.18710021  0.49417399  1
  In  In60  1  0.67081084  0.00612531  -0.00336895  1
  In  In61  1  0.83317928  0.66092530  0.84988994  1
  In  In62  1  0.32060517  0.82876170  0.50700855  1
  In  In63  1  0.62557310  0.33447672  0.77458103  1
  In  In64  1  -0.01786280  0.15929526  0.50682258  1
  In  In65  1  0.17574723  0.50551042  0.35175205  1
  In  In66  1  0.00336686  0.16933763  0.83689917  1
  In  In67  1  0.33758648  0.85079803  0.84752828  1
  In  In68  1  0.52392000  0.87432311  0.33639699  1
  In  In69  1  0.80717159  0.15179278  0.66240569  1
  In  In70  1  0.50593878  0.50868048  0.32338779  1
  In  In71  1  0.83517030  0.51443105  0.34305290  1
  Te  Te72  1  0.09734995  0.09957363  0.07219406  1
  Te  Te73  1  0.07715553  0.08478381  0.41436981  1
  Te  Te74  1  0.08995808  0.07648434  0.75159582  1
  Te  Te75  1  0.07969451  0.39922028  0.05431467  1
  Te  Te76  1  0.12025847  0.39958604  0.44610658  1
  Te  Te77  1  0.06910914  0.42854251  0.76360274  1
  Te  Te78  1  0.07514402  0.71432276  0.08476377  1
  Te  Te79  1  0.11242810  0.75907081  0.44602841  1
  Te  Te80  1  0.07651593  0.75163711  0.76847888  1
  Te  Te81  1  0.41837133  0.07741747  0.09118200  1
  Te  Te82  1  0.44350214  0.06067159  0.36134572  1
  Te  Te83  1  0.43124253  0.09665697  0.73660194  1
  Te  Te84  1  0.43526449  0.39599010  0.06281776  1
  Te  Te85  1  0.41948279  0.43031668  0.42179268  1
  Te  Te86  1  0.42842101  0.43737418  0.77769938  1
  Te  Te87  1  0.40681985  0.74022639  0.03404230  1
  Te  Te88  1  0.41895314  0.75857589  0.39896853  1
  Te  Te89  1  0.43384365  0.74710429  0.77952511  1
  Te  Te90  1  0.76218980  0.09603019  0.07668982  1
  Te  Te91  1  0.76322778  0.10700565  0.41350613  1
  Te  Te92  1  0.72385481  0.09598823  0.77209920  1
  Te  Te93  1  0.72723250  0.40084698  0.05783330  1
  Te  Te94  1  0.74574563  0.43275851  0.43631843  1
  Te  Te95  1  0.75768585  0.41204976  0.80141319  1
  Te  Te96  1  0.70750261  0.71670127  0.06027781  1
  Te  Te97  1  0.76435806  0.75578043  0.43162623  1
  Te  Te98  1  0.75262101  0.74826588  0.75508120  1
  Te  Te99  1  0.07927204  0.25752767  0.23656654  1
  Te  Te100  1  0.08804794  0.24100523  0.57660370  1
  Te  Te101  1  0.09180846  0.26798923  0.90201569  1
  Te  Te102  1  0.07103889  0.58218394  0.26825385  1
  Te  Te103  1  0.10019939  0.58742928  0.58396399  1
  Te  Te104  1  0.10238789  0.54192989  0.88883423  1
  Te  Te105  1  0.06377450  0.92585076  0.26300930  1
  Te  Te106  1  0.08973528  0.91480861  0.59677558  1
  Te  Te107  1  0.08062091  0.91368293  0.92486676  1
  Te  Te108  1  0.43177094  0.26833796  0.23125878  1
  Te  Te109  1  0.41354980  0.21181147  0.63018301  1
  Te  Te110  1  0.42848800  0.25073693  0.89294817  1
  Te  Te111  1  0.40921955  0.58380022  0.23049828  1
  Te  Te112  1  0.43654439  0.55653989  0.59459127  1
  Te  Te113  1  0.43350950  0.55606260  0.88103385  1
  Te  Te114  1  0.40887541  0.92691127  0.24960351  1
  Te  Te115  1  0.41860834  0.91607760  0.58242838  1
  Te  Te116  1  0.43369880  0.88665705  0.95407461  1
  Te  Te117  1  0.74901325  0.25699461  0.25374540  1
  Te  Te118  1  0.73470504  0.27097230  0.59783466  1
  Te  Te119  1  0.73039793  0.27109186  0.87314187  1
  Te  Te120  1  0.75076178  0.59354885  0.24343870  1
  Te  Te121  1  0.73636538  0.56380809  0.62555517  1
  Te  Te122  1  0.71776401  0.58908607  0.91675209  1
  Te  Te123  1  0.72924677  0.94534158  0.23779224  1
  Te  Te124  1  0.76703071  0.89907545  0.61959889  1
  Te  Te125  1  0.75572819  0.92017738  0.90181928  1
  Te  Te126  1  0.27611579  0.25751250  0.04755355  1
  Te  Te127  1  0.27984236  0.23903322  0.42579093  1
  Te  Te128  1  0.23541479  0.28055875  0.76901357  1
  Te  Te129  1  0.26217507  0.58444151  0.03554147  1
  Te  Te130  1  0.26422996  0.59424099  0.43644830  1
  Te  Te131  1  0.24799754  0.57440280  0.77644823  1
  Te  Te132  1  0.25567014  0.91394361  0.07528589  1
  Te  Te133  1  0.25799510  0.94084506  0.42532663  1
  Te  Te134  1  0.27211030  0.93260185  0.73421347  1
  Te  Te135  1  0.58412391  0.26167955  0.05980475  1
  Te  Te136  1  0.54102938  0.25654319  0.43044375  1
  Te  Te137  1  0.52180172  0.22281747  0.75126827  1
  Te  Te138  1  0.53733456  0.53633789  0.06305623  1
  Te  Te139  1  0.59449521  0.59447055  0.41580660  1
  Te  Te140  1  0.54993750  0.54593899  0.77142952  1
  Te  Te141  1  0.56078908  0.90026939  0.04682279  1
  Te  Te142  1  0.60171292  0.91469829  0.45606683  1
  Te  Te143  1  0.55962275  0.92455448  0.77178890  1
  Te  Te144  1  0.92182616  0.24972311  0.05337592  1
  Te  Te145  1  0.92259753  0.25250249  0.39821041  1
  Te  Te146  1  0.91149821  0.23920250  0.73675769  1
  Te  Te147  1  0.90527291  0.56940051  0.08513310  1
  Te  Te148  1  0.93279856  0.59351231  0.42905481  1
  Te  Te149  1  0.90997517  0.55987246  0.77089612  1
  Te  Te150  1  0.89903738  0.92445141  0.09369385  1
  Te  Te151  1  0.91166344  0.93851507  0.42917586  1
  Te  Te152  1  0.89365025  0.92610521  0.71443746  1
  Te  Te153  1  0.23706799  0.09430797  0.25184617  1
  Te  Te154  1  0.27689498  0.10449065  0.58190985  1
  Te  Te155  1  0.28418894  0.06481048  0.92119796  1
  Te  Te156  1  0.24470710  0.42716315  0.24112509  1
  Te  Te157  1  0.26554582  0.37899247  0.62501490  1
  Te  Te158  1  0.23446508  0.46425755  0.92379077  1
  Te  Te159  1  0.23323446  0.75927603  0.23200316  1
  Te  Te160  1  0.27929387  0.73150388  0.61536670  1
  Te  Te161  1  0.24033446  0.74469554  0.88635023  1
  Te  Te162  1  0.57152109  0.11115109  0.26391278  1
  Te  Te163  1  0.59319784  0.08513044  0.58391986  1
  Te  Te164  1  0.59721984  0.08810013  0.89883945  1
  Te  Te165  1  0.60075241  0.41667882  0.24999011  1
  Te  Te166  1  0.57917664  0.39164792  0.62478394  1
  Te  Te167  1  0.56872788  0.43082036  0.87659969  1
  Te  Te168  1  0.57158689  0.75911562  0.23232015  1
  Te  Te169  1  0.59395715  0.73462473  0.58890856  1
  Te  Te170  1  0.61230378  0.70661864  0.92253650  1
  Te  Te171  1  0.94389386  0.04862337  0.21170041  1
  Te  Te172  1  0.92342524  0.06416092  0.60943767  1
  Te  Te173  1  0.90335924  0.07433190  0.90161120  1
  Te  Te174  1  0.90630283  0.41677092  0.25038119  1
  Te  Te175  1  0.90372460  0.42792501  0.59938333  1
  Te  Te176  1  0.89422926  0.42277788  0.87257303  1
  Te  Te177  1  0.90497749  0.76860014  0.25786511  1
  Te  Te178  1  0.92017044  0.73267240  0.59864777  1
  Te  Te179  1  0.92568614  0.75560500  0.93107601  1
