# generated using pymatgen
data_In2Te3
_symmetry_space_group_name_H-M   'P 1'
_cell_length_a   18.78173946
_cell_length_b   18.79077521
_cell_length_c   18.78092609
_cell_angle_alpha   90.02958307
_cell_angle_beta   90.13309584
_cell_angle_gamma   90.07776511
_symmetry_Int_Tables_number   1
_chemical_formula_structural   In2Te3
_chemical_formula_sum   'In72 Te108'
_cell_volume   6628.20423796
_cell_formula_units_Z   36
loop_
 _symmetry_equiv_pos_site_id
 _symmetry_equiv_pos_as_xyz
  1  'x, y, z'
loop_
 _atom_site_type_symbol
 _atom_site_label
 _atom_site_symmetry_multiplicity
 _atom_site_fract_x
 _atom_site_fract_y
 _atom_site_fract_z
 _atom_site_occupancy
  In  In0  1  0.50493656  0.65248497  0.50327941  1
  In  In1  1  0.47255183  -0.00827265  0.14748339  1
  In  In2  1  0.17185548  0.69156319  0.83196192  1
  In  In3  1  0.67598486  -0.01522577  0.33055443  1
  In  In4  1  0.82957436  0.18099550  -0.02406228  1
  In  In5  1  0.51314108  0.67162582  0.16797556  1
  In  In6  1  0.31238038  0.82837475  0.15626842  1
  In  In7  1  0.51091671  0.84872397  0.70626575  1
  In  In8  1  0.37187429  0.46673430  0.12965974  1
  In  In9  1  0.32414225  0.83590516  0.82233878  1
  In  In10  1  0.50680673  0.01506404  0.50995775  1
  In  In11  1  0.52114843  0.83312084  -0.03819442  1
  In  In12  1  0.65737008  0.16978863  0.15415722  1
  In  In13  1  0.65302886  0.49738782  0.15772955  1
  In  In14  1  -0.00246456  0.32254040  -0.00113319  1
  In  In15  1  0.16526751  0.32539681  0.49410596  1
  In  In16  1  0.34395220  0.68361548  0.66111594  1
  In  In17  1  0.84258462  0.48114677  0.33140333  1
  In  In18  1  0.82108541  0.00045202  0.85152120  1
  In  In19  1  0.35664391  0.49066351  0.84961190  1
  In  In20  1  0.16007992  0.50107665  0.67331684  1
  In  In21  1  0.00851676  0.70125187  -0.01062913  1
  In  In22  1  0.67800433  0.32565499  -0.00414467  1
  In  In23  1  0.85352317  -0.01398326  0.12260512  1
  In  In24  1  0.82815159  0.68322733  0.16073427  1
  In  In25  1  0.18605059  0.50424696  0.35826931  1
  In  In26  1  0.51400014  0.18643457  0.33613116  1
  In  In27  1  0.83087016  0.16336524  0.33319113  1
  In  In28  1  -0.01590983  0.49606676  0.17703511  1
  In  In29  1  0.33862223  0.67250537  -0.02651743  1
  In  In30  1  0.33262454  0.00289513  -0.00031891  1
  In  In31  1  0.83493435  0.35009187  0.50770701  1
  In  In32  1  0.32640149  0.00858632  0.68749777  1
  In  In33  1  0.17108489  0.15221633  0.00154586  1
  In  In34  1  0.31198642  0.83491147  0.51130602  1
  In  In35  1  0.66085460  0.50160803  0.80847051  1
  In  In36  1  0.83775938  -0.01778600  0.52740458  1
  In  In37  1  0.63073551  0.15659637  0.51159590  1
  In  In38  1  0.00628415  0.82311890  0.51481684  1
  In  In39  1  0.33745120  0.34117773  0.35539115  1
  In  In40  1  0.01411427  0.16998155  0.15735129  1
  In  In41  1  0.64074475  0.34655626  0.65520966  1
  In  In42  1  0.16736990  0.32696080  0.17448741  1
  In  In43  1  0.64556322  0.81725543  0.14707721  1
  In  In44  1  0.65252390  0.32163736  0.34701275  1
  In  In45  1  0.30354212  0.03202203  0.34495946  1
  In  In46  1  0.03270246  -0.01697403  0.30855215  1
  In  In47  1  0.50197497  0.48859674  0.35061534  1
  In  In48  1  -0.00822214  0.16138657  0.50608120  1
  In  In49  1  0.01556954  0.49892323  0.51003439  1
  In  In50  1  0.16464306  0.16004640  0.67479576  1
  In  In51  1  0.15252229  0.67767770  0.15294214  1
  In  In52  1  0.33951240  0.15717768  0.16594113  1
  In  In53  1  0.83220746  0.65514336  0.82387943  1
  In  In54  1  0.49654576  0.81728333  0.30782141  1
  In  In55  1  0.66996600  0.65739285  0.67266151  1
  In  In56  1  0.16127977  0.00213221  0.51729238  1
  In  In57  1  0.01078410  0.83974372  0.84662451  1
  In  In58  1  0.31653385  0.64885907  0.33494485  1
  In  In59  1  0.83095273  0.82771001  0.67578555  1
  In  In60  1  0.68946567  0.83014258  0.50867916  1
  In  In61  1  0.83891040  0.16799112  0.67775083  1
  In  In62  1  0.83127701  0.82746621  0.34073368  1
  In  In63  1  0.19619857  0.50406747  -0.00871589  1
  In  In64  1  0.82571577  0.50225414  -0.01353825  1
  In  In65  1  0.00808313  0.16068378  0.81872829  1
  In  In66  1  0.34253732  0.16629321  0.83359480  1
  In  In67  1  0.35455769  0.31444100  0.64522565  1
  In  In68  1  -0.00779823  0.67831965  0.34548397  1
  In  In69  1  0.82746125  0.50641058  0.67151912  1
  In  In70  1  -0.00505074  0.49378344  0.82298898  1
  In  In71  1  0.50987268  0.33166265  0.83069379  1
  Te  Te72  1  0.07209177  0.06418975  0.07153366  1
  Te  Te73  1  0.08457193  0.08518627  0.41227593  1
  Te  Te74  1  0.09769109  0.05813229  0.75849516  1
  Te  Te75  1  0.08438207  0.42572992  0.07694717  1
  Te  Te76  1  0.07544263  0.40975456  0.40156217  1
  Te  Te77  1  0.09712741  0.40515923  0.76630762  1
  Te  Te78  1  0.07855678  0.79353554  0.08921445  1
  Te  Te79  1  0.09492686  0.75160267  0.42105749  1
  Te  Te80  1  0.06523510  0.74562542  0.74591910  1
  Te  Te81  1  0.43383808  0.10535009  0.05452020  1
  Te  Te82  1  0.41559706  0.10291594  0.42195396  1
  Te  Te83  1  0.43614333  0.08933964  0.74735782  1
  Te  Te84  1  0.44036617  0.37210431  0.04150301  1
  Te  Te85  1  0.40246601  0.43790095  0.44857255  1
  Te  Te86  1  0.42713189  0.41661338  0.73439626  1
  Te  Te87  1  0.42827550  0.76855492  0.07847384  1
  Te  Te88  1  0.41035394  0.75129332  0.41639252  1
  Te  Te89  1  0.43129198  0.73814872  0.77482168  1
  Te  Te90  1  0.74940301  0.08531057  0.06799088  1
  Te  Te91  1  0.74770512  0.07718379  0.43072454  1
  Te  Te92  1  0.74320725  0.10389594  0.77389742  1
  Te  Te93  1  0.76279132  0.41283280  0.09154398  1
  Te  Te94  1  0.73264961  0.42648976  0.42427501  1
  Te  Te95  1  0.75336818  0.39770996  0.74798438  1
  Te  Te96  1  0.74456817  0.75088919  0.06023443  1
  Te  Te97  1  0.75731149  0.73059416  0.42338973  1
  Te  Te98  1  0.72624188  0.76301560  0.77067981  1
  Te  Te99  1  0.08350030  0.24562534  0.26340714  1
  Te  Te100  1  0.07415210  0.25462439  0.59458264  1
  Te  Te101  1  0.09659235  0.25059407  0.91082180  1
  Te  Te102  1  0.08660905  0.58189942  0.25448681  1
  Te  Te103  1  0.09684392  0.59940882  0.58172487  1
  Te  Te104  1  0.08586320  0.58578842  0.91964694  1
  Te  Te105  1  0.09041590  0.88680117  0.21613835  1
  Te  Te106  1  0.07568928  0.91855250  0.60344700  1
  Te  Te107  1  0.06442433  0.93085846  0.95169217  1
  Te  Te108  1  0.41594412  0.26207028  0.24792871  1
  Te  Te109  1  0.43900514  0.22669588  0.56277607  1
  Te  Te110  1  0.41457945  0.26267750  0.92667559  1
  Te  Te111  1  0.41894303  0.57859516  0.24518323  1
  Te  Te112  1  0.42060210  0.57437756  0.59669661  1
  Te  Te113  1  0.44469193  0.57992314  0.93230827  1
  Te  Te114  1  0.40125237  0.93007183  0.26741776  1
  Te  Te115  1  0.41678048  0.91172105  0.59329710  1
  Te  Te116  1  0.41992998  0.92916505  0.89850702  1
  Te  Te117  1  0.74592381  0.25521035  0.24577766  1
  Te  Te118  1  0.74669148  0.24451617  0.57378958  1
  Te  Te119  1  0.72273964  0.23425478  0.88569224  1
  Te  Te120  1  0.75859842  0.57448262  0.24131210  1
  Te  Te121  1  0.74000284  0.57347820  0.57414065  1
  Te  Te122  1  0.72675088  0.59209688  0.91600213  1
  Te  Te123  1  0.75514469  0.90925171  0.22535630  1
  Te  Te124  1  0.72677918  0.93229772  0.61584635  1
  Te  Te125  1  0.71648019  0.92163615  0.92629075  1
  Te  Te126  1  0.25769618  0.25351814  0.07688565  1
  Te  Te127  1  0.24523195  0.23815262  0.40573048  1
  Te  Te128  1  0.25568790  0.25823255  0.74848900  1
  Te  Te129  1  0.26740552  0.59542631  0.09268983  1
  Te  Te130  1  0.25303335  0.59202685  0.45582289  1
  Te  Te131  1  0.26115382  0.58657920  0.76637838  1
  Te  Te132  1  0.24643761  0.95564746  0.11352887  1
  Te  Te133  1  0.22999844  0.91478421  0.41006231  1
  Te  Te134  1  0.22636018  0.91362498  0.74296166  1
  Te  Te135  1  0.56946362  0.26540338  0.08175725  1
  Te  Te136  1  0.54396571  0.28626961  0.46223159  1
  Te  Te137  1  0.58525003  0.23963468  0.74213441  1
  Te  Te138  1  0.57360625  0.58346785  0.06602997  1
  Te  Te139  1  0.59549379  0.58944509  0.40566667  1
  Te  Te140  1  0.55995645  0.57627408  0.73018178  1
  Te  Te141  1  0.58631345  0.93399687  0.06716993  1
  Te  Te142  1  0.57726859  0.90703802  0.41741658  1
  Te  Te143  1  0.59727965  0.93387439  0.79646825  1
  Te  Te144  1  0.90175931  0.25096913  0.09325073  1
  Te  Te145  1  0.91724743  0.25902893  0.41521754  1
  Te  Te146  1  0.92180095  0.26274649  0.75492754  1
  Te  Te147  1  0.92449047  0.58958293  0.06870759  1
  Te  Te148  1  0.91257776  0.57779896  0.42745739  1
  Te  Te149  1  0.93664922  0.59961488  0.72873962  1
  Te  Te150  1  0.93079418  0.90225910  0.02860678  1
  Te  Te151  1  0.92160291  0.92983939  0.41100316  1
  Te  Te152  1  0.91575902  0.92352049  0.75761071  1
  Te  Te153  1  0.22546346  0.08375673  0.22953099  1
  Te  Te154  1  0.26489840  0.09657864  0.57837726  1
  Te  Te155  1  0.24232578  0.06782997  0.89528514  1
  Te  Te156  1  0.25973661  0.43059417  0.24291323  1
  Te  Te157  1  0.25064184  0.41265857  0.58468628  1
  Te  Te158  1  0.25958643  0.39799837  0.91333765  1
  Te  Te159  1  0.23276682  0.75463899  0.26278236  1
  Te  Te160  1  0.22905771  0.75684041  0.60457148  1
  Te  Te161  1  0.23758169  0.77976467  0.93954906  1
  Te  Te162  1  0.57644862  0.07174410  0.25171353  1
  Te  Te163  1  0.57489169  0.07927988  0.62663838  1
  Te  Te164  1  0.61656177  0.03278694  0.90992905  1
  Te  Te165  1  0.57003670  0.40257063  0.24428089  1
  Te  Te166  1  0.55579155  0.41188361  0.55394502  1
  Te  Te167  1  0.58980275  0.42600277  0.92113604  1
  Te  Te168  1  0.61376355  0.72995601  0.26988637  1
  Te  Te169  1  0.57460494  0.76511322  0.59086171  1
  Te  Te170  1  0.62330570  0.75292116  0.89361924  1
  Te  Te171  1  0.91149909  0.06835096  0.24488874  1
  Te  Te172  1  0.93344221  0.06662682  0.60984936  1
  Te  Te173  1  0.93106436  0.08153848  0.92496275  1
  Te  Te174  1  0.92081701  0.38605557  0.25018785  1
  Te  Te175  1  0.93189930  0.41356904  0.60553752  1
  Te  Te176  1  0.90382956  0.40066121  0.90457414  1
  Te  Te177  1  0.92911197  0.76790366  0.23805015  1
  Te  Te178  1  0.88958850  0.74683761  0.56693192  1
  Te  Te179  1  0.88933164  0.76267163  0.91725424  1
