# generated using pymatgen
data_In2Te3
_symmetry_space_group_name_H-M   'P 1'
_cell_length_a   19.01937003
_cell_length_b   18.99012412
_cell_length_c   19.02597683
_cell_angle_alpha   89.87161802
_cell_angle_beta   90.02007325
_cell_angle_gamma   90.06833111
_symmetry_Int_Tables_number   1
_chemical_formula_structural   In2Te3
_chemical_formula_sum   'In72 Te108'
_cell_volume   6871.78351534
_cell_formula_units_Z   36
loop_
 _symmetry_equiv_pos_site_id
 _symmetry_equiv_pos_as_xyz
  1  'x, y, z'
loop_
 _atom_site_type_symbol
 _atom_site_label
 _atom_site_symmetry_multiplicity
 _atom_site_fract_x
 _atom_site_fract_y
 _atom_site_fract_z
 _atom_site_occupancy
  In  In0  1  0.33621658  0.28810980  0.29446044  1
  In  In1  1  0.49959587  0.17147264  0.00933925  1
  In  In2  1  0.01008697  0.50233705  0.50031907  1
  In  In3  1  -0.03139360  0.49094174  0.13608392  1
  In  In4  1  0.68998481  0.49312643  0.84291487  1
  In  In5  1  0.50191570  0.86077578  0.00951926  1
  In  In6  1  0.01017883  0.83114479  0.16553139  1
  In  In7  1  0.80688095  0.29309960  0.50764162  1
  In  In8  1  0.34484371  0.83084550  0.17868017  1
  In  In9  1  0.51361771  0.02795632  0.51733700  1
  In  In10  1  0.31211966  0.01201725  0.02713833  1
  In  In11  1  0.32577439  0.34109558  0.64284229  1
  In  In12  1  0.16740774  0.66601937  0.17435090  1
  In  In13  1  0.49370866  0.65667725  0.82334444  1
  In  In14  1  0.64663062  0.33698068  0.34631082  1
  In  In15  1  0.34430367  0.48969789  0.48552722  1
  In  In16  1  0.83370982  0.65615645  0.83695224  1
  In  In17  1  -0.00662643  0.00105553  0.67529196  1
  In  In18  1  0.13524847  0.81556242  0.70120960  1
  In  In19  1  0.00008062  0.33340169  0.00145222  1
  In  In20  1  0.00109305  0.33383525  0.67201814  1
  In  In21  1  0.13585507  0.15702602  0.02271165  1
  In  In22  1  0.32815615  0.52207841  0.82912868  1
  In  In23  1  0.68897525  0.84073979  0.82740664  1
  In  In24  1  0.33851421  0.15259309  0.80800347  1
  In  In25  1  0.53417147  0.06150122  0.80084614  1
  In  In26  1  0.86736843  0.83367169  0.34541575  1
  In  In27  1  0.69089539  0.31910388  -0.02765359  1
  In  In28  1  0.34154302  0.35023158  -0.00770484  1
  In  In29  1  0.64767973  0.83431956  0.17935275  1
  In  In30  1  0.51210933  0.67875887  0.47787897  1
  In  In31  1  0.37131942  0.65925525  0.34683303  1
  In  In32  1  0.80866392  0.01763337  0.15252695  1
  In  In33  1  0.15605549  0.67167694  0.51224574  1
  In  In34  1  0.33093062  0.84830339  0.85287917  1
  In  In35  1  0.82595323  0.82776546  -0.00738653  1
  In  In36  1  -0.03105841  0.85597870  0.51554441  1
  In  In37  1  0.67941201  0.84530674  0.51042887  1
  In  In38  1  0.33260582  0.69523389  0.01870027  1
  In  In39  1  0.83284628  0.03489596  0.52201696  1
  In  In40  1  0.33406838  0.16063892  0.50452132  1
  In  In41  1  0.01044540  0.66627775  0.31809284  1
  In  In42  1  0.31654676  0.04680810  0.31882638  1
  In  In43  1  0.17965253  0.46708067  0.34461012  1
  In  In44  1  0.68937377  0.64059129  0.34238537  1
  In  In45  1  0.82759763  0.47267574  0.31213111  1
  In  In46  1  0.51202360  0.48027181  0.66665311  1
  In  In47  1  0.32469416  0.66759413  0.65657286  1
  In  In48  1  0.14547107  0.30967614  0.50957053  1
  In  In49  1  0.14971703  -0.02061001  0.85791820  1
  In  In50  1  0.65434059  0.01273986  0.30550037  1
  In  In51  1  0.48685787  0.84195029  0.32881151  1
  In  In52  1  0.14773957  0.81412783  -0.02091129  1
  In  In53  1  0.81773606  0.02914061  0.83470197  1
  In  In54  1  0.51136764  0.85622935  0.66113772  1
  In  In55  1  -0.01523544  0.15747259  0.83501003  1
  In  In56  1  0.84821841  0.82211202  0.69508419  1
  In  In57  1  0.84302818  0.31938015  0.13987353  1
  In  In58  1  0.15689530  0.86132819  0.33656741  1
  In  In59  1  -0.00103243  0.50610810  0.86399125  1
  In  In60  1  0.67264761  0.17889720  0.15855175  1
  In  In61  1  0.51546289  0.48603464  0.01942218  1
  In  In62  1  0.52264303  0.30650277  0.51702764  1
  In  In63  1  0.56409332  0.26624178  0.85092699  1
  In  In64  1  0.15120420  0.32567777  0.16445785  1
  In  In65  1  0.84379457  0.15103101  0.32302376  1
  In  In66  1  0.84633221  0.64348913  0.52773470  1
  In  In67  1  0.15784911  0.06151954  0.44512444  1
  In  In68  1  0.49009435  0.48528568  0.32789257  1
  In  In69  1  0.81556605  0.48016205  0.67078058  1
  In  In70  1  0.18455483  0.34546185  0.82480521  1
  In  In71  1  0.66008747  0.66290931  -0.02759334  1
  Te  Te72  1  0.12841540  0.04668452  0.11893898  1
  Te  Te73  1  0.05513575  0.14698428  0.38688693  1
  Te  Te74  1  0.09086320  0.07972096  0.76106874  1
  Te  Te75  1  0.09108567  0.43180883  0.07221953  1
  Te  Te76  1  0.06617083  0.39326101  0.41044594  1
  Te  Te77  1  0.08363923  0.42980894  0.75249681  1
  Te  Te78  1  0.06936668  0.72415221  0.07591671  1
  Te  Te79  1  0.06503806  0.76405994  0.42052435  1
  Te  Te80  1  0.04813972  0.74433588  0.79727930  1
  Te  Te81  1  0.39354370  0.11569264  0.09844316  1
  Te  Te82  1  0.43100654  0.09532873  0.40988924  1
  Te  Te83  1  0.40638501  0.05060656  0.72819850  1
  Te  Te84  1  0.42261542  0.40531699  0.09922251  1
  Te  Te85  1  0.42059415  0.38133677  0.41733604  1
  Te  Te86  1  0.40330986  0.41669998  0.74943301  1
  Te  Te87  1  0.44741084  0.75307951  0.10075961  1
  Te  Te88  1  0.40143672  0.77394891  0.43774400  1
  Te  Te89  1  0.41307675  0.76221408  0.74777544  1
  Te  Te90  1  0.74885775  0.10877177  0.05469358  1
  Te  Te91  1  0.73903127  0.08090923  0.40838106  1
  Te  Te92  1  0.74938213  0.10569276  0.72839829  1
  Te  Te93  1  0.74942716  0.40790751  0.07189862  1
  Te  Te94  1  0.75145727  0.41212225  0.42640753  1
  Te  Te95  1  0.74011474  0.38097824  0.75641054  1
  Te  Te96  1  0.72625551  0.75326859  0.07873067  1
  Te  Te97  1  0.76937026  0.74849162  0.43411114  1
  Te  Te98  1  0.73886378  0.72813060  0.74161436  1
  Te  Te99  1  0.11258418  0.22048559  0.26224892  1
  Te  Te100  1  0.06669334  0.22278158  0.59877155  1
  Te  Te101  1  0.09419909  0.25386055  0.90545771  1
  Te  Te102  1  0.09036144  0.55560884  0.25535482  1
  Te  Te103  1  0.07347650  0.58892275  0.59896042  1
  Te  Te104  1  0.07823109  0.62553411  0.89069477  1
  Te  Te105  1  0.06958655  0.93839632  0.24862175  1
  Te  Te106  1  0.08376905  0.91424795  0.59085164  1
  Te  Te107  1  0.05714506  0.92704545  0.95658395  1
  Te  Te108  1  0.43690562  0.21094963  0.22453479  1
  Te  Te109  1  0.42334821  0.23306213  0.60428238  1
  Te  Te110  1  0.41574333  0.25274609  0.89407170  1
  Te  Te111  1  0.41336060  0.57519523  0.23921392  1
  Te  Te112  1  0.42610360  0.58325412  0.57829163  1
  Te  Te113  1  0.42046016  0.59027205  0.93669811  1
  Te  Te114  1  0.41143776  0.94543963  0.24866444  1
  Te  Te115  1  0.41891931  0.93344732  0.57911015  1
  Te  Te116  1  0.41298329  0.95141306  0.92701753  1
  Te  Te117  1  0.75645596  0.25915134  0.25742001  1
  Te  Te118  1  0.73928733  0.20053764  0.60480087  1
  Te  Te119  1  0.77338313  0.26863797  0.86127507  1
  Te  Te120  1  0.75902079  0.57433471  0.23370825  1
  Te  Te121  1  0.73607047  0.56816351  0.58351966  1
  Te  Te122  1  0.78083125  0.56632952  0.95079425  1
  Te  Te123  1  0.75697498  0.90351595  0.26699121  1
  Te  Te124  1  0.77300098  0.91955007  0.60165436  1
  Te  Te125  1  0.73708661  0.93361550  0.93225916  1
  Te  Te126  1  0.24112814  0.25735014  0.06428401  1
  Te  Te127  1  0.25529297  0.25588953  0.41652268  1
  Te  Te128  1  0.24542300  0.24553761  0.72972675  1
  Te  Te129  1  0.26338841  0.59166343  0.09502563  1
  Te  Te130  1  0.24499415  0.59242662  0.41506160  1
  Te  Te131  1  0.23595937  0.58198079  0.73344439  1
  Te  Te132  1  0.24886717  0.88329735  0.07564113  1
  Te  Te133  1  0.25344062  0.94408218  0.41517214  1
  Te  Te134  1  0.23977597  0.91517310  0.75343327  1
  Te  Te135  1  0.58767737  0.27428581  0.07610752  1
  Te  Te136  1  0.59329098  0.22322271  0.42062679  1
  Te  Te137  1  0.59231876  0.18549974  0.72840814  1
  Te  Te138  1  0.59371774  0.59255150  0.08138772  1
  Te  Te139  1  0.58598058  0.56189005  0.42098010  1
  Te  Te140  1  0.59585152  0.57536020  0.75101083  1
  Te  Te141  1  0.57670616  0.93936192  0.10632650  1
  Te  Te142  1  0.58493136  0.91956860  0.41722845  1
  Te  Te143  1  0.60663404  0.93622965  0.74465349  1
  Te  Te144  1  0.94829384  0.22735372  0.09187022  1
  Te  Te145  1  0.91412086  0.23734326  0.42237495  1
  Te  Te146  1  0.90627106  0.25986773  0.76085576  1
  Te  Te147  1  0.89442724  0.58361001  0.05609852  1
  Te  Te148  1  0.91627631  0.58045065  0.40268860  1
  Te  Te149  1  0.91258524  0.56565650  0.74706308  1
  Te  Te150  1  0.90192562  0.91146631  0.09292502  1
  Te  Te151  1  0.91958018  0.95676319  0.41639106  1
  Te  Te152  1  0.91766970  0.92425614  0.77931552  1
  Te  Te153  1  0.21799102  0.11046514  0.22755777  1
  Te  Te154  1  0.22816078  0.08407568  0.57063173  1
  Te  Te155  1  0.24480832  0.09445746  0.91771847  1
  Te  Te156  1  0.26256340  0.40621901  0.23564770  1
  Te  Te157  1  0.23122402  0.42831281  0.56501162  1
  Te  Te158  1  0.24113617  0.44341705  0.92521144  1
  Te  Te159  1  0.24646255  0.75768557  0.26894744  1
  Te  Te160  1  0.23729639  0.77131544  0.59047858  1
  Te  Te161  1  0.24899957  0.73090390  0.89794151  1
  Te  Te162  1  0.56559489  0.10811956  0.23578353  1
  Te  Te163  1  0.61734954  0.10008759  0.59363369  1
  Te  Te164  1  0.60134220  0.10272575  0.92687723  1
  Te  Te165  1  0.58449875  0.41589597  0.24157777  1
  Te  Te166  1  0.60684856  0.39375540  0.59921890  1
  Te  Te167  1  0.56926523  0.41609255  0.89573805  1
  Te  Te168  1  0.58579217  0.73869264  0.27956019  1
  Te  Te169  1  0.59056429  0.74868681  0.58646596  1
  Te  Te170  1  0.56729858  0.76883827  0.89997405  1
  Te  Te171  1  0.91970423  0.09631963  0.20940569  1
  Te  Te172  1  0.94008531  0.11061393  0.59029679  1
  Te  Te173  1  0.91000400  0.08292219  0.93564495  1
  Te  Te174  1  0.93332384  0.39120852  0.24289579  1
  Te  Te175  1  0.90887379  0.40659547  0.56992773  1
  Te  Te176  1  0.90724608  0.40245799  0.91224987  1
  Te  Te177  1  0.90806708  0.73855736  0.23484547  1
  Te  Te178  1  0.93546900  0.73835209  0.60488047  1
  Te  Te179  1  0.92154556  0.75675345  0.90286692  1
