# generated using pymatgen
data_In2Te3
_symmetry_space_group_name_H-M   'P 1'
_cell_length_a   18.78833514
_cell_length_b   18.79593797
_cell_length_c   18.79320172
_cell_angle_alpha   90.02193918
_cell_angle_beta   89.99125036
_cell_angle_gamma   90.05493813
_symmetry_Int_Tables_number   1
_chemical_formula_structural   In2Te3
_chemical_formula_sum   'In72 Te108'
_cell_volume   6636.70999332
_cell_formula_units_Z   36
loop_
 _symmetry_equiv_pos_site_id
 _symmetry_equiv_pos_as_xyz
  1  'x, y, z'
loop_
 _atom_site_type_symbol
 _atom_site_label
 _atom_site_symmetry_multiplicity
 _atom_site_fract_x
 _atom_site_fract_y
 _atom_site_fract_z
 _atom_site_occupancy
  In  In0  1  0.34161962  0.33498193  0.66336012  1
  In  In1  1  0.81642368  0.52306802  0.34387300  1
  In  In2  1  0.48498713  -0.02913153  0.16282724  1
  In  In3  1  0.81195484  0.16684778  -0.01201685  1
  In  In4  1  0.19802992  0.17610455  0.35289726  1
  In  In5  1  0.17945052  0.32193645  0.18463778  1
  In  In6  1  0.64249533  -0.01348160  0.66660626  1
  In  In7  1  0.68678889  0.80645547  0.12495543  1
  In  In8  1  0.47937415  0.83279870  0.00533181  1
  In  In9  1  0.67399429  0.33567187  0.31720076  1
  In  In10  1  0.33967428  0.00033010  0.67918173  1
  In  In11  1  0.82940601  0.33716074  0.19102830  1
  In  In12  1  -0.02302031  0.52583043  0.79882687  1
  In  In13  1  0.34467817  0.68925140  -0.00597400  1
  In  In14  1  0.52048976  0.35347340  0.80838166  1
  In  In15  1  0.83489899  0.33739131  0.55139296  1
  In  In16  1  0.65177612  0.34849969  -0.01587565  1
  In  In17  1  0.19193306  -0.02362162  0.47845562  1
  In  In18  1  0.48701109  0.82733144  0.32199410  1
  In  In19  1  0.64747835  0.52537266  0.13291968  1
  In  In20  1  0.66241867  0.01739399  0.31426118  1
  In  In21  1  0.16954038  0.68951059  0.18135343  1
  In  In22  1  0.33586326  0.49882799  0.18513188  1
  In  In23  1  0.02123809  0.84114060  0.17711727  1
  In  In24  1  0.82858097  0.01023846  0.14303796  1
  In  In25  1  0.49773450  0.66506447  0.82955672  1
  In  In26  1  0.34306179  0.14664811  0.84664523  1
  In  In27  1  0.34397091  0.15042905  0.17474316  1
  In  In28  1  -0.00040884  0.32039174  -0.01257380  1
  In  In29  1  0.15543683  0.15674040  0.66829874  1
  In  In30  1  0.81356648  0.37440413  0.80358480  1
  In  In31  1  0.18073493  0.50298902  -0.02221994  1
  In  In32  1  0.17517716  0.51799302  0.35348219  1
  In  In33  1  0.02793400  0.35003957  0.66570428  1
  In  In34  1  0.49057397  0.34248984  0.50539489  1
  In  In35  1  0.81597628  -0.01443221  0.82487312  1
  In  In36  1  0.03008156  0.68950215  0.34294339  1
  In  In37  1  0.65612003  0.83120550  0.85226971  1
  In  In38  1  0.36007817  0.50997157  0.51350859  1
  In  In39  1  0.33780640  0.65666270  0.34376782  1
  In  In40  1  0.48786374  0.80894413  0.66600117  1
  In  In41  1  0.20733530  0.64852606  0.82507697  1
  In  In42  1  0.00341653  0.79492848  0.83401799  1
  In  In43  1  0.18828998  0.81985715  0.66891088  1
  In  In44  1  0.31736867  -0.03824340  0.00509304  1
  In  In45  1  0.79973229  0.52106507  -0.03566967  1
  In  In46  1  0.00982474  -0.02450520  -0.00796662  1
  In  In47  1  0.83674556  0.66175942  0.50927256  1
  In  In48  1  -0.01218012  0.68074912  0.00881428  1
  In  In49  1  0.85088911  0.83281852  0.32284801  1
  In  In50  1  0.62947393  0.82233638  0.51583044  1
  In  In51  1  0.14743256  0.34023202  0.83561968  1
  In  In52  1  0.52646438  0.15596246  -0.02679109  1
  In  In53  1  0.01904213  0.17715458  0.50367296  1
  In  In54  1  0.66123275  0.50831334  0.52277596  1
  In  In55  1  -0.01308882  0.49988116  0.13612008  1
  In  In56  1  -0.00729273  0.82096082  0.51122831  1
  In  In57  1  0.01473635  0.16303524  0.81985994  1
  In  In58  1  0.68465548  0.15907037  0.51783694  1
  In  In59  1  0.00973980  0.13169109  0.14578273  1
  In  In60  1  0.64971590  0.68416653  0.33593290  1
  In  In61  1  0.49828792  0.65025296  0.52634293  1
  In  In62  1  0.48831184  0.33199984  0.16712969  1
  In  In63  1  0.86102166  -0.02698701  0.48548399  1
  In  In64  1  0.81019685  0.16918226  0.68413397  1
  In  In65  1  0.00443957  0.01938336  0.67138085  1
  In  In66  1  0.85886344  0.17649927  0.31735677  1
  In  In67  1  0.82814736  0.80468663  0.66369277  1
  In  In68  1  0.48884103  0.15476222  0.34871398  1
  In  In69  1  0.33668675  0.34009091  0.01028015  1
  In  In70  1  0.47687675  0.00512208  0.50298639  1
  In  In71  1  0.03640905  0.34622573  0.35271128  1
  Te  Te72  1  0.11184183  0.05894103  0.06567529  1
  Te  Te73  1  0.09032558  0.07881145  0.41656003  1
  Te  Te74  1  0.11163957  0.05397606  0.77424353  1
  Te  Te75  1  0.09784011  0.40476639  0.08042246  1
  Te  Te76  1  0.08521307  0.44589336  0.45467704  1
  Te  Te77  1  0.11206510  0.45900758  0.74276482  1
  Te  Te78  1  0.10110304  0.76411483  0.06783960  1
  Te  Te79  1  0.11358848  0.75324882  0.45005744  1
  Te  Te80  1  0.09718298  0.71764176  0.74140287  1
  Te  Te81  1  0.42414798  0.07738245  0.06583072  1
  Te  Te82  1  0.38202477  0.07495764  0.41275835  1
  Te  Te83  1  0.43627336  0.08946456  0.74945616  1
  Te  Te84  1  0.42881502  0.44028566  0.07704215  1
  Te  Te85  1  0.42431103  0.43000343  0.40681642  1
  Te  Te86  1  0.42528956  0.44029160  0.73049163  1
  Te  Te87  1  0.39153644  0.77070250  0.10744623  1
  Te  Te88  1  0.42348620  0.74717663  0.43506132  1
  Te  Te89  1  0.39082741  0.73111729  0.74752209  1
  Te  Te90  1  0.72322523  0.08332205  0.07096982  1
  Te  Te91  1  0.76570289  0.07879120  0.41131546  1
  Te  Te92  1  0.70997395  0.08743507  0.77205838  1
  Te  Te93  1  0.75679967  0.41568222  0.08247311  1
  Te  Te94  1  0.75086074  0.41176635  0.42784262  1
  Te  Te95  1  0.71967759  0.46886581  0.73890627  1
  Te  Te96  1  0.77420758  0.73057078  0.03385130  1
  Te  Te97  1  0.75412074  0.76126185  0.42517087  1
  Te  Te98  1  0.74079591  0.73993805  0.76525190  1
  Te  Te99  1  0.06822850  0.23757892  0.24785818  1
  Te  Te100  1  0.12562328  0.27261686  0.56359670  1
  Te  Te101  1  0.10308380  0.22659396  0.92927773  1
  Te  Te102  1  0.08350773  0.57337841  0.24138444  1
  Te  Te103  1  0.04389223  0.54483987  0.56795301  1
  Te  Te104  1  0.06584802  0.58263502  0.91854161  1
  Te  Te105  1  0.12661998  0.92679875  0.23715055  1
  Te  Te106  1  0.08674695  0.92300360  0.58691383  1
  Te  Te107  1  0.09047299  0.89718297  0.89594077  1
  Te  Te108  1  0.40372689  0.25631173  0.26900885  1
  Te  Te109  1  0.39792309  0.24149201  0.56259227  1
  Te  Te110  1  0.43026974  0.26353237  0.91478598  1
  Te  Te111  1  0.42942681  0.59385998  0.24741248  1
  Te  Te112  1  0.41192829  0.58912998  0.63275139  1
  Te  Te113  1  0.40353238  0.58262459  0.91169246  1
  Te  Te114  1  0.39492306  0.93644699  0.27767540  1
  Te  Te115  1  0.40016352  0.89784973  0.57771704  1
  Te  Te116  1  0.41446282  0.91828140  0.90343337  1
  Te  Te117  1  0.73831226  0.22255115  0.23525183  1
  Te  Te118  1  0.70794615  0.27733747  0.62094154  1
  Te  Te119  1  0.74632707  0.26818664  0.89477754  1
  Te  Te120  1  0.73617834  0.59848379  0.24124269  1
  Te  Te121  1  0.76823529  0.57201102  0.60918961  1
  Te  Te122  1  0.72783354  0.59099415  0.85469136  1
  Te  Te123  1  0.74155566  0.90599386  0.24278831  1
  Te  Te124  1  0.75028172  0.91751732  0.58358955  1
  Te  Te125  1  0.74874473  0.91391541  0.93452856  1
  Te  Te126  1  0.25227364  0.23640806  0.08218584  1
  Te  Te127  1  0.23563812  0.27276087  0.45397341  1
  Te  Te128  1  0.24470771  0.24522834  0.75681847  1
  Te  Te129  1  0.24153788  0.58031723  0.09438956  1
  Te  Te130  1  0.24173305  0.60649165  0.46063594  1
  Te  Te131  1  0.23421325  0.55603543  0.71273286  1
  Te  Te132  1  0.21979454  0.92830040  0.11510570  1
  Te  Te133  1  0.26162351  0.88669145  0.38334368  1
  Te  Te134  1  0.26509739  0.90325408  0.76311500  1
  Te  Te135  1  0.58538243  0.25184508  0.08145164  1
  Te  Te136  1  0.59997391  0.24216714  0.41599531  1
  Te  Te137  1  0.60260573  0.25793993  0.73547868  1
  Te  Te138  1  0.56291650  0.60320913  0.04361992  1
  Te  Te139  1  0.57630146  0.57776454  0.41455030  1
  Te  Te140  1  0.59552238  0.56196465  0.77392112  1
  Te  Te141  1  0.59280601  0.91504407  0.07042822  1
  Te  Te142  1  0.58366382  0.92805655  0.41134132  1
  Te  Te143  1  0.55671670  0.90665590  0.76263405  1
  Te  Te144  1  0.91273926  0.24543313  0.08921695  1
  Te  Te145  1  0.91180022  0.26745466  0.42938844  1
  Te  Te146  1  0.92386840  0.26468943  0.74889134  1
  Te  Te147  1  0.88140442  0.59189022  0.07833854  1
  Te  Te148  1  0.93408459  0.58963813  0.41627742  1
  Te  Te149  1  0.88057826  0.61930149  0.74136494  1
  Te  Te150  1  0.91342933  0.90020408  0.08237455  1
  Te  Te151  1  0.96272619  0.91135444  0.39099183  1
  Te  Te152  1  0.92044837  0.90916105  0.74068196  1
  Te  Te153  1  0.23255401  0.08070916  0.24604974  1
  Te  Te154  1  0.25040904  0.07752231  0.58012318  1
  Te  Te155  1  0.24808679  0.07017464  0.92857822  1
  Te  Te156  1  0.25750681  0.40895169  0.28181386  1
  Te  Te157  1  0.25455525  0.44068615  0.59750943  1
  Te  Te158  1  0.27059984  0.41517091  0.89387452  1
  Te  Te159  1  0.25048866  0.76615228  0.28173087  1
  Te  Te160  1  0.23390870  0.73230394  0.55913932  1
  Te  Te161  1  0.23479312  0.75687570  0.92083353  1
  Te  Te162  1  0.56147768  0.09026672  0.23023095  1
  Te  Te163  1  0.56531626  0.09464169  0.59067068  1
  Te  Te164  1  0.61304010  0.06880409  0.89524012  1
  Te  Te165  1  0.58422827  0.42853370  0.23949373  1
  Te  Te166  1  0.56136768  0.43185910  0.60100831  1
  Te  Te167  1  0.57443295  0.45131380  0.91071439  1
  Te  Te168  1  0.57518782  0.75289781  0.22273393  1
  Te  Te169  1  0.60406712  0.71674234  0.61841464  1
  Te  Te170  1  0.58274958  0.72665800  0.94858011  1
  Te  Te171  1  0.92671305  0.05696005  0.25078371  1
  Te  Te172  1  0.90598494  0.09893333  0.58336357  1
  Te  Te173  1  0.91619144  0.08366131  0.90846253  1
  Te  Te174  1  0.92564248  0.42856192  0.26585052  1
  Te  Te175  1  0.92921247  0.44969852  0.60254995  1
  Te  Te176  1  0.91876846  0.42459689  0.91295756  1
  Te  Te177  1  0.92493293  0.73230106  0.23826157  1
  Te  Te178  1  0.94403690  0.71710398  0.61160651  1
  Te  Te179  1  0.88708075  0.75202329  0.92155108  1
