# generated using pymatgen
data_In2Te3
_symmetry_space_group_name_H-M   'P 1'
_cell_length_a   18.79132540
_cell_length_b   18.79464088
_cell_length_c   18.80022997
_cell_angle_alpha   90.03143122
_cell_angle_beta   90.07479702
_cell_angle_gamma   89.97570834
_symmetry_Int_Tables_number   1
_chemical_formula_structural   In2Te3
_chemical_formula_sum   'In72 Te108'
_cell_volume   6639.78676437
_cell_formula_units_Z   36
loop_
 _symmetry_equiv_pos_site_id
 _symmetry_equiv_pos_as_xyz
  1  'x, y, z'
loop_
 _atom_site_type_symbol
 _atom_site_label
 _atom_site_symmetry_multiplicity
 _atom_site_fract_x
 _atom_site_fract_y
 _atom_site_fract_z
 _atom_site_occupancy
  In  In0  1  -0.00468133  0.50850098  0.14842599  1
  In  In1  1  -0.02902352  0.32908628  0.68329852  1
  In  In2  1  0.36616069  0.50292845  0.49256855  1
  In  In3  1  -0.00671076  0.28676800  0.34868681  1
  In  In4  1  0.16535795  0.32086821  0.48443768  1
  In  In5  1  0.34545414  0.84892639  0.16540883  1
  In  In6  1  0.00226359  0.18156556  0.83431093  1
  In  In7  1  0.82513747  0.67475686  0.50438986  1
  In  In8  1  0.18077929  0.67727560  0.83547769  1
  In  In9  1  0.50257709  0.00835287  0.51417557  1
  In  In10  1  0.17041821  0.84509127  0.36059449  1
  In  In11  1  0.80887988  0.48367799  0.32679935  1
  In  In12  1  0.82115658  0.50287977  0.68419303  1
  In  In13  1  0.80756120  0.03045553  0.81742568  1
  In  In14  1  0.32706514  0.17345471  0.50612757  1
  In  In15  1  -0.00216962  0.83327144  0.15342955  1
  In  In16  1  0.18266007  -0.02548995  0.50234226  1
  In  In17  1  0.49749706  0.66518173  0.16900131  1
  In  In18  1  0.02889150  0.15353402  0.16215758  1
  In  In19  1  0.17548379  0.16300759  0.68110721  1
  In  In20  1  0.50417548  0.49030371  0.32915248  1
  In  In21  1  0.48746119  0.13993809  -0.00020181  1
  In  In22  1  0.50169859  0.83903160  -0.01175373  1
  In  In23  1  0.18345387  0.87399150  0.70746642  1
  In  In24  1  0.66241345  0.32520434  0.01072298  1
  In  In25  1  0.82661354  -0.02832570  0.16193382  1
  In  In26  1  -0.02036317  0.64838618  0.31756788  1
  In  In27  1  0.79923672  0.85885193  0.33519899  1
  In  In28  1  0.65762790  0.50334675  0.15607364  1
  In  In29  1  0.34200864  0.30660142  0.00776845  1
  In  In30  1  0.16349031  0.30988198  0.81931543  1
  In  In31  1  0.65241859  -0.00892638  -0.00440209  1
  In  In32  1  0.17791880  0.49966757  0.00724905  1
  In  In33  1  0.49288797  0.82573953  0.32917511  1
  In  In34  1  0.32408297  0.31654399  0.67253356  1
  In  In35  1  0.00848938  0.00368408  0.34996616  1
  In  In36  1  0.51480255  0.17452314  0.68457539  1
  In  In37  1  0.51318066  0.00196195  0.82323225  1
  In  In38  1  0.17200350  0.51115771  0.67243242  1
  In  In39  1  0.50002061  0.18661256  0.32268509  1
  In  In40  1  0.81667919  0.82767238  0.68842298  1
  In  In41  1  0.01026561  0.34677737  -0.02999202  1
  In  In42  1  0.19362857  0.01541224  0.16411393  1
  In  In43  1  0.83772575  0.18436589  -0.01514902  1
  In  In44  1  0.81481871  0.66841473  0.82290386  1
  In  In45  1  -0.01313422  0.15422840  0.50652640  1
  In  In46  1  0.20792188  0.45974481  0.28886622  1
  In  In47  1  0.33770866  0.85087131  0.48992102  1
  In  In48  1  0.20025992  0.16005055  0.31419976  1
  In  In49  1  0.64473617  0.51243986  0.50617406  1
  In  In50  1  0.82917518  0.83609356  0.00330473  1
  In  In51  1  0.17862714  0.67262678  0.14442706  1
  In  In52  1  0.50591003  0.83022312  0.68223688  1
  In  In53  1  0.34744102  0.49726050  0.82158009  1
  In  In54  1  0.49981511  0.48996221  0.66099175  1
  In  In55  1  -0.03013659  0.50058896  0.85728019  1
  In  In56  1  0.82602520  0.15333279  0.34663925  1
  In  In57  1  0.50401375  0.50092773  -0.00349875  1
  In  In58  1  0.01477288  0.48197895  0.51947194  1
  In  In59  1  0.67197741  0.49242149  0.84021111  1
  In  In60  1  0.82596219  0.33860883  0.16336743  1
  In  In61  1  0.64223650  0.33491450  0.34717554  1
  In  In62  1  0.64612150  0.15690153  0.15965082  1
  In  In63  1  0.00128613  0.84095366  0.83742566  1
  In  In64  1  0.65452191  0.82139370  0.51434930  1
  In  In65  1  0.82351821  0.66056921  0.14492648  1
  In  In66  1  0.19257675  0.67094295  0.51035016  1
  In  In67  1  0.00442545  0.84113834  0.51859766  1
  In  In68  1  0.50135394  0.68374851  0.83884640  1
  In  In69  1  0.35221611  0.66685466  0.33963373  1
  In  In70  1  0.17875623  0.83713179  0.00739876  1
  In  In71  1  0.81289316  0.03600721  0.52539903  1
  Te  Te72  1  0.10060963  0.07147691  0.06400261  1
  Te  Te73  1  0.10795096  0.09654414  0.42816773  1
  Te  Te74  1  0.08692557  0.07409373  0.76512107  1
  Te  Te75  1  0.08968387  0.40525688  0.08794604  1
  Te  Te76  1  0.08403839  0.41812478  0.39989414  1
  Te  Te77  1  0.07804091  0.42112287  0.75254252  1
  Te  Te78  1  0.07016326  0.73755991  0.06066407  1
  Te  Te79  1  0.07174096  0.74396059  0.41884492  1
  Te  Te80  1  0.08907098  0.75826758  0.74296607  1
  Te  Te81  1  0.38145955  0.07876689  0.08213134  1
  Te  Te82  1  0.41778146  0.08973731  0.41819804  1
  Te  Te83  1  0.41433503  0.07991187  0.74061432  1
  Te  Te84  1  0.41093416  0.41955261  0.07980078  1
  Te  Te85  1  0.42394649  0.39627221  0.41160705  1
  Te  Te86  1  0.43037871  0.38923070  0.75521586  1
  Te  Te87  1  0.40755824  0.74568053  0.07534100  1
  Te  Te88  1  0.43216447  0.74020455  0.44445672  1
  Te  Te89  1  0.40203601  0.77197607  0.77216232  1
  Te  Te90  1  0.75789093  0.08758882  0.07779128  1
  Te  Te91  1  0.71916363  0.08305996  0.42032733  1
  Te  Te92  1  0.71406751  0.09810035  0.71504829  1
  Te  Te93  1  0.75951965  0.43242717  0.06617132  1
  Te  Te94  1  0.74227851  0.40655370  0.43695235  1
  Te  Te95  1  0.72239151  0.39978704  0.73030665  1
  Te  Te96  1  0.73688918  0.76927052  0.09709678  1
  Te  Te97  1  0.73160681  0.74178257  0.40541794  1
  Te  Te98  1  0.70923556  0.75335674  0.75964649  1
  Te  Te99  1  0.10223971  0.25708647  0.24692555  1
  Te  Te100  1  0.08188060  0.25813547  0.59481547  1
  Te  Te101  1  0.10608181  0.23257432  0.93761462  1
  Te  Te102  1  0.09726921  0.58305676  0.24190596  1
  Te  Te103  1  0.07990551  0.60092675  0.58922965  1
  Te  Te104  1  0.08886694  0.58070630  0.91279125  1
  Te  Te105  1  0.09242864  0.91638140  0.24194819  1
  Te  Te106  1  0.07901507  0.93747773  0.60790489  1
  Te  Te107  1  0.09934931  0.92632709  0.91359397  1
  Te  Te108  1  0.39635621  0.25578500  0.24046094  1
  Te  Te109  1  0.43007524  0.25629641  0.58099190  1
  Te  Te110  1  0.42581707  0.23946270  0.90670340  1
  Te  Te111  1  0.40412753  0.56578194  0.23991462  1
  Te  Te112  1  0.41552396  0.59492118  0.59441179  1
  Te  Te113  1  0.40757845  0.59291359  0.92208685  1
  Te  Te114  1  0.43772109  0.93543903  0.24380020  1
  Te  Te115  1  0.41044229  0.92456316  0.60039592  1
  Te  Te116  1  0.41142688  0.92500928  0.90405407  1
  Te  Te117  1  0.74277187  0.24815036  0.25208834  1
  Te  Te118  1  0.75193314  0.22593243  0.64361234  1
  Te  Te119  1  0.72792224  0.24242297  0.90576504  1
  Te  Te120  1  0.73565561  0.59254882  0.25324868  1
  Te  Te121  1  0.73545616  0.59655748  0.59883795  1
  Te  Te122  1  0.75381435  0.58136577  0.92572746  1
  Te  Te123  1  0.71214522  0.93832408  0.24703974  1
  Te  Te124  1  0.73941257  0.91975101  0.59435282  1
  Te  Te125  1  0.74701044  0.91715905  0.90242275  1
  Te  Te126  1  0.25451353  0.24514360  0.11076022  1
  Te  Te127  1  0.27510240  0.26803066  0.39497628  1
  Te  Te128  1  0.27956676  0.21752166  0.78144153  1
  Te  Te129  1  0.27465229  0.57779212  0.08682286  1
  Te  Te130  1  0.24683084  0.57192778  0.40810445  1
  Te  Te131  1  0.27415804  0.60226520  0.73682146  1
  Te  Te132  1  0.28220573  0.94206306  0.05959078  1
  Te  Te133  1  0.27857998  0.94812533  0.38596665  1
  Te  Te134  1  0.29254074  0.94733700  0.78445550  1
  Te  Te135  1  0.55360585  0.25172330  0.08745136  1
  Te  Te136  1  0.59821070  0.22154199  0.43004492  1
  Te  Te137  1  0.62661062  0.26797361  0.72762558  1
  Te  Te138  1  0.59327570  0.60483433  0.06345893  1
  Te  Te139  1  0.57806591  0.59400258  0.40303112  1
  Te  Te140  1  0.57940029  0.57928912  0.75621287  1
  Te  Te141  1  0.55933769  0.93050614  0.09135700  1
  Te  Te142  1  0.57987228  0.91630491  0.42088580  1
  Te  Te143  1  0.60877087  0.91330950  0.75156970  1
  Te  Te144  1  0.92957695  0.25330531  0.09051646  1
  Te  Te145  1  0.88465598  0.25247506  0.44873308  1
  Te  Te146  1  0.88369661  0.23151602  0.75275627  1
  Te  Te147  1  0.91089815  0.58303181  0.05485655  1
  Te  Te148  1  0.90736300  0.56816957  0.42776464  1
  Te  Te149  1  0.92723560  0.59343839  0.74594085  1
  Te  Te150  1  0.93403262  0.93474888  0.06046188  1
  Te  Te151  1  0.90446199  0.92135450  0.43164774  1
  Te  Te152  1  0.90868321  0.92974914  0.75440056  1
  Te  Te153  1  0.30802700  0.10438921  0.21978583  1
  Te  Te154  1  0.26078682  0.06997900  0.59540088  1
  Te  Te155  1  0.20634122  0.04057260  0.86317573  1
  Te  Te156  1  0.29211362  0.36608265  0.19758052  1
  Te  Te157  1  0.24804171  0.41487221  0.58068569  1
  Te  Te158  1  0.24921870  0.41035840  0.90267874  1
  Te  Te159  1  0.25053618  0.75677334  0.25957208  1
  Te  Te160  1  0.24589022  0.78280938  0.59470613  1
  Te  Te161  1  0.26951340  0.75841948  0.92056128  1
  Te  Te162  1  0.55868869  0.07318819  0.24318796  1
  Te  Te163  1  0.60138642  0.08189181  0.60010279  1
  Te  Te164  1  0.60214016  0.10213036  0.90466598  1
  Te  Te165  1  0.57412258  0.39910595  0.22682648  1
  Te  Te166  1  0.57277890  0.39990180  0.56850076  1
  Te  Te167  1  0.57222502  0.39791036  0.90906592  1
  Te  Te168  1  0.58891315  0.75294766  0.24354361  1
  Te  Te169  1  0.57284335  0.72928576  0.59477533  1
  Te  Te170  1  0.60417248  0.75922713  0.91551592  1
  Te  Te171  1  0.91483765  0.08076030  0.24560109  1
  Te  Te172  1  0.92162796  0.08081704  0.61467773  1
  Te  Te173  1  0.91924784  0.07792548  0.91331205  1
  Te  Te174  1  0.92508332  0.41302439  0.25571893  1
  Te  Te175  1  0.89497574  0.41271696  0.58157061  1
  Te  Te176  1  0.88718604  0.38682050  0.89949884  1
  Te  Te177  1  0.90362889  0.76621021  0.25295554  1
  Te  Te178  1  0.91641473  0.74834172  0.60129345  1
  Te  Te179  1  0.91345200  0.74450623  0.91550334  1
