# generated using pymatgen
data_In2Te3
_symmetry_space_group_name_H-M   'P 1'
_cell_length_a   18.85439794
_cell_length_b   18.87650737
_cell_length_c   18.85936651
_cell_angle_alpha   90.06843400
_cell_angle_beta   90.00924060
_cell_angle_gamma   89.94329360
_symmetry_Int_Tables_number   1
_chemical_formula_structural   In2Te3
_chemical_formula_sum   'In72 Te108'
_cell_volume   6712.13810195
_cell_formula_units_Z   36
loop_
 _symmetry_equiv_pos_site_id
 _symmetry_equiv_pos_as_xyz
  1  'x, y, z'
loop_
 _atom_site_type_symbol
 _atom_site_label
 _atom_site_symmetry_multiplicity
 _atom_site_fract_x
 _atom_site_fract_y
 _atom_site_fract_z
 _atom_site_occupancy
  In  In0  1  0.66293028  0.82406793  0.51302494  1
  In  In1  1  0.17204466  0.64956826  0.49468284  1
  In  In2  1  0.65908352  0.00382949  -0.00311851  1
  In  In3  1  0.32785076  0.48940557  0.82642689  1
  In  In4  1  0.48599872  0.81833116  0.34253617  1
  In  In5  1  0.32777709  0.83521292  0.84006996  1
  In  In6  1  0.84006127  0.53268029  0.00667514  1
  In  In7  1  0.85055805  0.65746359  0.48808514  1
  In  In8  1  0.88212830  0.82539464  0.32254993  1
  In  In9  1  0.83466872  0.00449361  0.47923492  1
  In  In10  1  0.49229636  0.01448119  0.50537795  1
  In  In11  1  0.51321725  0.65678767  0.16425523  1
  In  In12  1  0.81344608  0.81402390  0.70849653  1
  In  In13  1  0.00274473  0.84669937  0.83347889  1
  In  In14  1  0.82663896  0.13466504  -0.00849271  1
  In  In15  1  0.32069238  0.83592466  0.18033343  1
  In  In16  1  -0.02582534  0.33589201  0.65219158  1
  In  In17  1  0.49113831  0.17332776  0.67377131  1
  In  In18  1  0.49536455  0.16360802  -0.00975422  1
  In  In19  1  0.83162729  0.16325685  0.34011214  1
  In  In20  1  0.01150711  0.36177923  0.32622037  1
  In  In21  1  0.00323591  0.67804645  0.66115170  1
  In  In22  1  0.16930159  0.32505310  0.48092276  1
  In  In23  1  0.31163707  0.48283474  0.19515830  1
  In  In24  1  0.66711332  0.00346660  0.67557771  1
  In  In25  1  0.66925989  0.66199474  0.33586725  1
  In  In26  1  0.15558644  0.66577866  0.17721845  1
  In  In27  1  0.65231072  0.32923015  0.66151605  1
  In  In28  1  0.18972258  0.32731516  0.81969859  1
  In  In29  1  0.84871318  0.31832313  0.83883718  1
  In  In30  1  0.51847404  0.84485897  0.00600513  1
  In  In31  1  0.66531438  0.33454231  -0.00769159  1
  In  In32  1  0.32823778  -0.01973659  0.34525444  1
  In  In33  1  0.66303335  0.49495009  0.85019086  1
  In  In34  1  0.83223228  0.80177261  0.00883024  1
  In  In35  1  0.32704904  0.66322466  -0.00924330  1
  In  In36  1  0.17235142  0.00314450  0.16156009  1
  In  In37  1  0.00996415  0.14430073  0.49519689  1
  In  In38  1  0.32693182  0.02136539  -0.00358333  1
  In  In39  1  0.13336450  0.85278271  0.64074383  1
  In  In40  1  0.36705181  0.17679694  0.17934865  1
  In  In41  1  0.83796705  0.32543215  0.18419533  1
  In  In42  1  0.50594812  0.33580026  0.17930797  1
  In  In43  1  0.69058002  0.50665379  0.48101731  1
  In  In44  1  0.81808005  0.33581700  0.49821657  1
  In  In45  1  0.01498174  0.00729881  0.33376466  1
  In  In46  1  0.15968714  0.16606376  -0.00593032  1
  In  In47  1  -0.02246390  -0.01905263  -0.00514113  1
  In  In48  1  0.83252710  0.49901775  0.64785768  1
  In  In49  1  0.50066078  0.49827435  0.64345342  1
  In  In50  1  0.65527891  0.02125586  0.31739034  1
  In  In51  1  -0.00333248  0.19766097  0.17938184  1
  In  In52  1  0.34072181  0.16101418  0.51459787  1
  In  In53  1  0.12960146  0.12413847  0.68077762  1
  In  In54  1  0.66934043  0.67632677  0.00664568  1
  In  In55  1  0.03400602  0.34615438  0.02596098  1
  In  In56  1  0.50531629  0.66497247  0.83229629  1
  In  In57  1  0.31607424  0.81760512  0.48199332  1
  In  In58  1  0.34569755  0.15060894  0.83525020  1
  In  In59  1  0.83600729  -0.00245576  0.82219599  1
  In  In60  1  0.49682397  0.49333857  0.33308405  1
  In  In61  1  0.32423490  0.34677478  0.02080314  1
  In  In62  1  0.82163606  -0.01895917  0.14505239  1
  In  In63  1  0.17458528  0.52069913  0.68060888  1
  In  In64  1  0.66853136  0.51380099  0.17563852  1
  In  In65  1  0.01985063  0.66949957  0.00708287  1
  In  In66  1  0.35159670  0.32767886  0.64660249  1
  In  In67  1  0.13905841  0.80783229  0.34263188  1
  In  In68  1  0.00401346  0.51675574  0.83664008  1
  In  In69  1  0.33647310  0.51636886  0.49024985  1
  In  In70  1  0.52365407  0.83351280  0.67606506  1
  In  In71  1  0.32342732  0.00117491  0.66470446  1
  Te  Te72  1  0.06617146  0.08749474  0.08770961  1
  Te  Te73  1  0.10528839  0.10944940  0.38862014  1
  Te  Te74  1  0.04466951  0.03966287  0.76309501  1
  Te  Te75  1  0.08313121  0.44078852  0.12906110  1
  Te  Te76  1  0.10685782  0.44084239  0.41114050  1
  Te  Te77  1  0.07619539  0.41187759  0.74862582  1
  Te  Te78  1  0.10451253  0.76583216  0.08165844  1
  Te  Te79  1  0.05674058  0.72596259  0.43609067  1
  Te  Te80  1  0.09363933  0.75092912  0.75505840  1
  Te  Te81  1  0.43315145  0.06922286  0.09355567  1
  Te  Te82  1  0.42520009  0.09407590  0.39558657  1
  Te  Te83  1  0.43266737  0.05634402  0.75364054  1
  Te  Te84  1  0.42082626  0.43344312  0.09834495  1
  Te  Te85  1  0.39976150  0.40968444  0.40907605  1
  Te  Te86  1  0.43006701  0.40809995  0.74709923  1
  Te  Te87  1  0.41953544  0.75151960  0.08622705  1
  Te  Te88  1  0.40995826  0.72205952  0.42156963  1
  Te  Te89  1  0.41423935  0.75129287  0.74607009  1
  Te  Te90  1  0.73408683  0.09639329  0.10393988  1
  Te  Te91  1  0.72484350  0.09942406  0.42850337  1
  Te  Te92  1  0.75109332  0.09606815  0.75506792  1
  Te  Te93  1  0.75676571  0.42005797  0.08004622  1
  Te  Te94  1  0.77596330  0.42715325  0.39072232  1
  Te  Te95  1  0.75990144  0.41411735  0.75131014  1
  Te  Te96  1  0.74611969  0.74248805  0.11248309  1
  Te  Te97  1  0.76429080  0.76612766  0.40961737  1
  Te  Te98  1  0.72493674  0.73005142  0.78529864  1
  Te  Te99  1  0.10335366  0.25953020  0.26121667  1
  Te  Te100  1  0.08896138  0.25061562  0.59265333  1
  Te  Te101  1  0.08097757  0.26035932  0.90450619  1
  Te  Te102  1  0.05969668  0.61365039  0.28147151  1
  Te  Te103  1  0.07132047  0.56885952  0.58123141  1
  Te  Te104  1  0.10124822  0.57049198  0.93127588  1
  Te  Te105  1  0.08341414  0.90780566  0.23988677  1
  Te  Te106  1  0.05671636  0.94261003  0.55481162  1
  Te  Te107  1  0.09119982  0.91851089  0.92742155  1
  Te  Te108  1  0.39775355  0.28980764  0.27706290  1
  Te  Te109  1  0.44983430  0.26095226  0.55411104  1
  Te  Te110  1  0.40373900  0.26308836  0.91806554  1
  Te  Te111  1  0.41129344  0.58927603  0.25206014  1
  Te  Te112  1  0.39121186  0.58851452  0.60517433  1
  Te  Te113  1  0.42259376  0.57029981  0.91795826  1
  Te  Te114  1  0.42846098  0.92143547  0.24552668  1
  Te  Te115  1  0.40731704  0.90826456  0.57452722  1
  Te  Te116  1  0.42062505  0.92549143  0.92124781  1
  Te  Te117  1  0.73987717  0.24647750  0.25817113  1
  Te  Te118  1  0.75405577  0.24664858  0.59383396  1
  Te  Te119  1  0.74317202  0.23334686  0.90856545  1
  Te  Te120  1  0.76671049  0.57892184  0.26329246  1
  Te  Te121  1  0.74369132  0.60489345  0.58466335  1
  Te  Te122  1  0.76072139  0.60447973  0.89715268  1
  Te  Te123  1  0.76743469  0.92332743  0.27369526  1
  Te  Te124  1  0.75850233  0.91578861  0.58758453  1
  Te  Te125  1  0.76760283  0.91778153  0.93113263  1
  Te  Te126  1  0.25034216  0.23613651  0.09312987  1
  Te  Te127  1  0.26723548  0.23839758  0.41245526  1
  Te  Te128  1  0.26349411  0.22798512  0.72927618  1
  Te  Te129  1  0.24938100  0.57806478  0.09311087  1
  Te  Te130  1  0.23299825  0.55997191  0.39213655  1
  Te  Te131  1  0.25359186  0.60373211  0.77077195  1
  Te  Te132  1  0.24994595  0.91072163  0.06854767  1
  Te  Te133  1  0.21548324  0.91489439  0.42439488  1
  Te  Te134  1  0.23392631  0.91337323  0.74596260  1
  Te  Te135  1  0.58386143  0.24536064  0.08518932  1
  Te  Te136  1  0.52332419  0.22486576  0.35144592  1
  Te  Te137  1  0.57140504  0.25886328  0.76205421  1
  Te  Te138  1  0.58101059  0.56602874  0.06240174  1
  Te  Te139  1  0.57249926  0.58837350  0.42575890  1
  Te  Te140  1  0.59033613  0.57541598  0.74235802  1
  Te  Te141  1  0.59995401  0.91931467  0.10224396  1
  Te  Te142  1  0.58328213  0.91908555  0.42117418  1
  Te  Te143  1  0.59660816  0.91607916  0.77116730  1
  Te  Te144  1  0.91088053  0.24929543  0.06275140  1
  Te  Te145  1  0.93048941  0.25459867  0.41135318  1
  Te  Te146  1  0.91667113  0.23341857  0.73975321  1
  Te  Te147  1  0.91901675  0.61158216  0.10313418  1
  Te  Te148  1  0.93949792  0.60370902  0.38255418  1
  Te  Te149  1  0.90946626  0.58999108  0.74361561  1
  Te  Te150  1  0.92741627  0.88280898  0.09896660  1
  Te  Te151  1  0.95579490  0.91058663  0.43939105  1
  Te  Te152  1  0.93218947  0.92729770  0.72470695  1
  Te  Te153  1  0.26500262  0.08273207  0.24988572  1
  Te  Te154  1  0.22684047  0.07449050  0.57437036  1
  Te  Te155  1  0.22740721  0.07443804  0.89322650  1
  Te  Te156  1  0.19432236  0.39781378  0.22961795  1
  Te  Te157  1  0.24445509  0.41687699  0.58964989  1
  Te  Te158  1  0.23032919  0.42486555  0.92994595  1
  Te  Te159  1  0.25713660  0.73914193  0.27466344  1
  Te  Te160  1  0.23628924  0.74928680  0.59098759  1
  Te  Te161  1  0.23533374  0.75238819  0.92004889  1
  Te  Te162  1  0.57461859  0.12629969  0.25453905  1
  Te  Te163  1  0.58997220  0.09844933  0.58288515  1
  Te  Te164  1  0.58284637  0.08573827  0.90180603  1
  Te  Te165  1  0.60586440  0.40990639  0.26744939  1
  Te  Te166  1  0.59017517  0.41463882  0.55164865  1
  Te  Te167  1  0.56430800  0.40861377  0.91506487  1
  Te  Te168  1  0.59002283  0.75825048  0.24745146  1
  Te  Te169  1  0.57334028  0.73234873  0.58234828  1
  Te  Te170  1  0.60000948  0.76538450  0.90184381  1
  Te  Te171  1  0.91193242  0.07759924  0.24014385  1
  Te  Te172  1  0.90295745  0.08971739  0.57791921  1
  Te  Te173  1  0.93946692  0.09208085  0.89699658  1
  Te  Te174  1  0.94053444  0.43057895  0.21175963  1
  Te  Te175  1  0.92606351  0.43488300  0.54720276  1
  Te  Te176  1  0.92147612  0.42384390  0.93038834  1
  Te  Te177  1  0.94256385  0.71232265  0.24527374  1
  Te  Te178  1  0.89886697  0.76128455  0.59106827  1
  Te  Te179  1  0.92493047  0.73904528  0.90671045  1
