# generated using pymatgen
data_In2Te3
_symmetry_space_group_name_H-M   'P 1'
_cell_length_a   18.93238685
_cell_length_b   18.92651002
_cell_length_c   18.91559507
_cell_angle_alpha   90.12684565
_cell_angle_beta   89.86595952
_cell_angle_gamma   89.86330413
_symmetry_Int_Tables_number   1
_chemical_formula_structural   In2Te3
_chemical_formula_sum   'In72 Te108'
_cell_volume   6777.85733314
_cell_formula_units_Z   36
loop_
 _symmetry_equiv_pos_site_id
 _symmetry_equiv_pos_as_xyz
  1  'x, y, z'
loop_
 _atom_site_type_symbol
 _atom_site_label
 _atom_site_symmetry_multiplicity
 _atom_site_fract_x
 _atom_site_fract_y
 _atom_site_fract_z
 _atom_site_occupancy
  In  In0  1  0.30712731  0.83669317  0.16899971  1
  In  In1  1  0.53137702  0.14753806  0.62346273  1
  In  In2  1  0.00088097  0.49666679  0.82942892  1
  In  In3  1  0.47792366  0.32669576  0.17414581  1
  In  In4  1  0.66457078  0.48621363  0.50958778  1
  In  In5  1  0.66024578  0.02406596  0.34484359  1
  In  In6  1  0.86026645  0.16669934  0.01825501  1
  In  In7  1  0.49738572  0.47290780  0.31278586  1
  In  In8  1  0.83933688  0.51505713  0.34769965  1
  In  In9  1  0.30659798  0.49262116  0.16892513  1
  In  In10  1  0.16231993  0.33311716  0.16245801  1
  In  In11  1  0.20002525  0.68868015  0.86249015  1
  In  In12  1  0.69598157  0.02618244  0.01473163  1
  In  In13  1  0.69287202  0.16561718  0.13383319  1
  In  In14  1  -0.00476654  0.85031479  0.83382694  1
  In  In15  1  -0.00092738  0.16092711  0.48933580  1
  In  In16  1  0.48253885  0.16590340  0.03689809  1
  In  In17  1  0.17261566  0.48380604  0.66979053  1
  In  In18  1  0.69408703  0.83652097  0.17256753  1
  In  In19  1  0.48917646  0.82104795  0.64636075  1
  In  In20  1  0.48054174  0.66260997  0.49385496  1
  In  In21  1  0.82969558  0.67706363  0.83810208  1
  In  In22  1  -0.00661698  -0.02810950  0.04622402  1
  In  In23  1  0.16634063  0.50189405  0.00958959  1
  In  In24  1  0.67770154  0.66081750  0.00976382  1
  In  In25  1  0.68449263  0.34579111  -0.03245725  1
  In  In26  1  0.33008754  0.51749539  0.85513348  1
  In  In27  1  0.17707417  0.83565794  0.65696293  1
  In  In28  1  0.03042588  0.69707948  0.02710458  1
  In  In29  1  0.34339891  0.31265623  0.66305813  1
  In  In30  1  0.18809088  0.18050531  0.60550239  1
  In  In31  1  0.32624931  0.15859932  0.80639784  1
  In  In32  1  -0.00425437  0.18902873  0.83926927  1
  In  In33  1  0.47522822  0.66867281  0.81657801  1
  In  In34  1  0.66548368  0.85922360  0.84569679  1
  In  In35  1  0.33549003  0.51407873  0.49773247  1
  In  In36  1  0.33704419  0.83390822  0.49203341  1
  In  In37  1  0.50424347  0.15483624  0.36399739  1
  In  In38  1  0.01842940  0.32818232  0.33375346  1
  In  In39  1  0.49778410  -0.00446937  0.18122262  1
  In  In40  1  0.84787161  0.32504706  0.49863029  1
  In  In41  1  0.17075597  0.67843004  0.47706498  1
  In  In42  1  0.84418747  0.67298340  0.49278695  1
  In  In43  1  0.14872488  0.14392033  -0.00203926  1
  In  In44  1  0.84122218  0.33750453  0.81627033  1
  In  In45  1  0.17547889  0.67599628  0.17986065  1
  In  In46  1  0.49988447  0.33484489  0.49976636  1
  In  In47  1  0.49425553  0.84226718  -0.00540416  1
  In  In48  1  0.00155552  0.67676845  0.65132190  1
  In  In49  1  0.15422070  0.02187312  0.50404842  1
  In  In50  1  -0.00056731  0.83506306  0.47967092  1
  In  In51  1  0.49984931  0.33069196  0.83712491  1
  In  In52  1  0.84528011  0.31693671  0.17401797  1
  In  In53  1  0.67754402  0.67266755  0.34768235  1
  In  In54  1  -0.01710486  0.03251733  0.66817573  1
  In  In55  1  -0.01360567  0.66716135  0.28643370  1
  In  In56  1  0.64134847  0.17937892  0.82661067  1
  In  In57  1  0.31378900  0.00464960  0.34649684  1
  In  In58  1  0.81941048  0.15881277  0.64598350  1
  In  In59  1  0.85950583  0.53050707  0.00523778  1
  In  In60  1  0.28320696  0.28939616  0.36340311  1
  In  In61  1  0.67428178  0.48309330  0.18457715  1
  In  In62  1  0.16516037  -0.01631174  0.83081115  1
  In  In63  1  0.65196533  0.67848364  0.68807044  1
  In  In64  1  -0.01422234  -0.01651798  0.28303147  1
  In  In65  1  0.32394004  0.12951592  0.17810620  1
  In  In66  1  0.67625944  0.85982164  0.48249103  1
  In  In67  1  0.82380648  0.01215876  0.84020462  1
  In  In68  1  0.31981963  0.34555048  -0.00536610  1
  In  In69  1  0.83078201  0.47299829  0.65127446  1
  In  In70  1  0.51918127  0.66905265  0.18103742  1
  In  In71  1  0.49037778  -0.00989289  0.83966186  1
  Te  Te72  1  0.06079168  0.09012598  0.10306064  1
  Te  Te73  1  0.09333753  0.09846756  0.39057389  1
  Te  Te74  1  0.08702705  0.09340111  0.75751413  1
  Te  Te75  1  0.07281074  0.42372271  0.08975510  1
  Te  Te76  1  0.06960976  0.38202460  0.46094086  1
  Te  Te77  1  0.06461876  0.40700523  0.73314548  1
  Te  Te78  1  0.08089806  0.79753451  0.13751406  1
  Te  Te79  1  0.07770820  0.75171540  0.38262835  1
  Te  Te80  1  0.08707055  0.75510971  0.75603279  1
  Te  Te81  1  0.39936824  0.04575723  0.07404339  1
  Te  Te82  1  0.41742331  0.06157392  0.43770526  1
  Te  Te83  1  0.43979796  0.08847842  0.73512585  1
  Te  Te84  1  0.41522305  0.42649080  0.07953468  1
  Te  Te85  1  0.40084832  0.39558154  0.40064166  1
  Te  Te86  1  0.39790858  0.41320126  0.76159854  1
  Te  Te87  1  0.42718478  0.76009850  0.10200017  1
  Te  Te88  1  0.40342095  0.73963962  0.39638451  1
  Te  Te89  1  0.39489985  0.76838416  0.74631325  1
  Te  Te90  1  0.80973983  0.05558000  0.12027359  1
  Te  Te91  1  0.70529990  0.12480040  0.44536140  1
  Te  Te92  1  0.72899055  0.08372992  0.74681186  1
  Te  Te93  1  0.76494323  0.41736907  0.07806620  1
  Te  Te94  1  0.74970654  0.41122851  0.41005468  1
  Te  Te95  1  0.73696202  0.41222541  0.74596147  1
  Te  Te96  1  0.76987906  0.74529266  0.08499842  1
  Te  Te97  1  0.77895536  0.77230036  0.39900012  1
  Te  Te98  1  0.75175705  0.77323695  0.75080267  1
  Te  Te99  1  0.11610271  0.23764343  0.26631513  1
  Te  Te100  1  0.07115804  0.26810656  0.56600085  1
  Te  Te101  1  0.08635564  0.25822659  0.93055597  1
  Te  Te102  1  0.08467721  0.57139971  0.22979615  1
  Te  Te103  1  0.09980508  0.58870184  0.58091260  1
  Te  Te104  1  0.07980541  0.59705905  0.91327300  1
  Te  Te105  1  0.10927699  0.91551721  0.23423717  1
  Te  Te106  1  0.06780050  0.92284406  0.59524917  1
  Te  Te107  1  0.08692162  0.90962304  0.93973357  1
  Te  Te108  1  0.39982780  0.23077849  0.26569173  1
  Te  Te109  1  0.41498169  0.22493613  0.56216483  1
  Te  Te110  1  0.41017224  0.23514863  0.92085737  1
  Te  Te111  1  0.41349928  0.57538646  0.24140605  1
  Te  Te112  1  0.42499720  0.57536238  0.59777208  1
  Te  Te113  1  0.40832825  0.61141164  0.93457858  1
  Te  Te114  1  0.40493790  0.91266168  0.26312653  1
  Te  Te115  1  0.43107897  0.92553302  0.55989282  1
  Te  Te116  1  0.39488223  0.89454178  0.89891176  1
  Te  Te117  1  0.76681310  0.21861950  0.25207366  1
  Te  Te118  1  0.74815325  0.27809929  0.59763075  1
  Te  Te119  1  0.76550254  0.22581308  0.91016400  1
  Te  Te120  1  0.75852982  0.59413230  0.24498677  1
  Te  Te121  1  0.75016229  0.59237083  0.58188043  1
  Te  Te122  1  0.74895807  0.56986319  0.90811102  1
  Te  Te123  1  0.74830695  0.94705549  0.25458152  1
  Te  Te124  1  0.72911548  0.94182502  0.59061933  1
  Te  Te125  1  0.77057876  0.91292430  0.94239645  1
  Te  Te126  1  0.26197876  0.23857114  0.08559219  1
  Te  Te127  1  0.23078664  0.18704327  0.45564497  1
  Te  Te128  1  0.22843608  0.25099410  0.74094994  1
  Te  Te129  1  0.25892014  0.60158575  0.07397854  1
  Te  Te130  1  0.24592725  0.57667859  0.40115962  1
  Te  Te131  1  0.24440813  0.59258314  0.75466958  1
  Te  Te132  1  0.22732945  0.90087464  0.06361473  1
  Te  Te133  1  0.22329768  0.91119391  0.42523552  1
  Te  Te134  1  0.26398074  0.93201552  0.73047332  1
  Te  Te135  1  0.59036682  0.26941513  0.06884708  1
  Te  Te136  1  0.60104370  0.24888266  0.42916291  1
  Te  Te137  1  0.57125814  0.26087250  0.72169809  1
  Te  Te138  1  0.58884545  0.56741425  0.09150083  1
  Te  Te139  1  0.57930058  0.56725151  0.40108929  1
  Te  Te140  1  0.57399273  0.57731900  0.75599440  1
  Te  Te141  1  0.59399166  0.92662747  0.08145585  1
  Te  Te142  1  0.57038562  0.92189847  0.40164185  1
  Te  Te143  1  0.57503858  0.91327075  0.73862579  1
  Te  Te144  1  0.95158519  0.25082129  0.09492181  1
  Te  Te145  1  0.90965602  0.23606284  0.39293938  1
  Te  Te146  1  0.92036537  0.24941881  0.72209348  1
  Te  Te147  1  0.94350890  0.60233136  0.10255774  1
  Te  Te148  1  0.94738773  0.59166221  0.41952950  1
  Te  Te149  1  0.90917627  0.58891633  0.73836783  1
  Te  Te150  1  0.92990946  0.85984683  0.12809140  1
  Te  Te151  1  0.92499337  0.94338427  0.41219860  1
  Te  Te152  1  0.90131507  0.92589047  0.74163330  1
  Te  Te153  1  0.22137052  0.03591960  0.23131022  1
  Te  Te154  1  0.25447746  0.04779219  0.61200420  1
  Te  Te155  1  0.25671135  0.07559054  0.91232358  1
  Te  Te156  1  0.23882974  0.40635124  0.27361845  1
  Te  Te157  1  0.26071002  0.40447084  0.57370669  1
  Te  Te158  1  0.22560957  0.41344477  0.90031045  1
  Te  Te159  1  0.27193121  0.73793000  0.27402329  1
  Te  Te160  1  0.26323162  0.73574474  0.58336231  1
  Te  Te161  1  0.24452921  0.79214250  0.95472826  1
  Te  Te162  1  0.57848601  0.11459084  0.22829440  1
  Te  Te163  1  0.62698611  0.04985279  0.55471002  1
  Te  Te164  1  0.57810129  0.08578424  0.93149686  1
  Te  Te165  1  0.59789206  0.37293310  0.25691474  1
  Te  Te166  1  0.55065575  0.44016113  0.59023563  1
  Te  Te167  1  0.57077097  0.42561110  0.92303575  1
  Te  Te168  1  0.59274821  0.76957831  0.26668184  1
  Te  Te169  1  0.59802484  0.74066000  0.55910189  1
  Te  Te170  1  0.58900873  0.74820050  0.91656092  1
  Te  Te171  1  0.89426231  0.09363467  0.24359628  1
  Te  Te172  1  0.89378109  0.06617969  0.54951627  1
  Te  Te173  1  0.93815876  0.06879869  0.92297439  1
  Te  Te174  1  0.91868105  0.42020018  0.25872859  1
  Te  Te175  1  0.93366630  0.43638295  0.55022271  1
  Te  Te176  1  0.91739418  0.41232098  0.92399407  1
  Te  Te177  1  0.90810904  0.79033818  0.26163643  1
  Te  Te178  1  0.90609909  0.77491685  0.58707873  1
  Te  Te179  1  0.92428009  0.75314879  0.92707937  1
