# generated using pymatgen
data_In2Te3
_symmetry_space_group_name_H-M   'P 1'
_cell_length_a   18.91526667
_cell_length_b   18.91721261
_cell_length_c   18.93791771
_cell_angle_alpha   90.01355294
_cell_angle_beta   89.87508401
_cell_angle_gamma   89.93365431
_symmetry_Int_Tables_number   1
_chemical_formula_structural   In2Te3
_chemical_formula_sum   'In72 Te108'
_cell_volume   6776.42292224
_cell_formula_units_Z   36
loop_
 _symmetry_equiv_pos_site_id
 _symmetry_equiv_pos_as_xyz
  1  'x, y, z'
loop_
 _atom_site_type_symbol
 _atom_site_label
 _atom_site_symmetry_multiplicity
 _atom_site_fract_x
 _atom_site_fract_y
 _atom_site_fract_z
 _atom_site_occupancy
  In  In0  1  0.31748289  0.46239437  0.85345816  1
  In  In1  1  0.51083685  0.85009585  -0.00792571  1
  In  In2  1  0.29503769  0.29436611  0.35314510  1
  In  In3  1  0.47928885  0.51570935  0.32019137  1
  In  In4  1  0.15918041  0.64833596  0.83088589  1
  In  In5  1  0.16747527  -0.00756985  0.17996320  1
  In  In6  1  0.32896862  0.15145093  0.15930181  1
  In  In7  1  0.68329068  0.84760580  0.84755715  1
  In  In8  1  0.88589274  0.20247384  0.36060132  1
  In  In9  1  0.32146949  0.02799420  -0.01354103  1
  In  In10  1  0.82451096  0.50952922  0.68671089  1
  In  In11  1  0.00946633  0.14252041  0.84476888  1
  In  In12  1  0.65697275  0.65633708  0.66556391  1
  In  In13  1  0.50555422  0.19089604  0.66984447  1
  In  In14  1  0.35462776  0.66146438  0.66348780  1
  In  In15  1  0.15742289  0.00348473  0.50031269  1
  In  In16  1  0.32267772  0.83944712  0.48452515  1
  In  In17  1  0.02073334  0.32606457  0.67532935  1
  In  In18  1  0.00541982  0.66332483  -0.01475594  1
  In  In19  1  0.00352231  0.83581889  0.47998219  1
  In  In20  1  0.49686519  0.02476453  0.83923485  1
  In  In21  1  0.35816180  0.83174152  0.17656940  1
  In  In22  1  0.34357217  -0.02249700  0.67827579  1
  In  In23  1  0.83783382  0.46907004  -0.00683147  1
  In  In24  1  0.64939242  0.48642297  0.51375467  1
  In  In25  1  -0.01139691  0.64233599  0.65372068  1
  In  In26  1  0.01611488  0.30856292  -0.01687651  1
  In  In27  1  0.14882656  0.48476022  0.66580014  1
  In  In28  1  0.82546462  0.17185766  0.66840784  1
  In  In29  1  0.18217242  0.16117875  0.67181070  1
  In  In30  1  0.02374594  0.85741986  0.83387713  1
  In  In31  1  0.30809370  0.65696902  0.00287754  1
  In  In32  1  0.65399036  0.49835768  0.83245910  1
  In  In33  1  0.33160814  0.50590375  0.49728388  1
  In  In34  1  0.85265176  0.85863732  0.31630307  1
  In  In35  1  0.82182673  0.49417234  0.34568193  1
  In  In36  1  0.48403749  0.51034089  0.00557952  1
  In  In37  1  0.67814652  0.49509340  0.14590889  1
  In  In38  1  0.64797502  0.18994518  0.16747966  1
  In  In39  1  0.01729720  0.00334828  0.33334707  1
  In  In40  1  0.02604519  0.43788671  0.49259357  1
  In  In41  1  0.84067666  0.64779607  0.83244049  1
  In  In42  1  0.15544071  0.82909589  0.00707300  1
  In  In43  1  0.69733911  0.71949711  0.01432630  1
  In  In44  1  0.33424921  0.32908174  0.66105561  1
  In  In45  1  0.49873837  0.67411220  0.50876663  1
  In  In46  1  0.83415557  0.86078522  0.66762135  1
  In  In47  1  0.66700958  -0.00613887  0.00334315  1
  In  In48  1  0.51870119  0.33869739  0.51858187  1
  In  In49  1  0.65226730  0.35390065  0.33830459  1
  In  In50  1  0.83239717  0.68021899  0.45893364  1
  In  In51  1  0.17166810  0.65772223  0.16196359  1
  In  In52  1  0.67384403  0.68840359  0.32033720  1
  In  In53  1  0.49976671  0.66958879  0.19040026  1
  In  In54  1  0.19974053  0.82141968  0.66691903  1
  In  In55  1  0.51133615  0.87150905  0.32778292  1
  In  In56  1  0.82749300  0.34856443  0.15722863  1
  In  In57  1  0.00446349  0.68164625  0.32549668  1
  In  In58  1  -0.01264356  0.01774041  0.65349438  1
  In  In59  1  0.47863958  0.30538970  0.85645613  1
  In  In60  1  0.46283982  0.13555841  0.35455121  1
  In  In61  1  0.81232602  0.18441363  -0.03151128  1
  In  In62  1  0.67075651  0.17990195  0.51882278  1
  In  In63  1  0.47761555  0.31228099  0.13425012  1
  In  In64  1  0.67202410  0.02403425  0.66957494  1
  In  In65  1  0.50007558  0.81905179  0.66942099  1
  In  In66  1  0.32185477  0.65427182  0.33461873  1
  In  In67  1  0.85425141  -0.00071203  0.14673808  1
  In  In68  1  0.02482200  0.15943090  0.15001475  1
  In  In69  1  0.17530911  0.33253106  0.17801972  1
  In  In70  1  0.67011454  0.03330896  0.34105664  1
  In  In71  1  -0.00762923  0.51442163  0.16119401  1
  Te  Te72  1  0.09741803  0.06103184  0.06710449  1
  Te  Te73  1  0.09104410  0.10352205  0.41327854  1
  Te  Te74  1  0.09704273  0.06080247  0.74811691  1
  Te  Te75  1  0.06925680  0.40477885  0.09017487  1
  Te  Te76  1  0.10260781  0.35761704  0.39103776  1
  Te  Te77  1  0.11312774  0.39015483  0.77412637  1
  Te  Te78  1  0.06656015  0.74641278  0.09728421  1
  Te  Te79  1  0.10069404  0.75529949  0.40781026  1
  Te  Te80  1  0.07810424  0.73897296  0.73644676  1
  Te  Te81  1  0.42411182  0.07350469  0.07984526  1
  Te  Te82  1  0.34866591  0.06092419  0.40649010  1
  Te  Te83  1  0.40840139  0.10151767  0.74464307  1
  Te  Te84  1  0.39270932  0.42013460  0.07993017  1
  Te  Te85  1  0.42633375  0.41434657  0.41851131  1
  Te  Te86  1  0.42281879  0.40667025  0.75741408  1
  Te  Te87  1  0.42100061  0.73941582  0.07016928  1
  Te  Te88  1  0.42693027  0.74873934  0.39876100  1
  Te  Te89  1  0.40729572  0.75528921  0.76176278  1
  Te  Te90  1  0.74862501  0.10304832  0.09119897  1
  Te  Te91  1  0.77012304  0.12019987  0.41991762  1
  Te  Te92  1  0.75037157  0.09444376  0.77308054  1
  Te  Te93  1  0.72446927  0.38522426  0.05140272  1
  Te  Te94  1  0.75384002  0.39958888  0.44176952  1
  Te  Te95  1  0.76539403  0.41557334  0.78314432  1
  Te  Te96  1  0.79157778  0.77977241  0.10820285  1
  Te  Te97  1  0.74397667  0.78979415  0.40818176  1
  Te  Te98  1  0.75580576  0.74657571  0.74644447  1
  Te  Te99  1  0.07675802  0.24990205  0.25473161  1
  Te  Te100  1  0.08898123  0.23323440  0.57946577  1
  Te  Te101  1  0.11506342  0.21408659  0.92355669  1
  Te  Te102  1  0.09055344  0.57298014  0.25979174  1
  Te  Te103  1  0.08409596  0.57261976  0.56140240  1
  Te  Te104  1  0.09920310  0.55981281  0.93308489  1
  Te  Te105  1  0.06248206  0.90555382  0.23505743  1
  Te  Te106  1  0.08430293  0.90089081  0.59322712  1
  Te  Te107  1  0.08255502  0.94067683  0.94100427  1
  Te  Te108  1  0.41575083  0.25256659  0.25985068  1
  Te  Te109  1  0.40937629  0.24199852  0.56134836  1
  Te  Te110  1  0.37119654  0.23081269  0.93035612  1
  Te  Te111  1  0.38412968  0.57608493  0.21847790  1
  Te  Te112  1  0.44229851  0.56069215  0.58946955  1
  Te  Te113  1  0.39765027  0.58232789  0.90373981  1
  Te  Te114  1  0.40701156  0.94510647  0.25596342  1
  Te  Te115  1  0.42670298  0.90859710  0.57006697  1
  Te  Te116  1  0.40900760  0.92276874  0.90877706  1
  Te  Te117  1  0.75066630  0.26537826  0.26042680  1
  Te  Te118  1  0.73570438  0.27531367  0.60864702  1
  Te  Te119  1  0.72849035  0.23728596  0.85975147  1
  Te  Te120  1  0.75415050  0.58367523  0.24339429  1
  Te  Te121  1  0.75792022  0.58977080  0.56665276  1
  Te  Te122  1  0.74196291  0.59249810  0.93205391  1
  Te  Te123  1  0.75065988  0.94465517  0.24473303  1
  Te  Te124  1  0.75377962  0.94261654  0.57892402  1
  Te  Te125  1  0.77722888  0.92190840  0.93336700  1
  Te  Te126  1  0.24865944  0.24791334  0.07787682  1
  Te  Te127  1  0.19495034  0.24471089  0.45048007  1
  Te  Te128  1  0.23727180  0.27077383  0.75749405  1
  Te  Te129  1  0.21345278  0.55835531  0.05936051  1
  Te  Te130  1  0.23326946  0.56095172  0.40417697  1
  Te  Te131  1  0.25515091  0.56764455  0.74028917  1
  Te  Te132  1  0.26522418  0.90677795  0.07866858  1
  Te  Te133  1  0.24999358  0.93733417  0.39795743  1
  Te  Te134  1  0.24520042  0.91557569  0.76843973  1
  Te  Te135  1  0.56738440  0.23109457  0.04992111  1
  Te  Te136  1  0.57656319  0.24216392  0.40829831  1
  Te  Te137  1  0.59297888  0.24181672  0.77954743  1
  Te  Te138  1  0.58894251  0.60301864  0.08464289  1
  Te  Te139  1  0.59297989  0.58620390  0.40462148  1
  Te  Te140  1  0.56676938  0.58900862  0.75734083  1
  Te  Te141  1  0.58336544  0.91816025  0.09832322  1
  Te  Te142  1  0.58609186  0.94765310  0.42643119  1
  Te  Te143  1  0.58494875  0.91953269  0.75611423  1
  Te  Te144  1  0.91024858  0.24584317  0.08175424  1
  Te  Te145  1  0.95346720  0.30867698  0.44069804  1
  Te  Te146  1  0.92958242  0.23888858  0.75896528  1
  Te  Te147  1  0.89904478  0.58608488  0.06655838  1
  Te  Te148  1  0.93123435  0.57209145  0.41814900  1
  Te  Te149  1  0.94561485  0.55744678  0.77168286  1
  Te  Te150  1  0.89005727  0.88703396  0.05876226  1
  Te  Te151  1  0.91183537  0.94213818  0.42935407  1
  Te  Te152  1  0.91477724  0.94166325  0.76490835  1
  Te  Te153  1  0.23497040  0.09673448  0.25897574  1
  Te  Te154  1  0.26716496  0.06962710  0.58297814  1
  Te  Te155  1  0.25946375  0.12733591  0.89600477  1
  Te  Te156  1  0.26300236  0.41001322  0.26922328  1
  Te  Te157  1  0.24178086  0.40826033  0.57160208  1
  Te  Te158  1  0.28579822  0.36136670  0.95781950  1
  Te  Te159  1  0.24800783  0.75679909  0.24985006  1
  Te  Te160  1  0.25903566  0.72584322  0.56358160  1
  Te  Te161  1  0.23985044  0.75203278  0.90546037  1
  Te  Te162  1  0.56485116  0.09118677  0.24796957  1
  Te  Te163  1  0.56716707  0.08613675  0.57888607  1
  Te  Te164  1  0.58158009  0.09555698  0.93571693  1
  Te  Te165  1  0.57133009  0.42389304  0.22861592  1
  Te  Te166  1  0.60449739  0.39821661  0.62277104  1
  Te  Te167  1  0.56592521  0.41287794  0.92348190  1
  Te  Te168  1  0.59426307  0.78044612  0.23042163  1
  Te  Te169  1  0.60326757  0.76330710  0.57099491  1
  Te  Te170  1  0.58883082  0.74638033  0.91068731  1
  Te  Te171  1  0.91647162  0.09850804  0.25295241  1
  Te  Te172  1  0.91476571  0.10994096  0.56764479  1
  Te  Te173  1  0.91523284  0.08369576  0.94232284  1
  Te  Te174  1  0.91833095  0.41855937  0.25466877  1
  Te  Te175  1  0.92216552  0.42302669  0.60687163  1
  Te  Te176  1  0.92127602  0.39045996  0.90277481  1
  Te  Te177  1  0.89551062  0.73818136  0.24088202  1
  Te  Te178  1  0.91007759  0.75005330  0.57847231  1
  Te  Te179  1  0.92510104  0.75696020  0.89670741  1
