# generated using pymatgen
data_In2Te3
_symmetry_space_group_name_H-M   'P 1'
_cell_length_a   18.80030375
_cell_length_b   18.80313030
_cell_length_c   18.79526810
_cell_angle_alpha   89.97050014
_cell_angle_beta   89.95032058
_cell_angle_gamma   89.95102874
_symmetry_Int_Tables_number   1
_chemical_formula_structural   In2Te3
_chemical_formula_sum   'In72 Te108'
_cell_volume   6644.20719945
_cell_formula_units_Z   36
loop_
 _symmetry_equiv_pos_site_id
 _symmetry_equiv_pos_as_xyz
  1  'x, y, z'
loop_
 _atom_site_type_symbol
 _atom_site_label
 _atom_site_symmetry_multiplicity
 _atom_site_fract_x
 _atom_site_fract_y
 _atom_site_fract_z
 _atom_site_occupancy
  In  In0  1  0.13746970  0.81791752  0.69108522  1
  In  In1  1  0.01609013  0.34304273  0.00244985  1
  In  In2  1  0.84096936  0.16040278  0.00396382  1
  In  In3  1  0.15663523  0.32531182  0.84656844  1
  In  In4  1  0.31252840  0.51802114  0.81427732  1
  In  In5  1  0.81151524  0.84289195  0.32008418  1
  In  In6  1  -0.02409737  0.02037176  0.29413796  1
  In  In7  1  0.32502759  0.84046922  0.17193782  1
  In  In8  1  0.69425802  0.01055824  0.67018431  1
  In  In9  1  0.48482495  0.68292360  0.82514515  1
  In  In10  1  0.50002146  0.32742320  0.84734913  1
  In  In11  1  0.17446137  0.00973368  0.17929650  1
  In  In12  1  0.51258692  0.00915938  0.81422643  1
  In  In13  1  0.30589234  0.33403597  0.67885514  1
  In  In14  1  0.71717456  0.29215012  0.63629446  1
  In  In15  1  0.30407488  0.82039593  0.84555826  1
  In  In16  1  0.50698872  0.84758871  0.01634713  1
  In  In17  1  0.54558260  0.48692268  0.31868219  1
  In  In18  1  0.66326539  0.48063210  0.17969233  1
  In  In19  1  0.34278402  -0.00214427  0.65024275  1
  In  In20  1  0.49567515  0.32941795  0.47241731  1
  In  In21  1  0.00618818  0.30254100  0.31439352  1
  In  In22  1  0.31094041  0.67253519  0.70724646  1
  In  In23  1  0.34920520  0.00970485  0.00707580  1
  In  In24  1  0.69940209  0.84249903  0.85729078  1
  In  In25  1  0.12175034  0.52131490  0.30937216  1
  In  In26  1  0.69590468  0.50105573  0.85017664  1
  In  In27  1  0.50012775  0.69160076  0.17671174  1
  In  In28  1  0.67964094  0.32731515  0.33505106  1
  In  In29  1  0.68694020  0.67833356  0.66627242  1
  In  In30  1  -0.00410041  0.16853606  0.49757583  1
  In  In31  1  0.82764959  0.51209025  0.01889761  1
  In  In32  1  0.68719037  -0.00956280  0.01046243  1
  In  In33  1  0.35348719  0.84966921  0.51250266  1
  In  In34  1  -0.00778969  0.51197588  0.82890837  1
  In  In35  1  0.84060348  0.32661823  0.17933920  1
  In  In36  1  0.82022577  0.32036890  0.82568952  1
  In  In37  1  0.14138185  0.84662127  0.32725866  1
  In  In38  1  0.67723640  0.83826811  0.48891404  1
  In  In39  1  0.13663265  0.00389767  0.84143989  1
  In  In40  1  0.66800466  0.51386967  0.49930862  1
  In  In41  1  0.85045795  0.49657918  0.33407134  1
  In  In42  1  0.51125193  0.51182912  0.65422004  1
  In  In43  1  -0.02149172  0.67223820  0.67722089  1
  In  In44  1  -0.03965665  -0.01738284  0.02224218  1
  In  In45  1  0.15528588  0.16813665  0.00580378  1
  In  In46  1  0.82680704  0.00079731  0.49411000  1
  In  In47  1  0.50185994  0.16429491  0.32721932  1
  In  In48  1  0.85656076  0.67627302  0.16295809  1
  In  In49  1  0.32667848  0.67182978  0.32393522  1
  In  In50  1  0.31726998  0.47817220  0.51991578  1
  In  In51  1  0.00197661  0.82016212  0.50025576  1
  In  In52  1  -0.02077312  0.31717970  0.65561665  1
  In  In53  1  0.51170026  0.65459707  0.49636779  1
  In  In54  1  0.51121917  0.15765285  0.65806913  1
  In  In55  1  0.31869213  0.30918552  0.01249098  1
  In  In56  1  0.68630136  0.66768461  0.02214185  1
  In  In57  1  0.31880154  0.49588863  0.15645748  1
  In  In58  1  0.15323426  0.51062914  0.01363015  1
  In  In59  1  -0.01337411  0.49265537  0.49927793  1
  In  In60  1  -0.00842533  -0.02750864  0.70004234  1
  In  In61  1  0.66887796  0.14696335  0.83034404  1
  In  In62  1  0.32331663  0.32253232  0.33618894  1
  In  In63  1  0.50920689  0.19424205  0.03173307  1
  In  In64  1  0.15904930  0.66813551  0.50259930  1
  In  In65  1  0.52142069  0.01534884  0.14783596  1
  In  In66  1  0.54384043  0.83877393  0.32649953  1
  In  In67  1  0.33432082  0.02947117  0.31403205  1
  In  In68  1  0.13391020  0.79723265  0.01704524  1
  In  In69  1  0.32559132  0.16916990  0.48594361  1
  In  In70  1  0.49004151  0.49507593  -0.01741244  1
  In  In71  1  0.16983971  0.01355141  0.48453024  1
  Te  Te72  1  0.06919937  0.07209181  0.08678948  1
  Te  Te73  1  0.07577476  0.08755703  0.39274889  1
  Te  Te74  1  0.07749609  0.08660830  0.73587017  1
  Te  Te75  1  0.09541544  0.41105692  0.10713580  1
  Te  Te76  1  0.07509649  0.41175716  0.40359982  1
  Te  Te77  1  0.06915132  0.40582821  0.75240923  1
  Te  Te78  1  0.03500488  0.72914801  0.10677874  1
  Te  Te79  1  0.07007577  0.72919260  0.39529006  1
  Te  Te80  1  0.06253052  0.73402647  0.79151803  1
  Te  Te81  1  0.40192959  0.10637540  0.10893325  1
  Te  Te82  1  0.42540662  0.07063035  0.42764180  1
  Te  Te83  1  0.40598689  0.09715818  0.75071096  1
  Te  Te84  1  0.41730319  0.40485625  0.08225972  1
  Te  Te85  1  0.42128871  0.44577440  0.40923616  1
  Te  Te86  1  0.42550995  0.42574918  0.75386827  1
  Te  Te87  1  0.40381701  0.75094095  0.07424611  1
  Te  Te88  1  0.42646810  0.75484912  0.40655776  1
  Te  Te89  1  0.41412865  0.78144148  0.73650133  1
  Te  Te90  1  0.75430676  0.08673334  0.10339959  1
  Te  Te91  1  0.77170943  0.11589268  0.41945374  1
  Te  Te92  1  0.78568228  0.09033675  0.75730110  1
  Te  Te93  1  0.74805110  0.39909078  0.08151938  1
  Te  Te94  1  0.76146079  0.41451968  0.42779888  1
  Te  Te95  1  0.73896875  0.41260272  0.73436679  1
  Te  Te96  1  0.79206828  0.76641621  0.05905609  1
  Te  Te97  1  0.76617496  0.74331739  0.41900195  1
  Te  Te98  1  0.77439678  0.75504802  0.76117886  1
  Te  Te99  1  0.10553289  0.22515945  0.23595713  1
  Te  Te100  1  0.08865885  0.25375154  0.57666030  1
  Te  Te101  1  0.05493273  0.22906672  0.90708495  1
  Te  Te102  1  0.06820932  0.60720450  0.20080283  1
  Te  Te103  1  0.07321065  0.58300448  0.59150794  1
  Te  Te104  1  0.06266285  0.59459019  0.92997625  1
  Te  Te105  1  0.06017901  0.91452768  0.21940452  1
  Te  Te106  1  0.09317236  0.91843577  0.57684725  1
  Te  Te107  1  0.06119172  0.90176963  0.92722220  1
  Te  Te108  1  0.40592286  0.24301815  0.24436861  1
  Te  Te109  1  0.41446827  0.26265388  0.58397178  1
  Te  Te110  1  0.40922538  0.22931111  0.91766233  1
  Te  Te111  1  0.42557356  0.57903555  0.24887164  1
  Te  Te112  1  0.39983923  0.59681599  0.58833967  1
  Te  Te113  1  0.39805372  0.59663015  0.91600965  1
  Te  Te114  1  0.43001511  0.92254193  0.24403817  1
  Te  Te115  1  0.45480542  0.93184503  0.57961227  1
  Te  Te116  1  0.42021649  0.91498090  0.90646812  1
  Te  Te117  1  0.76166376  0.22445480  0.25910715  1
  Te  Te118  1  0.79783741  0.20977753  0.53670111  1
  Te  Te119  1  0.73561087  0.24317816  0.92750177  1
  Te  Te120  1  0.76101435  0.57830722  0.23955535  1
  Te  Te121  1  0.76490854  0.58272494  0.58618013  1
  Te  Te122  1  0.78001630  0.61175341  0.91291385  1
  Te  Te123  1  0.79141551  0.96150106  0.22663446  1
  Te  Te124  1  0.76928452  0.90123562  0.59458226  1
  Te  Te125  1  0.79523976  0.93869942  0.92014997  1
  Te  Te126  1  0.21007148  0.26578048  0.10707001  1
  Te  Te127  1  0.22950398  0.26977412  0.43656013  1
  Te  Te128  1  0.24540384  0.23618949  0.76871977  1
  Te  Te129  1  0.25002522  0.60164503  0.08144164  1
  Te  Te130  1  0.24608951  0.57697254  0.41393989  1
  Te  Te131  1  0.20169123  0.57979359  0.73918707  1
  Te  Te132  1  0.24086454  0.91568396  0.06700058  1
  Te  Te133  1  0.25984766  0.91421164  0.39882869  1
  Te  Te134  1  0.24325785  0.92308774  0.74946105  1
  Te  Te135  1  0.60923928  0.25324500  0.11817884  1
  Te  Te136  1  0.60001964  0.23173356  0.42763907  1
  Te  Te137  1  0.59147170  0.25585582  0.74474260  1
  Te  Te138  1  0.57824984  0.57697305  0.08239330  1
  Te  Te139  1  0.60998044  0.60605806  0.39096338  1
  Te  Te140  1  0.58778271  0.58408616  0.76679850  1
  Te  Te141  1  0.61552983  0.89516333  0.10836458  1
  Te  Te142  1  0.61645873  0.94213584  0.40046192  1
  Te  Te143  1  0.60742755  0.90996415  0.75278998  1
  Te  Te144  1  0.93502728  0.24567353  0.08999232  1
  Te  Te145  1  0.90370228  0.25716472  0.41646392  1
  Te  Te146  1  0.89618406  0.22472650  0.74176447  1
  Te  Te147  1  0.94558846  0.58387989  0.07903426  1
  Te  Te148  1  0.92433965  0.59648558  0.41294900  1
  Te  Te149  1  0.88927740  0.57081583  0.74067960  1
  Te  Te150  1  0.87016078  0.90134938  0.11026507  1
  Te  Te151  1  0.93143586  0.92477749  0.40935514  1
  Te  Te152  1  0.90645281  0.86517396  0.75878102  1
  Te  Te153  1  0.22614378  0.12247107  0.26521937  1
  Te  Te154  1  0.24110802  0.09582149  0.59111450  1
  Te  Te155  1  0.24682627  0.08051887  0.91894783  1
  Te  Te156  1  0.23579482  0.42612372  0.26267039  1
  Te  Te157  1  0.21107336  0.41021555  0.59524867  1
  Te  Te158  1  0.25694146  0.41765131  0.92189061  1
  Te  Te159  1  0.22538378  0.74708533  0.23888328  1
  Te  Te160  1  0.24692772  0.76441334  0.58290548  1
  Te  Te161  1  0.22713933  0.72422517  0.92579281  1
  Te  Te162  1  0.59887165  0.07707496  0.25596608  1
  Te  Te163  1  0.60221202  0.07758938  0.57564834  1
  Te  Te164  1  0.57376657  0.07684857  0.93793788  1
  Te  Te165  1  0.56844595  0.36169704  0.22518170  1
  Te  Te166  1  0.58574605  0.40581790  0.57461323  1
  Te  Te167  1  0.60221145  0.40663994  0.92865668  1
  Te  Te168  1  0.62116189  0.74978888  0.23673900  1
  Te  Te169  1  0.58258573  0.75358188  0.58563510  1
  Te  Te170  1  0.58639602  0.74683202  0.92416890  1
  Te  Te171  1  0.87572157  0.11308661  0.23546253  1
  Te  Te172  1  0.93146657  0.06277117  0.58751089  1
  Te  Te173  1  0.91270992  0.06844757  0.90947002  1
  Te  Te174  1  0.94127531  0.42389146  0.23638774  1
  Te  Te175  1  0.89295724  0.41314221  0.58236501  1
  Te  Te176  1  0.90295700  0.41146942  0.92193916  1
  Te  Te177  1  0.92487719  0.76672478  0.25935199  1
  Te  Te178  1  0.89950435  0.75042387  0.57846664  1
  Te  Te179  1  0.94930540  0.78773545  0.88329402  1
