# generated using pymatgen
data_In2Te3
_symmetry_space_group_name_H-M   'P 1'
_cell_length_a   18.83041677
_cell_length_b   18.83698005
_cell_length_c   18.84974965
_cell_angle_alpha   89.96459943
_cell_angle_beta   89.91923873
_cell_angle_gamma   90.04439801
_symmetry_Int_Tables_number   1
_chemical_formula_structural   In2Te3
_chemical_formula_sum   'In72 Te108'
_cell_volume   6686.15055631
_cell_formula_units_Z   36
loop_
 _symmetry_equiv_pos_site_id
 _symmetry_equiv_pos_as_xyz
  1  'x, y, z'
loop_
 _atom_site_type_symbol
 _atom_site_label
 _atom_site_symmetry_multiplicity
 _atom_site_fract_x
 _atom_site_fract_y
 _atom_site_fract_z
 _atom_site_occupancy
  In  In0  1  0.18067444  0.16805050  0.01877902  1
  In  In1  1  0.50479766  0.01559188  0.17348293  1
  In  In2  1  0.84207401  0.00024509  0.13224740  1
  In  In3  1  0.33930524  0.01594170  0.34003549  1
  In  In4  1  0.33537270  0.15860700  0.51555988  1
  In  In5  1  0.16156371  0.50228696  -0.01333998  1
  In  In6  1  0.31886801  0.13389788  0.81260868  1
  In  In7  1  0.03363863  0.13079771  0.81461802  1
  In  In8  1  0.82572765  -0.02513862  0.84422834  1
  In  In9  1  0.48569766  0.81530674  0.66688767  1
  In  In10  1  0.33746122  0.32234544  0.68570187  1
  In  In11  1  0.64488870  0.50064351  0.82354047  1
  In  In12  1  0.66689139  0.35829979  0.02821580  1
  In  In13  1  0.00408344  0.33086351  0.67347404  1
  In  In14  1  0.13685789  0.34642296  0.49808662  1
  In  In15  1  0.84508856  0.68120302  0.16251492  1
  In  In16  1  0.85089252  0.20238808  0.37300877  1
  In  In17  1  0.01475600  -0.02856076  -0.03216691  1
  In  In18  1  0.31525527  0.80753990  0.51189265  1
  In  In19  1  0.82312103  0.35388092  0.18359004  1
  In  In20  1  0.14697665  0.50339015  0.66450780  1
  In  In21  1  0.16757690  0.34648727  0.83213972  1
  In  In22  1  0.33981581  -0.02876506  -0.01524134  1
  In  In23  1  0.66262276  0.02542162  0.33424904  1
  In  In24  1  0.31526756  0.62655675  0.35316459  1
  In  In25  1  0.49005343  0.31106096  0.81203916  1
  In  In26  1  0.82515201  0.65046124  0.81249045  1
  In  In27  1  0.01945974  0.01093224  0.34654650  1
  In  In28  1  0.15416577  0.68517391  0.13059032  1
  In  In29  1  0.82168332  0.81814207  0.01220385  1
  In  In30  1  -0.00829155  0.35304184  -0.01078261  1
  In  In31  1  0.68985146  0.84223135  0.48620970  1
  In  In32  1  0.31485467  0.33344673  0.01163764  1
  In  In33  1  0.50412548  0.17181126  0.00415078  1
  In  In34  1  0.35978909  0.20490244  0.17890655  1
  In  In35  1  0.83492215  0.34321498  0.84220711  1
  In  In36  1  0.84608660  0.82977686  0.65450514  1
  In  In37  1  0.33699195  0.83710110  0.14193505  1
  In  In38  1  0.49006761  0.16459787  0.66899843  1
  In  In39  1  0.64694436  0.46831689  0.53033540  1
  In  In40  1  0.15244367  0.01974495  0.51056082  1
  In  In41  1  0.00321108  0.82215085  0.50926768  1
  In  In42  1  0.01093403  0.65640908  0.34877518  1
  In  In43  1  -0.00521273  0.51167813  0.17147474  1
  In  In44  1  0.65876827  0.34111965  0.32393756  1
  In  In45  1  0.00984265  0.17225657  0.19793120  1
  In  In46  1  0.63875836  0.16892867  0.82497714  1
  In  In47  1  0.33562667  0.64839264  0.65515572  1
  In  In48  1  0.65757626  0.64700651  0.66682553  1
  In  In49  1  0.66136787  0.82153849  0.15157208  1
  In  In50  1  0.31827420  0.47700983  0.20283063  1
  In  In51  1  0.00123048  0.81436897  0.79666777  1
  In  In52  1  0.82600448  0.16851968  0.01377418  1
  In  In53  1  0.48571679  0.65441280  0.50018249  1
  In  In54  1  0.83689542  0.83929409  0.32946800  1
  In  In55  1  0.50217711  0.81469128  -0.03060419  1
  In  In56  1  0.50335813  0.48953489  0.34247052  1
  In  In57  1  0.52464313  0.53499640  0.00520964  1
  In  In58  1  0.68178683  0.00345237  -0.01298172  1
  In  In59  1  0.67865219  0.19536586  0.49647341  1
  In  In60  1  0.17502500  -0.00274955  0.15281524  1
  In  In61  1  0.84246298  0.50808340  0.35287473  1
  In  In62  1  0.85347353  0.16169967  0.64086941  1
  In  In63  1  0.15832016  0.66302427  0.83074748  1
  In  In64  1  0.33505028  0.66272622  -0.01586932  1
  In  In65  1  0.66352214  -0.01870097  0.67978228  1
  In  In66  1  0.17750207  0.82631008  0.31765735  1
  In  In67  1  0.85640228  0.49297989  0.65807426  1
  In  In68  1  0.67528920  0.68545434  0.32172863  1
  In  In69  1  0.15304203  0.16501005  0.34794815  1
  In  In70  1  0.50372232  -0.02379285  0.50970529  1
  In  In71  1  0.48712696  0.34691843  0.18195882  1
  Te  Te72  1  0.06453308  0.07873518  0.07939731  1
  Te  Te73  1  0.04075389  0.12210246  0.45175719  1
  Te  Te74  1  0.10691421  0.04566743  0.71135331  1
  Te  Te75  1  0.08673020  0.41665329  0.08900455  1
  Te  Te76  1  0.13147454  0.46842353  0.40444406  1
  Te  Te77  1  0.06045555  0.43445855  0.77162930  1
  Te  Te78  1  0.08315838  0.79231824  0.06281166  1
  Te  Te79  1  0.10833970  0.74611897  0.42630016  1
  Te  Te80  1  0.09700994  0.73483589  0.71229093  1
  Te  Te81  1  0.39468556  0.08508193  0.07971722  1
  Te  Te82  1  0.43936773  0.08844427  0.42626902  1
  Te  Te83  1  0.43218824  0.06031976  0.75533214  1
  Te  Te84  1  0.41307496  0.42975936  0.07745172  1
  Te  Te85  1  0.37315196  0.42026883  0.37125341  1
  Te  Te86  1  0.42927129  0.42637123  0.74143781  1
  Te  Te87  1  0.43201679  0.73722541  0.08003949  1
  Te  Te88  1  0.40546257  0.74521521  0.40821023  1
  Te  Te89  1  0.38832783  0.74762422  0.75515395  1
  Te  Te90  1  0.72502652  0.09470078  0.10136561  1
  Te  Te91  1  0.76397876  0.08698046  0.42872844  1
  Te  Te92  1  0.74964969  0.08541205  0.76080276  1
  Te  Te93  1  0.77797027  0.44157080  0.07443551  1
  Te  Te94  1  0.74590842  0.41451017  0.42532752  1
  Te  Te95  1  0.75157431  0.42192942  0.74344298  1
  Te  Te96  1  0.71747995  0.71027439  0.06142517  1
  Te  Te97  1  0.77905414  0.73527727  0.42443548  1
  Te  Te98  1  0.74204151  0.75449667  0.73523633  1
  Te  Te99  1  0.08322161  0.27340335  0.27370334  1
  Te  Te100  1  0.10930849  0.24992168  0.60816384  1
  Te  Te101  1  0.08817927  0.24569997  0.92442379  1
  Te  Te102  1  0.10249433  0.59456886  0.24206392  1
  Te  Te103  1  0.08973653  0.56394761  0.53966037  1
  Te  Te104  1  0.06768482  0.60064907  0.93149266  1
  Te  Te105  1  0.08112424  0.91695989  0.24360552  1
  Te  Te106  1  0.08652081  0.91426142  0.59277903  1
  Te  Te107  1  0.10449398  0.89735224  0.87361123  1
  Te  Te108  1  0.41234363  0.28052542  0.29528443  1
  Te  Te109  1  0.42686136  0.26564580  0.57331816  1
  Te  Te110  1  0.39407792  0.23916741  0.91709102  1
  Te  Te111  1  0.41853921  0.58066004  0.24875156  1
  Te  Te112  1  0.40627509  0.55135211  0.56656996  1
  Te  Te113  1  0.44252339  0.59981243  0.90125227  1
  Te  Te114  1  0.41270038  0.91853043  0.24866066  1
  Te  Te115  1  0.39255070  0.91317109  0.59236609  1
  Te  Te116  1  0.39436574  0.87656713  0.88454355  1
  Te  Te117  1  0.75662011  0.24038930  0.26069647  1
  Te  Te118  1  0.77230254  0.26866973  0.58416516  1
  Te  Te119  1  0.73282118  0.24776233  0.92239102  1
  Te  Te120  1  0.76289349  0.58485125  0.24778215  1
  Te  Te121  1  0.75125793  0.57048957  0.57562554  1
  Te  Te122  1  0.74295468  0.57199442  0.90692823  1
  Te  Te123  1  0.74837141  0.91943270  0.23427655  1
  Te  Te124  1  0.76729989  0.93624228  0.57682282  1
  Te  Te125  1  0.72325945  0.87766549  0.90735441  1
  Te  Te126  1  0.23211870  0.26833752  0.12133820  1
  Te  Te127  1  0.24315487  0.24826866  0.43648584  1
  Te  Te128  1  0.22485432  0.23414078  0.74515507  1
  Te  Te129  1  0.25721110  0.57305597  0.08689761  1
  Te  Te130  1  0.22849739  0.57997580  0.46563655  1
  Te  Te131  1  0.25091741  0.56667002  0.75576691  1
  Te  Te132  1  0.22026815  0.88756778  0.05632841  1
  Te  Te133  1  0.24412132  0.92473828  0.41728865  1
  Te  Te134  1  0.20968466  0.96089111  0.77384500  1
  Te  Te135  1  0.58325936  0.25355223  0.10339122  1
  Te  Te136  1  0.57617472  0.27395331  0.42655821  1
  Te  Te137  1  0.60494868  0.26939335  0.71312539  1
  Te  Te138  1  0.60185845  0.61181191  0.09975897  1
  Te  Te139  1  0.59847934  0.58403181  0.42201792  1
  Te  Te140  1  0.55032966  0.58912874  0.74985569  1
  Te  Te141  1  0.57098704  0.92342179  0.06980245  1
  Te  Te142  1  0.58521915  0.90990731  0.39796004  1
  Te  Te143  1  0.57789034  0.89007733  0.76136260  1
  Te  Te144  1  0.92004392  0.25642350  0.09485451  1
  Te  Te145  1  0.93732614  0.29262422  0.44832858  1
  Te  Te146  1  0.92152768  0.23865015  0.76957312  1
  Te  Te147  1  0.93468859  0.60504412  0.07351097  1
  Te  Te148  1  0.93990540  0.56986161  0.44745113  1
  Te  Te149  1  0.93301581  0.60599560  0.71779677  1
  Te  Te150  1  0.93829931  0.89338072  0.07907836  1
  Te  Te151  1  0.92195846  0.92158157  0.42442997  1
  Te  Te152  1  0.92354309  0.93348583  0.73705714  1
  Te  Te153  1  0.24916030  0.09530979  0.24478696  1
  Te  Te154  1  0.25851780  0.06806212  0.60300469  1
  Te  Te155  1  0.23353718  0.06427109  0.91942726  1
  Te  Te156  1  0.22821814  0.40668999  0.29600045  1
  Te  Te157  1  0.24250552  0.40342787  0.59762453  1
  Te  Te158  1  0.27165193  0.43096186  0.90344802  1
  Te  Te159  1  0.26952769  0.73516441  0.23945830  1
  Te  Te160  1  0.22622259  0.74642123  0.61436154  1
  Te  Te161  1  0.25474266  0.75416408  0.90005910  1
  Te  Te162  1  0.56473298  0.11183773  0.26690227  1
  Te  Te163  1  0.59287561  0.07900562  0.58292734  1
  Te  Te164  1  0.56418175  0.06612141  0.90985590  1
  Te  Te165  1  0.59640273  0.44275534  0.22941307  1
  Te  Te166  1  0.56167553  0.40255239  0.63054340  1
  Te  Te167  1  0.56786174  0.39577813  0.91924807  1
  Te  Te168  1  0.57040410  0.75733068  0.24894392  1
  Te  Te169  1  0.59066248  0.75707786  0.56685613  1
  Te  Te170  1  0.60376687  0.76981666  0.87341338  1
  Te  Te171  1  0.90930089  0.07023731  0.25084889  1
  Te  Te172  1  0.95916627  0.08453549  0.58027546  1
  Te  Te173  1  0.91151941  0.08226394  0.92203182  1
  Te  Te174  1  0.93196049  0.41372352  0.27172998  1
  Te  Te175  1  0.93126108  0.40173082  0.56153171  1
  Te  Te176  1  0.91281522  0.44825058  0.91050087  1
  Te  Te177  1  0.93998062  0.75626137  0.25488103  1
  Te  Te178  1  0.92519242  0.72224312  0.58993187  1
  Te  Te179  1  0.90336543  0.75448218  0.89888203  1
