# generated using pymatgen
data_In2Te3
_symmetry_space_group_name_H-M   'P 1'
_cell_length_a   18.83544200
_cell_length_b   18.85469469
_cell_length_c   18.84394421
_cell_angle_alpha   90.05547315
_cell_angle_beta   90.03084511
_cell_angle_gamma   89.97690099
_symmetry_Int_Tables_number   1
_chemical_formula_structural   In2Te3
_chemical_formula_sum   'In72 Te108'
_cell_volume   6692.16790122
_cell_formula_units_Z   36
loop_
 _symmetry_equiv_pos_site_id
 _symmetry_equiv_pos_as_xyz
  1  'x, y, z'
loop_
 _atom_site_type_symbol
 _atom_site_label
 _atom_site_symmetry_multiplicity
 _atom_site_fract_x
 _atom_site_fract_y
 _atom_site_fract_z
 _atom_site_occupancy
  In  In0  1  0.33231665  0.01610950  0.33718239  1
  In  In1  1  0.64965796  0.68769571  0.68497041  1
  In  In2  1  -0.00218539  0.17098342  0.51731718  1
  In  In3  1  0.67964955  0.80604710  0.49413586  1
  In  In4  1  0.48854044  0.04417433  0.81937400  1
  In  In5  1  0.00069479  0.17808697  0.84125267  1
  In  In6  1  0.50295645  0.65275812  0.14848754  1
  In  In7  1  0.87853110  0.87253393  0.68912070  1
  In  In8  1  -0.01815056  0.78688588  0.17197542  1
  In  In9  1  -0.00412700  0.01779402  0.33921178  1
  In  In10  1  0.63298077  0.48598037  0.48990524  1
  In  In11  1  0.01870910  0.15660993  0.17630245  1
  In  In12  1  0.84661893  0.83465525  -0.00196195  1
  In  In13  1  0.47828471  0.16885996  -0.02404161  1
  In  In14  1  0.64258404  0.33868514  0.34599181  1
  In  In15  1  0.81511769  -0.01513943  0.48037452  1
  In  In16  1  0.02442256  0.33482067  -0.01529328  1
  In  In17  1  0.49516989  0.84752817  0.65707364  1
  In  In18  1  -0.00211633  0.52927457  0.17113634  1
  In  In19  1  0.19276826  0.47710744  0.69171000  1
  In  In20  1  0.31462377  0.83150512  0.83322642  1
  In  In21  1  0.00077445  -0.01243389  0.00276052  1
  In  In22  1  0.68918706  0.84542108  0.16491859  1
  In  In23  1  0.84835642  0.31947346  0.51463634  1
  In  In24  1  0.48431754  0.82118016  0.33665709  1
  In  In25  1  0.84132836  0.16367055  0.67955932  1
  In  In26  1  0.82218270  0.66821873  0.48890242  1
  In  In27  1  0.68392495  0.64547030  0.31903265  1
  In  In28  1  0.64426455  0.29335991  0.70211218  1
  In  In29  1  0.17653083  0.47197942  0.30847718  1
  In  In30  1  0.14801256  0.82378479  0.33151082  1
  In  In31  1  0.85218975  0.50207037  0.00952104  1
  In  In32  1  0.81432065  0.16829052  0.35423927  1
  In  In33  1  0.33913992  0.01628359  -0.01581269  1
  In  In34  1  0.66961647  -0.02015505  -0.00539704  1
  In  In35  1  0.64555114  0.01034512  0.31681364  1
  In  In36  1  0.17963680  0.49200614  -0.02004166  1
  In  In37  1  0.00922596  0.67570996  0.66719986  1
  In  In38  1  0.32463719  0.85337428  0.52572080  1
  In  In39  1  0.35463030  0.29804434  0.32172959  1
  In  In40  1  0.64712370  0.33256073  -0.02721103  1
  In  In41  1  0.34303055  0.65437969  0.66610846  1
  In  In42  1  0.01055736  0.48885920  0.82706979  1
  In  In43  1  0.00349501  0.50023643  0.50231616  1
  In  In44  1  0.67393898  0.02826297  0.66249506  1
  In  In45  1  0.66879478  0.83386078  0.84274338  1
  In  In46  1  0.19667072  0.31408542  0.12458062  1
  In  In47  1  0.44307381  0.46067468  0.67379797  1
  In  In48  1  0.80841491  0.18059766  0.00061724  1
  In  In49  1  0.18702404  0.15943268  0.68485761  1
  In  In50  1  0.32394049  0.65668577  0.32538902  1
  In  In51  1  0.18590596  0.33828177  0.52186066  1
  In  In52  1  0.16544303  0.17179404  0.34000312  1
  In  In53  1  0.03081682  0.86524252  0.53885655  1
  In  In54  1  0.49631231  0.01704277  0.50463573  1
  In  In55  1  0.50000782  0.49338658  0.33132143  1
  In  In56  1  0.16458172  0.65134222  0.14488505  1
  In  In57  1  0.47720107  0.31406182  0.52623446  1
  In  In58  1  0.18066296  0.00757980  0.14389892  1
  In  In59  1  0.47682858  0.62879131  0.85795087  1
  In  In60  1  0.15450304  0.67326663  0.83394944  1
  In  In61  1  0.50833218  0.82893345  0.00355177  1
  In  In62  1  0.65528666  0.48947391  0.83634029  1
  In  In63  1  0.34356107  0.85625809  0.14659469  1
  In  In64  1  0.64663655  0.16032311  0.15335267  1
  In  In65  1  0.18408877  0.66951186  0.49592681  1
  In  In66  1  0.81494814  0.51247622  0.31390166  1
  In  In67  1  0.81656582  0.48792960  0.64519158  1
  In  In68  1  0.85148775  0.66993396  0.85138443  1
  In  In69  1  0.16366527  0.01876361  0.84097719  1
  In  In70  1  0.84334160  0.34273643  0.16989118  1
  In  In71  1  0.64777561  0.49509900  0.17727273  1
  Te  Te72  1  0.09270049  0.09825180  0.05793097  1
  Te  Te73  1  0.09330883  0.07994479  0.43841085  1
  Te  Te74  1  0.05695334  0.07649490  0.73822260  1
  Te  Te75  1  0.08552395  0.42317871  0.09348323  1
  Te  Te76  1  0.09211579  0.40687192  0.42032375  1
  Te  Te77  1  0.10636268  0.38760991  0.77310046  1
  Te  Te78  1  0.09633132  0.76635152  0.08461220  1
  Te  Te79  1  0.06963046  0.74807616  0.43741374  1
  Te  Te80  1  0.08182980  0.77227063  0.75014641  1
  Te  Te81  1  0.42427741  0.08290647  0.08616151  1
  Te  Te82  1  0.40831091  0.10581794  0.42653400  1
  Te  Te83  1  0.38914589  0.13935305  0.75844387  1
  Te  Te84  1  0.49097651  0.46791860  0.02129615  1
  Te  Te85  1  0.41488815  0.40299235  0.41691902  1
  Te  Te86  1  0.36829098  0.39204371  0.78076017  1
  Te  Te87  1  0.40406524  0.73860517  0.06871863  1
  Te  Te88  1  0.38940722  0.74847929  0.42937640  1
  Te  Te89  1  0.43058970  0.74932235  0.75714496  1
  Te  Te90  1  0.75098282  0.07047830  0.08932111  1
  Te  Te91  1  0.71420870  0.08883440  0.43411300  1
  Te  Te92  1  0.75500025  0.08432894  0.77070686  1
  Te  Te93  1  0.74081714  0.40889070  0.07848380  1
  Te  Te94  1  0.76038163  0.41799644  0.42741964  1
  Te  Te95  1  0.74653079  0.40300334  0.74883350  1
  Te  Te96  1  0.73498287  0.75807062  0.05691407  1
  Te  Te97  1  0.77158562  0.76489880  0.37473703  1
  Te  Te98  1  0.76975282  0.75538450  0.74935826  1
  Te  Te99  1  0.10099813  0.26655863  0.23978114  1
  Te  Te100  1  0.09152748  0.25204810  0.60520285  1
  Te  Te101  1  0.11452493  0.26732083  0.88707551  1
  Te  Te102  1  0.09496450  0.59614683  0.26875386  1
  Te  Te103  1  0.10143887  0.57323890  0.59828892  1
  Te  Te104  1  0.07011243  0.58510282  0.92719803  1
  Te  Te105  1  0.08935912  0.93797805  0.24765985  1
  Te  Te106  1  0.13643693  0.94603351  0.61051942  1
  Te  Te107  1  0.07654551  0.90983761  0.89866186  1
  Te  Te108  1  0.42330855  0.20010714  0.23519942  1
  Te  Te109  1  0.40292547  0.21860858  0.61661216  1
  Te  Te110  1  0.37357904  0.27772665  0.95193133  1
  Te  Te111  1  0.40903395  0.56826021  0.23453693  1
  Te  Te112  1  0.42409649  0.57005997  0.57656131  1
  Te  Te113  1  0.38742734  0.54976871  0.94735154  1
  Te  Te114  1  0.42700122  0.93186416  0.24974174  1
  Te  Te115  1  0.39997055  0.95562219  0.61080707  1
  Te  Te116  1  0.43501957  0.92031591  0.90468975  1
  Te  Te117  1  0.74099938  0.25676816  0.24572609  1
  Te  Te118  1  0.74294381  0.24482794  0.59096077  1
  Te  Te119  1  0.73820684  0.24946091  0.89122041  1
  Te  Te120  1  0.76287465  0.59687686  0.19777065  1
  Te  Te121  1  0.72420983  0.59144683  0.57916382  1
  Te  Te122  1  0.75251196  0.57729660  0.91843006  1
  Te  Te123  1  0.75749431  0.93552624  0.25943627  1
  Te  Te124  1  0.74274975  0.90313588  0.59358526  1
  Te  Te125  1  0.77508433  0.92748485  0.89757243  1
  Te  Te126  1  0.27795226  0.21255761  0.05167268  1
  Te  Te127  1  0.26354687  0.24052594  0.43345907  1
  Te  Te128  1  0.28901193  0.27078928  0.71274279  1
  Te  Te129  1  0.26274457  0.55963243  0.08463019  1
  Te  Te130  1  0.25014849  0.55857044  0.41503266  1
  Te  Te131  1  0.26330853  0.58302975  0.77420599  1
  Te  Te132  1  0.24386479  0.91080900  0.04513626  1
  Te  Te133  1  0.24445423  0.91384672  0.41079728  1
  Te  Te134  1  0.25333954  0.93762762  0.75170172  1
  Te  Te135  1  0.56206873  0.25738115  0.07354901  1
  Te  Te136  1  0.57509192  0.24713132  0.43718072  1
  Te  Te137  1  0.52989191  0.21126798  0.75480839  1
  Te  Te138  1  0.59724351  0.57668730  0.05833491  1
  Te  Te139  1  0.57031749  0.60195385  0.41114135  1
  Te  Te140  1  0.56702799  0.57345835  0.74150138  1
  Te  Te141  1  0.57433664  0.92581641  0.10067590  1
  Te  Te142  1  0.57912516  0.90703751  0.42354647  1
  Te  Te143  1  0.58579268  0.92542317  0.75221692  1
  Te  Te144  1  0.92874186  0.25186189  0.08224350  1
  Te  Te145  1  0.93150496  0.25240561  0.40490190  1
  Te  Te146  1  0.92076764  0.26424775  0.75197310  1
  Te  Te147  1  0.92935860  0.61224388  0.07041975  1
  Te  Te148  1  0.91818654  0.58305287  0.40745724  1
  Te  Te149  1  0.90880504  0.57444767  0.73717989  1
  Te  Te150  1  0.91940586  0.91325424  0.10762953  1
  Te  Te151  1  0.93321811  0.90816307  0.42351318  1
  Te  Te152  1  0.97114297  0.94813240  0.77393315  1
  Te  Te153  1  0.25529440  0.10283107  0.23638830  1
  Te  Te154  1  0.22243909  0.06582198  0.57594944  1
  Te  Te155  1  0.25385170  0.11554313  0.91062978  1
  Te  Te156  1  0.27973380  0.39293591  0.22660786  1
  Te  Te157  1  0.28486264  0.43290034  0.58308834  1
  Te  Te158  1  0.27149071  0.39578858  0.91304929  1
  Te  Te159  1  0.25815089  0.76523622  0.23986307  1
  Te  Te160  1  0.24236457  0.75418646  0.60826988  1
  Te  Te161  1  0.25306714  0.73703690  0.92542771  1
  Te  Te162  1  0.55585143  0.12224054  0.26804462  1
  Te  Te163  1  0.56396455  0.10715878  0.60383012  1
  Te  Te164  1  0.59630059  0.08829487  0.91674635  1
  Te  Te165  1  0.55256211  0.38889796  0.23356838  1
  Te  Te166  1  0.58026606  0.40371762  0.60901129  1
  Te  Te167  1  0.54439345  0.39894092  0.88417708  1
  Te  Te168  1  0.58103235  0.74587828  0.24487291  1
  Te  Te169  1  0.56307585  0.74206045  0.57120097  1
  Te  Te170  1  0.58210860  0.73066477  0.91247929  1
  Te  Te171  1  0.89987139  0.09397467  0.24920504  1
  Te  Te172  1  0.90310770  0.06754666  0.57579085  1
  Te  Te173  1  0.91292554  0.09132060  0.93141507  1
  Te  Te174  1  0.93096433  0.42397795  0.26134219  1
  Te  Te175  1  0.93872836  0.40563786  0.60285108  1
  Te  Te176  1  0.91130250  0.40466380  0.90867869  1
  Te  Te177  1  0.88168506  0.73685023  0.26262844  1
  Te  Te178  1  0.90967511  0.75423833  0.58240767  1
  Te  Te179  1  0.94400963  0.76825353  0.90682980  1
