# generated using pymatgen
data_In2Te3
_symmetry_space_group_name_H-M   'P 1'
_cell_length_a   18.84867273
_cell_length_b   18.83510796
_cell_length_c   18.83525251
_cell_angle_alpha   90.05471275
_cell_angle_beta   89.92114260
_cell_angle_gamma   89.93026182
_symmetry_Int_Tables_number   1
_chemical_formula_structural   In2Te3
_chemical_formula_sum   'In72 Te108'
_cell_volume   6686.81645740
_cell_formula_units_Z   36
loop_
 _symmetry_equiv_pos_site_id
 _symmetry_equiv_pos_as_xyz
  1  'x, y, z'
loop_
 _atom_site_type_symbol
 _atom_site_label
 _atom_site_symmetry_multiplicity
 _atom_site_fract_x
 _atom_site_fract_y
 _atom_site_fract_z
 _atom_site_occupancy
  In  In0  1  0.33485135  0.14436509  0.50713301  1
  In  In1  1  0.49637685  0.84609659  0.00747388  1
  In  In2  1  0.32351827  0.16033785  0.84224949  1
  In  In3  1  0.49460700  0.66937260  0.82729528  1
  In  In4  1  0.69238603  0.65745229  0.00536839  1
  In  In5  1  0.66175592  0.18687091  0.83136862  1
  In  In6  1  0.67431114  0.85370731  0.84106949  1
  In  In7  1  0.14869199  -0.00793599  0.16008789  1
  In  In8  1  0.31668013  0.81719787  0.17782329  1
  In  In9  1  0.81541763  0.35228146  0.13892491  1
  In  In10  1  0.31784580  0.83260036  0.50748691  1
  In  In11  1  0.49444131  0.00297716  0.51126288  1
  In  In12  1  0.16064569  -0.00225832  0.81429770  1
  In  In13  1  0.82422201  0.49773310  0.32191231  1
  In  In14  1  0.84176571  0.82733211  0.65610326  1
  In  In15  1  0.52065289  0.35963751  0.16649696  1
  In  In16  1  0.84515119  0.65523144  0.83280227  1
  In  In17  1  0.50349664  0.32597444  0.48909404  1
  In  In18  1  0.82885688  -0.00972096  0.83993358  1
  In  In19  1  0.50810491  0.17196177  0.00095213  1
  In  In20  1  0.32287814  0.20232950  0.17563025  1
  In  In21  1  0.50985616  -0.01915282  0.16789469  1
  In  In22  1  0.65105999  0.34254441  0.33389425  1
  In  In23  1  0.16049717  0.51793400  0.33626942  1
  In  In24  1  0.31508124  0.01016733  0.37683975  1
  In  In25  1  -0.03582682  0.51194945  0.14023990  1
  In  In26  1  -0.00720450  0.47487048  0.51299761  1
  In  In27  1  0.84918250  0.68385722  0.49052195  1
  In  In28  1  0.52381886  0.63602379  0.17038340  1
  In  In29  1  0.15829162  0.80571818  -0.00736606  1
  In  In30  1  -0.00425726  0.32372861  -0.00460119  1
  In  In31  1  0.67913746  0.52138558  0.49675008  1
  In  In32  1  0.17121379  0.53447033  0.70426002  1
  In  In33  1  0.49918019  -0.00775978  0.84918150  1
  In  In34  1  0.50037380  0.83921380  0.34520018  1
  In  In35  1  0.33874805  -0.01514252  0.64400488  1
  In  In36  1  0.33793862  0.33835033  0.34476985  1
  In  In37  1  0.14899337  0.52149007  -0.01385057  1
  In  In38  1  0.34150981  0.36681363  0.68323072  1
  In  In39  1  0.52116897  0.17939313  0.67567011  1
  In  In40  1  0.70143116  0.67726232  0.32468763  1
  In  In41  1  0.33887367  0.66947013  -0.02184074  1
  In  In42  1  0.14702895  0.32947746  0.50945565  1
  In  In43  1  0.51628529  0.66802740  0.50062541  1
  In  In44  1  0.13913328  -0.01585603  0.48973608  1
  In  In45  1  0.84395419  0.17676600  0.65837155  1
  In  In46  1  0.35199361  0.49598370  0.50147905  1
  In  In47  1  0.68539615  0.01262226  0.32255630  1
  In  In48  1  0.35450014  -0.00569618  -0.01688527  1
  In  In49  1  0.84619141  0.34751744  0.82669088  1
  In  In50  1  0.49989412  0.50645886  0.67560819  1
  In  In51  1  0.84781258  0.00092948  0.19138798  1
  In  In52  1  -0.00967062  0.50094089  0.81145299  1
  In  In53  1  0.13784337  0.14078358  0.34423124  1
  In  In54  1  0.35580226  0.51295488  0.16453688  1
  In  In55  1  0.67928766  0.17117061  0.15844022  1
  In  In56  1  0.30745298  0.33881390  -0.00950868  1
  In  In57  1  0.68203848  -0.02511562  0.65294527  1
  In  In58  1  0.14432004  0.20068949  0.64973048  1
  In  In59  1  0.69071728  0.33107424  0.67259416  1
  In  In60  1  0.69964480  0.81573901  0.14904656  1
  In  In61  1  0.83037717  0.16823780  -0.00152429  1
  In  In62  1  0.66587077  0.64747227  0.65663568  1
  In  In63  1  0.14932079  0.67984566  0.17862412  1
  In  In64  1  0.13143024  0.67374661  0.48502348  1
  In  In65  1  0.13926840  0.80521832  0.69510960  1
  In  In66  1  0.14383153  0.35367027  0.84665700  1
  In  In67  1  0.00052777  0.00793464  0.00533074  1
  In  In68  1  -0.01135863  0.83108140  0.19956530  1
  In  In69  1  0.85900769  0.17882226  0.35363528  1
  In  In70  1  0.15763605  0.31341775  0.18043425  1
  In  In71  1  -0.00425599  -0.00416956  0.66317955  1
  Te  Te72  1  0.07118441  0.09885398  0.09772709  1
  Te  Te73  1  0.04272293  0.08492831  0.44321583  1
  Te  Te74  1  0.07359832  0.09981983  0.74277743  1
  Te  Te75  1  0.09019512  0.41987316  0.08422822  1
  Te  Te76  1  0.07760913  0.40791741  0.39863008  1
  Te  Te77  1  0.07784399  0.41031725  0.72450965  1
  Te  Te78  1  0.05366410  0.74437188  0.08219298  1
  Te  Te79  1  0.04233478  0.74108984  0.38632883  1
  Te  Te80  1  0.05005606  0.71605866  0.77912756  1
  Te  Te81  1  0.41589919  0.08713616  0.08960092  1
  Te  Te82  1  0.43599189  0.09804247  0.40477339  1
  Te  Te83  1  0.41610665  0.07959982  0.74391884  1
  Te  Te84  1  0.41630206  0.41350166  0.06709812  1
  Te  Te85  1  0.44367839  0.43465082  0.39718609  1
  Te  Te86  1  0.42069700  0.43919748  0.78236655  1
  Te  Te87  1  0.42116588  0.74291334  0.09268475  1
  Te  Te88  1  0.40901795  0.74498321  0.41994321  1
  Te  Te89  1  0.39526727  0.71243537  0.72860313  1
  Te  Te90  1  0.75674589  0.06595339  0.08303827  1
  Te  Te91  1  0.77630939  0.07513982  0.42004531  1
  Te  Te92  1  0.74044878  0.08211961  0.75173406  1
  Te  Te93  1  0.74142487  0.45377557  0.05988226  1
  Te  Te94  1  0.75370212  0.40980591  0.42514952  1
  Te  Te95  1  0.75292459  0.43611385  0.75279674  1
  Te  Te96  1  0.80431965  0.72589903  0.08487321  1
  Te  Te97  1  0.72542161  0.75757740  0.44717256  1
  Te  Te98  1  0.74255290  0.75140234  0.74977175  1
  Te  Te99  1  0.06336459  0.24301490  0.26795071  1
  Te  Te100  1  0.03045637  0.24739512  0.56184908  1
  Te  Te101  1  0.07917644  0.23837188  0.90872416  1
  Te  Te102  1  0.05625171  0.58020872  0.24550580  1
  Te  Te103  1  0.07787058  0.57708815  0.58985218  1
  Te  Te104  1  0.06694780  0.60655001  0.89353267  1
  Te  Te105  1  0.07245008  0.93162722  0.27344356  1
  Te  Te106  1  0.06891785  0.88689156  0.58287078  1
  Te  Te107  1  0.08221748  0.91356258  0.91445211  1
  Te  Te108  1  0.43660295  0.26183987  0.25501156  1
  Te  Te109  1  0.40616217  0.25076098  0.59171139  1
  Te  Te110  1  0.41719888  0.25648216  0.91361459  1
  Te  Te111  1  0.41409308  0.60383149  0.26309608  1
  Te  Te112  1  0.41115450  0.60246463  0.59480876  1
  Te  Te113  1  0.43804660  0.57409271  0.92691596  1
  Te  Te114  1  0.40039691  0.92517272  0.25906380  1
  Te  Te115  1  0.43702134  0.88370868  0.58780671  1
  Te  Te116  1  0.40173034  0.88145896  0.89207822  1
  Te  Te117  1  0.76102958  0.25580600  0.25317053  1
  Te  Te118  1  0.73843882  0.23580698  0.57319250  1
  Te  Te119  1  0.75067381  0.27111981  0.92079077  1
  Te  Te120  1  0.75913627  0.58770281  0.22331751  1
  Te  Te121  1  0.78448981  0.57614355  0.59092760  1
  Te  Te122  1  0.75398274  0.56265010  0.90695668  1
  Te  Te123  1  0.76386411  0.89432556  0.26310553  1
  Te  Te124  1  0.78414479  0.92438141  0.55770246  1
  Te  Te125  1  0.77659962  0.89357290  0.93810343  1
  Te  Te126  1  0.22410640  0.23608183  0.06487164  1
  Te  Te127  1  0.24605237  0.24246699  0.42020226  1
  Te  Te128  1  0.25023656  0.25618363  0.74826427  1
  Te  Te129  1  0.24462978  0.59252249  0.08614425  1
  Te  Te130  1  0.25267419  0.58968891  0.43093772  1
  Te  Te131  1  0.27292688  0.62054357  0.76759171  1
  Te  Te132  1  0.25373773  0.90862700  0.07275577  1
  Te  Te133  1  0.22350447  0.89166561  0.40256421  1
  Te  Te134  1  0.25357017  0.90339359  0.73988565  1
  Te  Te135  1  0.60501661  0.26990824  0.06775152  1
  Te  Te136  1  0.59265790  0.23508545  0.41651009  1
  Te  Te137  1  0.57142195  0.29047115  0.76574581  1
  Te  Te138  1  0.58068979  0.56224640  0.05320745  1
  Te  Te139  1  0.59322172  0.59110385  0.39378937  1
  Te  Te140  1  0.60050653  0.57132697  0.76999169  1
  Te  Te141  1  0.61124125  0.92027938  0.07455669  1
  Te  Te142  1  0.59335656  0.93072279  0.41987642  1
  Te  Te143  1  0.57288371  0.91082468  0.74257685  1
  Te  Te144  1  0.91634082  0.24403103  0.09795334  1
  Te  Te145  1  0.91023918  0.27891888  0.45343993  1
  Te  Te146  1  0.92736731  0.24460741  0.75903719  1
  Te  Te147  1  0.89797959  0.60466321  0.04976607  1
  Te  Te148  1  0.91998120  0.56894538  0.41678138  1
  Te  Te149  1  0.90203339  0.57648373  0.71810917  1
  Te  Te150  1  0.91792926  0.91202396  0.08810825  1
  Te  Te151  1  0.94652576  0.86561932  0.37066579  1
  Te  Te152  1  0.92480386  0.90323252  0.76098381  1
  Te  Te153  1  0.25534364  0.08692519  0.25083183  1
  Te  Te154  1  0.22450768  0.07673076  0.59100487  1
  Te  Te155  1  0.23481108  0.07226964  0.92692913  1
  Te  Te156  1  0.25386106  0.42103241  0.24658953  1
  Te  Te157  1  0.24236766  0.42820646  0.58409253  1
  Te  Te158  1  0.25096054  0.44732574  0.89911945  1
  Te  Te159  1  0.23635682  0.74539644  0.27698437  1
  Te  Te160  1  0.22606796  0.74028785  0.58672025  1
  Te  Te161  1  0.23578869  0.73013502  0.88811151  1
  Te  Te162  1  0.58059654  0.09252827  0.24364121  1
  Te  Te163  1  0.59843277  0.08836587  0.58344542  1
  Te  Te164  1  0.60019938  0.07817619  0.92307720  1
  Te  Te165  1  0.60616760  0.45055409  0.24374872  1
  Te  Te166  1  0.58354522  0.42427586  0.57634947  1
  Te  Te167  1  0.62229815  0.41950953  0.98123630  1
  Te  Te168  1  0.58221956  0.76526063  0.23883973  1
  Te  Te169  1  0.61066226  0.75791038  0.57287754  1
  Te  Te170  1  0.59055586  0.75281113  0.92885327  1
  Te  Te171  1  0.93988833  0.08774184  0.26642769  1
  Te  Te172  1  0.89696881  0.06317445  0.57460420  1
  Te  Te173  1  0.92182334  0.09262647  0.90389274  1
  Te  Te174  1  0.91709238  0.40693178  0.24002401  1
  Te  Te175  1  0.90672460  0.37364741  0.57761895  1
  Te  Te176  1  0.91869101  0.43546682  0.93060441  1
  Te  Te177  1  0.91121858  0.73964136  0.29158826  1
  Te  Te178  1  0.94422632  0.74547200  0.58557825  1
  Te  Te179  1  0.94971138  0.74172886  0.89380649  1
