# generated using pymatgen
data_In2Te3
_symmetry_space_group_name_H-M   'P 1'
_cell_length_a   18.78135247
_cell_length_b   18.78251120
_cell_length_c   18.77933945
_cell_angle_alpha   89.98723534
_cell_angle_beta   90.00082105
_cell_angle_gamma   89.95913382
_symmetry_Int_Tables_number   1
_chemical_formula_structural   In2Te3
_chemical_formula_sum   'In72 Te108'
_cell_volume   6624.61602172
_cell_formula_units_Z   36
loop_
 _symmetry_equiv_pos_site_id
 _symmetry_equiv_pos_as_xyz
  1  'x, y, z'
loop_
 _atom_site_type_symbol
 _atom_site_label
 _atom_site_symmetry_multiplicity
 _atom_site_fract_x
 _atom_site_fract_y
 _atom_site_fract_z
 _atom_site_occupancy
  In  In0  1  0.52889720  0.64845235  0.82827584  1
  In  In1  1  0.85225806  0.34402782  0.49708234  1
  In  In2  1  0.17617225  0.18323051  0.67887784  1
  In  In3  1  0.53288661  -0.01337091  0.16560852  1
  In  In4  1  0.17810930  0.18652807  0.32282607  1
  In  In5  1  0.00670603  0.16942844  0.15919484  1
  In  In6  1  0.50891421  -0.00814359  0.81821704  1
  In  In7  1  0.49441273  0.17035680  0.68036925  1
  In  In8  1  0.32769919  0.00638451  0.00276988  1
  In  In9  1  0.33887177  -0.00617706  0.66692142  1
  In  In10  1  0.67709672  0.52874766  0.53162907  1
  In  In11  1  0.34965527  0.01551746  0.33956051  1
  In  In12  1  0.66131950  -0.01385069  0.29638255  1
  In  In13  1  0.12466883  0.68831553  0.82569676  1
  In  In14  1  0.64468398  0.15935194  0.49178884  1
  In  In15  1  0.48444698  0.48897918  0.32617994  1
  In  In16  1  0.02053287  0.18286175  0.52734548  1
  In  In17  1  0.51037408  0.34883177  0.85575952  1
  In  In18  1  0.32698119  0.81646182  0.14363963  1
  In  In19  1  0.32268491  0.82858027  0.83711560  1
  In  In20  1  -0.01785851  0.51602993  0.14994567  1
  In  In21  1  0.86285838  0.80318171  0.30342020  1
  In  In22  1  0.53391496  0.65684040  0.14618542  1
  In  In23  1  0.14109125  -0.00369321  0.53131980  1
  In  In24  1  0.50733028  0.33289710  0.13444807  1
  In  In25  1  0.00064986  0.50303473  0.50758178  1
  In  In26  1  0.33409094  0.83568375  0.52581894  1
  In  In27  1  0.71494855  -0.01992470  -0.00061912  1
  In  In28  1  0.14971427  0.67202876  0.51175667  1
  In  In29  1  0.32768512  0.32883528  0.35221101  1
  In  In30  1  0.32659468  0.66172325  -0.00649274  1
  In  In31  1  0.12705830  0.67890713  0.13992917  1
  In  In32  1  -0.00314528  0.01282324  0.31972571  1
  In  In33  1  -0.03790427  0.14263321  0.85771752  1
  In  In34  1  0.02157761  0.48255403  0.82718221  1
  In  In35  1  0.65302477  0.80474887  0.52022853  1
  In  In36  1  0.00830257  0.35017837  -0.01484807  1
  In  In37  1  0.50754844  0.17420422  -0.01081420  1
  In  In38  1  0.15982994  0.18409289  0.00757047  1
  In  In39  1  0.81364277  0.00085066  0.48910980  1
  In  In40  1  0.67910077  0.65835385  0.34949854  1
  In  In41  1  0.31939789  0.17892070  0.16394174  1
  In  In42  1  0.67710962  -0.01798683  0.69216256  1
  In  In43  1  0.84212415  0.17699547  0.67883530  1
  In  In44  1  0.84696866  0.51067496  0.32635284  1
  In  In45  1  -0.03462816  0.80230551  0.52002108  1
  In  In46  1  0.70204134  0.17968819  0.86260457  1
  In  In47  1  0.13831597  -0.00372200  0.84569937  1
  In  In48  1  0.85496683  0.67724137  0.85535015  1
  In  In49  1  0.32516466  0.64554656  0.68764909  1
  In  In50  1  0.69066209  0.82208780  0.13486106  1
  In  In51  1  0.82222022  0.52340841  0.69035355  1
  In  In52  1  -0.03166803  -0.02645969  0.69662859  1
  In  In53  1  0.68551819  0.32930032  0.31942950  1
  In  In54  1  0.13129764  -0.01358145  0.14823033  1
  In  In55  1  0.46642510  -0.00357809  0.48753620  1
  In  In56  1  0.48895819  0.67400991  0.53692517  1
  In  In57  1  0.14261817  0.85146461  0.34463623  1
  In  In58  1  0.69246799  0.49452306  0.12493876  1
  In  In59  1  0.31433046  0.49130745  0.82834914  1
  In  In60  1  0.86097347  0.17406689  0.30605987  1
  In  In61  1  0.67642446  0.65792004  -0.00982102  1
  In  In62  1  0.36391644  0.48917272  0.16832542  1
  In  In63  1  0.15595733  0.50200280  0.34339159  1
  In  In64  1  0.84793680  0.37188552  0.14002636  1
  In  In65  1  0.17714892  0.50274237  -0.00940580  1
  In  In66  1  0.49148028  0.11724458  0.31066341  1
  In  In67  1  0.52454419  0.33352831  0.52552656  1
  In  In68  1  0.28707131  0.64382086  0.34093364  1
  In  In69  1  0.30442940  0.36283264  0.66687139  1
  In  In70  1  0.50222121  0.83109912  0.34814804  1
  In  In71  1  0.69058628  0.35154967  0.67700637  1
  Te  Te72  1  0.05932894  0.07525927  0.04937508  1
  Te  Te73  1  0.09135905  0.08633981  0.41558446  1
  Te  Te74  1  0.06710046  0.08475860  0.73868959  1
  Te  Te75  1  0.08983667  0.42472908  0.09152069  1
  Te  Te76  1  0.08328253  0.40562391  0.42942505  1
  Te  Te77  1  0.08536730  0.39528598  0.72744128  1
  Te  Te78  1  0.04603375  0.78276823  0.07068048  1
  Te  Te79  1  0.05852633  0.74261013  0.41064609  1
  Te  Te80  1  0.06963357  0.78755797  0.73205198  1
  Te  Te81  1  0.42195176  0.08190928  0.09758028  1
  Te  Te82  1  0.40086278  0.12312409  0.43684752  1
  Te  Te83  1  0.40077260  0.08895207  0.76950203  1
  Te  Te84  1  0.40448969  0.40412373  0.05520011  1
  Te  Te85  1  0.41998791  0.41440397  0.43986211  1
  Te  Te86  1  0.42592575  0.42066807  0.75106348  1
  Te  Te87  1  0.43582164  0.74453979  0.06345108  1
  Te  Te88  1  0.39849251  0.74455795  0.42042679  1
  Te  Te89  1  0.41936128  0.74141313  0.75986489  1
  Te  Te90  1  0.78508069  0.09125674  0.06282425  1
  Te  Te91  1  0.75023386  0.09963382  0.39122660  1
  Te  Te92  1  0.76846626  0.07718527  0.76807645  1
  Te  Te93  1  0.75487497  0.40306559  0.02049165  1
  Te  Te94  1  0.73631561  0.42607987  0.42720273  1
  Te  Te95  1  0.75340981  0.42886452  0.78604373  1
  Te  Te96  1  0.78755711  0.73272324  0.06330547  1
  Te  Te97  1  0.76074595  0.76884068  0.41272840  1
  Te  Te98  1  0.78699359  0.75797424  0.74644063  1
  Te  Te99  1  0.09115481  0.26454865  0.23355125  1
  Te  Te100  1  0.08553579  0.28874885  0.61280891  1
  Te  Te101  1  0.07468114  0.24474776  0.89601134  1
  Te  Te102  1  0.07135780  0.59291013  0.25238162  1
  Te  Te103  1  0.06916249  0.59147829  0.60563055  1
  Te  Te104  1  0.06971216  0.59136445  0.93443265  1
  Te  Te105  1  0.04497942  0.89355249  0.23368075  1
  Te  Te106  1  0.07024318  0.88301975  0.60590835  1
  Te  Te107  1  0.03997012  0.89877684  0.90724751  1
  Te  Te108  1  0.42243451  0.25570065  0.24740146  1
  Te  Te109  1  0.40985353  0.26278723  0.59642328  1
  Te  Te110  1  0.41161818  0.25299641  0.91075341  1
  Te  Te111  1  0.42182691  0.61182394  0.24929483  1
  Te  Te112  1  0.40388913  0.56694322  0.58967696  1
  Te  Te113  1  0.41483567  0.57601717  0.90670153  1
  Te  Te114  1  0.41557395  0.90584817  0.23941983  1
  Te  Te115  1  0.44641408  0.90050193  0.60594470  1
  Te  Te116  1  0.41706541  0.91574740  0.91928452  1
  Te  Te117  1  0.76932571  0.25829397  0.21682588  1
  Te  Te118  1  0.74633626  0.24505879  0.56829420  1
  Te  Te119  1  0.78521926  0.26527312  0.94921248  1
  Te  Te120  1  0.75010126  0.58775219  0.23616108  1
  Te  Te121  1  0.79022319  0.61696095  0.57269346  1
  Te  Te122  1  0.74665726  0.57570097  0.88628312  1
  Te  Te123  1  0.77551039  0.90738113  0.23005129  1
  Te  Te124  1  0.75431212  0.90151599  0.58751194  1
  Te  Te125  1  0.78321282  0.89358053  0.90314529  1
  Te  Te126  1  0.25025854  0.27691063  0.07924147  1
  Te  Te127  1  0.22208939  0.26946948  0.43766418  1
  Te  Te128  1  0.26435239  0.26112019  0.76885752  1
  Te  Te129  1  0.25131108  0.58800076  0.10510461  1
  Te  Te130  1  0.24863908  0.55348389  0.46426391  1
  Te  Te131  1  0.20904729  0.57735777  0.75747217  1
  Te  Te132  1  0.23043908  0.90481767  0.06327115  1
  Te  Te133  1  0.25089686  0.92260090  0.42868592  1
  Te  Te134  1  0.23569554  0.91986652  0.75124326  1
  Te  Te135  1  0.60827862  0.25152535  0.06492647  1
  Te  Te136  1  0.57396624  0.25833516  0.39837626  1
  Te  Te137  1  0.60484834  0.24570946  0.75500966  1
  Te  Te138  1  0.56680712  0.54310161  0.04644252  1
  Te  Te139  1  0.56932386  0.58549917  0.42579746  1
  Te  Te140  1  0.61275816  0.58949928  0.72238574  1
  Te  Te141  1  0.58679453  0.89939672  0.05598939  1
  Te  Te142  1  0.59750378  0.92752489  0.42538381  1
  Te  Te143  1  0.60402867  0.88456450  0.77729591  1
  Te  Te144  1  0.91827486  0.25290665  0.06457734  1
  Te  Te145  1  0.93985363  0.24983871  0.41386736  1
  Te  Te146  1  0.91703129  0.25879359  0.77441602  1
  Te  Te147  1  0.88661376  0.61019615  0.08409498  1
  Te  Te148  1  0.90903079  0.59442845  0.42999692  1
  Te  Te149  1  0.94178848  0.59434997  0.75467277  1
  Te  Te150  1  0.93343595  0.88529116  0.02511406  1
  Te  Te151  1  0.92365629  0.91943178  0.41943125  1
  Te  Te152  1  0.87614957  0.88800395  0.77680976  1
  Te  Te153  1  0.23637399  0.06272515  0.23471628  1
  Te  Te154  1  0.25181026  0.08744357  0.58248040  1
  Te  Te155  1  0.23933792  0.09037855  0.91318105  1
  Te  Te156  1  0.25683176  0.42286564  0.25500960  1
  Te  Te157  1  0.22373255  0.44324949  0.57362533  1
  Te  Te158  1  0.23079702  0.39565842  0.90439359  1
  Te  Te159  1  0.23064940  0.76135643  0.25034972  1
  Te  Te160  1  0.24224747  0.74964306  0.60766619  1
  Te  Te161  1  0.22496147  0.75250263  0.92612295  1
  Te  Te162  1  0.61273616  0.10716765  0.21662141  1
  Te  Te163  1  0.57915988  0.07123766  0.59660424  1
  Te  Te164  1  0.59667756  0.07314169  0.91543613  1
  Te  Te165  1  0.59571966  0.43095092  0.23805451  1
  Te  Te166  1  0.58253607  0.44327758  0.61666530  1
  Te  Te167  1  0.59841698  0.43894155  0.93115722  1
  Te  Te168  1  0.59577335  0.76072739  0.25020047  1
  Te  Te169  1  0.59851019  0.71887743  0.63169035  1
  Te  Te170  1  0.60163101  0.75453247  0.90516258  1
  Te  Te171  1  0.90324928  0.06280761  0.20936292  1
  Te  Te172  1  0.91509162  0.07815823  0.57559476  1
  Te  Te173  1  0.87304031  0.05249747  0.94312142  1
  Te  Te174  1  0.93611255  0.40997715  0.25906728  1
  Te  Te175  1  0.90925837  0.41965583  0.61088397  1
  Te  Te176  1  0.91713374  0.45122534  0.92756329  1
  Te  Te177  1  0.91404949  0.70667480  0.20530078  1
  Te  Te178  1  0.89187437  0.73605752  0.63119819  1
  Te  Te179  1  0.96532064  0.75912219  0.92907905  1
