# generated using pymatgen
data_In2Te3
_symmetry_space_group_name_H-M   'P 1'
_cell_length_a   18.79632418
_cell_length_b   18.80688017
_cell_length_c   18.80684375
_cell_angle_alpha   89.99695775
_cell_angle_beta   89.97163712
_cell_angle_gamma   89.98793525
_symmetry_Int_Tables_number   1
_chemical_formula_structural   In2Te3
_chemical_formula_sum   'In72 Te108'
_cell_volume   6648.22236274
_cell_formula_units_Z   36
loop_
 _symmetry_equiv_pos_site_id
 _symmetry_equiv_pos_as_xyz
  1  'x, y, z'
loop_
 _atom_site_type_symbol
 _atom_site_label
 _atom_site_symmetry_multiplicity
 _atom_site_fract_x
 _atom_site_fract_y
 _atom_site_fract_z
 _atom_site_occupancy
  In  In0  1  0.00123067  -0.00744702  -0.00243605  1
  In  In1  1  0.32380568  0.01205072  0.65916773  1
  In  In2  1  0.17175306  0.85519705  0.32414341  1
  In  In3  1  0.00428069  0.34159944  -0.00286372  1
  In  In4  1  -0.00555401  0.65373380  0.65875305  1
  In  In5  1  -0.02486269  0.66176996  0.34665890  1
  In  In6  1  0.31635699  0.86354810  0.13122583  1
  In  In7  1  0.33407972  0.15655177  0.50449921  1
  In  In8  1  0.65129046  0.01406344  0.01712789  1
  In  In9  1  0.48628130  0.86040289  -0.02143388  1
  In  In10  1  0.30746742  0.47133955  0.18708857  1
  In  In11  1  0.67199904  0.16434253  0.16884524  1
  In  In12  1  0.15323277  0.17038174  0.34663851  1
  In  In13  1  0.16127194  0.84168497  0.66224642  1
  In  In14  1  0.50571346  0.00036155  0.18246418  1
  In  In15  1  0.66802993  0.49923738  0.49224835  1
  In  In16  1  0.66833895  0.67912127  -0.00881395  1
  In  In17  1  0.85273404  0.83719646  0.01565541  1
  In  In18  1  0.32338168  0.33473807  0.64247984  1
  In  In19  1  0.32018966  0.12939889  0.17292167  1
  In  In20  1  0.50446844  0.32677001  0.50249678  1
  In  In21  1  0.52439339  0.33407222  0.81466044  1
  In  In22  1  0.84755226  0.33919790  0.18697972  1
  In  In23  1  0.00683990  0.00522175  0.34001085  1
  In  In24  1  -0.01712877  0.01587868  0.64566306  1
  In  In25  1  0.84288681  0.65886091  0.17968256  1
  In  In26  1  0.83742878  -0.00273680  0.82192226  1
  In  In27  1  0.31639024  0.49764748  0.50655578  1
  In  In28  1  0.16864106  0.33793536  0.80876606  1
  In  In29  1  0.15367238  0.50337836  0.00580367  1
  In  In30  1  0.50196276  0.83955913  0.32206644  1
  In  In31  1  -0.00047695  0.49863255  0.82697074  1
  In  In32  1  0.85820135  0.31974991  0.52155708  1
  In  In33  1  -0.01173776  0.83364667  0.50093902  1
  In  In34  1  0.51673568  0.15431376  0.01033301  1
  In  In35  1  0.68305873  0.83150737  0.49677726  1
  In  In36  1  0.51357705  0.02882928  0.51969308  1
  In  In37  1  0.69234303  0.49077625  0.81308294  1
  In  In38  1  0.35086457  0.31594508  0.00336306  1
  In  In39  1  -0.01005971  0.67180198  0.02160103  1
  In  In40  1  0.83092769  0.85676744  0.65827664  1
  In  In41  1  0.15341643  0.00586802  0.81247124  1
  In  In42  1  0.51289867  0.50995951  0.34482326  1
  In  In43  1  0.67670617  0.16005437  0.81830965  1
  In  In44  1  0.32652704  0.15681896  0.80925288  1
  In  In45  1  0.53111222  0.32963560  0.16185529  1
  In  In46  1  0.30655063  0.52078133  0.82603757  1
  In  In47  1  0.81742536  0.15889681  -0.00897123  1
  In  In48  1  0.67666746  0.64612881  0.65574481  1
  In  In49  1  0.50815459  0.49832174  0.66658343  1
  In  In50  1  0.83514548  0.49506956  0.34493156  1
  In  In51  1  0.32385838  0.68550343  -0.00276635  1
  In  In52  1  -0.00404991  0.14044015  0.17806002  1
  In  In53  1  0.82499606  0.84622152  0.33262755  1
  In  In54  1  0.68441629  0.49453434  0.17419946  1
  In  In55  1  0.83096596  0.66650956  0.83849322  1
  In  In56  1  0.85854179  0.31585186  0.78125699  1
  In  In57  1  0.51903979  0.69116368  0.20097215  1
  In  In58  1  0.33225441  0.66613778  0.34789515  1
  In  In59  1  0.51570460  0.16513537  0.34234034  1
  In  In60  1  0.16054846  0.14554482  -0.02633243  1
  In  In61  1  0.50167228  0.83637954  0.68473081  1
  In  In62  1  0.50566376  0.50895513  -0.01478817  1
  In  In63  1  0.31842077  0.30790514  0.32153084  1
  In  In64  1  0.14701511  0.32280806  0.16582314  1
  In  In65  1  0.65018710  0.86361436  0.82417758  1
  In  In66  1  0.32907463  0.84502250  0.46554785  1
  In  In67  1  0.81824589  0.15534508  0.38073000  1
  In  In68  1  0.34759160  0.65755185  0.68011200  1
  In  In69  1  0.16010563  0.65845579  0.51683506  1
  In  In70  1  0.13436811  0.67857909  0.18587310  1
  In  In71  1  0.19602549  0.68677720  0.82416584  1
  Te  Te72  1  0.10954775  0.07053691  0.09854174  1
  Te  Te73  1  0.06183273  0.09988623  0.44034248  1
  Te  Te74  1  0.06994821  0.10285519  0.73502734  1
  Te  Te75  1  0.06172789  0.43478127  0.10422877  1
  Te  Te76  1  0.10881799  0.36488915  0.46977847  1
  Te  Te77  1  0.06646134  0.40918837  0.72562320  1
  Te  Te78  1  0.09259910  0.76284774  0.07441478  1
  Te  Te79  1  0.09108844  0.75427009  0.41642333  1
  Te  Te80  1  0.07650106  0.74748531  0.74623484  1
  Te  Te81  1  0.41348352  0.06047606  0.07288917  1
  Te  Te82  1  0.41549308  0.07205770  0.40758002  1
  Te  Te83  1  0.43022357  0.08711913  0.73045728  1
  Te  Te84  1  0.42706146  0.42424888  0.09015160  1
  Te  Te85  1  0.40785730  0.40864922  0.41121724  1
  Te  Te86  1  0.40215461  0.41648211  0.75409089  1
  Te  Te87  1  0.42814654  0.75363375  0.08854875  1
  Te  Te88  1  0.43652587  0.74350458  0.42495870  1
  Te  Te89  1  0.40660661  0.75950712  0.76833775  1
  Te  Te90  1  0.76788788  0.06513974  0.10044242  1
  Te  Te91  1  0.72661408  0.05860646  0.45210990  1
  Te  Te92  1  0.76791846  0.08611245  0.72384905  1
  Te  Te93  1  0.76103679  0.40488854  0.08689691  1
  Te  Te94  1  0.75531036  0.39463376  0.42527756  1
  Te  Te95  1  0.75473174  0.39955484  0.71548670  1
  Te  Te96  1  0.75319672  0.75169482  0.09324471  1
  Te  Te97  1  0.77731874  0.74142965  0.42740720  1
  Te  Te98  1  0.74455650  0.76004075  0.75316329  1
  Te  Te99  1  0.05420004  0.25385164  0.26427098  1
  Te  Te100  1  0.03470696  0.27226222  0.55486668  1
  Te  Te101  1  0.07925775  0.25117383  0.89902044  1
  Te  Te102  1  0.06684780  0.57657773  0.26547449  1
  Te  Te103  1  0.05259839  0.56208973  0.55514296  1
  Te  Te104  1  0.08947630  0.59607985  0.90495544  1
  Te  Te105  1  0.06444448  0.91042743  0.24021370  1
  Te  Te106  1  0.08616286  0.93161360  0.56668387  1
  Te  Te107  1  0.08469348  0.91303667  0.90493257  1
  Te  Te108  1  0.42524907  0.23717353  0.22714631  1
  Te  Te109  1  0.42893028  0.23385530  0.59699952  1
  Te  Te110  1  0.43147928  0.23734035  0.90243353  1
  Te  Te111  1  0.41285550  0.57683905  0.24695346  1
  Te  Te112  1  0.42601010  0.58394816  0.57067872  1
  Te  Te113  1  0.41219843  0.59873773  0.90502535  1
  Te  Te114  1  0.39449801  0.92107876  0.25104050  1
  Te  Te115  1  0.41574187  0.91390859  0.57305857  1
  Te  Te116  1  0.40745321  0.96511596  0.91603765  1
  Te  Te117  1  0.75784285  0.24432838  0.26495588  1
  Te  Te118  1  0.76169870  0.22297171  0.58808841  1
  Te  Te119  1  0.76267574  0.26022045  0.89357383  1
  Te  Te120  1  0.74191717  0.59382931  0.27394145  1
  Te  Te121  1  0.76992721  0.56060688  0.58237848  1
  Te  Te122  1  0.75682367  0.57172916  0.93186236  1
  Te  Te123  1  0.71302514  0.90442949  0.25654707  1
  Te  Te124  1  0.74505821  0.94566913  0.57501939  1
  Te  Te125  1  0.74900871  0.91956766  0.92914099  1
  Te  Te126  1  0.24435373  0.23766945  0.08463872  1
  Te  Te127  1  0.23907127  0.26284536  0.44565212  1
  Te  Te128  1  0.23238784  0.23420648  0.71690699  1
  Te  Te129  1  0.25467602  0.58058264  0.09001467  1
  Te  Te130  1  0.22779108  0.57353150  0.40655608  1
  Te  Te131  1  0.22008941  0.57782180  0.71688320  1
  Te  Te132  1  0.21379702  0.95301361  0.08159169  1
  Te  Te133  1  0.23508174  0.94923010  0.42011514  1
  Te  Te134  1  0.25966818  0.91090889  0.75420557  1
  Te  Te135  1  0.61814083  0.25738655  0.05909542  1
  Te  Te136  1  0.60562254  0.25664656  0.41659020  1
  Te  Te137  1  0.59243483  0.24077161  0.72529013  1
  Te  Te138  1  0.58260877  0.58876138  0.09274152  1
  Te  Te139  1  0.59163570  0.60586420  0.42169993  1
  Te  Te140  1  0.58394270  0.58767657  0.76386856  1
  Te  Te141  1  0.58105257  0.90222781  0.09177637  1
  Te  Te142  1  0.57497696  0.92013298  0.43036641  1
  Te  Te143  1  0.59175586  0.94880689  0.71947338  1
  Te  Te144  1  0.92532858  0.23549632  0.07689331  1
  Te  Te145  1  0.93496075  0.24383530  0.41454744  1
  Te  Te146  1  0.94006166  0.20569915  0.72135193  1
  Te  Te147  1  0.90484673  0.56844104  0.08051535  1
  Te  Te148  1  0.92258457  0.56412501  0.44668921  1
  Te  Te149  1  0.89537249  0.56993862  0.73998844  1
  Te  Te150  1  0.92411404  0.92849736  0.10699258  1
  Te  Te151  1  0.90201198  0.93615310  0.43132171  1
  Te  Te152  1  0.93994867  0.90973311  0.74938640  1
  Te  Te153  1  0.23900557  0.06723607  0.27913462  1
  Te  Te154  1  0.22591723  0.09192560  0.58279977  1
  Te  Te155  1  0.27424297  0.06046034  0.91639202  1
  Te  Te156  1  0.20795587  0.40779067  0.28028771  1
  Te  Te157  1  0.21408244  0.42134942  0.58575048  1
  Te  Te158  1  0.24862558  0.41137557  0.92622363  1
  Te  Te159  1  0.26322212  0.75186082  0.24195435  1
  Te  Te160  1  0.26212368  0.75441203  0.58143578  1
  Te  Te161  1  0.23893058  0.78322627  0.92777743  1
  Te  Te162  1  0.61104086  0.06713422  0.27088069  1
  Te  Te163  1  0.62294301  0.13284475  0.53981567  1
  Te  Te164  1  0.57916904  0.07082283  0.89717571  1
  Te  Te165  1  0.60076755  0.40808711  0.27089816  1
  Te  Te166  1  0.60039607  0.40334285  0.59467441  1
  Te  Te167  1  0.60213325  0.41441358  0.91778722  1
  Te  Te168  1  0.62816140  0.77416704  0.26665794  1
  Te  Te169  1  0.58801850  0.75064890  0.59095563  1
  Te  Te170  1  0.57276331  0.75653821  0.90257334  1
  Te  Te171  1  0.88975417  0.07611722  0.26642738  1
  Te  Te172  1  0.88145786  0.12404106  0.59973962  1
  Te  Te173  1  0.92440286  0.08976871  0.90761759  1
  Te  Te174  1  0.93885523  0.41980769  0.26944183  1
  Te  Te175  1  0.95047888  0.39615340  0.61307931  1
  Te  Te176  1  0.90503197  0.40703019  0.90314431  1
  Te  Te177  1  0.92760765  0.76574090  0.24628841  1
  Te  Te178  1  0.89568833  0.74208287  0.57939394  1
  Te  Te179  1  0.92866600  0.75830398  0.90969981  1
