# generated using pymatgen
data_In2Te3
_symmetry_space_group_name_H-M   'P 1'
_cell_length_a   18.85712097
_cell_length_b   18.85643468
_cell_length_c   18.85790607
_cell_angle_alpha   89.97363862
_cell_angle_beta   90.00382532
_cell_angle_gamma   90.08553512
_symmetry_Int_Tables_number   1
_chemical_formula_structural   In2Te3
_chemical_formula_sum   'In72 Te108'
_cell_volume   6705.44964652
_cell_formula_units_Z   36
loop_
 _symmetry_equiv_pos_site_id
 _symmetry_equiv_pos_as_xyz
  1  'x, y, z'
loop_
 _atom_site_type_symbol
 _atom_site_label
 _atom_site_symmetry_multiplicity
 _atom_site_fract_x
 _atom_site_fract_y
 _atom_site_fract_z
 _atom_site_occupancy
  In  In0  1  -0.02403065  0.33519399  0.33307062  1
  In  In1  1  0.48152086  0.83225964  -0.00633843  1
  In  In2  1  0.83114677  0.65747863  0.48187850  1
  In  In3  1  0.31892580  0.65241048  0.34515854  1
  In  In4  1  0.49159177  -0.00782540  0.82959182  1
  In  In5  1  0.84003664  0.65602063  0.16824004  1
  In  In6  1  0.47191190  0.35000768  0.53124545  1
  In  In7  1  0.02016774  -0.01059259  -0.01012634  1
  In  In8  1  0.18398912  0.35283084  0.54300020  1
  In  In9  1  0.41987748  0.70122870  0.56949890  1
  In  In10  1  0.84060073  0.16736517  0.65096657  1
  In  In11  1  0.17028954  0.50305935  0.35228162  1
  In  In12  1  0.83066195  0.00022527  0.80842359  1
  In  In13  1  0.67670257  0.00051900  -0.01113944  1
  In  In14  1  0.49829734  0.49388322  0.33626147  1
  In  In15  1  0.00159476  0.50258480  0.51842303  1
  In  In16  1  0.00323302  0.35104754  0.00195121  1
  In  In17  1  0.35010843  0.16410940  0.14805719  1
  In  In18  1  0.02763863  0.48989621  0.82206580  1
  In  In19  1  0.33541625  0.14175505  0.54009880  1
  In  In20  1  0.03050048  0.65745615  0.67447477  1
  In  In21  1  0.82676998  0.34562346  0.17060810  1
  In  In22  1  0.02567902  0.82383217  0.50601915  1
  In  In23  1  0.84318581  0.48410237  0.65952069  1
  In  In24  1  0.34886365  0.82494641  0.16307500  1
  In  In25  1  0.65598348  0.66582491  0.32795593  1
  In  In26  1  0.84498125  0.84315306  0.66822977  1
  In  In27  1  0.16207294  0.15888261  -0.01399677  1
  In  In28  1  0.36451952  0.31681257  0.34401891  1
  In  In29  1  0.19535852  0.34750023  0.79654048  1
  In  In30  1  0.30149710  -0.02406379  0.33440379  1
  In  In31  1  0.49206599  -0.01828566  0.51600510  1
  In  In32  1  0.17401597  0.64433949  0.17319930  1
  In  In33  1  0.51365907  0.84064357  0.35170978  1
  In  In34  1  0.84428187  0.01897017  0.51700448  1
  In  In35  1  0.16754426  0.80848090  -0.03273537  1
  In  In36  1  0.33277559  0.48787320  0.15892635  1
  In  In37  1  0.29844566  0.00191701  -0.05295188  1
  In  In38  1  0.82102569  0.18880687  -0.01215229  1
  In  In39  1  0.68574380  0.33866396  0.33967396  1
  In  In40  1  0.66878789  0.48969135  0.49116898  1
  In  In41  1  0.68231713  0.50138654  0.14846408  1
  In  In42  1  0.00810609  0.16142793  0.82082154  1
  In  In43  1  0.50290361  0.16445236  0.34661701  1
  In  In44  1  0.67809187  0.82602710  0.16727549  1
  In  In45  1  -0.02627334  0.00059015  0.33118102  1
  In  In46  1  0.51153815  0.04017880  0.16414262  1
  In  In47  1  0.33429760  0.35668403  -0.02363031  1
  In  In48  1  0.01462450  0.18086603  0.50486555  1
  In  In49  1  0.14972565  0.35039959  0.16057994  1
  In  In50  1  0.66043525  0.01935504  0.67618577  1
  In  In51  1  0.50384070  0.50940088  -0.02964879  1
  In  In52  1  0.20765428  0.65977987  0.80083517  1
  In  In53  1  0.30499558  -0.01782257  0.68843560  1
  In  In54  1  0.62126853  0.66215355  0.66515704  1
  In  In55  1  -0.00472977  0.66453218  -0.00658070  1
  In  In56  1  0.51115052  0.18471848  -0.00068169  1
  In  In57  1  0.82304379  0.32950286  0.84026960  1
  In  In58  1  0.66236624  0.83896670  0.82890194  1
  In  In59  1  0.82792937  0.81360747  0.32046015  1
  In  In60  1  0.18899529  -0.01352820  0.51987789  1
  In  In61  1  0.83309409  0.67520626  0.85579956  1
  In  In62  1  0.83906798  0.02288651  0.15889248  1
  In  In63  1  -0.01524479  0.83252304  0.17597061  1
  In  In64  1  0.66744441  0.67252956  -0.00358358  1
  In  In65  1  0.66468251  0.16140818  0.49887498  1
  In  In66  1  0.44829901  0.63698810  0.78089961  1
  In  In67  1  0.17959183  0.01509276  0.14342227  1
  In  In68  1  0.15733021  0.18346689  0.36011174  1
  In  In69  1  0.65586453  0.32691495  0.67265552  1
  In  In70  1  0.13304601  0.82647881  0.35224924  1
  In  In71  1  0.48588623  0.34606201  0.82123922  1
  Te  Te72  1  0.06555873  0.09778789  0.08780499  1
  Te  Te73  1  0.09186079  0.05880412  0.41969751  1
  Te  Te74  1  0.12223516  0.08400869  0.76878587  1
  Te  Te75  1  0.09883436  0.44757143  0.06324951  1
  Te  Te76  1  0.09329790  0.39202446  0.42391166  1
  Te  Te77  1  0.08596073  0.40771862  0.71348182  1
  Te  Te78  1  0.08915420  0.75911027  0.09213913  1
  Te  Te79  1  0.08333319  0.71171629  0.42941802  1
  Te  Te80  1  0.11640644  0.76391912  0.73855944  1
  Te  Te81  1  0.40571942  0.06078301  0.04945829  1
  Te  Te82  1  0.39501681  0.07586122  0.41360576  1
  Te  Te83  1  0.40636974  0.07409970  0.74273648  1
  Te  Te84  1  0.43435249  0.41280569  0.07486303  1
  Te  Te85  1  0.39484376  0.43836907  0.43279053  1
  Te  Te86  1  0.39363875  0.44104061  0.74811256  1
  Te  Te87  1  0.41939509  0.72891823  0.07863824  1
  Te  Te88  1  0.41861182  0.74496002  0.41605925  1
  Te  Te89  1  0.39885728  0.76522042  0.71492379  1
  Te  Te90  1  0.73465387  0.10412385  0.08281259  1
  Te  Te91  1  0.76754194  0.09468081  0.41731438  1
  Te  Te92  1  0.74459275  0.11524220  0.75878207  1
  Te  Te93  1  0.74488537  0.40209601  0.05978061  1
  Te  Te94  1  0.77779240  0.42343910  0.41840611  1
  Te  Te95  1  0.74032634  0.42518511  0.75458619  1
  Te  Te96  1  0.77215021  0.75468233  0.07393654  1
  Te  Te97  1  0.73106753  0.75849025  0.42375349  1
  Te  Te98  1  0.74625556  0.74777188  0.73915306  1
  Te  Te99  1  0.07796432  0.24833711  0.24870071  1
  Te  Te100  1  0.08914667  0.25822017  0.60835692  1
  Te  Te101  1  0.08801071  0.26726586  0.90510329  1
  Te  Te102  1  0.08121115  0.55902702  0.24907293  1
  Te  Te103  1  0.11312085  0.58019003  0.57957868  1
  Te  Te104  1  0.09502277  0.60349988  0.89486185  1
  Te  Te105  1  0.08810713  0.93097007  0.24177125  1
  Te  Te106  1  0.09988876  0.90363437  0.60646401  1
  Te  Te107  1  0.11693425  0.92882922  0.89264288  1
  Te  Te108  1  0.44704164  0.25792447  0.22567083  1
  Te  Te109  1  0.40331773  0.24964871  0.62313539  1
  Te  Te110  1  0.40411923  0.24067505  0.90933765  1
  Te  Te111  1  0.41322698  0.58359624  0.24728477  1
  Te  Te112  1  0.41310348  0.55948719  0.64346142  1
  Te  Te113  1  0.39407253  0.59198467  0.91278040  1
  Te  Te114  1  0.41895226  0.93548558  0.24491181  1
  Te  Te115  1  0.38811654  0.90667717  0.58867563  1
  Te  Te116  1  0.38956703  0.89469535  0.88877995  1
  Te  Te117  1  0.74063446  0.24671953  0.24071297  1
  Te  Te118  1  0.75164210  0.26300968  0.57239493  1
  Te  Te119  1  0.71416461  0.27237402  0.92636079  1
  Te  Te120  1  0.75499943  0.57222099  0.26343547  1
  Te  Te121  1  0.74538136  0.58807665  0.58923195  1
  Te  Te122  1  0.74779828  0.57579730  0.92097547  1
  Te  Te123  1  0.75555135  0.92652862  0.25014178  1
  Te  Te124  1  0.74500997  0.92764758  0.58811023  1
  Te  Te125  1  0.76853644  0.90660133  0.91325973  1
  Te  Te126  1  0.24776344  0.25393322  0.07832155  1
  Te  Te127  1  0.26620819  0.25104219  0.44490106  1
  Te  Te128  1  0.29825068  0.26169541  0.73790356  1
  Te  Te129  1  0.24989299  0.57225010  0.07056506  1
  Te  Te130  1  0.24708573  0.58115503  0.45338202  1
  Te  Te131  1  0.27072733  0.55267798  0.71541535  1
  Te  Te132  1  0.25500232  0.90698963  0.06941331  1
  Te  Te133  1  0.25288211  0.87512403  0.43542451  1
  Te  Te134  1  0.20884646  0.89193575  0.75653775  1
  Te  Te135  1  0.56672459  0.22737063  0.12660816  1
  Te  Te136  1  0.56646154  0.27372368  0.43538216  1
  Te  Te137  1  0.55907816  0.24273641  0.74383814  1
  Te  Te138  1  0.57641365  0.58874307  0.08451999  1
  Te  Te139  1  0.57155379  0.59020915  0.42982305  1
  Te  Te140  1  0.58512532  0.58076859  0.78118983  1
  Te  Te141  1  0.58434652  0.91691487  0.07990094  1
  Te  Te142  1  0.59489502  0.94125179  0.41919293  1
  Te  Te143  1  0.57136350  0.90725020  0.72931410  1
  Te  Te144  1  0.92058142  0.25324475  0.08150895  1
  Te  Te145  1  0.91086669  0.22540065  0.41077155  1
  Te  Te146  1  0.91908682  0.25925671  0.74521481  1
  Te  Te147  1  0.91591564  0.57207222  0.07499707  1
  Te  Te148  1  0.91565118  0.56009351  0.41293748  1
  Te  Te149  1  0.91866864  0.58453677  0.75028229  1
  Te  Te150  1  0.91299156  0.91896275  0.07465205  1
  Te  Te151  1  0.91204316  0.89683058  0.42489432  1
  Te  Te152  1  0.93884351  0.91915097  0.75188444  1
  Te  Te153  1  0.24986373  0.10478633  0.25450279  1
  Te  Te154  1  0.21138121  0.10126083  0.61641850  1
  Te  Te155  1  0.23997923  0.11410518  0.86374494  1
  Te  Te156  1  0.25993712  0.39584934  0.26391359  1
  Te  Te157  1  0.29057255  0.42454939  0.62290974  1
  Te  Te158  1  0.22585627  0.43296448  0.91350244  1
  Te  Te159  1  0.24353145  0.76086815  0.25500174  1
  Te  Te160  1  0.28467827  0.73743603  0.62234937  1
  Te  Te161  1  0.27868338  0.72311314  0.91707430  1
  Te  Te162  1  0.60224520  0.08763405  0.26901153  1
  Te  Te163  1  0.56121133  0.09622188  0.58952162  1
  Te  Te164  1  0.58499189  0.08658629  0.90535213  1
  Te  Te165  1  0.59435316  0.42032885  0.24786557  1
  Te  Te166  1  0.57651661  0.43662691  0.60026911  1
  Te  Te167  1  0.58353124  0.39237122  0.92466513  1
  Te  Te168  1  0.56689690  0.75155888  0.23898769  1
  Te  Te169  1  0.55984536  0.75398966  0.57092522  1
  Te  Te170  1  0.56930952  0.74544897  0.90361346  1
  Te  Te171  1  0.91515790  0.10872809  0.25221069  1
  Te  Te172  1  0.95349406  0.07552839  0.60379381  1
  Te  Te173  1  0.91451431  0.08415733  0.91809014  1
  Te  Te174  1  0.93278856  0.43116286  0.23034491  1
  Te  Te175  1  0.92257896  0.39315843  0.57761956  1
  Te  Te176  1  0.91526047  0.43203746  0.90799849  1
  Te  Te177  1  0.93719956  0.72305216  0.26886358  1
  Te  Te178  1  0.92056863  0.73481511  0.58813550  1
  Te  Te179  1  0.93831393  0.76592122  0.90252878  1
