# generated using pymatgen
data_In2Te3
_symmetry_space_group_name_H-M   'P 1'
_cell_length_a   18.78313602
_cell_length_b   18.78290963
_cell_length_c   18.78804884
_cell_angle_alpha   90.10867287
_cell_angle_beta   89.93406003
_cell_angle_gamma   90.08558015
_symmetry_Int_Tables_number   1
_chemical_formula_structural   In2Te3
_chemical_formula_sum   'In72 Te108'
_cell_volume   6628.43651779
_cell_formula_units_Z   36
loop_
 _symmetry_equiv_pos_site_id
 _symmetry_equiv_pos_as_xyz
  1  'x, y, z'
loop_
 _atom_site_type_symbol
 _atom_site_label
 _atom_site_symmetry_multiplicity
 _atom_site_fract_x
 _atom_site_fract_y
 _atom_site_fract_z
 _atom_site_occupancy
  In  In0  1  0.47937585  0.85878887  0.31624684  1
  In  In1  1  0.15860266  0.32869361  0.81709976  1
  In  In2  1  0.86783708  0.35467082  0.50698247  1
  In  In3  1  0.84525133  0.33328194  0.84238386  1
  In  In4  1  0.67143512  0.00315156  0.70487331  1
  In  In5  1  0.17041627  0.63699678  0.49174702  1
  In  In6  1  0.15709205  0.01379380  0.47167911  1
  In  In7  1  0.84120654  0.83481074  0.67383769  1
  In  In8  1  0.67124635  0.15899556  0.47538749  1
  In  In9  1  0.15699756  0.36611887  0.48318709  1
  In  In10  1  0.48770654  0.35722211  0.17312827  1
  In  In11  1  0.47939919  0.32688617  0.84161893  1
  In  In12  1  0.13138879  0.87699904  0.00613272  1
  In  In13  1  0.31598771  -0.02179745  0.67709070  1
  In  In14  1  0.48676545  0.02047481  0.49959648  1
  In  In15  1  0.84784279  0.14379959  -0.00086175  1
  In  In16  1  0.16670409  0.18121600  0.65524818  1
  In  In17  1  0.83114478  -0.00269955  0.48771445  1
  In  In18  1  0.01830752  0.18246560  0.47415891  1
  In  In19  1  0.30668373  0.34208468  0.33292237  1
  In  In20  1  -0.02171652  0.83833584  0.49898282  1
  In  In21  1  0.82547300  0.17081641  0.68039017  1
  In  In22  1  0.47957310  0.46202086  0.01825324  1
  In  In23  1  0.15408119  0.01035320  0.15986739  1
  In  In24  1  0.87232597  0.84621126  0.02399253  1
  In  In25  1  0.67326255  0.33731244  0.02671867  1
  In  In26  1  0.68933283  0.84340991  0.82120009  1
  In  In27  1  0.30062806  0.16555914  0.16382098  1
  In  In28  1  0.51222092  0.17567002  0.34510268  1
  In  In29  1  0.50161234  0.66907397  0.81382283  1
  In  In30  1  0.67136650  0.83241419  0.15666415  1
  In  In31  1  0.16137881  0.83160226  0.31467942  1
  In  In32  1  0.66529285  0.17587558  0.16670879  1
  In  In33  1  0.81800617  0.34009554  0.16851836  1
  In  In34  1  -0.00381604  -0.00245941  0.67423304  1
  In  In35  1  -0.01864223  0.69125407  0.31182082  1
  In  In36  1  0.31991319  0.00567183  0.01649945  1
  In  In37  1  0.15641738  0.66924766  0.83443021  1
  In  In38  1  0.32929657  0.50591169  0.49662435  1
  In  In39  1  0.69007662  0.65071133  -0.00921577  1
  In  In40  1  0.35243083  0.17594035  0.48442194  1
  In  In41  1  0.34095960  0.66705359  0.00562817  1
  In  In42  1  0.68565772  0.51351851  0.83409999  1
  In  In43  1  0.32659367  0.81443986  0.83456255  1
  In  In44  1  0.16192726  0.50074111  0.00195235  1
  In  In45  1  0.67288430  0.66314704  0.66376515  1
  In  In46  1  0.32124709  0.83005616  0.48556878  1
  In  In47  1  -0.00116397  0.33529198  -0.01239369  1
  In  In48  1  0.01461770  0.50340977  0.15585313  1
  In  In49  1  0.50116099  0.65643572  0.18855439  1
  In  In50  1  0.83759228  0.50798730  0.33024065  1
  In  In51  1  0.66853452  0.13443786  0.83239523  1
  In  In52  1  0.01778943  0.16995446  0.19849884  1
  In  In53  1  -0.01691428  0.15601483  0.84322374  1
  In  In54  1  0.66158881  0.00037664  0.00564480  1
  In  In55  1  0.66582629  0.49933302  0.50000135  1
  In  In56  1  0.68281357  0.80811890  0.48286541  1
  In  In57  1  0.32377088  0.49378591  0.82113175  1
  In  In58  1  0.49882037  0.82361903  0.01176048  1
  In  In59  1  0.48078431  0.17086858  0.66688226  1
  In  In60  1  0.15720592  0.49442224  0.67682562  1
  In  In61  1  0.49490185  0.65071275  0.49065737  1
  In  In62  1  0.52975427  -0.00782635  0.83762983  1
  In  In63  1  0.15994235  0.81605571  0.67940484  1
  In  In64  1  0.84126210  0.66479317  0.49067319  1
  In  In65  1  0.67550604  0.51396181  0.17591839  1
  In  In66  1  -0.00339673  0.65997414  0.00480149  1
  In  In67  1  0.17342929  0.67752658  0.16700958  1
  In  In68  1  0.65939429  0.34918075  0.65706370  1
  In  In69  1  0.31202773  0.16425216  0.86106704  1
  In  In70  1  0.68159072  -0.00970673  0.32930725  1
  In  In71  1  0.50814009  0.50395573  0.33575334  1
  Te  Te72  1  0.09115198  0.11803393  0.07922798  1
  Te  Te73  1  0.06022230  0.07552906  0.37823935  1
  Te  Te74  1  0.09052990  0.09047390  0.75090237  1
  Te  Te75  1  0.09929804  0.39166938  0.08957007  1
  Te  Te76  1  0.06590338  0.39294408  0.36763726  1
  Te  Te77  1  0.05953789  0.42586635  0.76664573  1
  Te  Te78  1  0.07439499  0.76100728  0.08961018  1
  Te  Te79  1  0.08439016  0.75401105  0.42456965  1
  Te  Te80  1  0.05674440  0.73736227  0.74941672  1
  Te  Te81  1  0.41020189  0.06923031  0.11886560  1
  Te  Te82  1  0.40391591  0.07171896  0.38491816  1
  Te  Te83  1  0.41405048  0.06803642  0.75874564  1
  Te  Te84  1  0.36448431  0.39761752  0.09406809  1
  Te  Te85  1  0.41694228  0.40988556  0.41445902  1
  Te  Te86  1  0.42155841  0.41664295  0.74200910  1
  Te  Te87  1  0.40847250  0.75313703  0.11160078  1
  Te  Te88  1  0.41395492  0.74422465  0.39941526  1
  Te  Te89  1  0.40931516  0.74887544  0.73194680  1
  Te  Te90  1  0.75886471  0.07142740  0.10206420  1
  Te  Te91  1  0.77728570  0.09777814  0.38488066  1
  Te  Te92  1  0.79222461  0.06063962  0.78038921  1
  Te  Te93  1  0.76739339  0.44738544  0.07189620  1
  Te  Te94  1  0.75676362  0.41019974  0.41590052  1
  Te  Te95  1  0.77187062  0.41993831  0.73579993  1
  Te  Te96  1  0.76944157  0.74203730  0.08290245  1
  Te  Te97  1  0.78300861  0.75683015  0.38902004  1
  Te  Te98  1  0.77073100  0.72883678  0.76094747  1
  Te  Te99  1  0.09927844  0.27044250  0.27617619  1
  Te  Te100  1  0.07389773  0.27525672  0.58242862  1
  Te  Te101  1  0.09112554  0.23600554  0.91836572  1
  Te  Te102  1  0.08589753  0.59295275  0.25947378  1
  Te  Te103  1  0.07067058  0.57358099  0.58292878  1
  Te  Te104  1  0.06712117  0.56616875  0.90365390  1
  Te  Te105  1  0.05622446  0.90779275  0.23513770  1
  Te  Te106  1  0.09553201  0.92013199  0.57768687  1
  Te  Te107  1  0.03449487  0.91938753  0.90326201  1
  Te  Te108  1  0.41071287  0.25084909  0.25751115  1
  Te  Te109  1  0.41597269  0.26892820  0.57975669  1
  Te  Te110  1  0.41140060  0.24063850  0.94000564  1
  Te  Te111  1  0.40735687  0.55490108  0.24055299  1
  Te  Te112  1  0.41490587  0.58077110  0.59180067  1
  Te  Te113  1  0.42560217  0.57827147  0.91473329  1
  Te  Te114  1  0.41495421  0.93835264  0.21143595  1
  Te  Te115  1  0.41284279  0.91171352  0.57864915  1
  Te  Te116  1  0.41514782  0.91298531  0.91767513  1
  Te  Te117  1  0.74223059  0.25620803  0.26334366  1
  Te  Te118  1  0.75371822  0.25423971  0.57568101  1
  Te  Te119  1  0.74685570  0.24170777  0.92290047  1
  Te  Te120  1  0.75997028  0.60818880  0.25244262  1
  Te  Te121  1  0.76976008  0.56946160  0.58895756  1
  Te  Te122  1  0.79330787  0.58574699  0.90610924  1
  Te  Te123  1  0.76647660  0.89702393  0.25208911  1
  Te  Te124  1  0.74523724  0.91588734  0.58551088  1
  Te  Te125  1  0.76291812  0.91522585  0.93272258  1
  Te  Te126  1  0.27077121  0.27292387  0.06964966  1
  Te  Te127  1  0.23161555  0.24050407  0.42160791  1
  Te  Te128  1  0.26990416  0.25196409  0.74346274  1
  Te  Te129  1  0.25989759  0.57231220  0.09401659  1
  Te  Te130  1  0.24623547  0.56453012  0.38862935  1
  Te  Te131  1  0.25335659  0.59979972  0.73950435  1
  Te  Te132  1  0.24754091  0.90178016  0.10176759  1
  Te  Te133  1  0.25520317  0.92870640  0.39050333  1
  Te  Te134  1  0.22349883  0.91443570  0.78019808  1
  Te  Te135  1  0.56109880  0.25267537  0.08551623  1
  Te  Te136  1  0.57690353  0.26681353  0.44163020  1
  Te  Te137  1  0.59420119  0.24223640  0.75285052  1
  Te  Te138  1  0.57567564  0.58307279  0.07161523  1
  Te  Te139  1  0.60863865  0.59991258  0.40141262  1
  Te  Te140  1  0.58032571  0.56416166  0.73520896  1
  Te  Te141  1  0.56556461  0.92888398  0.10098269  1
  Te  Te142  1  0.58275052  0.92019698  0.42753554  1
  Te  Te143  1  0.57212353  0.88968125  0.73356616  1
  Te  Te144  1  0.91595591  0.25028037  0.08819112  1
  Te  Te145  1  0.90854827  0.25328568  0.40560288  1
  Te  Te146  1  0.93300236  0.25962134  0.74056972  1
  Te  Te147  1  0.91124393  0.59826962  0.11004898  1
  Te  Te148  1  0.94335281  0.58162771  0.41350218  1
  Te  Te149  1  0.89619264  0.52097197  0.70187269  1
  Te  Te150  1  0.94296297  0.94327875  0.11854707  1
  Te  Te151  1  0.93128324  0.93469837  0.39824653  1
  Te  Te152  1  0.92993731  0.90566682  0.77220562  1
  Te  Te153  1  0.22303546  0.09036492  0.26476398  1
  Te  Te154  1  0.25760192  0.08111836  0.57846127  1
  Te  Te155  1  0.22008595  0.07321640  0.93129825  1
  Te  Te156  1  0.18957516  0.40107998  0.26029129  1
  Te  Te157  1  0.25296465  0.41051745  0.59165537  1
  Te  Te158  1  0.24802187  0.40517982  0.91696191  1
  Te  Te159  1  0.26643865  0.74026598  0.26414832  1
  Te  Te160  1  0.24787697  0.73735386  0.58111304  1
  Te  Te161  1  0.23078375  0.75254067  0.94159585  1
  Te  Te162  1  0.58396769  0.07806605  0.25222936  1
  Te  Te163  1  0.59613374  0.08484063  0.59410012  1
  Te  Te164  1  0.56540817  0.09971858  0.94069216  1
  Te  Te165  1  0.60276954  0.40894896  0.25856801  1
  Te  Te166  1  0.56314956  0.42194409  0.57337496  1
  Te  Te167  1  0.59528741  0.41507423  0.91492356  1
  Te  Te168  1  0.58498886  0.76059783  0.26187296  1
  Te  Te169  1  0.58016334  0.74736936  0.57732581  1
  Te  Te170  1  0.59458237  0.75323620  0.91400170  1
  Te  Te171  1  0.90821366  0.06969378  0.20182243  1
  Te  Te172  1  0.91737333  0.08980577  0.58028475  1
  Te  Te173  1  0.95229736  0.04873585  0.94695095  1
  Te  Te174  1  0.92560651  0.41427158  0.24714811  1
  Te  Te175  1  0.95262952  0.44939215  0.58546322  1
  Te  Te176  1  0.90841075  0.43654542  0.92883055  1
  Te  Te177  1  0.93604317  0.80990702  0.23445714  1
  Te  Te178  1  0.92769656  0.73418583  0.59814454  1
  Te  Te179  1  0.92402273  0.75603768  0.91704572  1
