# generated using pymatgen
data_In2Te3
_symmetry_space_group_name_H-M   'P 1'
_cell_length_a   18.97713581
_cell_length_b   18.98263917
_cell_length_c   18.95155558
_cell_angle_alpha   89.63500073
_cell_angle_beta   90.08415987
_cell_angle_gamma   89.96507800
_symmetry_Int_Tables_number   1
_chemical_formula_structural   In2Te3
_chemical_formula_sum   'In72 Te108'
_cell_volume   6826.88768004
_cell_formula_units_Z   36
loop_
 _symmetry_equiv_pos_site_id
 _symmetry_equiv_pos_as_xyz
  1  'x, y, z'
loop_
 _atom_site_type_symbol
 _atom_site_label
 _atom_site_symmetry_multiplicity
 _atom_site_fract_x
 _atom_site_fract_y
 _atom_site_fract_z
 _atom_site_occupancy
  In  In0  1  0.63550135  0.51363717  0.85781464  1
  In  In1  1  0.03362256  0.82897880  0.85018670  1
  In  In2  1  -0.00383945  0.32122396  0.01617459  1
  In  In3  1  0.84604520  0.79707344  0.32565456  1
  In  In4  1  0.79765975  0.33205198  0.48718374  1
  In  In5  1  0.01240394  0.82995736  0.49514924  1
  In  In6  1  0.45141557  0.18621463  0.30487964  1
  In  In7  1  0.82495602  0.14097121  0.00106357  1
  In  In8  1  0.34003864  0.66769398  0.01671620  1
  In  In9  1  0.32229451  0.49528397  0.15539543  1
  In  In10  1  -0.00066312  0.34368316  0.33309975  1
  In  In11  1  0.03732592  0.68407381  -0.02267493  1
  In  In12  1  0.83052873  0.15655397  0.34151991  1
  In  In13  1  0.01884750  0.63757397  0.68645846  1
  In  In14  1  0.48481356  0.49632016  0.64727761  1
  In  In15  1  0.63779678  0.18480969  0.52058031  1
  In  In16  1  0.64246768  0.86227750  0.13604309  1
  In  In17  1  0.45890292  0.67287944  0.84306144  1
  In  In18  1  0.65031773  0.48804356  0.15802889  1
  In  In19  1  0.02271441  0.64930997  0.28809054  1
  In  In20  1  0.29986480  0.66463471  0.66629223  1
  In  In21  1  0.49573952  0.87456156  0.28228020  1
  In  In22  1  -0.02655950  0.16890661  0.84301979  1
  In  In23  1  -0.00999243  0.29556786  0.66930807  1
  In  In24  1  -0.00262591  0.48826140  0.85322817  1
  In  In25  1  0.86781284  -0.02709054  0.55057333  1
  In  In26  1  0.66129967  0.18387758  0.16152510  1
  In  In27  1  0.19397531  0.86189897  0.69691799  1
  In  In28  1  0.17588049  0.33943726  0.17468425  1
  In  In29  1  0.02913123  0.00671721  0.70497828  1
  In  In30  1  0.15780697  0.15918577  -0.03218156  1
  In  In31  1  0.50815212  0.16123882  -0.01683551  1
  In  In32  1  0.34058329  0.48787392  0.46491570  1
  In  In33  1  0.33443565  0.34847223  0.69325231  1
  In  In34  1  0.21409247  0.17409712  0.33295913  1
  In  In35  1  0.63778656  0.53490985  0.50106383  1
  In  In36  1  0.65938994  0.34597510  0.68907198  1
  In  In37  1  0.01882339  0.51718319  0.16366353  1
  In  In38  1  0.01004280  0.13369576  0.52368592  1
  In  In39  1  0.28809316  0.35571195  -0.03096595  1
  In  In40  1  0.66088902  0.87754648  0.83212929  1
  In  In41  1  0.16781587  0.49870335  0.67038855  1
  In  In42  1  0.01611847  0.14768763  0.15072595  1
  In  In43  1  0.65942001  0.69873772  0.67826395  1
  In  In44  1  0.33914326  0.65187497  0.30254115  1
  In  In45  1  0.31726534  0.16773817  0.82060956  1
  In  In46  1  0.01105551  0.47502411  0.50485539  1
  In  In47  1  0.19651185  0.00848091  0.50345991  1
  In  In48  1  0.02268856  -0.02915038  0.32357184  1
  In  In49  1  0.21283073  0.83334480  0.00869668  1
  In  In50  1  0.34602018  -0.01671236  0.27811674  1
  In  In51  1  0.50337355  0.66145389  0.46431257  1
  In  In52  1  0.63293770  0.67713091  0.00308663  1
  In  In53  1  0.17771568  0.82168074  0.30252427  1
  In  In54  1  0.63213408  0.34015232  0.32979654  1
  In  In55  1  0.69187110  0.84006517  0.49579730  1
  In  In56  1  0.50533460  0.00409493  0.49848024  1
  In  In57  1  0.49209097  0.18400691  0.69604185  1
  In  In58  1  0.81003341  0.50440440  0.01609178  1
  In  In59  1  0.69156409  0.01531300  0.32484749  1
  In  In60  1  0.86642168  0.63442575  0.52867850  1
  In  In61  1  0.52863203  0.32664496  0.85190455  1
  In  In62  1  0.65771203  0.67404871  0.32881780  1
  In  In63  1  0.84646813  0.49744754  0.69990108  1
  In  In64  1  0.84162669  0.49744963  0.30654922  1
  In  In65  1  0.52432526  0.01760243  0.13306907  1
  In  In66  1  0.35092238  0.16123008  0.52085956  1
  In  In67  1  0.84644267  0.69442919  0.15055890  1
  In  In68  1  0.85787942  -0.03342219  0.14644190  1
  In  In69  1  0.50831985  0.85532249  0.67663472  1
  In  In70  1  0.34674637  0.82730112  0.49690162  1
  In  In71  1  0.83998141  0.85212837  0.69269587  1
  Te  Te72  1  0.07443716  0.06312299  0.04756399  1
  Te  Te73  1  0.09224693  0.07840523  0.40708868  1
  Te  Te74  1  0.09275395  0.12030074  0.76843191  1
  Te  Te75  1  0.09434749  0.42084760  0.07480733  1
  Te  Te76  1  0.10366645  0.41656166  0.40704480  1
  Te  Te77  1  0.05954003  0.41613435  0.73579207  1
  Te  Te78  1  0.12338219  0.73470753  0.08645183  1
  Te  Te79  1  0.08151027  0.74432483  0.39719607  1
  Te  Te80  1  0.10565420  0.74387203  0.74660777  1
  Te  Te81  1  0.41413601  0.09785888  0.08031096  1
  Te  Te82  1  0.40759388  0.06634928  0.40003590  1
  Te  Te83  1  0.42377155  0.07605270  0.76965549  1
  Te  Te84  1  0.38835233  0.39345047  0.07085008  1
  Te  Te85  1  0.46271837  0.43945552  0.40638726  1
  Te  Te86  1  0.43951339  0.42356416  0.77223410  1
  Te  Te87  1  0.43096878  0.77648557  0.06408560  1
  Te  Te88  1  0.42844866  0.76899059  0.38389330  1
  Te  Te89  1  0.40166369  0.75801446  0.73026281  1
  Te  Te90  1  0.75066387  0.06918956  0.11428681  1
  Te  Te91  1  0.73938375  0.09231617  0.44515181  1
  Te  Te92  1  0.72992534  0.01465161  0.81665442  1
  Te  Te93  1  0.74070349  0.39703387  0.08660747  1
  Te  Te94  1  0.73727540  0.44515975  0.40438928  1
  Te  Te95  1  0.74276104  0.42865009  0.78377019  1
  Te  Te96  1  0.73959840  0.76527218  0.06964812  1
  Te  Te97  1  0.76452080  0.71852191  0.43748589  1
  Te  Te98  1  0.75631373  0.75790652  0.77443814  1
  Te  Te99  1  0.08314727  0.23854506  0.25447660  1
  Te  Te100  1  0.08261460  0.25181665  0.56531250  1
  Te  Te101  1  0.07710346  0.26941463  0.90283513  1
  Te  Te102  1  0.11366587  0.53490969  0.27616644  1
  Te  Te103  1  0.09231354  0.58742067  0.56609516  1
  Te  Te104  1  0.10771739  0.57320226  0.90509393  1
  Te  Te105  1  0.11408866  0.92682345  0.21734020  1
  Te  Te106  1  0.08741077  0.92518091  0.58568459  1
  Te  Te107  1  0.12269430  0.92506651  0.92000773  1
  Te  Te108  1  0.38776598  0.29114578  0.22309038  1
  Te  Te109  1  0.42457493  0.27216069  0.59531807  1
  Te  Te110  1  0.40653152  0.25944151  0.91197279  1
  Te  Te111  1  0.42990144  0.58559851  0.20792279  1
  Te  Te112  1  0.41001785  0.60553229  0.57254132  1
  Te  Te113  1  0.43087890  0.57312632  0.94623952  1
  Te  Te114  1  0.37427209  0.85743555  0.18513537  1
  Te  Te115  1  0.40653227  0.93053622  0.58934427  1
  Te  Te116  1  0.33067515  0.85541673  0.90663198  1
  Te  Te117  1  0.74501503  0.25698454  0.26663378  1
  Te  Te118  1  0.74631323  0.25019205  0.60305202  1
  Te  Te119  1  0.70814269  0.19794277  0.93110267  1
  Te  Te120  1  0.75437043  0.59652927  0.23007567  1
  Te  Te121  1  0.74612083  0.58431516  0.60961919  1
  Te  Te122  1  0.74008954  0.60166706  0.92333825  1
  Te  Te123  1  0.75492821  0.89668018  0.25166566  1
  Te  Te124  1  0.73525893  0.92860375  0.60965195  1
  Te  Te125  1  0.73217111  0.94581783  0.94785158  1
  Te  Te126  1  0.23145834  0.25089230  0.06740113  1
  Te  Te127  1  0.27938376  0.25591493  0.43247445  1
  Te  Te128  1  0.23060461  0.26626235  0.75372898  1
  Te  Te129  1  0.23046281  0.59337080  0.08852653  1
  Te  Te130  1  0.26389703  0.60243935  0.41799109  1
  Te  Te131  1  0.26911441  0.55639580  0.76557205  1
  Te  Te132  1  0.25775365  0.93020659  0.11720706  1
  Te  Te133  1  0.25643896  0.91435302  0.40072522  1
  Te  Te134  1  0.23673838  0.94465410  0.81367605  1
  Te  Te135  1  0.55870087  0.25710247  0.08677781  1
  Te  Te136  1  0.55060885  0.24143934  0.41072872  1
  Te  Te137  1  0.61785368  0.22592857  0.77338846  1
  Te  Te138  1  0.55650633  0.58017499  0.08753402  1
  Te  Te139  1  0.55574052  0.55703236  0.36519430  1
  Te  Te140  1  0.56927242  0.59107690  0.73770252  1
  Te  Te141  1  0.53077900  0.89872277  0.04151071  1
  Te  Te142  1  0.59260286  0.91631769  0.40603151  1
  Te  Te143  1  0.53098584  0.94433729  0.79059432  1
  Te  Te144  1  0.90378475  0.23316193  0.09678135  1
  Te  Te145  1  0.91296230  0.25348400  0.42633333  1
  Te  Te146  1  0.88796885  0.26286357  0.76707437  1
  Te  Te147  1  0.92827957  0.59842301  0.06617173  1
  Te  Te148  1  0.92949061  0.57741590  0.40000953  1
  Te  Te149  1  0.91258261  0.60309787  0.78544594  1
  Te  Te150  1  0.93268819  0.87540227  0.06374653  1
  Te  Te151  1  0.90418929  0.91852218  0.41555370  1
  Te  Te152  1  0.93054862  0.92660566  0.78643606  1
  Te  Te153  1  0.25746470  0.08889461  0.22320814  1
  Te  Te154  1  0.25887934  0.08685810  0.60808679  1
  Te  Te155  1  0.27399704  0.07579479  0.92978100  1
  Te  Te156  1  0.28143040  0.39524858  0.26588450  1
  Te  Te157  1  0.26118432  0.42225503  0.58008408  1
  Te  Te158  1  0.22607429  0.46017552  0.88542607  1
  Te  Te159  1  0.23083495  0.71276391  0.21481305  1
  Te  Te160  1  0.23293365  0.77021389  0.57849547  1
  Te  Te161  1  0.25498209  0.72691196  0.90098182  1
  Te  Te162  1  0.57316461  0.08763048  0.25968686  1
  Te  Te163  1  0.57309935  0.08061197  0.60875710  1
  Te  Te164  1  0.62506420  0.07073396  0.94308028  1
  Te  Te165  1  0.55630684  0.38359881  0.21053215  1
  Te  Te166  1  0.58504339  0.41027455  0.57335495  1
  Te  Te167  1  0.60419565  0.40447515  0.95166528  1
  Te  Te168  1  0.58052790  0.75552288  0.23101752  1
  Te  Te169  1  0.57423618  0.75884803  0.56473366  1
  Te  Te170  1  0.57114119  0.75961732  0.89214342  1
  Te  Te171  1  0.92028298  0.07021918  0.25471278  1
  Te  Te172  1  0.91227807  0.08974357  0.62976658  1
  Te  Te173  1  0.93404866  0.06307987  0.93986563  1
  Te  Te174  1  0.92210336  0.40787472  0.21873521  1
  Te  Te175  1  0.89250365  0.41599803  0.57915236  1
  Te  Te176  1  0.89911393  0.40805734  0.93575331  1
  Te  Te177  1  0.95468518  0.77151714  0.22382067  1
  Te  Te178  1  0.92285298  0.75666064  0.60069055  1
  Te  Te179  1  0.92416562  0.77886858  0.94229776  1
