# generated using pymatgen
data_In2Te3
_symmetry_space_group_name_H-M   'P 1'
_cell_length_a   18.80801629
_cell_length_b   18.81596634
_cell_length_c   18.82297985
_cell_angle_alpha   89.94736096
_cell_angle_beta   89.96956140
_cell_angle_gamma   90.03248698
_symmetry_Int_Tables_number   1
_chemical_formula_structural   In2Te3
_chemical_formula_sum   'In72 Te108'
_cell_volume   6661.27836339
_cell_formula_units_Z   36
loop_
 _symmetry_equiv_pos_site_id
 _symmetry_equiv_pos_as_xyz
  1  'x, y, z'
loop_
 _atom_site_type_symbol
 _atom_site_label
 _atom_site_symmetry_multiplicity
 _atom_site_fract_x
 _atom_site_fract_y
 _atom_site_fract_z
 _atom_site_occupancy
  In  In0  1  0.16997983  0.66389029  0.49989856  1
  In  In1  1  -0.00500163  0.86188864  0.49859091  1
  In  In2  1  0.81064240  0.85002467  0.00349609  1
  In  In3  1  0.33794241  0.31111878  0.66640591  1
  In  In4  1  0.49603399  0.15091356  -0.00605141  1
  In  In5  1  0.17316362  0.85563460  0.67334219  1
  In  In6  1  -0.00742558  0.49414140  0.20081284  1
  In  In7  1  0.34025787  0.48181614  0.80760465  1
  In  In8  1  0.15793935  0.02734902  0.81408124  1
  In  In9  1  0.49488644  0.14579327  0.31332026  1
  In  In10  1  0.52506049  0.17304329  0.67215713  1
  In  In11  1  0.51599008  0.31329736  0.48029980  1
  In  In12  1  0.65707433  0.00170764  0.66375163  1
  In  In13  1  0.81728556  0.14224882  0.00317928  1
  In  In14  1  0.35056704  0.85087728  0.52502580  1
  In  In15  1  -0.00501972  0.16451116  0.17379050  1
  In  In16  1  0.66616452  0.00038616  0.32192344  1
  In  In17  1  0.52334833  0.34447280  0.20211354  1
  In  In18  1  0.16992121  0.30804969  0.82284606  1
  In  In19  1  0.16309663  0.51592980  0.66323404  1
  In  In20  1  0.66346816  0.67627306  0.67232545  1
  In  In21  1  0.81950982  0.18104583  0.67039919  1
  In  In22  1  0.36806161  0.67676951  0.70139524  1
  In  In23  1  0.17877588  -0.00663933  0.49753626  1
  In  In24  1  0.17553705  0.01496305  0.18393545  1
  In  In25  1  0.82147042  -0.00412651  0.84249062  1
  In  In26  1  0.35154086  0.67428563  0.31387712  1
  In  In27  1  0.35424015  0.46923250  0.47936690  1
  In  In28  1  -0.03289903  0.49097442  0.82140536  1
  In  In29  1  0.18106641  0.16493609  0.34407998  1
  In  In30  1  0.82111357  0.82791719  0.68590821  1
  In  In31  1  0.51628081  -0.00703530  0.84461118  1
  In  In32  1  0.00264912  0.84655170  0.16450200  1
  In  In33  1  0.67323021  0.31979579  0.00267467  1
  In  In34  1  0.38078062  0.68966120  0.01586534  1
  In  In35  1  0.17528824  0.51577918  -0.00065636  1
  In  In36  1  0.49379595  0.86611591  0.30371897  1
  In  In37  1  0.82603549  0.66780687  0.14843255  1
  In  In38  1  0.83798691  0.01169765  0.47409809  1
  In  In39  1  0.51695340  0.52047205  0.01428035  1
  In  In40  1  0.18955534  0.83524374  0.34009312  1
  In  In41  1  0.81006462  0.47125335  0.68304139  1
  In  In42  1  0.33649250  0.01327647  0.66748449  1
  In  In43  1  0.81359214  -0.00192240  0.15666834  1
  In  In44  1  0.15265993  0.48280715  0.33881212  1
  In  In45  1  0.81745701  0.32262084  0.50191569  1
  In  In46  1  0.81989045  0.49035799  0.32145444  1
  In  In47  1  0.00045806  0.16765965  0.50100141  1
  In  In48  1  0.51807509  0.69103621  0.16046947  1
  In  In49  1  0.82255435  0.69255192  0.48468207  1
  In  In50  1  0.15337370  0.32094718  0.48930695  1
  In  In51  1  0.18603609  0.32241892  0.16102403  1
  In  In52  1  -0.00632598  0.63824755  0.67847550  1
  In  In53  1  0.51990160  0.65796669  0.49534710  1
  In  In54  1  0.66416890  0.48958147  0.84208372  1
  In  In55  1  0.16633350  0.18625533  0.00158255  1
  In  In56  1  0.49192017  0.48116269  0.65317934  1
  In  In57  1  0.66946701  0.49635520  0.48246409  1
  In  In58  1  -0.01810982  0.69958209  0.00836729  1
  In  In59  1  0.17774816  0.83161967  -0.01190164  1
  In  In60  1  -0.01500817  0.31253338  0.65427164  1
  In  In61  1  0.34416887  0.01147613  0.01459617  1
  In  In62  1  0.16136491  0.69007107  0.87329889  1
  In  In63  1  0.65425464  0.84339937  0.47978839  1
  In  In64  1  0.80398720  0.49282631  0.01123990  1
  In  In65  1  0.51613463  0.68939004  0.85846117  1
  In  In66  1  -0.00404607  0.32768620  -0.00713921  1
  In  In67  1  -0.00903279  0.83931354  0.84384500  1
  In  In68  1  0.31627300  0.49836895  0.17032630  1
  In  In69  1  -0.00676552  0.65192784  0.31875205  1
  In  In70  1  0.80597106  0.17858511  0.30100424  1
  In  In71  1  0.34695194  0.30942780  0.00474071  1
  Te  Te72  1  0.08498338  0.08357963  0.08191829  1
  Te  Te73  1  0.07817694  0.07263676  0.41101113  1
  Te  Te74  1  0.09074830  0.10858227  0.71373813  1
  Te  Te75  1  0.08975799  0.41345956  0.08159465  1
  Te  Te76  1  0.05733450  0.40729744  0.42101936  1
  Te  Te77  1  0.08251806  0.41758264  0.74887171  1
  Te  Te78  1  0.09608329  0.74978018  0.09179509  1
  Te  Te79  1  0.07656106  0.75067104  0.41522080  1
  Te  Te80  1  0.07957580  0.74875985  0.74627747  1
  Te  Te81  1  0.45865764  0.05310088  0.10929045  1
  Te  Te82  1  0.38694906  0.07041561  0.38416731  1
  Te  Te83  1  0.43208019  0.08961618  0.76153498  1
  Te  Te84  1  0.41586237  0.41953078  0.08461313  1
  Te  Te85  1  0.45366470  0.41380287  0.38707907  1
  Te  Te86  1  0.44135399  0.38084552  0.75727917  1
  Te  Te87  1  0.44782081  0.80662869  0.08835074  1
  Te  Te88  1  0.42184984  0.75650966  0.42122085  1
  Te  Te89  1  0.45006609  0.78186604  0.76047918  1
  Te  Te90  1  0.71008359  0.08796707  0.09665754  1
  Te  Te91  1  0.73283875  0.10436553  0.41623072  1
  Te  Te92  1  0.73316110  0.09020822  0.75970807  1
  Te  Te93  1  0.73893146  0.40252391  0.11294532  1
  Te  Te94  1  0.72088473  0.38442767  0.38952213  1
  Te  Te95  1  0.72183701  0.37565137  0.75872869  1
  Te  Te96  1  0.72723323  0.77739678  0.10562052  1
  Te  Te97  1  0.71945188  0.74242409  0.39077386  1
  Te  Te98  1  0.71543739  0.77216741  0.77444644  1
  Te  Te99  1  0.08863575  0.25265411  0.25578941  1
  Te  Te100  1  0.10450271  0.22553303  0.60818370  1
  Te  Te101  1  0.06194919  0.22901838  0.89715014  1
  Te  Te102  1  0.10699310  0.58920386  0.23847488  1
  Te  Te103  1  0.06566501  0.56999243  0.55963981  1
  Te  Te104  1  0.06245811  0.57631408  0.91101635  1
  Te  Te105  1  0.08607391  0.92288012  0.26716302  1
  Te  Te106  1  0.07316913  0.94338189  0.60013003  1
  Te  Te107  1  0.08681696  0.93003902  0.91595524  1
  Te  Te108  1  0.41664062  0.25332673  0.24452584  1
  Te  Te109  1  0.42063543  0.23209489  0.56771968  1
  Te  Te110  1  0.41617068  0.23425934  0.89983949  1
  Te  Te111  1  0.43168861  0.57762628  0.23026015  1
  Te  Te112  1  0.40217719  0.58454163  0.57821855  1
  Te  Te113  1  0.41044042  0.57525206  0.90829367  1
  Te  Te114  1  0.41055476  0.95972592  0.22583877  1
  Te  Te115  1  0.44456625  0.94539975  0.58825667  1
  Te  Te116  1  0.42995662  0.91606329  0.93953498  1
  Te  Te117  1  0.74905056  0.27626715  0.20753095  1
  Te  Te118  1  0.72113677  0.23989030  0.57685862  1
  Te  Te119  1  0.75283727  0.23811121  0.90995938  1
  Te  Te120  1  0.74080609  0.58060826  0.23333891  1
  Te  Te121  1  0.74919935  0.58711512  0.58068072  1
  Te  Te122  1  0.72882868  0.58938260  0.92949134  1
  Te  Te123  1  0.75019248  0.90238923  0.25019828  1
  Te  Te124  1  0.75875990  0.91188235  0.57283304  1
  Te  Te125  1  0.71419065  0.94084265  0.93269715  1
  Te  Te126  1  0.27841366  0.21579329  0.10383247  1
  Te  Te127  1  0.26666783  0.25382647  0.42689188  1
  Te  Te128  1  0.26542824  0.21864290  0.75653633  1
  Te  Te129  1  0.26252454  0.60987586  0.07963496  1
  Te  Te130  1  0.26016976  0.57975117  0.41008305  1
  Te  Te131  1  0.24259323  0.59718479  0.76429822  1
  Te  Te132  1  0.24919975  0.91843164  0.09144714  1
  Te  Te133  1  0.29033733  0.92851057  0.40747397  1
  Te  Te134  1  0.26573417  0.92167720  0.76984574  1
  Te  Te135  1  0.56462998  0.25232248  0.08514979  1
  Te  Te136  1  0.59524681  0.21838528  0.39795794  1
  Te  Te137  1  0.61150396  0.26481147  0.74741735  1
  Te  Te138  1  0.61281101  0.59070462  0.10124732  1
  Te  Te139  1  0.58072656  0.57353443  0.39068478  1
  Te  Te140  1  0.56835690  0.57752910  0.74644755  1
  Te  Te141  1  0.59500133  0.86747266  0.07975801  1
  Te  Te142  1  0.55852140  0.94395404  0.41735388  1
  Te  Te143  1  0.59671318  0.90063112  0.75525860  1
  Te  Te144  1  0.90544075  0.24714256  0.08426172  1
  Te  Te145  1  0.90588959  0.24020643  0.40816504  1
  Te  Te146  1  0.90516739  0.25854730  0.76426840  1
  Te  Te147  1  0.93064855  0.57210358  0.07828668  1
  Te  Te148  1  0.90200588  0.58023657  0.41658217  1
  Te  Te149  1  0.87156971  0.59169888  0.75849894  1
  Te  Te150  1  0.92244796  0.93185511  0.06806065  1
  Te  Te151  1  0.89764096  0.90119912  0.39679837  1
  Te  Te152  1  0.92072699  0.92845751  0.74318296  1
  Te  Te153  1  0.28466150  0.08410478  0.26542337  1
  Te  Te154  1  0.26452460  0.09156286  0.56496341  1
  Te  Te155  1  0.25045472  0.08881217  0.92029646  1
  Te  Te156  1  0.26050274  0.39819429  0.27093999  1
  Te  Te157  1  0.25389455  0.41951073  0.58783830  1
  Te  Te158  1  0.25055606  0.40921594  0.91769460  1
  Te  Te159  1  0.26464795  0.76373120  0.23637228  1
  Te  Te160  1  0.25366111  0.74764517  0.59633087  1
  Te  Te161  1  0.28915099  0.76152572  0.91100867  1
  Te  Te162  1  0.59726505  0.08345589  0.21654844  1
  Te  Te163  1  0.56640972  0.07278778  0.56979661  1
  Te  Te164  1  0.60921961  0.07139869  0.93433946  1
  Te  Te165  1  0.61036222  0.42937227  0.28570707  1
  Te  Te166  1  0.59646723  0.40268693  0.57879678  1
  Te  Te167  1  0.56815404  0.40773123  0.92693882  1
  Te  Te168  1  0.58750462  0.75582289  0.27681384  1
  Te  Te169  1  0.57423167  0.76592279  0.58691343  1
  Te  Te170  1  0.58448606  0.76696079  0.96274298  1
  Te  Te171  1  0.90652290  0.07203937  0.25566628  1
  Te  Te172  1  0.90777120  0.08382674  0.58787704  1
  Te  Te173  1  0.92022307  0.07164238  0.92286909  1
  Te  Te174  1  0.90176267  0.38917437  0.24814186  1
  Te  Te175  1  0.90916934  0.42071633  0.57914816  1
  Te  Te176  1  0.88721474  0.40403131  0.91632529  1
  Te  Te177  1  0.90952695  0.75428569  0.24383191  1
  Te  Te178  1  0.92344347  0.74933274  0.58880942  1
  Te  Te179  1  0.88440180  0.75016447  0.90662905  1
