# generated using pymatgen
data_In2Te3
_symmetry_space_group_name_H-M   'P 1'
_cell_length_a   18.73686338
_cell_length_b   18.73681839
_cell_length_c   18.73800812
_cell_angle_alpha   89.95235455
_cell_angle_beta   90.04555172
_cell_angle_gamma   89.98006642
_symmetry_Int_Tables_number   1
_chemical_formula_structural   In2Te3
_chemical_formula_sum   'In72 Te108'
_cell_volume   6578.33288579
_cell_formula_units_Z   36
loop_
 _symmetry_equiv_pos_site_id
 _symmetry_equiv_pos_as_xyz
  1  'x, y, z'
loop_
 _atom_site_type_symbol
 _atom_site_label
 _atom_site_symmetry_multiplicity
 _atom_site_fract_x
 _atom_site_fract_y
 _atom_site_fract_z
 _atom_site_occupancy
  In  In0  1  0.64819143  0.38387058  0.63919826  1
  In  In1  1  0.16945320  0.19862974  0.33712204  1
  In  In2  1  0.33710365  0.48614077  0.82368685  1
  In  In3  1  0.33563524  -0.01041527  -0.01539004  1
  In  In4  1  0.86037295  0.18215927  0.34159330  1
  In  In5  1  0.83995543  0.00642720  0.50512455  1
  In  In6  1  0.16861788  0.64784364  0.83314498  1
  In  In7  1  0.51015098  0.51799430  -0.00026032  1
  In  In8  1  0.49321975  0.18196891  0.66321005  1
  In  In9  1  0.66308248  -0.01306729  0.68227447  1
  In  In10  1  0.64621148  0.79889448  0.86444253  1
  In  In11  1  0.35596137  0.79372901  0.80282043  1
  In  In12  1  0.32671402  0.32862011  -0.01762221  1
  In  In13  1  0.33655330  0.79238235  0.15941709  1
  In  In14  1  0.17711245  0.34909089  0.83051031  1
  In  In15  1  -0.00099815  0.81997728  0.83563080  1
  In  In16  1  0.83644042  0.17692475  0.01894424  1
  In  In17  1  0.52687092  0.81239099  0.31945486  1
  In  In18  1  0.82580448  0.78437233  0.32020000  1
  In  In19  1  0.16087478  0.00065601  0.80743433  1
  In  In20  1  0.14121420  0.78821871  0.02523699  1
  In  In21  1  0.82786840  -0.03875331  0.83273377  1
  In  In22  1  0.49978651  0.50184733  0.33105025  1
  In  In23  1  0.83743769  0.18507944  0.65139685  1
  In  In24  1  0.18990325  0.01365935  0.53004800  1
  In  In25  1  0.33475180  0.65911986  0.00984523  1
  In  In26  1  -0.00522960  0.00000895  0.32611022  1
  In  In27  1  0.64889116  0.19647648  0.50427686  1
  In  In28  1  0.32524139  0.36120013  0.35648124  1
  In  In29  1  0.49238507  -0.01389250  0.15072357  1
  In  In30  1  0.82486823  0.35118734  0.15305840  1
  In  In31  1  0.68206980  0.38060196  0.35570463  1
  In  In32  1  0.01395152  0.51017999  0.50968103  1
  In  In33  1  0.31880974  0.18165513  0.14930850  1
  In  In34  1  -0.00422871  -0.00848410  0.00364096  1
  In  In35  1  0.32414911  0.35595064  0.66065838  1
  In  In36  1  0.65665622  0.79721897  0.50197722  1
  In  In37  1  0.36318283  0.00866809  0.35631131  1
  In  In38  1  0.30979813  0.50258156  0.16457818  1
  In  In39  1  0.31451991  0.63024350  0.36065277  1
  In  In40  1  0.85510471  0.81575943  0.67089161  1
  In  In41  1  0.46580527  -0.00246968  0.49792595  1
  In  In42  1  0.49832369  0.16264760  0.36469444  1
  In  In43  1  0.00672384  0.35155443  0.32994688  1
  In  In44  1  0.83981514  0.64334929  0.15855342  1
  In  In45  1  0.50347417  0.33474340  0.18299226  1
  In  In46  1  0.67052970  0.81482930  0.15671839  1
  In  In47  1  0.64267997  0.16079699  0.83255759  1
  In  In48  1  0.00751219  0.18958004  0.49132983  1
  In  In49  1  0.85267414  -0.01281073  0.14771880  1
  In  In50  1  0.33115284  0.82393413  0.51708149  1
  In  In51  1  -0.00624995  0.80688207  0.51184115  1
  In  In52  1  0.83739698  0.65029793  0.84516155  1
  In  In53  1  0.01043348  0.63393803  0.33280372  1
  In  In54  1  0.16053347  0.83020271  0.31843916  1
  In  In55  1  0.68849096  0.17915093  0.15093660  1
  In  In56  1  0.46364012  0.63721115  0.52012507  1
  In  In57  1  0.66493157  0.64910862  0.65529587  1
  In  In58  1  0.01340203  0.48708297  0.16086870  1
  In  In59  1  0.49511651  0.00608558  0.83391930  1
  In  In60  1  0.65858150  0.52372077  0.83018851  1
  In  In61  1  0.16548189  0.81518334  0.67037620  1
  In  In62  1  0.66755010  0.35183326  0.00767286  1
  In  In63  1  0.02033589  0.34571987  0.65542527  1
  In  In64  1  0.68395899  0.66759356  0.34142696  1
  In  In65  1  -0.00124447  0.50530131  0.83668796  1
  In  In66  1  0.83560489  0.36507617  0.83870901  1
  In  In67  1  0.16867192  0.01236028  0.15656336  1
  In  In68  1  0.17142601  0.20108931  -0.00812347  1
  In  In69  1  0.34535022  0.18851509  0.81942358  1
  In  In70  1  0.02294909  0.16128571  0.83582911  1
  In  In71  1  0.65863373  0.00862119  0.32087794  1
  Te  Te72  1  0.08112536  0.10200229  0.07042891  1
  Te  Te73  1  0.09194656  0.07790708  0.41528797  1
  Te  Te74  1  0.09275635  0.09910904  0.72122555  1
  Te  Te75  1  0.08726040  0.37580190  0.09549294  1
  Te  Te76  1  0.10231865  0.42340944  0.42062485  1
  Te  Te77  1  0.10304349  0.44493657  0.73872832  1
  Te  Te78  1  0.04785923  0.71830247  0.11503642  1
  Te  Te79  1  0.09101908  0.73626813  0.41747661  1
  Te  Te80  1  0.06849266  0.72167196  0.74188286  1
  Te  Te81  1  0.41361124  0.09242812  0.06883153  1
  Te  Te82  1  0.37898169  0.12488655  0.46056681  1
  Te  Te83  1  0.40256103  0.07442927  0.73281361  1
  Te  Te84  1  0.41873060  0.41864647  0.08360189  1
  Te  Te85  1  0.42149638  0.43844479  0.44601973  1
  Te  Te86  1  0.43218849  0.39706975  0.75398236  1
  Te  Te87  1  0.44137114  0.75291788  0.06179075  1
  Te  Te88  1  0.41663846  0.74600536  0.40471747  1
  Te  Te89  1  0.45228911  0.71134638  0.72532751  1
  Te  Te90  1  0.74413307  0.06337228  0.06909140  1
  Te  Te91  1  0.74713890  0.09486014  0.41837308  1
  Te  Te92  1  0.76063543  0.08724510  0.74594209  1
  Te  Te93  1  0.75288179  0.45462467  0.07143452  1
  Te  Te94  1  0.76556459  0.46914653  0.44078179  1
  Te  Te95  1  0.75322413  0.44307483  0.73811029  1
  Te  Te96  1  0.75379652  0.72792896  0.06996014  1
  Te  Te97  1  0.77852206  0.72241611  0.45286171  1
  Te  Te98  1  0.74085463  0.74858129  0.74823425  1
  Te  Te99  1  0.06672562  0.24584272  0.24245094  1
  Te  Te100  1  0.11158521  0.26587125  0.56657778  1
  Te  Te101  1  0.06673884  0.28399132  0.91571992  1
  Te  Te102  1  0.11133300  0.56008250  0.25005648  1
  Te  Te103  1  0.12890083  0.59172074  0.56608226  1
  Te  Te104  1  0.07847002  0.58832984  0.93419809  1
  Te  Te105  1  0.07228950  0.91418741  0.22530235  1
  Te  Te106  1  0.08789435  0.91230614  0.57923785  1
  Te  Te107  1  0.09855265  0.91318465  0.91908582  1
  Te  Te108  1  0.40023516  0.25336765  0.26283685  1
  Te  Te109  1  0.41086690  0.26736240  0.57483073  1
  Te  Te110  1  0.43434412  0.24995453  0.91900644  1
  Te  Te111  1  0.40869559  0.58866210  0.24311110  1
  Te  Te112  1  0.36872404  0.56086564  0.60994377  1
  Te  Te113  1  0.41884251  0.59224160  0.90128362  1
  Te  Te114  1  0.41169526  0.90106538  0.25167935  1
  Te  Te115  1  0.41581992  0.90813745  0.60414431  1
  Te  Te116  1  0.42151026  0.89170784  0.90646449  1
  Te  Te117  1  0.74074166  0.25954858  0.26907668  1
  Te  Te118  1  0.75212581  0.28383314  0.57310325  1
  Te  Te119  1  0.74975687  0.25195784  0.91376508  1
  Te  Te120  1  0.75943344  0.56876838  0.25940830  1
  Te  Te121  1  0.73613531  0.55183393  0.57140804  1
  Te  Te122  1  0.74642394  0.57663733  0.93868603  1
  Te  Te123  1  0.75815656  0.91327498  0.25523620  1
  Te  Te124  1  0.74993559  0.90669436  0.58237843  1
  Te  Te125  1  0.73807553  0.89766991  0.92907497  1
  Te  Te126  1  0.22490011  0.29742284  0.10502180  1
  Te  Te127  1  0.23802483  0.27427706  0.44501770  1
  Te  Te128  1  0.23419430  0.24640204  0.73517529  1
  Te  Te129  1  0.22415680  0.58287368  0.07289300  1
  Te  Te130  1  0.21850216  0.54501774  0.44383547  1
  Te  Te131  1  0.27369896  0.59563869  0.73904032  1
  Te  Te132  1  0.25404809  0.90544749  0.08613062  1
  Te  Te133  1  0.24689880  0.91475816  0.41480462  1
  Te  Te134  1  0.26287778  0.90639811  0.74497599  1
  Te  Te135  1  0.57495950  0.24983346  0.07647263  1
  Te  Te136  1  0.56907467  0.29029861  0.41545917  1
  Te  Te137  1  0.59674682  0.26806484  0.73615747  1
  Te  Te138  1  0.59448284  0.61308902  0.07695282  1
  Te  Te139  1  0.57767749  0.59288690  0.42673201  1
  Te  Te140  1  0.55482324  0.58794423  0.73918476  1
  Te  Te141  1  0.58815806  0.90658199  0.07212305  1
  Te  Te142  1  0.58476554  0.91776119  0.42171686  1
  Te  Te143  1  0.57577044  0.89535444  0.76209386  1
  Te  Te144  1  0.92985219  0.27020441  0.08586898  1
  Te  Te145  1  0.90733102  0.29066758  0.43577394  1
  Te  Te146  1  0.92243445  0.26072061  0.75519585  1
  Te  Te147  1  0.94755252  0.58719484  0.06718980  1
  Te  Te148  1  0.90660273  0.56176007  0.41317289  1
  Te  Te149  1  0.91585309  0.58353874  0.73826047  1
  Te  Te150  1  0.91230222  0.88255377  0.06119207  1
  Te  Te151  1  0.91143145  0.90499747  0.41323341  1
  Te  Te152  1  0.94055095  0.92466743  0.73730766  1
  Te  Te153  1  0.25813042  0.08413050  0.25876555  1
  Te  Te154  1  0.29441268  0.08930002  0.59698159  1
  Te  Te155  1  0.24602232  0.09131796  0.91044946  1
  Te  Te156  1  0.22614196  0.43242561  0.26778157  1
  Te  Te157  1  0.25091954  0.46034809  0.57925777  1
  Te  Te158  1  0.23844889  0.44347578  0.93387571  1
  Te  Te159  1  0.24114293  0.71892084  0.25085585  1
  Te  Te160  1  0.24132737  0.72161539  0.57941977  1
  Te  Te161  1  0.24815760  0.75822846  0.91267443  1
  Te  Te162  1  0.56662863  0.09926751  0.23951156  1
  Te  Te163  1  0.58695055  0.07907926  0.58178140  1
  Te  Te164  1  0.58620231  0.06905572  0.93177167  1
  Te  Te165  1  0.60187585  0.43893876  0.23362416  1
  Te  Te166  1  0.54135235  0.42766311  0.54781357  1
  Te  Te167  1  0.57503790  0.41669947  0.90487528  1
  Te  Te168  1  0.58181894  0.70661395  0.22809340  1
  Te  Te169  1  0.54552078  0.75207161  0.59270279  1
  Te  Te170  1  0.57007950  0.70248899  0.95227079  1
  Te  Te171  1  0.92370958  0.09620979  0.23005601  1
  Te  Te172  1  0.93802267  0.08835243  0.58745421  1
  Te  Te173  1  0.91082128  0.08268587  0.90977191  1
  Te  Te174  1  0.90089149  0.43437269  0.25594580  1
  Te  Te175  1  0.91886291  0.43633969  0.59850638  1
  Te  Te176  1  0.91266719  0.43806903  0.93989223  1
  Te  Te177  1  0.94524588  0.74289388  0.23428384  1
  Te  Te178  1  0.92277890  0.70656255  0.59535275  1
  Te  Te179  1  0.90923041  0.75105305  0.92987032  1
