# generated using pymatgen
data_In2Te3
_symmetry_space_group_name_H-M   'P 1'
_cell_length_a   18.87659498
_cell_length_b   18.86132827
_cell_length_c   18.86064878
_cell_angle_alpha   89.91349535
_cell_angle_beta   90.04644481
_cell_angle_gamma   90.12771702
_symmetry_Int_Tables_number   1
_chemical_formula_structural   In2Te3
_chemical_formula_sum   'In72 Te108'
_cell_volume   6715.07462902
_cell_formula_units_Z   36
loop_
 _symmetry_equiv_pos_site_id
 _symmetry_equiv_pos_as_xyz
  1  'x, y, z'
loop_
 _atom_site_type_symbol
 _atom_site_label
 _atom_site_symmetry_multiplicity
 _atom_site_fract_x
 _atom_site_fract_y
 _atom_site_fract_z
 _atom_site_occupancy
  In  In0  1  0.70573704  0.83501671  0.18624401  1
  In  In1  1  0.00507101  0.34583968  0.01619518  1
  In  In2  1  0.31741097  0.66662874  0.34109265  1
  In  In3  1  0.48044876  0.82449485  0.65454537  1
  In  In4  1  -0.02170326  0.18202677  0.17061290  1
  In  In5  1  0.16149165  0.68987669  0.83646204  1
  In  In6  1  0.51382871  0.51646645  -0.00496200  1
  In  In7  1  0.69070780  0.32184474  0.65672512  1
  In  In8  1  -0.00317184  0.83097854  0.82845145  1
  In  In9  1  0.32234262  0.16307422  0.13887328  1
  In  In10  1  0.85319779  0.51238056  0.36255886  1
  In  In11  1  0.12198382  0.68911895  0.13618534  1
  In  In12  1  0.84081854  0.83241629  -0.00393245  1
  In  In13  1  0.68281506  0.48513898  0.50568822  1
  In  In14  1  0.86424142  0.82112476  0.65332567  1
  In  In15  1  0.16000604  0.19178209  0.66661034  1
  In  In16  1  0.82715647  -0.00437588  0.50014868  1
  In  In17  1  0.48386760  0.01345402  0.16326322  1
  In  In18  1  0.16360103  0.15367742  -0.00663680  1
  In  In19  1  0.17750055  0.34215683  0.82825301  1
  In  In20  1  0.00795228  0.51812659  0.83292408  1
  In  In21  1  0.71163916  0.07935302  0.66582305  1
  In  In22  1  0.52635469  0.34309671  0.16486571  1
  In  In23  1  0.67311655  0.83900304  0.49208014  1
  In  In24  1  0.52104930  0.47951526  0.33343529  1
  In  In25  1  0.47173849  0.64376084  0.50435090  1
  In  In26  1  -0.01100304  -0.01074114  0.64885090  1
  In  In27  1  0.50726248  0.83870617  -0.01603588  1
  In  In28  1  0.51837502  0.17234066  0.34427627  1
  In  In29  1  0.15028806  0.54828894  0.33135476  1
  In  In30  1  0.69409310  0.67981584  0.33663761  1
  In  In31  1  0.31194047  0.84129185  0.51849114  1
  In  In32  1  0.50384665  0.67793738  0.81170273  1
  In  In33  1  0.32914940  0.49988240  0.17512606  1
  In  In34  1  0.52694826  0.63594835  0.14041578  1
  In  In35  1  0.31925618  0.50696065  0.52595865  1
  In  In36  1  0.50996845  0.17144744  0.66151662  1
  In  In37  1  0.82894463  -0.01438046  0.17793053  1
  In  In38  1  0.13282372  0.50981719  0.65406930  1
  In  In39  1  0.31713501  -0.00861160  0.67326422  1
  In  In40  1  0.88580726  0.49031934  0.62640770  1
  In  In41  1  0.15029093  0.48420144  -0.00194589  1
  In  In42  1  0.67077133  0.31793095  -0.00323089  1
  In  In43  1  0.85878403  0.66216845  0.14000347  1
  In  In44  1  0.13900241  0.81045852  0.35780905  1
  In  In45  1  0.67531476  0.17243018  0.15490391  1
  In  In46  1  0.68469323  0.65730219  0.66416720  1
  In  In47  1  0.32400543  0.83479902  0.14906290  1
  In  In48  1  0.17061488  -0.00722376  0.83624094  1
  In  In49  1  0.35098788  0.16104666  0.50908172  1
  In  In50  1  -0.02450527  0.17486005  0.81382253  1
  In  In51  1  0.16505991  -0.02414145  0.18331114  1
  In  In52  1  0.31237182  0.66670465  0.66380930  1
  In  In53  1  0.51278927  0.31193968  0.50640381  1
  In  In54  1  0.84262144  0.15749596  0.34995400  1
  In  In55  1  0.84877047  0.34147723  0.15200306  1
  In  In56  1  0.32875921  0.31672371  -0.01204207  1
  In  In57  1  0.50159283  -0.00475712  0.83199898  1
  In  In58  1  0.65717586  0.81290041  0.82595085  1
  In  In59  1  0.47484650  0.34729676  0.80684085  1
  In  In60  1  0.14096633  -0.01355919  0.48801109  1
  In  In61  1  0.65356904  -0.00007821  0.00188357  1
  In  In62  1  0.32942136  0.65486932  -0.02016853  1
  In  In63  1  -0.01974462  -0.00249869  -0.00245875  1
  In  In64  1  0.13814732  0.13964889  0.34069078  1
  In  In65  1  0.70708496  0.51250146  0.86501536  1
  In  In66  1  0.33703877  0.32719030  0.33639675  1
  In  In67  1  -0.00727172  0.33261306  0.34257255  1
  In  In68  1  0.83227199  0.33220306  0.82542497  1
  In  In69  1  0.87237986  0.83520995  0.33905307  1
  In  In70  1  0.51838338  0.84981292  0.33336950  1
  In  In71  1  0.15396903  0.33805665  0.50098542  1
  Te  Te72  1  0.07014426  0.08192231  0.09188005  1
  Te  Te73  1  0.04943984  0.09538067  0.44848618  1
  Te  Te74  1  0.07859762  0.08016398  0.74585961  1
  Te  Te75  1  0.08080555  0.42660467  0.11313760  1
  Te  Te76  1  0.07983458  0.43762404  0.41481568  1
  Te  Te77  1  0.06773867  0.40659242  0.74632337  1
  Te  Te78  1  0.05979649  0.80197854  0.06970817  1
  Te  Te79  1  0.03609335  0.72958962  0.43280932  1
  Te  Te80  1  0.07104928  0.74559335  0.73373146  1
  Te  Te81  1  0.40484019  0.07452682  0.05614345  1
  Te  Te82  1  0.41517662  0.08581260  0.40204681  1
  Te  Te83  1  0.41434041  0.08468755  0.74330923  1
  Te  Te84  1  0.41828462  0.42233182  0.07950162  1
  Te  Te85  1  0.41102035  0.42606180  0.43000307  1
  Te  Te86  1  0.39894915  0.43753184  0.72263767  1
  Te  Te87  1  0.42394281  0.73466185  0.08269096  1
  Te  Te88  1  0.41194422  0.75906678  0.42139240  1
  Te  Te89  1  0.38837131  0.76083959  0.75677050  1
  Te  Te90  1  0.76417771  0.07696112  0.07552120  1
  Te  Te91  1  0.73737756  0.07898030  0.41665031  1
  Te  Te92  1  0.76404058  0.11079493  0.79893650  1
  Te  Te93  1  0.74969349  0.41950199  0.07218276  1
  Te  Te94  1  0.76744038  0.40362766  0.41819933  1
  Te  Te95  1  0.75608370  0.43569892  0.74030319  1
  Te  Te96  1  0.74328268  0.74203729  0.07626931  1
  Te  Te97  1  0.78270710  0.75084355  0.43518414  1
  Te  Te98  1  0.77085219  0.74393346  0.75301006  1
  Te  Te99  1  0.08601717  0.25225716  0.25192160  1
  Te  Te100  1  0.05634805  0.25312802  0.57740593  1
  Te  Te101  1  0.07584024  0.25115819  0.90983941  1
  Te  Te102  1  0.04970307  0.60629313  0.23715212  1
  Te  Te103  1  0.01410937  0.57899537  0.59069567  1
  Te  Te104  1  0.08031526  0.60274995  0.93734336  1
  Te  Te105  1  0.07054972  0.91673709  0.27982377  1
  Te  Te106  1  0.09978561  0.90181466  0.60296425  1
  Te  Te107  1  0.08479421  0.90766346  0.93238253  1
  Te  Te108  1  0.41864307  0.25250621  0.23344984  1
  Te  Te109  1  0.40336718  0.26734683  0.60153476  1
  Te  Te110  1  0.42273884  0.24712509  0.90131799  1
  Te  Te111  1  0.42449573  0.58434579  0.26070016  1
  Te  Te112  1  0.42812236  0.56160306  0.63006511  1
  Te  Te113  1  0.41987284  0.57472031  0.88886759  1
  Te  Te114  1  0.40740359  0.91441059  0.25101549  1
  Te  Te115  1  0.41876206  0.93661212  0.57252032  1
  Te  Te116  1  0.40650787  0.90721962  0.90447134  1
  Te  Te117  1  0.77225908  0.24685723  0.24417353  1
  Te  Te118  1  0.76258430  0.20592936  0.59749545  1
  Te  Te119  1  0.74786684  0.23050735  0.89996805  1
  Te  Te120  1  0.77437473  0.58770273  0.25147576  1
  Te  Te121  1  0.77585369  0.58767348  0.56704441  1
  Te  Te122  1  0.80732126  0.60613728  0.92994137  1
  Te  Te123  1  0.75059959  0.92672786  0.29493116  1
  Te  Te124  1  0.74554064  0.90771459  0.60595631  1
  Te  Te125  1  0.73864501  0.90913350  0.91281541  1
  Te  Te126  1  0.22401761  0.26590534  0.08444397  1
  Te  Te127  1  0.24176104  0.24079249  0.41872282  1
  Te  Te128  1  0.25797304  0.23331436  0.76906218  1
  Te  Te129  1  0.24270006  0.59345937  0.09254046  1
  Te  Te130  1  0.22974861  0.60631715  0.45140637  1
  Te  Te131  1  0.22718398  0.57781764  0.75290283  1
  Te  Te132  1  0.25408673  0.93855165  0.07299361  1
  Te  Te133  1  0.24563324  0.91549051  0.40393655  1
  Te  Te134  1  0.22276514  0.89648991  0.73529617  1
  Te  Te135  1  0.56548886  0.23247384  0.06797359  1
  Te  Te136  1  0.60990006  0.26920608  0.40620237  1
  Te  Te137  1  0.59217019  0.25894386  0.75359160  1
  Te  Te138  1  0.62971385  0.54514664  0.08535052  1
  Te  Te139  1  0.59440103  0.58873692  0.42073580  1
  Te  Te140  1  0.60602413  0.57495375  0.76413913  1
  Te  Te141  1  0.58738926  0.90329823  0.10448608  1
  Te  Te142  1  0.57823441  0.93572554  0.43518323  1
  Te  Te143  1  0.58024420  0.90777668  0.73459659  1
  Te  Te144  1  0.90258820  0.23792840  0.05237947  1
  Te  Te145  1  0.89644580  0.26834191  0.43956822  1
  Te  Te146  1  0.91178647  0.26807330  0.71728910  1
  Te  Te147  1  0.89606324  0.55771562  0.04265413  1
  Te  Te148  1  0.95364888  0.59439357  0.43710005  1
  Te  Te149  1  0.91642019  0.58549639  0.73725555  1
  Te  Te150  1  0.93137096  0.89230296  0.10758845  1
  Te  Te151  1  0.93893335  0.92182835  0.43794837  1
  Te  Te152  1  0.90222609  0.92682159  0.75849510  1
  Te  Te153  1  0.24956289  0.08662395  0.24924384  1
  Te  Te154  1  0.23590168  0.08394559  0.57761219  1
  Te  Te155  1  0.25845884  0.09643417  0.89675408  1
  Te  Te156  1  0.24220306  0.43140069  0.27828320  1
  Te  Te157  1  0.23884879  0.40673446  0.60727790  1
  Te  Te158  1  0.26503523  0.43370518  0.91333319  1
  Te  Te159  1  0.23315123  0.75015083  0.24487600  1
  Te  Te160  1  0.21969905  0.74092120  0.57560342  1
  Te  Te161  1  0.24927659  0.76542458  0.92859840  1
  Te  Te162  1  0.59249438  0.08152351  0.24542006  1
  Te  Te163  1  0.60002531  0.09873290  0.57073327  1
  Te  Te164  1  0.58730727  0.08910975  0.90676746  1
  Te  Te165  1  0.62174763  0.40937799  0.25458000  1
  Te  Te166  1  0.58249845  0.41438617  0.59390801  1
  Te  Te167  1  0.58876588  0.41456981  0.90723636  1
  Te  Te168  1  0.58248067  0.73876391  0.24944567  1
  Te  Te169  1  0.58208009  0.73631993  0.57998981  1
  Te  Te170  1  0.59036904  0.72308242  0.92986122  1
  Te  Te171  1  0.92801478  0.06977075  0.25933477  1
  Te  Te172  1  0.88725372  0.08908871  0.60325269  1
  Te  Te173  1  0.89977541  0.07428126  0.89737453  1
  Te  Te174  1  0.92388457  0.43073582  0.24848539  1
  Te  Te175  1  0.93486493  0.36738911  0.55954961  1
  Te  Te176  1  0.91906720  0.42224333  0.91603181  1
  Te  Te177  1  0.93341089  0.72951085  0.25216617  1
  Te  Te178  1  0.95760286  0.74409036  0.56905324  1
  Te  Te179  1  0.91465434  0.73471167  0.91120512  1
