# generated using pymatgen
data_In2Te3
_symmetry_space_group_name_H-M   'P 1'
_cell_length_a   18.88130229
_cell_length_b   18.88633677
_cell_length_c   18.88502005
_cell_angle_alpha   90.08241304
_cell_angle_beta   90.03679650
_cell_angle_gamma   90.02458617
_symmetry_Int_Tables_number   1
_chemical_formula_structural   In2Te3
_chemical_formula_sum   'In72 Te108'
_cell_volume   6734.36336811
_cell_formula_units_Z   36
loop_
 _symmetry_equiv_pos_site_id
 _symmetry_equiv_pos_as_xyz
  1  'x, y, z'
loop_
 _atom_site_type_symbol
 _atom_site_label
 _atom_site_symmetry_multiplicity
 _atom_site_fract_x
 _atom_site_fract_y
 _atom_site_fract_z
 _atom_site_occupancy
  In  In0  1  0.16370861  0.66007068  0.82179903  1
  In  In1  1  0.50042491  0.31971675  0.52187312  1
  In  In2  1  0.49673940  0.86546180  0.65049486  1
  In  In3  1  0.65077000  0.50952159  0.16399759  1
  In  In4  1  0.33953108  0.50362036  0.18140912  1
  In  In5  1  0.33834065  0.49431391  0.52541125  1
  In  In6  1  0.20002921  0.84516957  -0.00947958  1
  In  In7  1  0.67657360  0.65657951  -0.00362447  1
  In  In8  1  -0.02187556  0.65760646  -0.00968689  1
  In  In9  1  0.16512616  0.49987239  0.33041720  1
  In  In10  1  0.15002663  0.50001202  0.67764280  1
  In  In11  1  0.83581199  0.84846077  0.30790236  1
  In  In12  1  0.19067052  0.86318652  0.66176931  1
  In  In13  1  0.00701084  0.49777024  0.49589699  1
  In  In14  1  0.64862788  0.15803842  0.49757865  1
  In  In15  1  0.65430804  0.33874061  0.00179462  1
  In  In16  1  0.51086385  -0.00464101  0.16385906  1
  In  In17  1  0.67409378  0.33301905  0.68525118  1
  In  In18  1  0.34121355  0.32354981  0.67065482  1
  In  In19  1  0.81692453  0.47778200  0.31946163  1
  In  In20  1  0.82499723  0.67413534  0.83105708  1
  In  In21  1  0.50507570  0.17119920  0.00951410  1
  In  In22  1  0.32302979  0.33348756  0.00911834  1
  In  In23  1  0.49440486  0.50931692  0.32507349  1
  In  In24  1  0.16697722  0.17094611  0.34225444  1
  In  In25  1  0.32918356  0.02943483  0.65884241  1
  In  In26  1  0.66107830  0.01313650  0.67340342  1
  In  In27  1  0.00791442  0.46046200  0.07949531  1
  In  In28  1  0.68442250  0.83974456  0.83105904  1
  In  In29  1  0.65246542  0.68076475  0.32512082  1
  In  In30  1  -0.00822602  0.15259855  0.16747040  1
  In  In31  1  0.68585344  0.32575198  0.34591853  1
  In  In32  1  0.85538091  0.66424679  0.51500140  1
  In  In33  1  0.83361423  0.15822176  -0.00062880  1
  In  In34  1  0.49541430  0.66165103  0.83201088  1
  In  In35  1  0.17283688  0.31711876  0.85717211  1
  In  In36  1  0.84356461  0.00565602  0.51171141  1
  In  In37  1  0.00283323  0.17149188  0.52589753  1
  In  In38  1  0.34909745  0.85074942  0.17109341  1
  In  In39  1  0.16728473  0.66642543  0.16197938  1
  In  In40  1  0.65889645  0.17184600  0.82268724  1
  In  In41  1  0.00159990  0.00175144  0.30500542  1
  In  In42  1  -0.01444366  0.32430125  0.35674154  1
  In  In43  1  0.50407396  0.48953597  0.68582745  1
  In  In44  1  0.31000242  0.15264115  0.16257424  1
  In  In45  1  0.00244329  0.84617853  0.15303356  1
  In  In46  1  0.47438100  0.30451878  0.17808375  1
  In  In47  1  -0.01765074  0.48063953  0.85962088  1
  In  In48  1  0.49602080  0.84097252  0.33667667  1
  In  In49  1  0.66667067  0.49731222  0.84244993  1
  In  In50  1  0.01050464  0.69541741  0.33923949  1
  In  In51  1  -0.01633204  -0.01179923  0.71167455  1
  In  In52  1  0.34251876  0.66482255  0.32769105  1
  In  In53  1  0.14060269  0.16307492  -0.00974700  1
  In  In54  1  0.46934428  0.86214684  -0.03347751  1
  In  In55  1  0.83175465  0.32103119  0.16375649  1
  In  In56  1  0.17085832  0.01769398  0.81992711  1
  In  In57  1  0.84567592  0.31269553  0.52599101  1
  In  In58  1  0.51547267  0.67755091  0.47937820  1
  In  In59  1  0.65660334  -0.01604202  0.32045498  1
  In  In60  1  0.33888959  0.15935129  0.83330080  1
  In  In61  1  0.19471400  -0.00517042  0.48550481  1
  In  In62  1  0.01928286  0.82293683  0.50875659  1
  In  In63  1  0.32313271  0.31263279  0.33485631  1
  In  In64  1  0.82731404  0.82562271  -0.01189801  1
  In  In65  1  -0.00630097  0.00842964  -0.02496110  1
  In  In66  1  0.83144881  0.49102600  0.65429765  1
  In  In67  1  0.67120560  0.84740942  0.48676360  1
  In  In68  1  0.67941045  0.00573578  -0.00639599  1
  In  In69  1  0.32429626  0.68864668  0.66365823  1
  In  In70  1  0.34203981  0.65240140  -0.00311804  1
  In  In71  1  0.00777737  0.67654354  0.66607528  1
  Te  Te72  1  0.08410208  0.06162454  0.08787048  1
  Te  Te73  1  0.06931270  0.07413803  0.42084376  1
  Te  Te74  1  0.07332235  0.10088200  0.74739937  1
  Te  Te75  1  0.13179043  0.38589004  0.05436771  1
  Te  Te76  1  0.10020414  0.39996822  0.42458228  1
  Te  Te77  1  0.07731567  0.40431115  0.76976792  1
  Te  Te78  1  0.08860709  0.74979452  0.06137811  1
  Te  Te79  1  0.11664600  0.75957537  0.41773917  1
  Te  Te80  1  0.09655167  0.77087019  0.74432321  1
  Te  Te81  1  0.41120563  0.07472991  0.07905674  1
  Te  Te82  1  0.44947318  0.04465882  0.49055668  1
  Te  Te83  1  0.43383388  0.09154259  0.74217171  1
  Te  Te84  1  0.42496181  0.41604394  0.08991100  1
  Te  Te85  1  0.41236343  0.41671099  0.41376296  1
  Te  Te86  1  0.40671414  0.41558522  0.76478460  1
  Te  Te87  1  0.42051723  0.76194219  0.06997942  1
  Te  Te88  1  0.40176943  0.76299948  0.42783942  1
  Te  Te89  1  0.42514126  0.76574931  0.74581875  1
  Te  Te90  1  0.74622553  0.08863562  0.09435333  1
  Te  Te91  1  0.74270345  0.06910067  0.41810609  1
  Te  Te92  1  0.75920163  0.08709417  0.75451527  1
  Te  Te93  1  0.74913866  0.42271007  0.08599244  1
  Te  Te94  1  0.76123630  0.41381883  0.44495640  1
  Te  Te95  1  0.78408902  0.40670027  0.77518698  1
  Te  Te96  1  0.75470601  0.74455781  0.08509021  1
  Te  Te97  1  0.76337317  0.74982196  0.41347420  1
  Te  Te98  1  0.74207777  0.74512884  0.73400644  1
  Te  Te99  1  0.07279226  0.24986777  0.25391345  1
  Te  Te100  1  0.06604888  0.28678716  0.58767741  1
  Te  Te101  1  0.05381677  0.23127613  0.89048891  1
  Te  Te102  1  0.07205606  0.58574361  0.24788453  1
  Te  Te103  1  0.09538658  0.59657602  0.57134796  1
  Te  Te104  1  0.08687900  0.57558018  0.92069757  1
  Te  Te105  1  0.08999725  0.89424427  0.26054090  1
  Te  Te106  1  0.07775725  0.93805505  0.59015601  1
  Te  Te107  1  0.09475512  0.91739074  0.90590171  1
  Te  Te108  1  0.40750349  0.20332209  0.27034542  1
  Te  Te109  1  0.38991975  0.23284651  0.56272866  1
  Te  Te110  1  0.41944504  0.25777023  0.91919571  1
  Te  Te111  1  0.44076695  0.61045904  0.22597378  1
  Te  Te112  1  0.43425172  0.59656635  0.58602920  1
  Te  Te113  1  0.42796994  0.56311034  0.91686253  1
  Te  Te114  1  0.40752462  0.95237332  0.27869937  1
  Te  Te115  1  0.38704684  0.92378228  0.56422429  1
  Te  Te116  1  0.37077971  0.94615839  0.89935409  1
  Te  Te117  1  0.76561652  0.23576208  0.26252692  1
  Te  Te118  1  0.74368238  0.22373266  0.59863611  1
  Te  Te119  1  0.74740230  0.25447889  0.91680016  1
  Te  Te120  1  0.74972954  0.59186582  0.24541187  1
  Te  Te121  1  0.74971815  0.59009588  0.58451277  1
  Te  Te122  1  0.77552268  0.56563640  0.92448773  1
  Te  Te123  1  0.73021274  0.90217984  0.22250514  1
  Te  Te124  1  0.75228692  0.91729073  0.59507103  1
  Te  Te125  1  0.78100797  0.94559252  0.88995272  1
  Te  Te126  1  0.21954825  0.25623244  0.09244835  1
  Te  Te127  1  0.25497798  0.23675913  0.44233165  1
  Te  Te128  1  0.24077086  0.23693611  0.74758974  1
  Te  Te129  1  0.24553525  0.56700368  0.07961696  1
  Te  Te130  1  0.26010759  0.57716265  0.42017998  1
  Te  Te131  1  0.26508981  0.57498130  0.74614537  1
  Te  Te132  1  0.25106950  0.93105127  0.09711154  1
  Te  Te133  1  0.28173566  0.95280112  0.37590485  1
  Te  Te134  1  0.28216185  0.91845946  0.77226663  1
  Te  Te135  1  0.59521952  0.24405289  0.10731655  1
  Te  Te136  1  0.56747950  0.24760328  0.40580694  1
  Te  Te137  1  0.56573844  0.24999054  0.73840816  1
  Te  Te138  1  0.57023721  0.58086796  0.06479649  1
  Te  Te139  1  0.60091996  0.56838048  0.41587568  1
  Te  Te140  1  0.60080693  0.59209172  0.74474630  1
  Te  Te141  1  0.58191026  0.90977993  0.06062522  1
  Te  Te142  1  0.55893836  0.94155696  0.44175044  1
  Te  Te143  1  0.57568196  0.92617513  0.76643398  1
  Te  Te144  1  0.93472943  0.25503826  0.07197641  1
  Te  Te145  1  0.89984328  0.21759527  0.41892045  1
  Te  Te146  1  0.85698599  0.29361217  0.70626440  1
  Te  Te147  1  0.91288335  0.57274278  0.08868551  1
  Te  Te148  1  0.91598799  0.57802170  0.40309825  1
  Te  Te149  1  0.92740725  0.57705921  0.74754095  1
  Te  Te150  1  0.90525893  0.92792171  0.07092733  1
  Te  Te151  1  0.92066133  0.90770986  0.42078155  1
  Te  Te152  1  0.89564917  0.90326104  0.79116785  1
  Te  Te153  1  0.23499454  0.06615866  0.26005720  1
  Te  Te154  1  0.22345119  0.09975647  0.58436240  1
  Te  Te155  1  0.25615262  0.08057050  0.93421397  1
  Te  Te156  1  0.24307687  0.40304257  0.24275840  1
  Te  Te157  1  0.23492658  0.40763062  0.59104786  1
  Te  Te158  1  0.24355880  0.42811399  0.92624939  1
  Te  Te159  1  0.25252637  0.75724692  0.24777510  1
  Te  Te160  1  0.24265077  0.76236313  0.56685431  1
  Te  Te161  1  0.26611819  0.74212677  0.90028075  1
  Te  Te162  1  0.57760858  0.08926528  0.25484749  1
  Te  Te163  1  0.55464947  0.09053395  0.59596346  1
  Te  Te164  1  0.57451876  0.07877977  0.91190389  1
  Te  Te165  1  0.57960019  0.40367418  0.25322532  1
  Te  Te166  1  0.59403763  0.41978072  0.58463176  1
  Te  Te167  1  0.56895594  0.40801261  0.90402758  1
  Te  Te168  1  0.57886886  0.77148033  0.23689837  1
  Te  Te169  1  0.58874342  0.76168076  0.58262567  1
  Te  Te170  1  0.58498313  0.75766449  0.91525484  1
  Te  Te171  1  0.89151629  0.07157840  0.23943026  1
  Te  Te172  1  0.91135487  0.09023735  0.61643931  1
  Te  Te173  1  0.92875637  0.11425440  0.89252010  1
  Te  Te174  1  0.93171970  0.41358532  0.24533437  1
  Te  Te175  1  0.95635112  0.39632701  0.60193177  1
  Te  Te176  1  0.92864781  0.39649794  0.96913593  1
  Te  Te177  1  0.91684070  0.74548418  0.23042419  1
  Te  Te178  1  0.90966712  0.77459964  0.60437377  1
  Te  Te179  1  0.93359814  0.76533097  0.89087120  1
