# generated using pymatgen
data_In2Te3
_symmetry_space_group_name_H-M   'P 1'
_cell_length_a   18.97485031
_cell_length_b   18.96501649
_cell_length_c   18.95076130
_cell_angle_alpha   89.95635555
_cell_angle_beta   89.92193800
_cell_angle_gamma   90.08335508
_symmetry_Int_Tables_number   1
_chemical_formula_structural   In2Te3
_chemical_formula_sum   'In72 Te108'
_cell_volume   6819.57413610
_cell_formula_units_Z   36
loop_
 _symmetry_equiv_pos_site_id
 _symmetry_equiv_pos_as_xyz
  1  'x, y, z'
loop_
 _atom_site_type_symbol
 _atom_site_label
 _atom_site_symmetry_multiplicity
 _atom_site_fract_x
 _atom_site_fract_y
 _atom_site_fract_z
 _atom_site_occupancy
  In  In0  1  0.00557351  0.34535547  0.33485044  1
  In  In1  1  0.85812464  0.33792208  0.82715916  1
  In  In2  1  0.49073997  0.50488940  0.33511009  1
  In  In3  1  0.87762441  0.14572530  -0.01770391  1
  In  In4  1  -0.00455994  0.49279822  0.17779783  1
  In  In5  1  0.00093650  0.33949591  0.66410037  1
  In  In6  1  0.84526041  0.64458111  0.46506602  1
  In  In7  1  0.85012732  0.50618251  -0.00917265  1
  In  In8  1  0.48968741  0.17155227  0.32641841  1
  In  In9  1  0.67700092  0.70172331  0.31845534  1
  In  In10  1  0.81029136  0.14780088  0.32875365  1
  In  In11  1  -0.01275203  -0.00324789  0.64781610  1
  In  In12  1  0.53056403  0.85676167  0.66785636  1
  In  In13  1  0.32989149  -0.00465625  0.33939187  1
  In  In14  1  0.21205325  0.32049988  0.50597002  1
  In  In15  1  0.67170052  0.51577143  0.81623733  1
  In  In16  1  0.33187954  0.18785241  0.18856188  1
  In  In17  1  0.85751743  0.36069369  0.19257719  1
  In  In18  1  0.48331565  0.33083268  0.49433171  1
  In  In19  1  0.83768775  0.68860857  0.81324052  1
  In  In20  1  0.53094171  0.66696847  0.16831696  1
  In  In21  1  0.47547996  0.31211068  0.20998923  1
  In  In22  1  0.46951492  0.36775216  0.84023322  1
  In  In23  1  0.63379028  0.32270175  0.65383254  1
  In  In24  1  0.51322398  0.84476375  0.00239767  1
  In  In25  1  -0.00211212  0.83079368  0.50082045  1
  In  In26  1  0.14832897  0.48667876  0.02390277  1
  In  In27  1  0.30703928  -0.00919416  0.68247208  1
  In  In28  1  0.65812184  0.16334166  0.16279397  1
  In  In29  1  0.69575638  0.33866107  0.00282787  1
  In  In30  1  0.79729530  0.85161070  0.63754192  1
  In  In31  1  0.01144175  -0.00443350  0.31917124  1
  In  In32  1  0.35089017  0.83013333  0.17068666  1
  In  In33  1  0.32574517  0.66202894  0.32721302  1
  In  In34  1  0.31864468  0.32338991  0.01001786  1
  In  In35  1  0.81842232  0.51074874  0.64798676  1
  In  In36  1  0.31484838  0.48467813  0.80245079  1
  In  In37  1  0.67638047  0.16045593  0.79944792  1
  In  In38  1  0.85625029  0.84701589  0.31733765  1
  In  In39  1  0.68863269  -0.01782335  -0.00572199  1
  In  In40  1  0.49339273  0.16454718  0.00798394  1
  In  In41  1  0.18702276  0.80711970  0.68328996  1
  In  In42  1  0.19030641  0.46976296  0.32259776  1
  In  In43  1  0.65412867  0.34480541  0.34609700  1
  In  In44  1  0.68025274  -0.01866841  0.33846852  1
  In  In45  1  0.12503831  0.65234625  0.49569270  1
  In  In46  1  0.50936938  0.00245590  0.82076965  1
  In  In47  1  0.02223043  0.49297562  0.85319289  1
  In  In48  1  0.49804354  0.50257759  0.02159845  1
  In  In49  1  0.33082940  0.64481559  0.67490537  1
  In  In50  1  0.33549181  0.84594173  0.49446696  1
  In  In51  1  0.53079368  0.00991527  0.49630336  1
  In  In52  1  0.16378888  0.66933000  0.14419241  1
  In  In53  1  0.14872899  0.83514513  0.00439498  1
  In  In54  1  0.35494636  0.82621067  0.85785287  1
  In  In55  1  -0.00177439  0.64926407  0.66248974  1
  In  In56  1  0.85550156  0.84809133  0.01868225  1
  In  In57  1  0.15336088  0.00977367  0.48673665  1
  In  In58  1  0.16273500  -0.00846422  0.16296467  1
  In  In59  1  0.82131498  0.33044485  0.48806937  1
  In  In60  1  0.14446746  0.16155510  0.67529063  1
  In  In61  1  0.84067747  0.15185703  0.66066643  1
  In  In62  1  0.49994542  0.68516693  0.50135106  1
  In  In63  1  0.00373951  0.85310160  0.84329997  1
  In  In64  1  0.32028957  0.64615098  -0.00872301  1
  In  In65  1  -0.00246416  0.17575230  0.17218714  1
  In  In66  1  0.48920360  0.49688078  0.67856883  1
  In  In67  1  0.49478095  0.14872778  0.65612437  1
  In  In68  1  0.50283179  0.68019049  0.84257121  1
  In  In69  1  0.14838284  0.27238644  0.85831550  1
  In  In70  1  0.29393834  0.05213746  -0.00152434  1
  In  In71  1  0.83913746  0.68165140  0.18362959  1
  Te  Te72  1  0.07270922  0.08038264  0.08546702  1
  Te  Te73  1  0.09144689  0.09951245  0.38805289  1
  Te  Te74  1  0.08502886  0.04587293  0.74605634  1
  Te  Te75  1  0.07221395  0.38822014  0.10489516  1
  Te  Te76  1  0.10380637  0.40705495  0.42972307  1
  Te  Te77  1  0.09599287  0.39095665  0.76959393  1
  Te  Te78  1  0.06175382  0.76830117  0.10331169  1
  Te  Te79  1  0.05950785  0.74236386  0.39799095  1
  Te  Te80  1  0.07154310  0.74289976  0.75674182  1
  Te  Te81  1  0.40406426  0.08493088  0.09937724  1
  Te  Te82  1  0.41756250  0.08511897  0.42717023  1
  Te  Te83  1  0.39966312  0.08570615  0.75744990  1
  Te  Te84  1  0.41322664  0.40382680  0.09850833  1
  Te  Te85  1  0.40188039  0.43431995  0.42888382  1
  Te  Te86  1  0.38039346  0.38730552  0.70294382  1
  Te  Te87  1  0.41732654  0.73684162  0.06429628  1
  Te  Te88  1  0.41667175  0.76098940  0.39815862  1
  Te  Te89  1  0.41705300  0.76279864  0.73304812  1
  Te  Te90  1  0.75502972  0.10012805  0.06751295  1
  Te  Te91  1  0.74995143  0.06730004  0.43804272  1
  Te  Te92  1  0.78116931  0.06564099  0.76549417  1
  Te  Te93  1  0.76369860  0.43607801  0.09639872  1
  Te  Te94  1  0.73045917  0.43292892  0.43395682  1
  Te  Te95  1  0.74174565  0.40079630  0.74249676  1
  Te  Te96  1  0.75994287  0.75944718  0.08731687  1
  Te  Te97  1  0.77068404  0.76864559  0.41625558  1
  Te  Te98  1  0.73989612  0.74322420  0.71944604  1
  Te  Te99  1  0.08883380  0.27625215  0.23433920  1
  Te  Te100  1  0.08266497  0.25354825  0.57249536  1
  Te  Te101  1  0.04956186  0.18313100  0.93820077  1
  Te  Te102  1  0.10493761  0.57089059  0.24577082  1
  Te  Te103  1  0.09751942  0.55897530  0.60463231  1
  Te  Te104  1  0.08316797  0.58982819  0.94326191  1
  Te  Te105  1  0.07164260  0.89461549  0.22806585  1
  Te  Te106  1  0.10650665  0.89496636  0.58793817  1
  Te  Te107  1  0.06465445  0.94309574  0.94542491  1
  Te  Te108  1  0.34265886  0.28971786  0.30992093  1
  Te  Te109  1  0.40801286  0.22915033  0.57068586  1
  Te  Te110  1  0.40825111  0.24744237  0.91408191  1
  Te  Te111  1  0.41710955  0.58833202  0.23135230  1
  Te  Te112  1  0.41613908  0.57827580  0.57055992  1
  Te  Te113  1  0.41682533  0.56571185  0.89704042  1
  Te  Te114  1  0.42538363  0.91876664  0.25883689  1
  Te  Te115  1  0.41633485  0.93466710  0.58815486  1
  Te  Te116  1  0.41686693  0.94633181  0.92815939  1
  Te  Te117  1  0.74095816  0.26523917  0.24540631  1
  Te  Te118  1  0.74074801  0.24333830  0.58468432  1
  Te  Te119  1  0.76099541  0.24274085  0.90430033  1
  Te  Te120  1  0.74870136  0.59042569  0.25591803  1
  Te  Te121  1  0.73998647  0.58745240  0.55231855  1
  Te  Te122  1  0.75700651  0.59612568  0.91081578  1
  Te  Te123  1  0.76643260  0.92590397  0.22573734  1
  Te  Te124  1  0.73430455  0.97146426  0.58056339  1
  Te  Te125  1  0.79683708  0.93122738  0.91098327  1
  Te  Te126  1  0.23544006  0.23006988  0.08603174  1
  Te  Te127  1  0.24236201  0.22115812  0.40347302  1
  Te  Te128  1  0.24601762  0.23324957  0.75520919  1
  Te  Te129  1  0.26053543  0.55960513  0.09775276  1
  Te  Te130  1  0.23793938  0.58147714  0.41847777  1
  Te  Te131  1  0.22266115  0.58857885  0.75568797  1
  Te  Te132  1  0.26580841  0.91303436  0.06743883  1
  Te  Te133  1  0.22734372  0.90370234  0.40547700  1
  Te  Te134  1  0.24259941  0.90550090  0.78915785  1
  Te  Te135  1  0.57982365  0.26886343  0.08009142  1
  Te  Te136  1  0.58449921  0.23600488  0.42471040  1
  Te  Te137  1  0.55682766  0.25886780  0.76724193  1
  Te  Te138  1  0.60131806  0.59618872  0.06057438  1
  Te  Te139  1  0.58059834  0.60740320  0.39945589  1
  Te  Te140  1  0.58097186  0.60544078  0.73449652  1
  Te  Te141  1  0.58844481  0.93429492  0.08995963  1
  Te  Te142  1  0.59002178  0.89701627  0.42260220  1
  Te  Te143  1  0.61168521  0.90471816  0.78067613  1
  Te  Te144  1  0.89709123  0.25549656  0.08946097  1
  Te  Te145  1  0.90634873  0.24513344  0.39605168  1
  Te  Te146  1  0.93569098  0.23456995  0.75203471  1
  Te  Te147  1  0.92760649  0.59149695  0.08735884  1
  Te  Te148  1  0.95012803  0.55727130  0.41443924  1
  Te  Te149  1  0.91304946  0.55555382  0.76030744  1
  Te  Te150  1  0.89528519  0.92219065  0.14153162  1
  Te  Te151  1  0.91979106  0.93521473  0.42576143  1
  Te  Te152  1  0.90999613  0.89799797  0.73162972  1
  Te  Te153  1  0.23994817  0.08289949  0.25556928  1
  Te  Te154  1  0.24438103  0.08371619  0.58183153  1
  Te  Te155  1  0.21185093  0.13851472  0.90981556  1
  Te  Te156  1  0.28379363  0.40677933  0.22852986  1
  Te  Te157  1  0.27334412  0.41738809  0.59524520  1
  Te  Te158  1  0.24266468  0.41910683  0.91995346  1
  Te  Te159  1  0.24115678  0.75619374  0.24392682  1
  Te  Te160  1  0.25710205  0.73639830  0.56681608  1
  Te  Te161  1  0.23829245  0.74354796  0.91378293  1
  Te  Te162  1  0.58234412  0.07470979  0.25822906  1
  Te  Te163  1  0.61065756  0.06284853  0.61290234  1
  Te  Te164  1  0.59265446  0.09487080  0.91670266  1
  Te  Te165  1  0.57770552  0.42238212  0.24120475  1
  Te  Te166  1  0.57595105  0.43221306  0.57149934  1
  Te  Te167  1  0.59758514  0.42462118  0.91950986  1
  Te  Te168  1  0.60169985  0.78293739  0.22035393  1
  Te  Te169  1  0.59431068  0.78862802  0.55298728  1
  Te  Te170  1  0.59776634  0.77348069  0.90376156  1
  Te  Te171  1  0.90173382  0.07369426  0.23472842  1
  Te  Te172  1  0.93460080  0.10048490  0.56022553  1
  Te  Te173  1  0.96444307  0.07191845  0.88640184  1
  Te  Te174  1  0.90079087  0.46208925  0.30477644  1
  Te  Te175  1  0.91338141  0.42060428  0.57102372  1
  Te  Te176  1  0.94106123  0.39557083  0.93892496  1
  Te  Te177  1  0.93797209  0.72634129  0.28664934  1
  Te  Te178  1  0.90799322  0.74076876  0.58381956  1
  Te  Te179  1  0.92573380  0.74717646  0.91912295  1
