# generated using pymatgen
data_In2Te3
_symmetry_space_group_name_H-M   'P 1'
_cell_length_a   18.82009520
_cell_length_b   18.82146336
_cell_length_c   18.81304093
_cell_angle_alpha   89.91065731
_cell_angle_beta   89.94651333
_cell_angle_gamma   89.94995716
_symmetry_Int_Tables_number   1
_chemical_formula_structural   In2Te3
_chemical_formula_sum   'In72 Te108'
_cell_volume   6663.97440933
_cell_formula_units_Z   36
loop_
 _symmetry_equiv_pos_site_id
 _symmetry_equiv_pos_as_xyz
  1  'x, y, z'
loop_
 _atom_site_type_symbol
 _atom_site_label
 _atom_site_symmetry_multiplicity
 _atom_site_fract_x
 _atom_site_fract_y
 _atom_site_fract_z
 _atom_site_occupancy
  In  In0  1  0.16518979  0.65431222  0.48782587  1
  In  In1  1  0.32808247  0.36921796  0.63242912  1
  In  In2  1  0.34933225  0.48866903  0.81373573  1
  In  In3  1  0.82906391  0.32538422  0.17212777  1
  In  In4  1  0.32407868  0.64208994  0.34813321  1
  In  In5  1  0.17384622  0.00047631  0.17768846  1
  In  In6  1  -0.00116596  0.17009252  0.51247165  1
  In  In7  1  0.02748406  -0.00458950  -0.00445547  1
  In  In8  1  0.18516532  -0.01370455  0.81447551  1
  In  In9  1  0.65970898  0.34406648  -0.00725887  1
  In  In10  1  0.00429463  0.33062990  0.66809738  1
  In  In11  1  0.35519179  0.17716235  0.49476303  1
  In  In12  1  0.50341031  0.17317135  -0.00884300  1
  In  In13  1  0.83516803  -0.00217785  0.51569253  1
  In  In14  1  0.51426040  0.49400096  0.36222108  1
  In  In15  1  0.01628943  0.50285981  0.50367455  1
  In  In16  1  0.83322774  0.65731039  0.81741010  1
  In  In17  1  0.46615894  0.66669974  0.53216273  1
  In  In18  1  0.02242234  0.52373917  0.17302283  1
  In  In19  1  0.33876582  -0.00973125  0.33687541  1
  In  In20  1  0.34021408  0.81928842  0.19127866  1
  In  In21  1  0.83078452  0.16886855  0.30609035  1
  In  In22  1  0.82908983  0.64357341  0.49934516  1
  In  In23  1  0.16091175  0.01561470  0.50733832  1
  In  In24  1  0.49596593  0.66940398  0.18380542  1
  In  In25  1  0.48856116  0.17742656  0.32844253  1
  In  In26  1  0.65350934  0.67744455  0.33198043  1
  In  In27  1  0.16869082  0.51257397  0.01197661  1
  In  In28  1  0.33957257  0.17047838  0.84829867  1
  In  In29  1  0.50319547  0.01456376  0.15363398  1
  In  In30  1  0.17737775  0.17562871  0.66216166  1
  In  In31  1  0.81565080  0.81488292  0.00015875  1
  In  In32  1  -0.01759873  0.65620398  -0.01041793  1
  In  In33  1  0.17692945  0.63566087  0.81583440  1
  In  In34  1  0.82715529  0.19401792  -0.00736630  1
  In  In35  1  0.50047769  0.64693484  0.80665250  1
  In  In36  1  0.84449619  0.82218788  0.32358833  1
  In  In37  1  0.79340923  0.32073335  0.50556146  1
  In  In38  1  -0.03778433  0.37427679  0.00057823  1
  In  In39  1  0.83151302  0.00488267  0.17749112  1
  In  In40  1  0.51610651  0.00715973  0.83101087  1
  In  In41  1  0.82633702  0.49461216  0.67183162  1
  In  In42  1  0.51660251  0.17292907  0.69728312  1
  In  In43  1  0.32395915  0.36672035  0.32863434  1
  In  In44  1  0.66920412  0.18481933  0.17244687  1
  In  In45  1  0.16412802  0.83368312  -0.00692906  1
  In  In46  1  0.65423179  0.49211361  0.18316534  1
  In  In47  1  0.65944402  0.53440531  0.81513363  1
  In  In48  1  0.81615203  0.19845963  0.65432432  1
  In  In49  1  0.66529521  -0.01127541  0.66431973  1
  In  In50  1  0.17303214  0.82108065  0.33017051  1
  In  In51  1  0.01742801  0.34674725  0.35070470  1
  In  In52  1  -0.00360732  0.81972455  0.16495079  1
  In  In53  1  -0.01079906  0.82483310  0.49630922  1
  In  In54  1  -0.00459031  0.17212974  0.82403313  1
  In  In55  1  0.69846955  0.65924845  -0.01358291  1
  In  In56  1  0.82843023  0.81423885  0.67427220  1
  In  In57  1  0.18654930  0.19597406  0.01958103  1
  In  In58  1  0.15186579  0.35205440  0.82488477  1
  In  In59  1  0.50641027  0.82730358  0.01575745  1
  In  In60  1  0.67983954  0.82576812  0.81980057  1
  In  In61  1  0.33800655  0.31903059  0.01445319  1
  In  In62  1  0.36897283  0.82678438  0.51020555  1
  In  In63  1  0.16671274  0.81109975  0.65642272  1
  In  In64  1  0.81807453  0.48608098  0.35536417  1
  In  In65  1  0.32261321  0.80042029  0.81564603  1
  In  In66  1  0.83060399  -0.01121852  0.81892819  1
  In  In67  1  0.48194474  0.50266762  0.00448901  1
  In  In68  1  0.16329753  0.18116822  0.33621105  1
  In  In69  1  0.64834366  -0.02815205  0.37216424  1
  In  In70  1  0.36382555  0.00426665  -0.00066849  1
  In  In71  1  0.66944665  0.18487800  0.50558380  1
  Te  Te72  1  0.09124521  0.09416515  0.09080300  1
  Te  Te73  1  0.06863106  0.08305046  0.40811452  1
  Te  Te74  1  0.08717644  0.08193650  0.74199026  1
  Te  Te75  1  0.08054735  0.41112669  0.08624389  1
  Te  Te76  1  0.11785908  0.43624064  0.41488353  1
  Te  Te77  1  0.08417956  0.43933182  0.72881060  1
  Te  Te78  1  0.08619141  0.73335089  0.07727774  1
  Te  Te79  1  0.06812208  0.73597735  0.40017341  1
  Te  Te80  1  0.08788478  0.73695670  0.75569792  1
  Te  Te81  1  0.40333725  0.11446538  0.09405312  1
  Te  Te82  1  0.43542097  0.06825243  0.42400756  1
  Te  Te83  1  0.40692426  0.07611080  0.75023890  1
  Te  Te84  1  0.41943678  0.40946826  0.09867532  1
  Te  Te85  1  0.41096348  0.41522280  0.44631526  1
  Te  Te86  1  0.44105464  0.41180925  0.72329896  1
  Te  Te87  1  0.40271351  0.73592713  0.07961766  1
  Te  Te88  1  0.42507425  0.74360403  0.39691956  1
  Te  Te89  1  0.42800270  0.74802084  0.72713200  1
  Te  Te90  1  0.75119059  0.09422237  0.08186159  1
  Te  Te91  1  0.75458068  0.08504767  0.41801320  1
  Te  Te92  1  0.74643528  0.09046073  0.74378246  1
  Te  Te93  1  0.75161779  0.42333856  0.08555907  1
  Te  Te94  1  0.70999531  0.43151123  0.44444636  1
  Te  Te95  1  0.72808072  0.41662714  0.75419438  1
  Te  Te96  1  0.73757761  0.74263782  0.10112646  1
  Te  Te97  1  0.75263852  0.75180000  0.42273868  1
  Te  Te98  1  0.72348636  0.71427848  0.72670788  1
  Te  Te99  1  0.08059822  0.26417056  0.24644904  1
  Te  Te100  1  0.10171227  0.26707108  0.56692446  1
  Te  Te101  1  0.08125677  0.25505453  0.91910468  1
  Te  Te102  1  0.13253505  0.56634049  0.26248766  1
  Te  Te103  1  0.07970476  0.59891212  0.59579062  1
  Te  Te104  1  0.07235277  0.56459195  0.90680273  1
  Te  Te105  1  0.07699158  0.91397212  0.25625902  1
  Te  Te106  1  0.07605347  0.91508621  0.58435707  1
  Te  Te107  1  0.07914494  0.90189789  0.88619186  1
  Te  Te108  1  0.40051138  0.26753072  0.25018801  1
  Te  Te109  1  0.43157706  0.25644669  0.59890226  1
  Te  Te110  1  0.43636481  0.27342453  0.89853750  1
  Te  Te111  1  0.41813502  0.56338154  0.25640692  1
  Te  Te112  1  0.41990773  0.55665425  0.62872954  1
  Te  Te113  1  0.40238820  0.59360760  0.91206518  1
  Te  Te114  1  0.44079179  0.91349915  0.25351361  1
  Te  Te115  1  0.46374660  0.92094277  0.57122027  1
  Te  Te116  1  0.41408371  0.89877206  0.90441723  1
  Te  Te117  1  0.72862563  0.27884235  0.27749617  1
  Te  Te118  1  0.69211422  0.29240768  0.62519690  1
  Te  Te119  1  0.72869823  0.25096916  0.89823090  1
  Te  Te120  1  0.74961646  0.58301353  0.25857375  1
  Te  Te121  1  0.73289681  0.56733301  0.58155956  1
  Te  Te122  1  0.78472632  0.54996972  0.92167635  1
  Te  Te123  1  0.74052143  0.91591906  0.26060046  1
  Te  Te124  1  0.74275338  0.89329457  0.57451611  1
  Te  Te125  1  0.73856898  0.92244415  0.92115245  1
  Te  Te126  1  0.24286138  0.28158642  0.12404152  1
  Te  Te127  1  0.25439865  0.26478603  0.42387892  1
  Te  Te128  1  0.26213065  0.26580686  0.75151214  1
  Te  Te129  1  0.25819248  0.55930582  0.11771229  1
  Te  Te130  1  0.27570485  0.55039644  0.46023415  1
  Te  Te131  1  0.27850957  0.58060553  0.71875375  1
  Te  Te132  1  0.26244907  0.91308292  0.08647894  1
  Te  Te133  1  0.24730941  0.90864811  0.43091893  1
  Te  Te134  1  0.27029758  0.90848407  0.71802290  1
  Te  Te135  1  0.57136817  0.26748549  0.09165760  1
  Te  Te136  1  0.57377984  0.25919800  0.41955854  1
  Te  Te137  1  0.61725694  0.26051696  0.75967894  1
  Te  Te138  1  0.58698591  0.59074861  0.07730853  1
  Te  Te139  1  0.57959464  0.60812177  0.44391273  1
  Te  Te140  1  0.56292895  0.56026827  0.69763892  1
  Te  Te141  1  0.59336612  0.92997604  0.07341728  1
  Te  Te142  1  0.56235274  0.87921827  0.45893169  1
  Te  Te143  1  0.56981433  0.89650323  0.74163293  1
  Te  Te144  1  0.93044220  0.24908045  0.08795741  1
  Te  Te145  1  0.90646017  0.24933166  0.42006431  1
  Te  Te146  1  0.89902097  0.27175151  0.76228975  1
  Te  Te147  1  0.91102961  0.58153025  0.09517624  1
  Te  Te148  1  0.92864996  0.57910286  0.40318629  1
  Te  Te149  1  0.92924734  0.56944128  0.74743851  1
  Te  Te150  1  0.91814075  0.91753814  0.07194191  1
  Te  Te151  1  0.91856908  0.92799675  0.40879072  1
  Te  Te152  1  0.92100034  0.91218382  0.73311110  1
  Te  Te153  1  0.26378241  0.09451966  0.25571973  1
  Te  Te154  1  0.27171668  0.08354511  0.58533932  1
  Te  Te155  1  0.23981312  0.07594153  0.92743932  1
  Te  Te156  1  0.23853897  0.46060013  0.23634516  1
  Te  Te157  1  0.22313830  0.44209587  0.55919320  1
  Te  Te158  1  0.25563743  0.41607105  0.91822901  1
  Te  Te159  1  0.23650746  0.71937127  0.23824470  1
  Te  Te160  1  0.26726843  0.73324701  0.57341272  1
  Te  Te161  1  0.24563037  0.72580520  0.92405165  1
  Te  Te162  1  0.59657907  0.08027904  0.25921047  1
  Te  Te163  1  0.58117665  0.08866006  0.58530613  1
  Te  Te164  1  0.59826808  0.08195995  0.92561927  1
  Te  Te165  1  0.56833869  0.40073975  0.25764671  1
  Te  Te166  1  0.55556446  0.42382674  0.49784369  1
  Te  Te167  1  0.57733805  0.43855340  0.90542163  1
  Te  Te168  1  0.58461116  0.77175388  0.24077675  1
  Te  Te169  1  0.56739432  0.76918905  0.56856271  1
  Te  Te170  1  0.58647906  0.73835416  0.91187567  1
  Te  Te171  1  0.93409997  0.08751430  0.24118595  1
  Te  Te172  1  0.91484722  0.08834689  0.60866275  1
  Te  Te173  1  0.91690043  0.07979290  0.91952342  1
  Te  Te174  1  0.91733297  0.42088863  0.25438994  1
  Te  Te175  1  0.90909160  0.40327227  0.56459200  1
  Te  Te176  1  0.89335084  0.43972907  0.89164256  1
  Te  Te177  1  0.91879742  0.72276779  0.24332736  1
  Te  Te178  1  0.92096309  0.72639698  0.58995918  1
  Te  Te179  1  0.91313252  0.75951118  0.89894812  1
