# generated using pymatgen
data_In2Te3
_symmetry_space_group_name_H-M   'P 1'
_cell_length_a   18.80099785
_cell_length_b   18.80131787
_cell_length_c   18.79872865
_cell_angle_alpha   90.05211836
_cell_angle_beta   90.01418885
_cell_angle_gamma   90.11237876
_symmetry_Int_Tables_number   1
_chemical_formula_structural   In2Te3
_chemical_formula_sum   'In72 Te108'
_cell_volume   6645.02535371
_cell_formula_units_Z   36
loop_
 _symmetry_equiv_pos_site_id
 _symmetry_equiv_pos_as_xyz
  1  'x, y, z'
loop_
 _atom_site_type_symbol
 _atom_site_label
 _atom_site_symmetry_multiplicity
 _atom_site_fract_x
 _atom_site_fract_y
 _atom_site_fract_z
 _atom_site_occupancy
  In  In0  1  0.33446667  0.85557182  0.85044276  1
  In  In1  1  0.13597621  0.14648317  0.67282225  1
  In  In2  1  0.65545417  0.82127442  0.82047166  1
  In  In3  1  0.15428408  0.64022470  0.15421676  1
  In  In4  1  -0.00120911  0.50283016  0.82389824  1
  In  In5  1  0.16724885  0.83761204  -0.01422413  1
  In  In6  1  0.00466504  0.83474915  0.82883387  1
  In  In7  1  0.87457561  0.15399027  0.64236327  1
  In  In8  1  0.82290239  -0.03109451  0.18588345  1
  In  In9  1  0.66138849  0.68605121  0.33745738  1
  In  In10  1  0.65489727  0.16930300  0.18851581  1
  In  In11  1  0.49557477  0.17367498  0.31960098  1
  In  In12  1  0.35088566  0.80833054  0.17226294  1
  In  In13  1  0.83301259  0.84250602  0.66271528  1
  In  In14  1  0.31913065  0.84846355  0.52529462  1
  In  In15  1  0.67078763  0.65596777  0.67688232  1
  In  In16  1  0.48149455  0.16760722  0.00839216  1
  In  In17  1  0.33443751  0.01339778  0.66470090  1
  In  In18  1  0.32856624  0.18957949  0.49950397  1
  In  In19  1  0.49949028  0.66973754  0.84232779  1
  In  In20  1  0.00010476  0.67668460  0.31088214  1
  In  In21  1  0.67193128  0.83387958  0.49293068  1
  In  In22  1  0.82739946  0.32871373  0.14366968  1
  In  In23  1  0.85330919  0.35244930  0.83657830  1
  In  In24  1  0.67142126  0.15946295  0.49953641  1
  In  In25  1  0.18099011  0.01152307  0.17780112  1
  In  In26  1  0.16104539  0.48629901  -0.00556036  1
  In  In27  1  0.85753653  0.15544911  0.36665797  1
  In  In28  1  0.82885794  0.51324370  0.00058204  1
  In  In29  1  0.33624724  0.33378946  0.01030229  1
  In  In30  1  0.51966792  0.65445684  0.16045356  1
  In  In31  1  0.83973482  0.31364070  0.47599046  1
  In  In32  1  0.66149599  0.18372963  0.81513754  1
  In  In33  1  0.32832850  0.63871713  0.34625842  1
  In  In34  1  0.80959670  0.81782931  0.03781713  1
  In  In35  1  0.33839248  0.32032130  0.67327785  1
  In  In36  1  0.16738391  0.49808990  0.65504398  1
  In  In37  1  0.01547122  0.16907287  0.17210592  1
  In  In38  1  0.83374219  0.51087014  0.68142312  1
  In  In39  1  -0.01494871  0.85365397  0.16542142  1
  In  In40  1  0.65818661  0.50949027  0.85455865  1
  In  In41  1  0.01548578  0.48533734  0.16042114  1
  In  In42  1  0.65151057  0.33515233  0.32722454  1
  In  In43  1  0.34621911  0.01055922  -0.00383840  1
  In  In44  1  0.67261830  0.00941669  -0.00058272  1
  In  In45  1  0.01836669  0.33488211  0.32489533  1
  In  In46  1  0.80513879  0.50872664  0.33152175  1
  In  In47  1  0.31864730  0.65744864  0.01833001  1
  In  In48  1  0.01771793  0.32486698  0.65209639  1
  In  In49  1  0.15683034  0.83177821  0.66538454  1
  In  In50  1  0.34043269  0.64166946  0.64102674  1
  In  In51  1  -0.01326691  0.65455284  -0.00592681  1
  In  In52  1  0.85555687  0.00228006  0.83825378  1
  In  In53  1  0.49444790  0.84389206  0.66867516  1
  In  In54  1  -0.01055399  0.85984483  0.49083356  1
  In  In55  1  0.66576723  -0.00112906  0.65634080  1
  In  In56  1  0.49043338  0.49614019  0.34295729  1
  In  In57  1  0.47002534  0.65447758  0.50580887  1
  In  In58  1  0.01009698  0.49304960  0.49784395  1
  In  In59  1  0.82292740  0.68603688  0.50002855  1
  In  In60  1  0.15873155  0.83696005  0.34319224  1
  In  In61  1  0.15299608  0.18983531  -0.01234680  1
  In  In62  1  0.67458721  0.34850369  -0.01775034  1
  In  In63  1  0.32544884  0.01684241  0.33246611  1
  In  In64  1  0.86603440  0.14607374  -0.00363103  1
  In  In65  1  0.48746439  0.33967368  0.17902445  1
  In  In66  1  0.51276230  0.01256725  0.15109342  1
  In  In67  1  0.31908698  0.47615652  0.47323446  1
  In  In68  1  0.33392118  0.49010437  0.83483223  1
  In  In69  1  0.33190955  0.16200383  0.82703210  1
  In  In70  1  0.63735147  0.34890433  0.63810156  1
  In  In71  1  0.51722347  0.83985460  0.35044974  1
  Te  Te72  1  0.08786204  0.07468131  0.07706566  1
  Te  Te73  1  0.04212154  0.02149882  0.43984462  1
  Te  Te74  1  0.05629729  0.06241902  0.76409054  1
  Te  Te75  1  0.10086624  0.38888149  0.08959076  1
  Te  Te76  1  0.10993813  0.41306154  0.41911731  1
  Te  Te77  1  0.09403870  0.40665251  0.75548767  1
  Te  Te78  1  0.07939457  0.75427774  0.08466354  1
  Te  Te79  1  0.07354103  0.74307207  0.42597299  1
  Te  Te80  1  0.08750569  0.73722739  0.75516358  1
  Te  Te81  1  0.39294623  0.09863975  0.11239088  1
  Te  Te82  1  0.42116209  0.09048545  0.42381473  1
  Te  Te83  1  0.42945414  0.07573111  0.75815049  1
  Te  Te84  1  0.43282897  0.42754500  0.07470921  1
  Te  Te85  1  0.41080923  0.38287426  0.39927856  1
  Te  Te86  1  0.42679494  0.41078719  0.75233042  1
  Te  Te87  1  0.43474829  0.74626838  0.06457224  1
  Te  Te88  1  0.39884947  0.76306328  0.41357352  1
  Te  Te89  1  0.40296695  0.74743605  0.74212227  1
  Te  Te90  1  0.75544242  0.09821005  0.09488693  1
  Te  Te91  1  0.74922682  0.06746315  0.41367739  1
  Te  Te92  1  0.76424510  0.08702249  0.74856107  1
  Te  Te93  1  0.73344019  0.43653253  0.09336854  1
  Te  Te94  1  0.73488822  0.41470976  0.42924094  1
  Te  Te95  1  0.73938105  0.41043609  0.75254202  1
  Te  Te96  1  0.73060344  0.70202151  0.08711159  1
  Te  Te97  1  0.77693815  0.78567496  0.38995809  1
  Te  Te98  1  0.76854356  0.74155523  0.75682801  1
  Te  Te99  1  0.11502601  0.26023606  0.23835584  1
  Te  Te100  1  0.09544524  0.23770284  0.56117917  1
  Te  Te101  1  0.05017181  0.23047477  0.89003465  1
  Te  Te102  1  0.09240712  0.56226345  0.26936320  1
  Te  Te103  1  0.05868735  0.58386711  0.60256888  1
  Te  Te104  1  0.09544904  0.59329278  0.90939610  1
  Te  Te105  1  0.07534389  0.93247004  0.25873179  1
  Te  Te106  1  0.09015816  0.93343301  0.57687961  1
  Te  Te107  1  0.09048317  0.93165496  0.90381467  1
  Te  Te108  1  0.39059068  0.25414160  0.25095778  1
  Te  Te109  1  0.43306938  0.23867966  0.59216378  1
  Te  Te110  1  0.42103463  0.25912811  0.90507399  1
  Te  Te111  1  0.41002175  0.57474537  0.23786171  1
  Te  Te112  1  0.42788031  0.52572376  0.58529662  1
  Te  Te113  1  0.41629816  0.57705111  0.93070929  1
  Te  Te114  1  0.41689562  0.92082032  0.25208148  1
  Te  Te115  1  0.43247491  0.93935396  0.56900722  1
  Te  Te116  1  0.43979606  0.91666410  0.93228665  1
  Te  Te117  1  0.76496429  0.25139042  0.26356798  1
  Te  Te118  1  0.76085194  0.25066279  0.59597032  1
  Te  Te119  1  0.76942067  0.24235875  0.91994074  1
  Te  Te120  1  0.74230948  0.60687944  0.23994772  1
  Te  Te121  1  0.74618094  0.57485883  0.57236485  1
  Te  Te122  1  0.76211710  0.60190066  0.90356648  1
  Te  Te123  1  0.73813900  0.87910096  0.26337452  1
  Te  Te124  1  0.76691992  0.93428220  0.56267956  1
  Te  Te125  1  0.75247722  0.91354020  0.90761000  1
  Te  Te126  1  0.24947696  0.24162986  0.08701531  1
  Te  Te127  1  0.27266841  0.28299225  0.38927720  1
  Te  Te128  1  0.22971520  0.24241118  0.75005173  1
  Te  Te129  1  0.25753826  0.54341789  0.10078064  1
  Te  Te130  1  0.22865846  0.58914026  0.44050069  1
  Te  Te131  1  0.24973613  0.58575617  0.75061971  1
  Te  Te132  1  0.26032668  0.90496935  0.09016075  1
  Te  Te133  1  0.23802795  0.93410601  0.42960432  1
  Te  Te134  1  0.24392624  0.92653502  0.75224353  1
  Te  Te135  1  0.58926644  0.25418110  0.08079742  1
  Te  Te136  1  0.57362588  0.25334673  0.42648948  1
  Te  Te137  1  0.56533411  0.26573806  0.73887302  1
  Te  Te138  1  0.61071705  0.60893684  0.05228405  1
  Te  Te139  1  0.58305525  0.58739398  0.42428448  1
  Te  Te140  1  0.56630655  0.57190220  0.74587109  1
  Te  Te141  1  0.59599114  0.91366531  0.08152005  1
  Te  Te142  1  0.58205652  0.93781781  0.43852019  1
  Te  Te143  1  0.57324489  0.93471558  0.76222180  1
  Te  Te144  1  0.93954013  0.25778280  0.07101029  1
  Te  Te145  1  0.96672229  0.23793356  0.43415288  1
  Te  Te146  1  0.92920034  0.24877573  0.75435007  1
  Te  Te147  1  0.91472492  0.58681074  0.10846182  1
  Te  Te148  1  0.91131140  0.58571139  0.41304731  1
  Te  Te149  1  0.91763216  0.60556534  0.75648741  1
  Te  Te150  1  0.90838102  0.93454266  0.06233828  1
  Te  Te151  1  0.91621343  0.95211149  0.40016944  1
  Te  Te152  1  0.93698339  0.93408280  0.72771185  1
  Te  Te153  1  0.21756317  0.10680195  0.28570988  1
  Te  Te154  1  0.24020503  0.08835988  0.57235771  1
  Te  Te155  1  0.23942833  0.07914851  0.91581438  1
  Te  Te156  1  0.22188690  0.39850819  0.30897735  1
  Te  Te157  1  0.24267363  0.39280528  0.57680159  1
  Te  Te158  1  0.23981204  0.39252518  0.90479442  1
  Te  Te159  1  0.23591058  0.74035260  0.24734831  1
  Te  Te160  1  0.23610086  0.73213158  0.57415880  1
  Te  Te161  1  0.25207908  0.73915581  0.90711799  1
  Te  Te162  1  0.59372067  0.06048665  0.27171913  1
  Te  Te163  1  0.57810755  0.10285858  0.60045344  1
  Te  Te164  1  0.58129403  0.09672935  0.91444563  1
  Te  Te165  1  0.58930028  0.43991963  0.23855137  1
  Te  Te166  1  0.56138804  0.44654425  0.56109047  1
  Te  Te167  1  0.56198377  0.41737347  0.91876804  1
  Te  Te168  1  0.58795882  0.77466218  0.23326075  1
  Te  Te169  1  0.58025416  0.74524932  0.58666674  1
  Te  Te170  1  0.59860328  0.73869515  0.93054567  1
  Te  Te171  1  0.91281657  0.08280062  0.24410296  1
  Te  Te172  1  0.93858342  0.05767324  0.55188307  1
  Te  Te173  1  0.96947544  0.09644504  0.89282450  1
  Te  Te174  1  0.90437240  0.41331855  0.25564846  1
  Te  Te175  1  0.90577386  0.41078561  0.58539170  1
  Te  Te176  1  0.93758772  0.42370472  0.94084411  1
  Te  Te177  1  0.90024062  0.75818085  0.23986115  1
  Te  Te178  1  0.92773216  0.75021284  0.58793352  1
  Te  Te179  1  0.90880792  0.76693755  0.93096266  1
