# generated using pymatgen
data_In2Te3
_symmetry_space_group_name_H-M   'P 1'
_cell_length_a   18.95012959
_cell_length_b   18.95833044
_cell_length_c   18.95222640
_cell_angle_alpha   89.94349049
_cell_angle_beta   90.17980244
_cell_angle_gamma   89.86912547
_symmetry_Int_Tables_number   1
_chemical_formula_structural   In2Te3
_chemical_formula_sum   'In72 Te108'
_cell_volume   6808.77562453
_cell_formula_units_Z   36
loop_
 _symmetry_equiv_pos_site_id
 _symmetry_equiv_pos_as_xyz
  1  'x, y, z'
loop_
 _atom_site_type_symbol
 _atom_site_label
 _atom_site_symmetry_multiplicity
 _atom_site_fract_x
 _atom_site_fract_y
 _atom_site_fract_z
 _atom_site_occupancy
  In  In0  1  -0.00803448  0.81396130  0.15421059  1
  In  In1  1  -0.00397691  0.49334165  0.19323079  1
  In  In2  1  0.35846623  0.49319435  0.81895159  1
  In  In3  1  0.51920438  0.16127549  -0.01216639  1
  In  In4  1  0.82938531  0.85540509  0.33212580  1
  In  In5  1  0.02468023  0.15769717  0.46854408  1
  In  In6  1  0.52257559  0.18203078  0.67296681  1
  In  In7  1  0.01121867  0.31582938  0.64928981  1
  In  In8  1  0.35367032  0.30461426  -0.00795067  1
  In  In9  1  0.85958965  0.64165610  0.46515157  1
  In  In10  1  0.33246468  0.49410680  0.17869350  1
  In  In11  1  0.00165595  0.17003509  0.83099193  1
  In  In12  1  0.51803666  0.47006044  0.68143624  1
  In  In13  1  -0.01739918  0.00568033  0.00332505  1
  In  In14  1  0.49870573  0.30602792  0.16418602  1
  In  In15  1  0.51818185  0.33307634  0.51617972  1
  In  In16  1  0.16356085  0.32313785  0.82922628  1
  In  In17  1  0.17166896  0.66282137  0.50774334  1
  In  In18  1  -0.00218884  0.34238560  0.34187123  1
  In  In19  1  0.49793782  0.67875579  0.50986053  1
  In  In20  1  0.49497835  0.17484866  0.34072531  1
  In  In21  1  0.34900411  0.65199699  0.68858443  1
  In  In22  1  0.14570790  0.49716744  0.35074237  1
  In  In23  1  0.52531748  0.02759962  0.83007369  1
  In  In24  1  0.49896664  0.66793052  0.84985043  1
  In  In25  1  0.30586484  0.19542672  0.47335831  1
  In  In26  1  0.31808327  0.14866006  0.17818729  1
  In  In27  1  0.32943505  0.01856137  0.62962396  1
  In  In28  1  0.48938488  0.50902573  0.33640778  1
  In  In29  1  0.15835816  0.47002668  0.01409462  1
  In  In30  1  0.49344816  0.83754211  0.32049672  1
  In  In31  1  0.32174754  0.82470641  0.17008049  1
  In  In32  1  0.16454713  0.83549843  0.33699039  1
  In  In33  1  0.16902137  0.15156263  -0.01110440  1
  In  In34  1  0.65970162  0.65830929  0.01704861  1
  In  In35  1  0.16605727  0.00022846  0.17967554  1
  In  In36  1  0.85065946  0.50801487  0.66338513  1
  In  In37  1  -0.01858032  0.84049684  0.82947197  1
  In  In38  1  0.66960485  0.00327438  0.66364486  1
  In  In39  1  0.67862859  0.34613266  0.35410904  1
  In  In40  1  0.49167923  -0.01547022  0.15907624  1
  In  In41  1  0.00945887  0.02537345  0.67511413  1
  In  In42  1  0.32176897  0.47279849  0.50014064  1
  In  In43  1  0.49706815  -0.00269593  0.47586169  1
  In  In44  1  0.67112438  0.67938353  0.66328460  1
  In  In45  1  0.84182937  0.85272051  -0.01782604  1
  In  In46  1  0.36275932  0.85570098  0.81102865  1
  In  In47  1  0.64643528  0.68930257  0.34684109  1
  In  In48  1  0.16389372  0.48452090  0.64640823  1
  In  In49  1  0.16799420  0.84300171  0.65548808  1
  In  In50  1  0.33256362  0.85332800  0.47646342  1
  In  In51  1  0.66959427  0.15200442  0.15170739  1
  In  In52  1  0.67561759  0.85190790  0.17576305  1
  In  In53  1  0.16714843  0.65481643  0.87713286  1
  In  In54  1  0.81804664  0.32227500  0.84866219  1
  In  In55  1  0.14771951  0.32199823  0.19394953  1
  In  In56  1  0.01570398  0.66881361  0.66442255  1
  In  In57  1  0.82882150  0.02020680  0.50695841  1
  In  In58  1  0.81672967  0.66031591  0.19445551  1
  In  In59  1  -0.01873987  0.84612900  0.50225848  1
  In  In60  1  0.33637789  0.17229672  0.85397807  1
  In  In61  1  0.65498829  0.46337491  0.85725741  1
  In  In62  1  0.81111609  0.30976775  0.53787038  1
  In  In63  1  0.68177191  0.49067569  0.16288089  1
  In  In64  1  0.83307501  0.67353334  0.82908677  1
  In  In65  1  0.85142482  0.32390736  0.17087137  1
  In  In66  1  0.83923909  0.14539933  0.32659494  1
  In  In67  1  0.31164971  0.65951171  0.00907306  1
  In  In68  1  0.83269575  0.00676117  0.80687546  1
  In  In69  1  0.13320630  0.87133853  0.01251430  1
  In  In70  1  0.51102961  0.83822937  0.00304449  1
  In  In71  1  0.85153687  0.49002299  0.00460780  1
  Te  Te72  1  0.07722436  0.08786329  0.09016285  1
  Te  Te73  1  0.11635140  0.06908932  0.39374618  1
  Te  Te74  1  0.10767274  0.10091666  0.75553029  1
  Te  Te75  1  0.05563404  0.39393537  0.09609292  1
  Te  Te76  1  0.10323717  0.38475012  0.44181668  1
  Te  Te77  1  0.07467563  0.41511472  0.74714949  1
  Te  Te78  1  0.09219480  0.74510966  0.07146999  1
  Te  Te79  1  0.07685941  0.75141470  0.42996522  1
  Te  Te80  1  0.09664900  0.75700221  0.76034796  1
  Te  Te81  1  0.41852186  0.09190142  0.07904648  1
  Te  Te82  1  0.39440242  0.08460856  0.40783133  1
  Te  Te83  1  0.41550457  0.08883531  0.74089391  1
  Te  Te84  1  0.41635240  0.40726957  0.08546898  1
  Te  Te85  1  0.42256044  0.39851129  0.41526849  1
  Te  Te86  1  0.39961634  0.39109026  0.72160044  1
  Te  Te87  1  0.41650785  0.74761437  0.07873980  1
  Te  Te88  1  0.40830632  0.74401824  0.40563418  1
  Te  Te89  1  0.44868628  0.75582871  0.73564954  1
  Te  Te90  1  0.78803536  0.09963902  0.08416576  1
  Te  Te91  1  0.73784094  0.09593783  0.41811364  1
  Te  Te92  1  0.76070930  0.10822908  0.72252536  1
  Te  Te93  1  0.75513194  0.39534003  0.07157186  1
  Te  Te94  1  0.74758230  0.42061249  0.46080462  1
  Te  Te95  1  0.75687052  0.42648776  0.75043842  1
  Te  Te96  1  0.76011104  0.75315192  0.08454856  1
  Te  Te97  1  0.76136028  0.75258309  0.42110622  1
  Te  Te98  1  0.75306440  0.76516309  0.75008383  1
  Te  Te99  1  0.04152721  0.23041634  0.24914729  1
  Te  Te100  1  0.10371685  0.22360412  0.57851250  1
  Te  Te101  1  0.07515299  0.25703148  0.93299327  1
  Te  Te102  1  0.06400548  0.59696272  0.27699516  1
  Te  Te103  1  0.06786587  0.56797645  0.56355892  1
  Te  Te104  1  0.07435848  0.55716087  0.92998858  1
  Te  Te105  1  0.06616384  0.91039232  0.24734527  1
  Te  Te106  1  0.08217007  0.93503948  0.57411397  1
  Te  Te107  1  0.07332990  0.94217248  0.89479113  1
  Te  Te108  1  0.39325366  0.25336285  0.25853859  1
  Te  Te109  1  0.42011467  0.23332071  0.57262903  1
  Te  Te110  1  0.46094258  0.26816217  0.88719892  1
  Te  Te111  1  0.41584092  0.59492043  0.24457363  1
  Te  Te112  1  0.41868798  0.56463948  0.58691913  1
  Te  Te113  1  0.41527836  0.57497194  0.93365904  1
  Te  Te114  1  0.38996483  0.92994453  0.25682961  1
  Te  Te115  1  0.42515544  0.91142606  0.57973140  1
  Te  Te116  1  0.43324311  0.93575987  0.91770510  1
  Te  Te117  1  0.73984000  0.25317327  0.25088798  1
  Te  Te118  1  0.72502602  0.22946195  0.62787962  1
  Te  Te119  1  0.69532357  0.24265048  0.87283186  1
  Te  Te120  1  0.72762807  0.57552368  0.28008510  1
  Te  Te121  1  0.76247690  0.59403098  0.57527459  1
  Te  Te122  1  0.74829326  0.57644834  0.92072250  1
  Te  Te123  1  0.74166174  0.94994383  0.26108029  1
  Te  Te124  1  0.75571290  0.91767149  0.57991301  1
  Te  Te125  1  0.74955610  0.92214110  0.89385888  1
  Te  Te126  1  0.24403057  0.25585840  0.08697028  1
  Te  Te127  1  0.21427961  0.28429114  0.40077134  1
  Te  Te128  1  0.24262778  0.22591729  0.75357770  1
  Te  Te129  1  0.22728070  0.57318581  0.10145635  1
  Te  Te130  1  0.25793741  0.58097576  0.41484292  1
  Te  Te131  1  0.23409338  0.57784920  0.75458600  1
  Te  Te132  1  0.25534595  0.92863172  0.07834456  1
  Te  Te133  1  0.22530643  0.94037407  0.42442476  1
  Te  Te134  1  0.25588830  0.93509459  0.73722639  1
  Te  Te135  1  0.60403613  0.26081971  0.06672660  1
  Te  Te136  1  0.60073994  0.23908241  0.42848354  1
  Te  Te137  1  0.62144027  0.27195552  0.73804341  1
  Te  Te138  1  0.57788464  0.56141060  0.08772427  1
  Te  Te139  1  0.58315571  0.57995882  0.43180293  1
  Te  Te140  1  0.58781016  0.57977129  0.76105667  1
  Te  Te141  1  0.60550143  0.93683872  0.06991179  1
  Te  Te142  1  0.58938146  0.91332286  0.39959056  1
  Te  Te143  1  0.58555220  0.92082405  0.75196556  1
  Te  Te144  1  0.88294258  0.21329729  0.07744093  1
  Te  Te145  1  0.90277751  0.25353484  0.42364873  1
  Te  Te146  1  0.91133868  0.25466281  0.74425582  1
  Te  Te147  1  0.91371035  0.58647692  0.10323155  1
  Te  Te148  1  0.93928415  0.55652286  0.37579176  1
  Te  Te149  1  0.93668119  0.58465555  0.76258866  1
  Te  Te150  1  0.90048952  0.92412224  0.10193827  1
  Te  Te151  1  0.92498961  0.94660681  0.40595855  1
  Te  Te152  1  0.91425566  0.91342788  0.71690524  1
  Te  Te153  1  0.21292685  0.10645502  0.27654647  1
  Te  Te154  1  0.22851027  0.10917817  0.56830476  1
  Te  Te155  1  0.26662887  0.06514094  0.92434028  1
  Te  Te156  1  0.24430767  0.41051381  0.27021553  1
  Te  Te157  1  0.26760320  0.38740116  0.60790898  1
  Te  Te158  1  0.26497564  0.41049793  0.91492556  1
  Te  Te159  1  0.24024442  0.74060641  0.25553465  1
  Te  Te160  1  0.26945824  0.74764644  0.59056638  1
  Te  Te161  1  0.27752571  0.75617072  0.89613946  1
  Te  Te162  1  0.56968894  0.08422925  0.24479972  1
  Te  Te163  1  0.57818402  0.08432914  0.57093648  1
  Te  Te164  1  0.63034980  0.09846800  0.91007882  1
  Te  Te165  1  0.57672198  0.40574459  0.25156762  1
  Te  Te166  1  0.61488209  0.42432601  0.58059613  1
  Te  Te167  1  0.53160651  0.40612040  0.90646820  1
  Te  Te168  1  0.57669473  0.74989404  0.22651722  1
  Te  Te169  1  0.59675270  0.76628542  0.57056730  1
  Te  Te170  1  0.60294490  0.75636361  0.91499875  1
  Te  Te171  1  0.94007472  0.11702551  0.22615355  1
  Te  Te172  1  0.92915822  0.10904485  0.57808482  1
  Te  Te173  1  0.89845453  0.09476768  0.91289665  1
  Te  Te174  1  0.88575016  0.43098606  0.27843467  1
  Te  Te175  1  0.92318092  0.41228163  0.57106563  1
  Te  Te176  1  0.92305909  0.40165766  0.91398398  1
  Te  Te177  1  0.91545350  0.74828387  0.26748701  1
  Te  Te178  1  0.91137766  0.73643120  0.57936076  1
  Te  Te179  1  0.92876808  0.74033402  0.92955813  1
