# generated using pymatgen
data_In2Te3
_symmetry_space_group_name_H-M   'P 1'
_cell_length_a   18.97531553
_cell_length_b   18.99604594
_cell_length_c   18.97607832
_cell_angle_alpha   89.90340239
_cell_angle_beta   90.01353361
_cell_angle_gamma   90.11087405
_symmetry_Int_Tables_number   1
_chemical_formula_structural   In2Te3
_chemical_formula_sum   'In72 Te108'
_cell_volume   6840.01792073
_cell_formula_units_Z   36
loop_
 _symmetry_equiv_pos_site_id
 _symmetry_equiv_pos_as_xyz
  1  'x, y, z'
loop_
 _atom_site_type_symbol
 _atom_site_label
 _atom_site_symmetry_multiplicity
 _atom_site_fract_x
 _atom_site_fract_y
 _atom_site_fract_z
 _atom_site_occupancy
  In  In0  1  0.32225506  0.82472404  0.52674368  1
  In  In1  1  0.48541623  0.83993725  -0.01863404  1
  In  In2  1  0.33025386  0.80388476  0.15133894  1
  In  In3  1  0.67968889  0.65086716  0.67996483  1
  In  In4  1  0.66014745  0.67507482  0.29148557  1
  In  In5  1  0.53520386  0.85119928  0.70473574  1
  In  In6  1  0.85578232  0.16809934  0.31284084  1
  In  In7  1  0.00729330  0.30622430  0.66764645  1
  In  In8  1  0.00690221  -0.00749905  0.68461748  1
  In  In9  1  0.83269545  0.00371021  0.49225090  1
  In  In10  1  0.17371548  0.48361249  0.36948278  1
  In  In11  1  0.83206774  0.49836984  0.65730536  1
  In  In12  1  0.16889939  0.01070727  0.51263269  1
  In  In13  1  0.83963772  0.83803082  0.65182907  1
  In  In14  1  0.49252490  0.02538946  0.19106818  1
  In  In15  1  0.85072530  0.85471924  0.31916655  1
  In  In16  1  0.84926182  0.00502000  0.14666620  1
  In  In17  1  0.13585623  0.66449735  0.48529360  1
  In  In18  1  0.49556194  0.17910558  -0.01174958  1
  In  In19  1  0.69807960  0.82548899  0.09459831  1
  In  In20  1  0.47828436  0.48468134  0.32394412  1
  In  In21  1  0.02117423  0.00591964  0.00230867  1
  In  In22  1  -0.00351096  0.68486916  0.31712856  1
  In  In23  1  0.16464857  0.66621690  0.15902196  1
  In  In24  1  0.66355072  0.50084798  0.47157350  1
  In  In25  1  0.67507649  0.31656795  0.33681523  1
  In  In26  1  0.31935051  0.51929149  0.15732342  1
  In  In27  1  0.31416334  0.14085533  0.48867676  1
  In  In28  1  0.33987041  -0.00784636  -0.00314957  1
  In  In29  1  0.32512535  0.16413909  0.83101775  1
  In  In30  1  0.50326030  0.16884843  0.36582703  1
  In  In31  1  0.66334960  0.47570700  0.85178465  1
  In  In32  1  0.87321692  0.69006689  0.50049161  1
  In  In33  1  0.16673934  0.34041509  0.18228501  1
  In  In34  1  0.17652351  0.14790057  0.67040889  1
  In  In35  1  0.48658734  0.67892293  0.50292773  1
  In  In36  1  0.68353287  0.82684331  0.48553302  1
  In  In37  1  0.84446999  0.69165497  0.84633846  1
  In  In38  1  0.28075595  0.00370580  0.30678609  1
  In  In39  1  0.65434251  0.01661483  -0.00245699  1
  In  In40  1  0.49190273  0.34179984  0.56222851  1
  In  In41  1  0.16431765  0.49036708  0.65420596  1
  In  In42  1  0.16048169  0.34584768  0.84770130  1
  In  In43  1  -0.00183290  0.47241060  0.49657528  1
  In  In44  1  0.51932691  0.83288599  0.30476247  1
  In  In45  1  0.33053914  0.66334672  0.69040625  1
  In  In46  1  0.18418187  -0.01811222  0.83539015  1
  In  In47  1  0.50872168  0.66541365  0.85885823  1
  In  In48  1  -0.01319314  0.19859435  0.85105817  1
  In  In49  1  0.00104014  0.53414992  0.85229351  1
  In  In50  1  0.82637810  0.48627318  0.31980016  1
  In  In51  1  0.50132383  0.15891248  0.68404435  1
  In  In52  1  -0.02244044  0.16209084  0.50443981  1
  In  In53  1  0.66404125  0.16893464  0.85184037  1
  In  In54  1  0.13843937  0.68807678  0.80388716  1
  In  In55  1  0.30476013  0.15899682  0.20107635  1
  In  In56  1  0.32880096  0.65636053  0.32186554  1
  In  In57  1  0.51066298  0.49916254  -0.00653335  1
  In  In58  1  0.79464068  -0.02181807  0.85343696  1
  In  In59  1  0.51369143  0.00636892  0.52669748  1
  In  In60  1  0.83468461  0.16168333  0.00438987  1
  In  In61  1  0.15371548  0.80058223  -0.01253240  1
  In  In62  1  0.68273071  0.50279728  0.13811602  1
  In  In63  1  0.51177359  0.31128963  0.17533302  1
  In  In64  1  -0.00690776  0.51414896  0.16624160  1
  In  In65  1  0.15423301  0.14533296  0.32693433  1
  In  In66  1  0.70146970  0.01066408  0.32875756  1
  In  In67  1  0.84549050  0.51233557  0.00144865  1
  In  In68  1  0.68214522  0.31769982  0.66302269  1
  In  In69  1  0.34690644  0.45820151  0.58277301  1
  In  In70  1  0.00298508  0.33985528  0.02681857  1
  In  In71  1  0.33421961  0.34932562  -0.00363717  1
  Te  Te72  1  0.04849520  0.11390902  0.10117823  1
  Te  Te73  1  0.06265674  0.06810809  0.42125584  1
  Te  Te74  1  0.08029186  0.09466281  0.77412414  1
  Te  Te75  1  0.09975086  0.44012141  0.08698281  1
  Te  Te76  1  0.06386503  0.38930745  0.39531559  1
  Te  Te77  1  0.06215385  0.42092879  0.75359867  1
  Te  Te78  1  0.07884702  0.77711456  0.11410745  1
  Te  Te79  1  0.07298047  0.77138283  0.40783584  1
  Te  Te80  1  0.02145867  0.75579889  0.74894885  1
  Te  Te81  1  0.40812315  0.10516249  0.09155043  1
  Te  Te82  1  0.41968678  0.05183004  0.41578836  1
  Te  Te83  1  0.41173634  0.06932234  0.76041325  1
  Te  Te84  1  0.42246081  0.41355951  0.10580612  1
  Te  Te85  1  0.42368943  0.43145263  0.44873693  1
  Te  Te86  1  0.42787453  0.39274041  0.68638248  1
  Te  Te87  1  0.40440329  0.73353752  0.04771687  1
  Te  Te88  1  0.41703601  0.77305324  0.40416561  1
  Te  Te89  1  0.43362233  0.75361016  0.75762478  1
  Te  Te90  1  0.73621252  0.09231065  0.09875240  1
  Te  Te91  1  0.75121481  0.11341344  0.42731861  1
  Te  Te92  1  0.72355120  0.06672535  0.75641067  1
  Te  Te93  1  0.78931804  0.41022346  0.09504577  1
  Te  Te94  1  0.76638752  0.39839204  0.42785956  1
  Te  Te95  1  0.76360751  0.40977579  0.75764899  1
  Te  Te96  1  0.79489333  0.71847548  0.06482760  1
  Te  Te97  1  0.76080223  0.74004263  0.38931353  1
  Te  Te98  1  0.74878058  0.76413081  0.75020095  1
  Te  Te99  1  0.07756150  0.23671462  0.23909065  1
  Te  Te100  1  0.09672787  0.23055803  0.57201105  1
  Te  Te101  1  0.09426086  0.24967472  0.94398374  1
  Te  Te102  1  0.09755718  0.57449433  0.26739919  1
  Te  Te103  1  0.06160638  0.57684693  0.58520855  1
  Te  Te104  1  0.08061454  0.62880668  0.92830481  1
  Te  Te105  1  0.14392179  0.97883980  0.26347885  1
  Te  Te106  1  0.09960270  0.90886984  0.60316373  1
  Te  Te107  1  0.07518766  0.90371499  0.90459524  1
  Te  Te108  1  0.41370629  0.24749283  0.27130032  1
  Te  Te109  1  0.39927088  0.21935501  0.58494710  1
  Te  Te110  1  0.41533438  0.26960148  0.89712589  1
  Te  Te111  1  0.43308158  0.59698356  0.23216121  1
  Te  Te112  1  0.43111114  0.58691202  0.60708899  1
  Te  Te113  1  0.42112590  0.55177990  0.89045496  1
  Te  Te114  1  0.39788138  0.91809036  0.24240141  1
  Te  Te115  1  0.43502813  0.90196913  0.60069464  1
  Te  Te116  1  0.39427410  0.91054559  0.88904480  1
  Te  Te117  1  0.75340185  0.24334614  0.23904221  1
  Te  Te118  1  0.72619544  0.20834973  0.57722743  1
  Te  Te119  1  0.76904353  0.25185012  0.91071888  1
  Te  Te120  1  0.77054826  0.59467413  0.22899875  1
  Te  Te121  1  0.75806830  0.59633137  0.55830912  1
  Te  Te122  1  0.75133572  0.58558316  0.90859415  1
  Te  Te123  1  0.73595134  0.90449699  0.22463942  1
  Te  Te124  1  0.73681766  0.92715357  0.58399079  1
  Te  Te125  1  0.72117707  0.88839671  0.95134895  1
  Te  Te126  1  0.25928180  0.25963682  0.09228256  1
  Te  Te127  1  0.24880229  0.23386045  0.39738701  1
  Te  Te128  1  0.24053107  0.26209341  0.75029769  1
  Te  Te129  1  0.26330210  0.61514480  0.06125248  1
  Te  Te130  1  0.26105307  0.58983839  0.43828991  1
  Te  Te131  1  0.23614929  0.56859737  0.75934953  1
  Te  Te132  1  0.24637044  0.89763845  0.06839735  1
  Te  Te133  1  0.24785916  0.91099685  0.42845953  1
  Te  Te134  1  0.20884412  0.90785872  0.71250449  1
  Te  Te135  1  0.59558301  0.25332623  0.06925209  1
  Te  Te136  1  0.57070672  0.28078655  0.43861014  1
  Te  Te137  1  0.58183552  0.26055331  0.76237963  1
  Te  Te138  1  0.59616203  0.59360752  0.06486811  1
  Te  Te139  1  0.57593593  0.60440038  0.39938737  1
  Te  Te140  1  0.58424227  0.57028057  0.76185514  1
  Te  Te141  1  0.55361609  0.93940155  0.08399020  1
  Te  Te142  1  0.59434068  0.92214811  0.40546398  1
  Te  Te143  1  0.60928455  0.95998092  0.76314910  1
  Te  Te144  1  0.93566221  0.22422733  0.09685941  1
  Te  Te145  1  0.92737401  0.25816151  0.40532029  1
  Te  Te146  1  0.89993520  0.23767795  0.74096275  1
  Te  Te147  1  0.92882159  0.61195616  0.07512881  1
  Te  Te148  1  0.92071020  0.57578917  0.40514446  1
  Te  Te149  1  0.90854630  0.59371510  0.74621654  1
  Te  Te150  1  0.91393910  0.91293941  0.05153387  1
  Te  Te151  1  0.92002526  0.89762485  0.44072675  1
  Te  Te152  1  0.90392046  0.91416344  0.76710117  1
  Te  Te153  1  0.19084802  0.07007504  0.15017235  1
  Te  Te154  1  0.27692339  0.05273421  0.61216857  1
  Te  Te155  1  0.24021333  0.08615628  0.93054285  1
  Te  Te156  1  0.26614853  0.42395248  0.26430614  1
  Te  Te157  1  0.21746773  0.39329427  0.55851601  1
  Te  Te158  1  0.23897763  0.43761666  0.92956056  1
  Te  Te159  1  0.23741010  0.75696020  0.26290606  1
  Te  Te160  1  0.23121434  0.72705623  0.59421843  1
  Te  Te161  1  0.23861586  0.77491737  0.86965511  1
  Te  Te162  1  0.59705620  0.10440309  0.26441654  1
  Te  Te163  1  0.60449586  0.11180090  0.58189300  1
  Te  Te164  1  0.55287198  0.07113634  0.89889503  1
  Te  Te165  1  0.59692560  0.42632053  0.25127493  1
  Te  Te166  1  0.61205289  0.43612174  0.59470340  1
  Te  Te167  1  0.60307982  0.38990074  0.95635302  1
  Te  Te168  1  0.58710899  0.76088363  0.19139157  1
  Te  Te169  1  0.59772428  0.74730618  0.58351509  1
  Te  Te170  1  0.59670242  0.77250538  0.91008915  1
  Te  Te171  1  0.92115028  0.04415161  0.26745779  1
  Te  Te172  1  0.90635522  0.07591258  0.60694868  1
  Te  Te173  1  0.90924376  0.07047704  0.90837992  1
  Te  Te174  1  0.90500753  0.40824758  0.22185601  1
  Te  Te175  1  0.90654308  0.38947606  0.58391848  1
  Te  Te176  1  0.92952314  0.41611960  0.91788235  1
  Te  Te177  1  0.93520745  0.78100610  0.22348995  1
  Te  Te178  1  0.95714417  0.75405758  0.60760520  1
  Te  Te179  1  0.89515006  0.76911759  0.96190848  1
