# generated using pymatgen
data_In2Te3
_symmetry_space_group_name_H-M   'P 1'
_cell_length_a   18.78679324
_cell_length_b   18.78443528
_cell_length_c   18.78241797
_cell_angle_alpha   89.98255886
_cell_angle_beta   89.87774209
_cell_angle_gamma   90.00656690
_symmetry_Int_Tables_number   1
_chemical_formula_structural   In2Te3
_chemical_formula_sum   'In72 Te108'
_cell_volume   6628.28674602
_cell_formula_units_Z   36
loop_
 _symmetry_equiv_pos_site_id
 _symmetry_equiv_pos_as_xyz
  1  'x, y, z'
loop_
 _atom_site_type_symbol
 _atom_site_label
 _atom_site_symmetry_multiplicity
 _atom_site_fract_x
 _atom_site_fract_y
 _atom_site_fract_z
 _atom_site_occupancy
  In  In0  1  0.64251032  0.01817137  0.00506321  1
  In  In1  1  0.14990867  0.66204143  0.84436715  1
  In  In2  1  0.01106450  -0.02047205  0.00878660  1
  In  In3  1  0.14517213  0.49550384  0.31842830  1
  In  In4  1  0.47352264  0.01029875  0.14543202  1
  In  In5  1  0.47937996  0.32121207  0.15592815  1
  In  In6  1  0.85734417  0.66605741  0.17728564  1
  In  In7  1  0.84446823  0.68085954  0.83052985  1
  In  In8  1  0.53699578  0.33628575  0.53061485  1
  In  In9  1  0.16577341  0.83043709  -0.00146278  1
  In  In10  1  0.01562556  0.16389967  0.18701545  1
  In  In11  1  0.49160549  0.16268128  0.67041244  1
  In  In12  1  0.85061065  0.66400860  0.50307928  1
  In  In13  1  0.83608303  0.81380534  -0.00225785  1
  In  In14  1  0.17706426  0.16742951  0.68323773  1
  In  In15  1  0.13119116  0.53157889  0.64724092  1
  In  In16  1  0.67854375  0.17817990  0.50490088  1
  In  In17  1  0.83471466  -0.00199104  0.82307072  1
  In  In18  1  0.00479266  0.15743174  0.50000987  1
  In  In19  1  0.33719878  0.67401587  0.65615594  1
  In  In20  1  0.17622914  0.34443658  0.48203934  1
  In  In21  1  0.30532814  0.52166867  0.12896083  1
  In  In22  1  0.16767930  0.31202130  0.15345052  1
  In  In23  1  0.81076598  0.33543848  0.16605594  1
  In  In24  1  0.48726668  0.82801801  -0.00965493  1
  In  In25  1  0.63859875  0.15873707  0.17441964  1
  In  In26  1  0.66696516  0.36034335  0.02253866  1
  In  In27  1  0.33110534  0.49649109  0.49854842  1
  In  In28  1  0.18322861  -0.00032120  0.49924875  1
  In  In29  1  -0.00057627  0.32558604  0.34080952  1
  In  In30  1  -0.00687967  0.34763370  -0.01687614  1
  In  In31  1  0.48432512  0.02434030  0.46847549  1
  In  In32  1  0.82307670  0.15877993  0.01306879  1
  In  In33  1  0.14179139  0.80938303  0.65161194  1
  In  In34  1  0.34072141  -0.00248467  0.67871930  1
  In  In35  1  0.32316775  0.83787345  0.49029978  1
  In  In36  1  0.32800353  0.83959258  0.16315283  1
  In  In37  1  0.19925516  0.02990964  0.17693622  1
  In  In38  1  0.84503163  0.51578307  0.67264152  1
  In  In39  1  0.67262641  0.34098699  0.36192170  1
  In  In40  1  0.68855080  0.47039540  0.16051171  1
  In  In41  1  0.65481739  0.66937609  0.34969432  1
  In  In42  1  0.67146577  -0.02172531  0.66991363  1
  In  In43  1  0.21786812  0.14881021  -0.02641141  1
  In  In44  1  0.33836487  0.85371077  0.81925226  1
  In  In45  1  0.64584411  0.17366422  0.83115798  1
  In  In46  1  0.68647066  0.86731775  0.20697478  1
  In  In47  1  0.49740746  0.50382785  -0.01293906  1
  In  In48  1  0.65832065  0.50055702  0.81162515  1
  In  In49  1  0.00291442  0.82323936  0.15368975  1
  In  In50  1  -0.00403898  0.19342688  0.81793738  1
  In  In51  1  0.82167819  0.49072670  0.36725792  1
  In  In52  1  0.83520071  -0.01371469  0.48966745  1
  In  In53  1  -0.00404206  -0.00964135  0.67714515  1
  In  In54  1  0.66897565  0.82588867  0.82434168  1
  In  In55  1  0.34955733  0.33027812  0.66993177  1
  In  In56  1  -0.00808987  0.35427458  0.66784328  1
  In  In57  1  0.00523792  0.51545445  0.15573401  1
  In  In58  1  0.00419811  -0.01394568  0.34110068  1
  In  In59  1  0.50454330  0.51500257  0.34200156  1
  In  In60  1  0.50610805  0.68646078  0.15759423  1
  In  In61  1  0.32374975  0.67351574  0.33229159  1
  In  In62  1  0.84444215  0.34271089  0.82905295  1
  In  In63  1  0.52235726  0.83443282  0.67294759  1
  In  In64  1  0.49123041  0.64843284  0.51156600  1
  In  In65  1  0.66938652  0.84821752  0.49694873  1
  In  In66  1  0.67748794  0.67338851  -0.00751677  1
  In  In67  1  0.84453422  0.15018888  0.35773921  1
  In  In68  1  0.13501580  0.81306600  0.34708742  1
  In  In69  1  0.33484910  0.31156656  0.32272400  1
  In  In70  1  0.33873641  0.48889405  0.83565156  1
  In  In71  1  0.17451374  0.35159577  0.82354388  1
  Te  Te72  1  0.09193910  0.09396097  0.07469126  1
  Te  Te73  1  0.09969609  0.08764318  0.40347351  1
  Te  Te74  1  0.08504897  0.07961046  0.76707822  1
  Te  Te75  1  0.09456419  0.41796431  0.07482435  1
  Te  Te76  1  0.06265712  0.43178825  0.43206743  1
  Te  Te77  1  0.07192673  0.44507148  0.76163426  1
  Te  Te78  1  0.08706705  0.72679696  0.07511596  1
  Te  Te79  1  0.06108481  0.73106993  0.44840200  1
  Te  Te80  1  0.05623778  0.72822070  0.74552015  1
  Te  Te81  1  0.39041807  0.11419702  0.06549238  1
  Te  Te82  1  0.36776626  0.08097174  0.40045345  1
  Te  Te83  1  0.40282873  0.09587387  0.77307658  1
  Te  Te84  1  0.39946751  0.41586220  0.06623948  1
  Te  Te85  1  0.42506629  0.40758347  0.41766933  1
  Te  Te86  1  0.43314329  0.38841776  0.77667867  1
  Te  Te87  1  0.39312134  0.73504893  0.06937327  1
  Te  Te88  1  0.42555949  0.74898929  0.41581037  1
  Te  Te89  1  0.42853009  0.74570606  0.75445591  1
  Te  Te90  1  0.74561004  0.06930535  0.10746069  1
  Te  Te91  1  0.72635065  0.06096365  0.40713988  1
  Te  Te92  1  0.74362339  0.09178811  0.74367342  1
  Te  Te93  1  0.79555427  0.43849457  0.05320243  1
  Te  Te94  1  0.75469551  0.40235484  0.47219346  1
  Te  Te95  1  0.74721035  0.40529624  0.73154336  1
  Te  Te96  1  0.73780390  0.75189753  0.10903580  1
  Te  Te97  1  0.75901052  0.75666005  0.41252208  1
  Te  Te98  1  0.74874768  0.74181906  0.73333693  1
  Te  Te99  1  0.11099359  0.24281492  0.27658693  1
  Te  Te100  1  0.08869461  0.25204049  0.58869490  1
  Te  Te101  1  0.09418974  0.24950586  0.92107077  1
  Te  Te102  1  0.07552982  0.60532322  0.24962924  1
  Te  Te103  1  0.04536006  0.61826592  0.55745975  1
  Te  Te104  1  0.10775770  0.56846939  0.94944242  1
  Te  Te105  1  0.09520694  0.92484506  0.22967719  1
  Te  Te106  1  0.07329828  0.91811420  0.56527673  1
  Te  Te107  1  0.08318789  0.90926967  0.90302649  1
  Te  Te108  1  0.42895285  0.21782243  0.25236312  1
  Te  Te109  1  0.41803702  0.24526622  0.56402347  1
  Te  Te110  1  0.43798339  0.21183322  0.96487727  1
  Te  Te111  1  0.41341840  0.58301689  0.23863823  1
  Te  Te112  1  0.42082901  0.55194438  0.60980027  1
  Te  Te113  1  0.41313448  0.59478848  0.90869122  1
  Te  Te114  1  0.41855748  0.91703773  0.24869579  1
  Te  Te115  1  0.42331323  0.91079044  0.58090755  1
  Te  Te116  1  0.40362126  0.93564254  0.92739703  1
  Te  Te117  1  0.74661800  0.23765314  0.26524885  1
  Te  Te118  1  0.76244780  0.27743165  0.56939414  1
  Te  Te119  1  0.75092896  0.25623505  0.92104059  1
  Te  Te120  1  0.74364150  0.57762183  0.25700467  1
  Te  Te121  1  0.75202811  0.60638987  0.59859199  1
  Te  Te122  1  0.75349461  0.57778743  0.90443654  1
  Te  Te123  1  0.76386250  0.94404616  0.30489034  1
  Te  Te124  1  0.77602403  0.89492662  0.59925284  1
  Te  Te125  1  0.74186331  0.92186642  0.92594588  1
  Te  Te126  1  0.27509951  0.23237781  0.08582000  1
  Te  Te127  1  0.25857982  0.23587398  0.42695924  1
  Te  Te128  1  0.27184958  0.24460443  0.77342393  1
  Te  Te129  1  0.20804385  0.60938241  0.05811749  1
  Te  Te130  1  0.23627163  0.57989117  0.41608907  1
  Te  Te131  1  0.24391192  0.58405145  0.73959731  1
  Te  Te132  1  0.25412057  0.93495355  0.07011067  1
  Te  Te133  1  0.24374324  0.91496489  0.38667659  1
  Te  Te134  1  0.22627359  0.91161335  0.73267299  1
  Te  Te135  1  0.57592891  0.24117980  0.06172171  1
  Te  Te136  1  0.57175080  0.23963862  0.41499722  1
  Te  Te137  1  0.57590738  0.26483468  0.73759179  1
  Te  Te138  1  0.59156894  0.57576397  0.09108881  1
  Te  Te139  1  0.60407284  0.56174328  0.44566796  1
  Te  Te140  1  0.57791620  0.57292368  0.71204364  1
  Te  Te141  1  0.58328090  0.90076223  0.08649302  1
  Te  Te142  1  0.56565042  0.91390115  0.41430117  1
  Te  Te143  1  0.57061487  0.93522341  0.77648269  1
  Te  Te144  1  0.92486235  0.25070337  0.09520733  1
  Te  Te145  1  0.90565517  0.26083637  0.44310994  1
  Te  Te146  1  0.89609824  0.24510646  0.71826394  1
  Te  Te147  1  0.91488435  0.59073614  0.06504374  1
  Te  Te148  1  0.92225424  0.59582831  0.38949647  1
  Te  Te149  1  0.94355144  0.60168730  0.74865863  1
  Te  Te150  1  0.89818175  0.91882649  0.09036092  1
  Te  Te151  1  0.91655311  0.88923749  0.41040734  1
  Te  Te152  1  0.91868937  0.89524831  0.76012322  1
  Te  Te153  1  0.29973300  0.10008925  0.25994935  1
  Te  Te154  1  0.26742745  0.09361026  0.58469904  1
  Te  Te155  1  0.28945664  0.05320776  0.88708686  1
  Te  Te156  1  0.25671580  0.42028788  0.24336668  1
  Te  Te157  1  0.23847788  0.41681352  0.60298132  1
  Te  Te158  1  0.25990875  0.40545463  0.93069783  1
  Te  Te159  1  0.22932174  0.74888818  0.24173890  1
  Te  Te160  1  0.23619366  0.73237065  0.55785217  1
  Te  Te161  1  0.25809430  0.75281036  0.90198560  1
  Te  Te162  1  0.56037925  0.06449542  0.25505546  1
  Te  Te163  1  0.58415765  0.07153674  0.58322372  1
  Te  Te164  1  0.54842535  0.09656977  0.91827715  1
  Te  Te165  1  0.57853019  0.40509226  0.25019480  1
  Te  Te166  1  0.57538609  0.45013622  0.61558586  1
  Te  Te167  1  0.57981174  0.40456770  0.90588180  1
  Te  Te168  1  0.57823939  0.76886320  0.26261115  1
  Te  Te169  1  0.59442660  0.74026351  0.57958662  1
  Te  Te170  1  0.57238922  0.73400814  0.90244006  1
  Te  Te171  1  0.91362396  0.06926897  0.24692062  1
  Te  Te172  1  0.90743814  0.07931737  0.58759920  1
  Te  Te173  1  0.92056913  0.09106634  0.91598321  1
  Te  Te174  1  0.91360136  0.41549439  0.25169853  1
  Te  Te175  1  0.92472559  0.44058927  0.56981994  1
  Te  Te176  1  0.93438216  0.44416073  0.88832741  1
  Te  Te177  1  0.91693817  0.76989153  0.26278636  1
  Te  Te178  1  0.95433525  0.74329834  0.57906663  1
  Te  Te179  1  0.94202347  0.74680190  0.92289455  1
