# generated using pymatgen
data_In2Te3
_symmetry_space_group_name_H-M   'P 1'
_cell_length_a   18.77817041
_cell_length_b   18.78015484
_cell_length_c   18.77668010
_cell_angle_alpha   89.93931568
_cell_angle_beta   89.98023271
_cell_angle_gamma   90.01954085
_symmetry_Int_Tables_number   1
_chemical_formula_structural   In2Te3
_chemical_formula_sum   'In72 Te108'
_cell_volume   6621.72220150
_cell_formula_units_Z   36
loop_
 _symmetry_equiv_pos_site_id
 _symmetry_equiv_pos_as_xyz
  1  'x, y, z'
loop_
 _atom_site_type_symbol
 _atom_site_label
 _atom_site_symmetry_multiplicity
 _atom_site_fract_x
 _atom_site_fract_y
 _atom_site_fract_z
 _atom_site_occupancy
  In  In0  1  0.49682846  0.49851383  0.64180497  1
  In  In1  1  0.34480535  0.18207084  0.17729040  1
  In  In2  1  0.82693979  0.33673715  0.17379175  1
  In  In3  1  0.17061632  0.31494600  0.81779826  1
  In  In4  1  0.83142265  0.66604134  0.16592799  1
  In  In5  1  0.51667212  0.53268980  0.35753627  1
  In  In6  1  0.66430418  0.80208911  0.20019806  1
  In  In7  1  0.16016447  0.14595843  0.35144280  1
  In  In8  1  0.34308068  0.32372698  -0.01945536  1
  In  In9  1  0.66055267  0.66241399  0.01594913  1
  In  In10  1  0.17027039  0.67151713  0.18711847  1
  In  In11  1  0.16620386  0.50857309  0.66742857  1
  In  In12  1  0.67577740  0.16387289  0.80919456  1
  In  In13  1  -0.02054469  0.34065589  0.32656925  1
  In  In14  1  -0.01199630  0.20002811  0.82882352  1
  In  In15  1  0.33212995  0.51344798  0.80293034  1
  In  In16  1  -0.00153172  0.65986532  0.33870471  1
  In  In17  1  0.13483544  0.50631861  -0.01856161  1
  In  In18  1  0.18213677  0.33825753  0.52571855  1
  In  In19  1  0.67514085  0.00026130  -0.00408083  1
  In  In20  1  -0.00476060  0.33930861  0.65539779  1
  In  In21  1  -0.00484844  0.15523049  0.17750676  1
  In  In22  1  0.35116862  0.80735730  0.82161398  1
  In  In23  1  -0.00540712  0.49702194  0.49293394  1
  In  In24  1  0.33709972  -0.01305011  0.65113334  1
  In  In25  1  0.68281295  0.83625811  0.83115089  1
  In  In26  1  0.66385689  0.34295554  -0.00823638  1
  In  In27  1  -0.00375819  0.82799225  0.17078505  1
  In  In28  1  0.15792494  -0.02407231  0.15101995  1
  In  In29  1  0.16565127  0.18534258  0.68543503  1
  In  In30  1  -0.02465589  0.35182513  -0.04089701  1
  In  In31  1  0.67070218  -0.01845776  0.32980508  1
  In  In32  1  0.63771971  0.20043318  0.48975617  1
  In  In33  1  0.35149352  0.78734656  0.46878528  1
  In  In34  1  0.33766680  0.50919304  0.18352470  1
  In  In35  1  0.17697264  0.83799699  0.32444958  1
  In  In36  1  0.49510949  0.65176341  0.81626094  1
  In  In37  1  -0.02444357  0.82631961  0.50398758  1
  In  In38  1  -0.00742962  -0.00433614  0.65075977  1
  In  In39  1  0.83363261  0.82983984  0.66823244  1
  In  In40  1  0.34976759  -0.01117636  0.33695880  1
  In  In41  1  0.53814271  0.50581460  0.00458698  1
  In  In42  1  0.68389519  0.49707126  0.81198842  1
  In  In43  1  0.32814119  0.68094443  0.00092207  1
  In  In44  1  0.36096321  0.36046107  0.34712218  1
  In  In45  1  0.67589066  0.51831955  0.17238072  1
  In  In46  1  0.51278687  0.34788853  0.17542235  1
  In  In47  1  0.80542962  0.67972841  0.49592981  1
  In  In48  1  0.16121195  0.34848821  0.14194782  1
  In  In49  1  0.53693893  0.00112404  0.82430011  1
  In  In50  1  0.50337876  0.18794035  0.66634921  1
  In  In51  1  0.80938137  0.33604595  0.50237487  1
  In  In52  1  0.17273633  0.53726563  0.34764649  1
  In  In53  1  0.48785711  0.83930299  -0.00070893  1
  In  In54  1  -0.00371605  -0.00667756  0.00110968  1
  In  In55  1  0.84532775  0.65878177  0.82139242  1
  In  In56  1  0.82162775  0.16131137  0.00076076  1
  In  In57  1  0.32055312  -0.00424618  0.01491430  1
  In  In58  1  0.18782209  0.65185652  0.50700418  1
  In  In59  1  0.13144691  -0.00978317  0.50100735  1
  In  In60  1  0.34861392  0.16998135  0.51417122  1
  In  In61  1  0.67114386  0.17138286  0.17048659  1
  In  In62  1  -0.01056693  0.66809782  -0.00195839  1
  In  In63  1  0.83572921  -0.00336309  0.50997913  1
  In  In64  1  0.17419751  -0.01388808  0.83416861  1
  In  In65  1  0.67130056  0.50049813  0.50700447  1
  In  In66  1  0.01203934  0.81155954  0.81861327  1
  In  In67  1  0.48707794  -0.00233162  0.17449404  1
  In  In68  1  0.52397134  -0.02809136  0.49122511  1
  In  In69  1  0.66959618  -0.02410151  0.67273127  1
  In  In70  1  0.83127638  0.16467396  0.33143957  1
  In  In71  1  0.32660895  0.17851554  0.82667259  1
  Te  Te72  1  0.09003030  0.08974273  0.07707983  1
  Te  Te73  1  0.04795368  0.07926349  0.41885820  1
  Te  Te74  1  0.07843716  0.08144154  0.75834137  1
  Te  Te75  1  0.04654098  0.42478543  0.07714107  1
  Te  Te76  1  0.09655869  0.41287536  0.41548149  1
  Te  Te77  1  0.07834141  0.41988951  0.75553927  1
  Te  Te78  1  0.09209558  0.74926347  0.08184025  1
  Te  Te79  1  0.09269267  0.74887650  0.42053449  1
  Te  Te80  1  0.10115475  0.70612867  0.76629663  1
  Te  Te81  1  0.42095078  0.09442836  0.07583739  1
  Te  Te82  1  0.43360963  0.07957576  0.42489248  1
  Te  Te83  1  0.41831440  0.07688595  0.74507922  1
  Te  Te84  1  0.41381698  0.41931849  0.08247370  1
  Te  Te85  1  0.44247413  0.43414625  0.44684717  1
  Te  Te86  1  0.43043356  0.41952660  0.75134886  1
  Te  Te87  1  0.41680397  0.75198490  0.09481930  1
  Te  Te88  1  0.47583831  0.72609964  0.41430532  1
  Te  Te89  1  0.40466043  0.71558523  0.71702038  1
  Te  Te90  1  0.76148707  0.06796826  0.10472313  1
  Te  Te91  1  0.73167700  0.08795904  0.42702483  1
  Te  Te92  1  0.76393153  0.06240086  0.74683392  1
  Te  Te93  1  0.75652165  0.43066859  0.07460490  1
  Te  Te94  1  0.74627087  0.42431893  0.40248463  1
  Te  Te95  1  0.78964094  0.40499041  0.76314437  1
  Te  Te96  1  0.75142602  0.76526725  0.07776205  1
  Te  Te97  1  0.72873734  0.77959084  0.42112582  1
  Te  Te98  1  0.73800906  0.73141261  0.73670415  1
  Te  Te99  1  0.09115134  0.25302790  0.25072049  1
  Te  Te100  1  0.07675552  0.23790340  0.57191330  1
  Te  Te101  1  0.08897767  0.25311047  0.93191671  1
  Te  Te102  1  0.06950618  0.56861836  0.23909893  1
  Te  Te103  1  0.06936096  0.59321442  0.58458193  1
  Te  Te104  1  0.06768427  0.60093632  0.88393463  1
  Te  Te105  1  0.07011748  0.92801063  0.26465778  1
  Te  Te106  1  0.08299810  0.88372074  0.59897407  1
  Te  Te107  1  0.08889839  0.89866530  0.92374598  1
  Te  Te108  1  0.44376545  0.24579384  0.27788063  1
  Te  Te109  1  0.43149143  0.27722890  0.57167994  1
  Te  Te110  1  0.43630831  0.24514514  0.89913410  1
  Te  Te111  1  0.41790808  0.60070360  0.26557494  1
  Te  Te112  1  0.38510942  0.55735178  0.55779339  1
  Te  Te113  1  0.41632582  0.57673819  0.92772225  1
  Te  Te114  1  0.42403676  0.89156849  0.25606602  1
  Te  Te115  1  0.42547852  0.88799291  0.57593554  1
  Te  Te116  1  0.41402784  0.93284374  0.90218202  1
  Te  Te117  1  0.73361915  0.26645382  0.27196339  1
  Te  Te118  1  0.72951832  0.24836324  0.59495871  1
  Te  Te119  1  0.75648162  0.25918145  0.90538513  1
  Te  Te120  1  0.74198292  0.60765003  0.26882581  1
  Te  Te121  1  0.75759874  0.58338538  0.59785581  1
  Te  Te122  1  0.74817362  0.58534541  0.92133497  1
  Te  Te123  1  0.76109585  0.90546230  0.24138709  1
  Te  Te124  1  0.73865184  0.88940735  0.56385890  1
  Te  Te125  1  0.76854598  0.92588322  0.90915397  1
  Te  Te126  1  0.24960102  0.24442031  0.07382716  1
  Te  Te127  1  0.25562879  0.25043584  0.41336050  1
  Te  Te128  1  0.28214615  0.27886527  0.71885628  1
  Te  Te129  1  0.23651961  0.57017566  0.08140818  1
  Te  Te130  1  0.29412580  0.57901042  0.42579252  1
  Te  Te131  1  0.24005378  0.61532802  0.74675057  1
  Te  Te132  1  0.26085844  0.88749004  0.09505306  1
  Te  Te133  1  0.25375555  0.91926549  0.43624295  1
  Te  Te134  1  0.24911784  0.89698580  0.73768521  1
  Te  Te135  1  0.57745418  0.24973815  0.07817033  1
  Te  Te136  1  0.54517966  0.26621672  0.39901582  1
  Te  Te137  1  0.60972840  0.27263585  0.72914288  1
  Te  Te138  1  0.56031472  0.60505409  0.11536468  1
  Te  Te139  1  0.58558088  0.61966023  0.46214304  1
  Te  Te140  1  0.59527966  0.58674409  0.72293406  1
  Te  Te141  1  0.58882143  0.91299408  0.08841723  1
  Te  Te142  1  0.59950638  0.86895157  0.40704228  1
  Te  Te143  1  0.55814521  0.87297853  0.73703003  1
  Te  Te144  1  0.91754008  0.25116176  0.08134132  1
  Te  Te145  1  0.91518786  0.24878055  0.42800934  1
  Te  Te146  1  0.89163640  0.26631403  0.73721694  1
  Te  Te147  1  0.90812546  0.57471592  0.07806676  1
  Te  Te148  1  0.89436383  0.57980552  0.41442049  1
  Te  Te149  1  0.93653435  0.55554171  0.76851152  1
  Te  Te150  1  0.90858193  0.91149527  0.08610376  1
  Te  Te151  1  0.90676086  0.91464287  0.40953663  1
  Te  Te152  1  0.91802113  0.91757071  0.75879356  1
  Te  Te153  1  0.25480876  0.07588726  0.24534715  1
  Te  Te154  1  0.23472210  0.08356394  0.58594442  1
  Te  Te155  1  0.24318198  0.09090886  0.92037945  1
  Te  Te156  1  0.24263644  0.41242468  0.25577650  1
  Te  Te157  1  0.27256816  0.44501148  0.57993041  1
  Te  Te158  1  0.24336732  0.42313813  0.90958848  1
  Te  Te159  1  0.27142059  0.73690461  0.27313293  1
  Te  Te160  1  0.26376229  0.75348443  0.58360718  1
  Te  Te161  1  0.24240242  0.75672982  0.90884090  1
  Te  Te162  1  0.58099270  0.08414421  0.25887297  1
  Te  Te163  1  0.58112375  0.07319388  0.59242189  1
  Te  Te164  1  0.58933147  0.10354430  0.92401395  1
  Te  Te165  1  0.59528421  0.42981800  0.26988114  1
  Te  Te166  1  0.60044245  0.40128504  0.59486464  1
  Te  Te167  1  0.57536980  0.41532892  0.88955558  1
  Te  Te168  1  0.56169514  0.73503803  0.28177109  1
  Te  Te169  1  0.56634139  0.81665197  0.59686549  1
  Te  Te170  1  0.57794215  0.74616570  0.91356295  1
  Te  Te171  1  0.90603762  0.06541809  0.25202285  1
  Te  Te172  1  0.89832396  0.09630491  0.59944348  1
  Te  Te173  1  0.91702837  0.08824232  0.90789033  1
  Te  Te174  1  0.89982368  0.43852556  0.25278095  1
  Te  Te175  1  0.89486343  0.43273343  0.58797487  1
  Te  Te176  1  0.89662354  0.44533543  0.87168213  1
  Te  Te177  1  0.90419351  0.75633140  0.26963389  1
  Te  Te178  1  0.91856127  0.72400913  0.59964057  1
  Te  Te179  1  0.90304908  0.76381509  0.91598436  1
