# generated using pymatgen
data_In2Te3
_symmetry_space_group_name_H-M   'P 1'
_cell_length_a   18.79891902
_cell_length_b   18.81424327
_cell_length_c   18.79535690
_cell_angle_alpha   89.97247345
_cell_angle_beta   90.00723618
_cell_angle_gamma   89.97860590
_symmetry_Int_Tables_number   1
_chemical_formula_structural   In2Te3
_chemical_formula_sum   'In72 Te108'
_cell_volume   6647.68029934
_cell_formula_units_Z   36
loop_
 _symmetry_equiv_pos_site_id
 _symmetry_equiv_pos_as_xyz
  1  'x, y, z'
loop_
 _atom_site_type_symbol
 _atom_site_label
 _atom_site_symmetry_multiplicity
 _atom_site_fract_x
 _atom_site_fract_y
 _atom_site_fract_z
 _atom_site_occupancy
  In  In0  1  0.36185031  0.65486820  0.65187550  1
  In  In1  1  0.33781629  0.67746111  0.05534945  1
  In  In2  1  0.64959371  0.51878758  0.17859316  1
  In  In3  1  0.63987593  0.64792724  0.36220004  1
  In  In4  1  0.81093972  0.51605183  0.64791270  1
  In  In5  1  0.83820104  0.01615904  0.81297730  1
  In  In6  1  0.50130234  0.15061934  0.34233483  1
  In  In7  1  0.17614305  0.37498469  0.18910265  1
  In  In8  1  0.16242711  0.16499985  0.34107086  1
  In  In9  1  0.54031487  0.17588749  0.00242833  1
  In  In10  1  -0.01081184  0.00453601  0.64069726  1
  In  In11  1  0.15812536  -0.00637850  0.19585790  1
  In  In12  1  0.33221292  0.50954131  0.84005156  1
  In  In13  1  0.65744750  0.03036025  0.00446875  1
  In  In14  1  0.00553367  0.66105796  0.63983358  1
  In  In15  1  0.51153679  0.29970539  0.81339413  1
  In  In16  1  0.67475944  -0.01502075  0.63530610  1
  In  In17  1  0.34651666  -0.01026370  0.63961993  1
  In  In18  1  0.65623757  0.64090893  0.01073762  1
  In  In19  1  0.21273138  0.54105353  0.33487352  1
  In  In20  1  0.50253614  0.34064077  0.48143463  1
  In  In21  1  0.50855463  0.85673105  0.34385287  1
  In  In22  1  0.83395902  -0.00063468  0.19538009  1
  In  In23  1  0.01147272  0.50217449  0.50206787  1
  In  In24  1  0.33603250  0.14073083  0.49341811  1
  In  In25  1  0.67735357  0.49800866  0.84225205  1
  In  In26  1  0.82212200  0.50586827  0.00380344  1
  In  In27  1  0.00700917  0.70693456  0.35411465  1
  In  In28  1  -0.00902354  0.00960631  -0.02417190  1
  In  In29  1  0.17500752  0.54340736  0.00751501  1
  In  In30  1  -0.01588705  0.47847079  0.80656312  1
  In  In31  1  0.82550655  0.66578502  0.50838907  1
  In  In32  1  0.00038379  0.49940327  0.19921012  1
  In  In33  1  -0.00423533  0.32203813  0.34208947  1
  In  In34  1  0.84670298  0.85294260  0.34143750  1
  In  In35  1  0.50331544  0.34548094  0.17693870  1
  In  In36  1  0.36784322  0.34275141  0.02775841  1
  In  In37  1  0.00808261  0.30549423  0.02011501  1
  In  In38  1  0.51344867  0.49154228  0.02764691  1
  In  In39  1  0.50291324  0.67291781  0.83318623  1
  In  In40  1  0.83318543  0.83531390  0.00063294  1
  In  In41  1  0.15157661  0.49748199  0.62197877  1
  In  In42  1  -0.02893227  0.15703488  0.16891667  1
  In  In43  1  0.33400286  0.16643682  0.16489254  1
  In  In44  1  0.15249871  0.18031920  -0.01213663  1
  In  In45  1  -0.00381509  0.68377569  0.01781521  1
  In  In46  1  0.51335486  0.00787048  0.18458856  1
  In  In47  1  -0.00419817  0.87065293  0.83038476  1
  In  In48  1  0.17703194  0.31241053  0.85487018  1
  In  In49  1  0.52156953  0.16359264  0.65477983  1
  In  In50  1  0.67976531  0.84244841  0.79726484  1
  In  In51  1  0.48066487  0.81612810  0.01261851  1
  In  In52  1  0.31426014  0.34088256  0.66223051  1
  In  In53  1  0.16943193  0.85820251  0.66260462  1
  In  In54  1  0.83270244  0.31391321  0.82522595  1
  In  In55  1  0.17582470  -0.00992013  0.48188914  1
  In  In56  1  0.02353699  0.83024515  0.18108933  1
  In  In57  1  0.32345910  -0.02182420  0.01600118  1
  In  In58  1  0.00449741  0.30771022  0.66344491  1
  In  In59  1  0.68226869  0.15708677  0.49296358  1
  In  In60  1  0.82150282  0.48780849  0.32929357  1
  In  In61  1  0.82136473  0.32199116  0.49219575  1
  In  In62  1  0.16706432  0.33527582  0.51104069  1
  In  In63  1  0.35178468  0.81743203  0.84405973  1
  In  In64  1  0.67547524  0.82239242  0.17734475  1
  In  In65  1  0.33352467  0.84003567  0.48331501  1
  In  In66  1  0.32469208  0.16355224  0.80946620  1
  In  In67  1  0.66746987  0.30778944  0.01104693  1
  In  In68  1  0.13719338  -0.00625500  0.82503577  1
  In  In69  1  0.50694590  0.49552779  0.63787691  1
  In  In70  1  0.64986757  0.70198749  0.62691536  1
  In  In71  1  0.16893670  0.67167589  0.83884874  1
  Te  Te72  1  0.08675599  0.08095045  0.08629795  1
  Te  Te73  1  0.07399147  0.08480516  0.42816593  1
  Te  Te74  1  0.05677635  0.08613286  0.74523896  1
  Te  Te75  1  0.07771535  0.42915674  0.07827568  1
  Te  Te76  1  0.09386624  0.42283030  0.40153649  1
  Te  Te77  1  0.10483610  0.41154454  0.74155988  1
  Te  Te78  1  0.10531487  0.74028421  0.09697356  1
  Te  Te79  1  0.10682466  0.78879113  0.42565769  1
  Te  Te80  1  0.08243472  0.75824931  0.74712774  1
  Te  Te81  1  0.42619799  0.08617637  0.07303884  1
  Te  Te82  1  0.41866766  0.04865449  0.41413400  1
  Te  Te83  1  0.42586783  0.07605454  0.73909609  1
  Te  Te84  1  0.40247843  0.45192104  0.12620914  1
  Te  Te85  1  0.43565291  0.43297744  0.38391194  1
  Te  Te86  1  0.41736762  0.41548551  0.75645001  1
  Te  Te87  1  0.40121884  0.78810492  0.13699136  1
  Te  Te88  1  0.41588543  0.74594813  0.39618641  1
  Te  Te89  1  0.43839031  0.76419594  0.73028102  1
  Te  Te90  1  0.76061538  0.09273572  0.09830272  1
  Te  Te91  1  0.78249208  0.06308528  0.43325488  1
  Te  Te92  1  0.74765307  0.08663243  0.71911900  1
  Te  Te93  1  0.73177337  0.42126067  0.09236807  1
  Te  Te94  1  0.73224161  0.41474512  0.41966450  1
  Te  Te95  1  0.74733955  0.41124624  0.74006347  1
  Te  Te96  1  0.75700718  0.73321629  0.08437375  1
  Te  Te97  1  0.75291764  0.74306877  0.39974150  1
  Te  Te98  1  0.75356843  0.73957289  0.72388041  1
  Te  Te99  1  0.08872016  0.25220582  0.23284834  1
  Te  Te100  1  0.06709750  0.23373840  0.55121107  1
  Te  Te101  1  0.04862104  0.23599867  0.89019968  1
  Te  Te102  1  0.08551139  0.60286568  0.27079813  1
  Te  Te103  1  0.10920197  0.61640733  0.53692128  1
  Te  Te104  1  0.06722857  0.57460123  0.90331790  1
  Te  Te105  1  0.07042417  0.91815625  0.29178737  1
  Te  Te106  1  0.06978825  0.89696956  0.55638367  1
  Te  Te107  1  0.09703936  0.90376526  0.94119429  1
  Te  Te108  1  0.41576409  0.25047182  0.26077077  1
  Te  Te109  1  0.40941721  0.24864648  0.58553606  1
  Te  Te110  1  0.40614696  0.24612054  0.91456855  1
  Te  Te111  1  0.36679971  0.62017692  0.28956764  1
  Te  Te112  1  0.46427584  0.61048709  0.55310395  1
  Te  Te113  1  0.41870443  0.59077176  0.93431456  1
  Te  Te114  1  0.41092231  0.92220888  0.24952515  1
  Te  Te115  1  0.44151908  0.89786073  0.57126324  1
  Te  Te116  1  0.43082486  0.92565174  0.91856014  1
  Te  Te117  1  0.73855015  0.20395015  0.20181347  1
  Te  Te118  1  0.75227155  0.24018292  0.59558386  1
  Te  Te119  1  0.75025627  0.22902765  0.91720117  1
  Te  Te120  1  0.75020089  0.59967007  0.25589064  1
  Te  Te121  1  0.70710200  0.57796721  0.55579983  1
  Te  Te122  1  0.76413068  0.60636484  0.90487631  1
  Te  Te123  1  0.72615652  0.92680733  0.27598963  1
  Te  Te124  1  0.74146622  0.88952438  0.54186891  1
  Te  Te125  1  0.74923917  0.92888179  0.91475472  1
  Te  Te126  1  0.24308117  0.26268646  0.08697242  1
  Te  Te127  1  0.26033505  0.25123530  0.42086866  1
  Te  Te128  1  0.22105577  0.23793021  0.72665923  1
  Te  Te129  1  0.24860178  0.58086528  0.13246952  1
  Te  Te130  1  0.28766599  0.63400916  0.42225079  1
  Te  Te131  1  0.24456496  0.58118533  0.73952706  1
  Te  Te132  1  0.24308118  0.90309779  0.11338759  1
  Te  Te133  1  0.22644754  0.88432638  0.38382179  1
  Te  Te134  1  0.26536102  0.92204400  0.76661505  1
  Te  Te135  1  0.60125384  0.22941144  0.13835478  1
  Te  Te136  1  0.59848190  0.25234374  0.40296801  1
  Te  Te137  1  0.62047817  0.22672087  0.74710965  1
  Te  Te138  1  0.54709778  0.61307824  0.11468002  1
  Te  Te139  1  0.54124696  0.54002181  0.40712985  1
  Te  Te140  1  0.58924979  0.58187543  0.74792448  1
  Te  Te141  1  0.58996054  0.90989303  0.08201745  1
  Te  Te142  1  0.61445318  0.89653075  0.44547075  1
  Te  Te143  1  0.57879322  0.92628288  0.73453874  1
  Te  Te144  1  0.88941685  0.25613931  0.09385508  1
  Te  Te145  1  0.90612142  0.22964452  0.41267917  1
  Te  Te146  1  0.89416775  0.22792764  0.72055691  1
  Te  Te147  1  0.91606472  0.58129834  0.09775948  1
  Te  Te148  1  0.91785790  0.58053911  0.40952443  1
  Te  Te149  1  0.90976412  0.59170155  0.73849983  1
  Te  Te150  1  0.92388810  0.92022793  0.09038282  1
  Te  Te151  1  0.87813857  0.93748211  0.46467276  1
  Te  Te152  1  0.89741265  0.90754223  0.72272591  1
  Te  Te153  1  0.26475105  0.07738411  0.26710469  1
  Te  Te154  1  0.23484347  0.08031857  0.59148207  1
  Te  Te155  1  0.25003111  0.08323214  0.91794642  1
  Te  Te156  1  0.27445620  0.41154042  0.29190678  1
  Te  Te157  1  0.27684295  0.44171297  0.55427027  1
  Te  Te158  1  0.25088075  0.42239824  0.93543759  1
  Te  Te159  1  0.27218405  0.71207066  0.22081294  1
  Te  Te160  1  0.26289473  0.75913595  0.59509008  1
  Te  Te161  1  0.25687306  0.74582670  0.93844297  1
  Te  Te162  1  0.61062411  0.07187444  0.27581698  1
  Te  Te163  1  0.56985733  0.06973931  0.54796595  1
  Te  Te164  1  0.58239393  0.08762248  0.89101343  1
  Te  Te165  1  0.58082968  0.42841270  0.27678730  1
  Te  Te166  1  0.59140022  0.38660079  0.59033048  1
  Te  Te167  1  0.57446244  0.40768496  0.91392199  1
  Te  Te168  1  0.57584179  0.74397365  0.26089720  1
  Te  Te169  1  0.56305778  0.78245083  0.53754430  1
  Te  Te170  1  0.59496012  0.75625719  0.92226456  1
  Te  Te171  1  0.92677220  0.07520606  0.28313098  1
  Te  Te172  1  0.87524848  0.06434087  0.56142468  1
  Te  Te173  1  0.88936340  0.10221776  0.92471546  1
  Te  Te174  1  0.90071199  0.39047367  0.24235146  1
  Te  Te175  1  0.91860542  0.42060056  0.58979663  1
  Te  Te176  1  0.91317215  0.41013226  0.92418716  1
  Te  Te177  1  0.91008484  0.75081643  0.24417468  1
  Te  Te178  1  0.91826801  0.75956236  0.57486081  1
  Te  Te179  1  0.92228917  0.75588345  0.90583389  1
