# generated using pymatgen
data_In2Te3
_symmetry_space_group_name_H-M   'P 1'
_cell_length_a   18.84010029
_cell_length_b   18.83455128
_cell_length_c   18.82864537
_cell_angle_alpha   90.02891875
_cell_angle_beta   89.96423620
_cell_angle_gamma   90.05414805
_symmetry_Int_Tables_number   1
_chemical_formula_structural   In2Te3
_chemical_formula_sum   'In72 Te108'
_cell_volume   6681.24242444
_cell_formula_units_Z   36
loop_
 _symmetry_equiv_pos_site_id
 _symmetry_equiv_pos_as_xyz
  1  'x, y, z'
loop_
 _atom_site_type_symbol
 _atom_site_label
 _atom_site_symmetry_multiplicity
 _atom_site_fract_x
 _atom_site_fract_y
 _atom_site_fract_z
 _atom_site_occupancy
  In  In0  1  0.69176472  0.51225950  0.16071974  1
  In  In1  1  -0.00149348  0.22159712  0.84556614  1
  In  In2  1  0.48935795  0.80293546  0.65792662  1
  In  In3  1  0.46851669  0.16696562  -0.00024193  1
  In  In4  1  0.67391689  -0.00522580  0.66546681  1
  In  In5  1  0.49657083  0.00768158  0.80874497  1
  In  In6  1  0.33965738  0.85201989  0.81137301  1
  In  In7  1  -0.00402417  -0.01602935  0.66647742  1
  In  In8  1  0.35047264  0.03020376  0.65260709  1
  In  In9  1  0.50671870  0.67176934  0.48696949  1
  In  In10  1  0.67094555  0.02311580  0.31930788  1
  In  In11  1  0.34352126  0.64424455  -0.03103609  1
  In  In12  1  0.17676292  0.01139540  0.52378931  1
  In  In13  1  0.69219415  0.84763937  0.87142130  1
  In  In14  1  0.84854077  0.18851903  0.01839907  1
  In  In15  1  -0.00187606  0.01151076  -0.00071391  1
  In  In16  1  0.15871935  0.33759103  0.15853669  1
  In  In17  1  0.31167225  0.32347250  0.70418206  1
  In  In18  1  0.30285878  0.81360094  0.51948418  1
  In  In19  1  0.49364898  0.33861433  0.83864528  1
  In  In20  1  0.18061247  0.81052317  0.67960538  1
  In  In21  1  0.84575324  0.65389029  0.83600517  1
  In  In22  1  0.67287917  0.36548730  0.69389625  1
  In  In23  1  0.84202504  0.63338473  0.51476962  1
  In  In24  1  0.01167795  0.19716740  0.52531418  1
  In  In25  1  0.84727856  0.64874944  0.15631204  1
  In  In26  1  0.16099526  0.81264363  0.32078165  1
  In  In27  1  -0.00462734  0.85688378  0.15753680  1
  In  In28  1  0.66881381  0.84194535  0.16891740  1
  In  In29  1  0.33042851  0.65169094  0.70162197  1
  In  In30  1  -0.02351493  0.34883944  0.33544051  1
  In  In31  1  0.47556440  0.35704417  0.14550843  1
  In  In32  1  0.17236464  0.47016891  -0.01642000  1
  In  In33  1  0.84438435  0.17756042  0.69374641  1
  In  In34  1  0.47269389  0.16164989  0.66439325  1
  In  In35  1  0.16751256  0.16371037  0.34208128  1
  In  In36  1  0.67794905  0.18040236  0.47846269  1
  In  In37  1  0.32501674  0.50470791  0.13826107  1
  In  In38  1  -0.01949874  0.82250004  0.47989008  1
  In  In39  1  0.32926656  -0.00795809  0.30411176  1
  In  In40  1  0.47131993  0.87021278  0.31733405  1
  In  In41  1  0.31313303  0.15884421  0.49336803  1
  In  In42  1  0.31492249  0.66240865  0.31574555  1
  In  In43  1  0.68598632  0.35338273  -0.00413728  1
  In  In44  1  0.51029666  0.83726406  -0.00256195  1
  In  In45  1  0.66429242  0.16654980  0.14563770  1
  In  In46  1  0.53429582  0.33077021  0.51517738  1
  In  In47  1  0.81473230  0.84727027  0.33419914  1
  In  In48  1  0.16212810  0.03909997  0.84260669  1
  In  In49  1  0.70458965  0.32562729  0.32727997  1
  In  In50  1  0.50261446  0.00145980  0.47119795  1
  In  In51  1  0.67980610  0.63068747  -0.01927692  1
  In  In52  1  0.15006615  0.83012556  0.00715232  1
  In  In53  1  0.34307953  0.31646877  0.33516017  1
  In  In54  1  0.86387631  0.48897771  0.66940498  1
  In  In55  1  0.65849255  0.82011870  0.52867803  1
  In  In56  1  0.66856144  0.18254415  0.85578477  1
  In  In57  1  0.67710234  0.65962958  0.31565775  1
  In  In58  1  0.51533387  0.49795782  0.32347350  1
  In  In59  1  0.81999922  0.82322777  0.66834958  1
  In  In60  1  -0.00700613  0.64486687  0.33215429  1
  In  In61  1  0.32626285  0.49425248  0.51882955  1
  In  In62  1  0.14159789  0.47827673  0.33949998  1
  In  In63  1  0.51755096  0.67835740  0.13397602  1
  In  In64  1  0.84247335  0.33717541  0.51264396  1
  In  In65  1  -0.02151036  0.81716784  0.82694279  1
  In  In66  1  0.17148445  0.64427904  0.83464823  1
  In  In67  1  0.13933594  0.48996876  0.68804717  1
  In  In68  1  0.18279145  0.18594223  0.00168645  1
  In  In69  1  -0.04069064  0.04995476  0.29531400  1
  In  In70  1  0.00231283  0.66438806  -0.00254726  1
  In  In71  1  0.15679580  0.00458783  0.15402157  1
  Te  Te72  1  0.07442934  0.11069898  0.08450684  1
  Te  Te73  1  0.07697504  0.08205389  0.43312733  1
  Te  Te74  1  0.04902785  0.09187767  0.75977896  1
  Te  Te75  1  0.08144422  0.45051833  0.10125710  1
  Te  Te76  1  0.06407213  0.40573167  0.44514532  1
  Te  Te77  1  0.06224459  0.39219069  0.77326130  1
  Te  Te78  1  0.07941317  0.74011623  0.10760310  1
  Te  Te79  1  0.08611898  0.72885052  0.42162996  1
  Te  Te80  1  0.07249708  0.72677635  0.74873400  1
  Te  Te81  1  0.44772573  0.07768821  0.11569946  1
  Te  Te82  1  0.40990754  0.09228402  0.39468667  1
  Te  Te83  1  0.38570389  0.10971397  0.77901965  1
  Te  Te84  1  0.40298586  0.42877785  0.03155874  1
  Te  Te85  1  0.42580959  0.42058054  0.42024530  1
  Te  Te86  1  0.43194711  0.41218187  0.72272924  1
  Te  Te87  1  0.40319444  0.74912149  0.06626408  1
  Te  Te88  1  0.40384522  0.75754210  0.41293830  1
  Te  Te89  1  0.43187161  0.73368202  0.78155022  1
  Te  Te90  1  0.74054193  0.08212903  0.04546707  1
  Te  Te91  1  0.76451830  0.07922025  0.41823403  1
  Te  Te92  1  0.74619893  0.08159490  0.76622172  1
  Te  Te93  1  0.77737501  0.40101891  0.10504494  1
  Te  Te94  1  0.74911037  0.41771791  0.43157867  1
  Te  Te95  1  0.76650015  0.44386044  0.77789141  1
  Te  Te96  1  0.73481724  0.72860324  0.09049023  1
  Te  Te97  1  0.75439510  0.74135920  0.42877953  1
  Te  Te98  1  0.74035577  0.74285282  0.76884506  1
  Te  Te99  1  0.07979192  0.25814612  0.26240682  1
  Te  Te100  1  0.10840551  0.24068051  0.62936589  1
  Te  Te101  1  0.08940499  0.29231115  0.94737422  1
  Te  Te102  1  0.08393392  0.57159715  0.24037984  1
  Te  Te103  1  0.10877485  0.59406321  0.59047338  1
  Te  Te104  1  0.06934859  0.56052875  0.90803952  1
  Te  Te105  1  0.07907826  0.93058399  0.26510701  1
  Te  Te106  1  0.08659308  0.89283380  0.58001886  1
  Te  Te107  1  0.07844741  0.91202494  0.89670843  1
  Te  Te108  1  0.41030532  0.24851234  0.22230108  1
  Te  Te109  1  0.40544063  0.26034233  0.56969709  1
  Te  Te110  1  0.38667597  0.26014278  0.91269758  1
  Te  Te111  1  0.42614857  0.58538756  0.23581526  1
  Te  Te112  1  0.41837123  0.59451523  0.58733622  1
  Te  Te113  1  0.44567265  0.55656486  0.90869929  1
  Te  Te114  1  0.41725911  0.93659528  0.19402077  1
  Te  Te115  1  0.42043047  0.91348403  0.57624322  1
  Te  Te116  1  0.41733612  0.92918734  0.91553084  1
  Te  Te117  1  0.76458330  0.21082019  0.25051278  1
  Te  Te118  1  0.73987438  0.24893988  0.60104476  1
  Te  Te119  1  0.77850823  0.27304844  0.90624053  1
  Te  Te120  1  0.78507742  0.56377318  0.27001732  1
  Te  Te121  1  0.75187077  0.56933913  0.61102592  1
  Te  Te122  1  0.78601993  0.54480639  0.92104599  1
  Te  Te123  1  0.76622994  0.94515868  0.22782277  1
  Te  Te124  1  0.76574298  0.92350815  0.56683207  1
  Te  Te125  1  0.74801254  0.94649921  0.96306737  1
  Te  Te126  1  0.26829553  0.25552619  0.10237065  1
  Te  Te127  1  0.23124656  0.27142138  0.42906969  1
  Te  Te128  1  0.19746328  0.24791892  0.75857421  1
  Te  Te129  1  0.23339784  0.59623983  0.06166904  1
  Te  Te130  1  0.24460650  0.56943252  0.41179127  1
  Te  Te131  1  0.26311409  0.53883140  0.77524083  1
  Te  Te132  1  0.24635345  0.92911632  0.06246500  1
  Te  Te133  1  0.24863339  0.92311611  0.42062527  1
  Te  Te134  1  0.24083783  0.94238793  0.73511541  1
  Te  Te135  1  0.57639334  0.26812460  0.05951348  1
  Te  Te136  1  0.57713875  0.25189534  0.39296375  1
  Te  Te137  1  0.57962720  0.24068301  0.74242318  1
  Te  Te138  1  0.57774214  0.55581965  0.06993489  1
  Te  Te139  1  0.60438014  0.57401947  0.42075685  1
  Te  Te140  1  0.53836136  0.52573346  0.79121342  1
  Te  Te141  1  0.58804769  0.92942216  0.08248727  1
  Te  Te142  1  0.59932641  0.90016806  0.41003434  1
  Te  Te143  1  0.58229895  0.89930102  0.74269911  1
  Te  Te144  1  0.93352932  0.27148650  0.11185671  1
  Te  Te145  1  0.90952835  0.23799687  0.41802320  1
  Te  Te146  1  0.93563422  0.29334764  0.72611778  1
  Te  Te147  1  0.92219556  0.55905582  0.06734982  1
  Te  Te148  1  0.92562371  0.55150283  0.42428966  1
  Te  Te149  1  0.94431323  0.58531673  0.75068478  1
  Te  Te150  1  0.89957602  0.92121054  0.06624942  1
  Te  Te151  1  0.91956287  0.93557700  0.40180328  1
  Te  Te152  1  0.89112468  0.92307217  0.76111111  1
  Te  Te153  1  0.24931334  0.09992566  0.23148438  1
  Te  Te154  1  0.22737172  0.12232251  0.61835898  1
  Te  Te155  1  0.25804727  0.06632487  0.95156609  1
  Te  Te156  1  0.26501709  0.42376377  0.25363083  1
  Te  Te157  1  0.23445650  0.40519846  0.59821818  1
  Te  Te158  1  0.28722505  0.39083228  0.93196194  1
  Te  Te159  1  0.26527723  0.76924823  0.22787534  1
  Te  Te160  1  0.22698095  0.69213990  0.58647814  1
  Te  Te161  1  0.24445835  0.76264007  0.90098350  1
  Te  Te162  1  0.56863817  0.08754876  0.23326807  1
  Te  Te163  1  0.57832798  0.08099504  0.57868497  1
  Te  Te164  1  0.57070119  0.08392499  0.91786992  1
  Te  Te165  1  0.59778059  0.40385035  0.23607001  1
  Te  Te166  1  0.59095993  0.43981560  0.59556995  1
  Te  Te167  1  0.59878229  0.43163950  0.89876156  1
  Te  Te168  1  0.56738558  0.75188125  0.25991240  1
  Te  Te169  1  0.59743137  0.70627312  0.61017145  1
  Te  Te170  1  0.59263195  0.73945194  0.91444555  1
  Te  Te171  1  0.89756672  0.13633481  0.19072923  1
  Te  Te172  1  0.91704198  0.09171805  0.58992329  1
  Te  Te173  1  0.91780120  0.10335400  0.91127913  1
  Te  Te174  1  0.88955039  0.37883283  0.21883619  1
  Te  Te175  1  0.95469821  0.41893815  0.56961302  1
  Te  Te176  1  0.96226252  0.36699465  0.89247467  1
  Te  Te177  1  0.91097072  0.75883586  0.25394804  1
  Te  Te178  1  0.92190249  0.73932965  0.59311610  1
  Te  Te179  1  0.89665412  0.75797417  0.93958001  1
