# generated using pymatgen
data_In2Te3
_symmetry_space_group_name_H-M   'P 1'
_cell_length_a   18.93129930
_cell_length_b   18.91288438
_cell_length_c   18.91556880
_cell_angle_alpha   90.06048296
_cell_angle_beta   90.12308993
_cell_angle_gamma   89.93828514
_symmetry_Int_Tables_number   1
_chemical_formula_structural   In2Te3
_chemical_formula_sum   'In72 Te108'
_cell_volume   6772.61049605
_cell_formula_units_Z   36
loop_
 _symmetry_equiv_pos_site_id
 _symmetry_equiv_pos_as_xyz
  1  'x, y, z'
loop_
 _atom_site_type_symbol
 _atom_site_label
 _atom_site_symmetry_multiplicity
 _atom_site_fract_x
 _atom_site_fract_y
 _atom_site_fract_z
 _atom_site_occupancy
  In  In0  1  0.84146345  0.80599764  -0.00490758  1
  In  In1  1  0.16818002  0.34186474  0.18089832  1
  In  In2  1  0.66743589  -0.01163724  0.65726151  1
  In  In3  1  0.81199579  0.50652727  0.35166737  1
  In  In4  1  -0.01107560  0.51486132  0.16315822  1
  In  In5  1  0.19036752  0.80100143  0.33493047  1
  In  In6  1  0.82249662  0.13901537  0.67534357  1
  In  In7  1  0.82110530  0.83321027  0.32760523  1
  In  In8  1  0.49930531  0.33222435  0.82884802  1
  In  In9  1  0.47287893  0.18551105  0.66491987  1
  In  In10  1  0.30753091  0.64311392  0.69551394  1
  In  In11  1  0.38612102  0.63632569  0.32192421  1
  In  In12  1  0.67525902  0.82285505  0.82478876  1
  In  In13  1  0.49714397  0.52032661  0.00582438  1
  In  In14  1  0.32045272  0.01666265  0.65166415  1
  In  In15  1  0.69316802  0.33826390  0.00803791  1
  In  In16  1  0.34316943  0.17533921  0.84275128  1
  In  In17  1  0.81901965  0.83489473  0.68401862  1
  In  In18  1  0.16775374  0.50017763  0.33176991  1
  In  In19  1  0.14642071  -0.09752777  0.13090653  1
  In  In20  1  0.38322208  0.82657690  0.16965983  1
  In  In21  1  0.34072406  0.66726386  0.00892746  1
  In  In22  1  -0.00775487  0.64615920  0.33873098  1
  In  In23  1  0.33061425  0.48994597  0.50525088  1
  In  In24  1  -0.00244484  0.82298606  0.47800561  1
  In  In25  1  0.48931660  0.67153027  0.82599120  1
  In  In26  1  0.15392344  0.01012910  0.50314504  1
  In  In27  1  -0.01874297  0.00112129  0.30931228  1
  In  In28  1  0.66956732  0.66133903  -0.00357712  1
  In  In29  1  0.35236969  0.21207156  0.48926198  1
  In  In30  1  0.34848813  0.83828278  0.84211688  1
  In  In31  1  0.39345685  0.38388150  0.29856164  1
  In  In32  1  0.66726328  -0.00658918  0.35878202  1
  In  In33  1  0.81681327  0.34483004  0.48174496  1
  In  In34  1  0.31211531  0.17380742  0.19191654  1
  In  In35  1  -0.02416147  0.15870270  0.16117686  1
  In  In36  1  -0.02391790  -0.02191602  0.67324453  1
  In  In37  1  0.32973714  0.81333028  0.51488882  1
  In  In38  1  0.50920914  0.00935362  0.16566510  1
  In  In39  1  0.16619116  0.15441756  0.02288592  1
  In  In40  1  0.64082118  0.33554542  0.66591584  1
  In  In41  1  0.17070701  0.81066705  0.68853295  1
  In  In42  1  0.81720593  -0.01377387  0.15172055  1
  In  In43  1  0.02090174  0.36538991  0.67490612  1
  In  In44  1  0.83632847  0.17674343  0.00433405  1
  In  In45  1  0.52572320  0.68759134  0.51892286  1
  In  In46  1  0.80962890  0.67533866  0.51969659  1
  In  In47  1  0.10590757  0.76731695  -0.03481591  1
  In  In48  1  0.80853398  0.34731607  0.18589043  1
  In  In49  1  0.35014909  0.00652340  -0.02411449  1
  In  In50  1  0.84372335  0.34118937  0.85133973  1
  In  In51  1  0.00493430  0.35918047  -0.03054086  1
  In  In52  1  0.17302848  0.34077123  0.51536540  1
  In  In53  1  0.82518804  0.65848391  0.16484146  1
  In  In54  1  0.14802945  0.19017558  0.68362690  1
  In  In55  1  0.66401907  0.00201922  -0.00787650  1
  In  In56  1  0.66222998  0.52542082  0.83427248  1
  In  In57  1  -0.00629195  -0.04235490  -0.01724811  1
  In  In58  1  0.32701731  -0.01580762  0.30068242  1
  In  In59  1  0.02062760  0.62928958  0.64798882  1
  In  In60  1  0.82679361  0.50762016  0.66067730  1
  In  In61  1  0.50478916  0.50479455  0.67902541  1
  In  In62  1  0.17161409  0.16312613  0.35632777  1
  In  In63  1  0.17995027  0.34021671  0.84278028  1
  In  In64  1  0.52574447  0.17536661  0.01317779  1
  In  In65  1  0.18006607  0.52679052  -0.02353870  1
  In  In66  1  -0.00722875  0.14339365  0.82411079  1
  In  In67  1  0.51219774  0.17526395  0.34683477  1
  In  In68  1  0.00154576  0.32637273  0.36100448  1
  In  In69  1  0.66654761  0.17569329  0.48967596  1
  In  In70  1  0.62520432  0.67848863  0.30272381  1
  In  In71  1  0.49975889  -0.00196948  0.48082211  1
  Te  Te72  1  0.06309158  0.06182823  0.08471613  1
  Te  Te73  1  0.05578693  0.08704028  0.41593512  1
  Te  Te74  1  0.09066029  0.06418218  0.74021759  1
  Te  Te75  1  0.08736034  0.42501662  0.08159379  1
  Te  Te76  1  0.07817201  0.43469609  0.43485523  1
  Te  Te77  1  0.09093062  0.44594968  0.78058963  1
  Te  Te78  1  0.10714443  0.76541785  0.11371611  1
  Te  Te79  1  0.09584537  0.72094036  0.42387565  1
  Te  Te80  1  0.08516963  0.71243509  0.75437437  1
  Te  Te81  1  0.40297132  0.09418285  0.09173039  1
  Te  Te82  1  0.39286237  0.08700164  0.40167561  1
  Te  Te83  1  0.41712725  0.07547746  0.75389737  1
  Te  Te84  1  0.43475674  0.43611424  0.11138418  1
  Te  Te85  1  0.44550157  0.44044150  0.42595933  1
  Te  Te86  1  0.41077610  0.42224229  0.75475571  1
  Te  Te87  1  0.45772754  0.73586036  0.07562241  1
  Te  Te88  1  0.42584778  0.75206876  0.41779543  1
  Te  Te89  1  0.40691713  0.75441423  0.72926350  1
  Te  Te90  1  0.73759303  0.09803466  0.08675138  1
  Te  Te91  1  0.76068820  0.08410028  0.42667886  1
  Te  Te92  1  0.74534103  0.05384293  0.76293310  1
  Te  Te93  1  0.78245046  0.43547499  0.07179222  1
  Te  Te94  1  0.71483165  0.40264815  0.39185130  1
  Te  Te95  1  0.73990580  0.41254915  0.75801583  1
  Te  Te96  1  0.73629836  0.75908143  0.09391116  1
  Te  Te97  1  0.73550549  0.73365874  0.40084232  1
  Te  Te98  1  0.76990665  0.72214479  0.76844377  1
  Te  Te99  1  0.07669751  0.24004435  0.24748026  1
  Te  Te100  1  0.06500328  0.25308248  0.57416666  1
  Te  Te101  1  0.08058182  0.23462143  0.91693763  1
  Te  Te102  1  0.09480605  0.59511258  0.23839747  1
  Te  Te103  1  0.11663187  0.53875644  0.58213852  1
  Te  Te104  1  0.07348814  0.61981666  0.92977647  1
  Te  Te105  1  0.08775091  0.89723954  0.27320755  1
  Te  Te106  1  0.08899163  0.89618960  0.57943222  1
  Te  Te107  1  0.10574031  0.90502154  0.90806997  1
  Te  Te108  1  0.43418446  0.24739916  0.23707313  1
  Te  Te109  1  0.41747075  0.29750682  0.58802286  1
  Te  Te110  1  0.42268967  0.26141593  0.93982599  1
  Te  Te111  1  0.45363514  0.56547247  0.20377037  1
  Te  Te112  1  0.41323977  0.59569800  0.58781468  1
  Te  Te113  1  0.40183142  0.57477755  0.90025792  1
  Te  Te114  1  0.45615610  0.91297024  0.27606995  1
  Te  Te115  1  0.41466688  0.92025282  0.58144754  1
  Te  Te116  1  0.44972002  0.91755702  0.91523894  1
  Te  Te117  1  0.69697434  0.26775657  0.22989569  1
  Te  Te118  1  0.75481974  0.25350699  0.60047306  1
  Te  Te119  1  0.74246463  0.23916834  0.90307340  1
  Te  Te120  1  0.72876454  0.57431304  0.24507878  1
  Te  Te121  1  0.72292997  0.56603797  0.57126037  1
  Te  Te122  1  0.76753835  0.60958688  0.89689551  1
  Te  Te123  1  0.72228822  0.90842199  0.24118342  1
  Te  Te124  1  0.75189605  0.90220606  0.57003374  1
  Te  Te125  1  0.76038356  0.90817070  0.91765595  1
  Te  Te126  1  0.25455790  0.26287750  0.08258965  1
  Te  Te127  1  0.25268582  0.28433484  0.39792883  1
  Te  Te128  1  0.26559723  0.26260917  0.74284363  1
  Te  Te129  1  0.24854472  0.58839899  0.09103384  1
  Te  Te130  1  0.26745891  0.58690646  0.40653571  1
  Te  Te131  1  0.20551888  0.54789159  0.74605758  1
  Te  Te132  1  0.28681120  0.91060954  0.08068722  1
  Te  Te133  1  0.25141697  0.91930419  0.42336570  1
  Te  Te134  1  0.25570884  0.92055260  0.75005475  1
  Te  Te135  1  0.60272791  0.26796199  0.10615951  1
  Te  Te136  1  0.58069844  0.27781107  0.42763035  1
  Te  Te137  1  0.58539264  0.22894568  0.75861748  1
  Te  Te138  1  0.60861172  0.56668439  0.09174321  1
  Te  Te139  1  0.57394618  0.59576552  0.41366667  1
  Te  Te140  1  0.59507920  0.61577834  0.73304348  1
  Te  Te141  1  0.57088945  0.91801262  0.06967691  1
  Te  Te142  1  0.60447133  0.89476838  0.45348580  1
  Te  Te143  1  0.58328117  0.87800337  0.71714751  1
  Te  Te144  1  0.92328927  0.27586387  0.08020546  1
  Te  Te145  1  0.88940703  0.24366714  0.40199877  1
  Te  Te146  1  0.93014292  0.26209738  0.75281989  1
  Te  Te147  1  0.92843303  0.61170520  0.06900020  1
  Te  Te148  1  0.90711698  0.58035153  0.44362664  1
  Te  Te149  1  0.92050271  0.58142306  0.74558831  1
  Te  Te150  1  0.92006468  0.89051646  0.09721471  1
  Te  Te151  1  0.90340641  0.92469560  0.41662089  1
  Te  Te152  1  0.92153500  0.88985655  0.77400784  1
  Te  Te153  1  0.21439393  0.06998747  0.24377750  1
  Te  Te154  1  0.24406093  0.11766153  0.56708948  1
  Te  Te155  1  0.23842453  0.08540634  0.90807512  1
  Te  Te156  1  0.26758720  0.44304338  0.23293249  1
  Te  Te157  1  0.23308320  0.43926899  0.61352466  1
  Te  Te158  1  0.26310605  0.41062684  0.94007717  1
  Te  Te159  1  0.28927452  0.73196665  0.24560297  1
  Te  Te160  1  0.23432065  0.71993650  0.58342774  1
  Te  Te161  1  0.25495288  0.74466894  0.91093081  1
  Te  Te162  1  0.59974657  0.08880803  0.25906976  1
  Te  Te163  1  0.56573959  0.09501326  0.57866188  1
  Te  Te164  1  0.56993953  0.08221625  0.91028244  1
  Te  Te165  1  0.52648964  0.44249850  0.25302442  1
  Te  Te166  1  0.59929015  0.44697386  0.57941434  1
  Te  Te167  1  0.58905961  0.42016442  0.91890835  1
  Te  Te168  1  0.53360596  0.75448240  0.21244274  1
  Te  Te169  1  0.60774890  0.79098178  0.58805393  1
  Te  Te170  1  0.57698395  0.75339177  0.91761922  1
  Te  Te171  1  0.87397117  0.09212951  0.24960026  1
  Te  Te172  1  0.92220071  0.08154157  0.58635951  1
  Te  Te173  1  0.90533616  0.06950711  0.92150231  1
  Te  Te174  1  0.92360965  0.42603301  0.26827733  1
  Te  Te175  1  0.91451463  0.41554506  0.57782031  1
  Te  Te176  1  0.91757959  0.45684886  0.90453181  1
  Te  Te177  1  0.91788569  0.74505873  0.25140151  1
  Te  Te178  1  0.92443384  0.74881554  0.58815901  1
  Te  Te179  1  0.95460471  0.72933417  0.93521498  1
