# generated using pymatgen
data_In2Te3
_symmetry_space_group_name_H-M   'P 1'
_cell_length_a   19.01096176
_cell_length_b   19.01416635
_cell_length_c   19.03908771
_cell_angle_alpha   90.12760019
_cell_angle_beta   89.86297958
_cell_angle_gamma   89.96562155
_symmetry_Int_Tables_number   1
_chemical_formula_structural   In2Te3
_chemical_formula_sum   'In72 Te108'
_cell_volume   6882.16551894
_cell_formula_units_Z   36
loop_
 _symmetry_equiv_pos_site_id
 _symmetry_equiv_pos_as_xyz
  1  'x, y, z'
loop_
 _atom_site_type_symbol
 _atom_site_label
 _atom_site_symmetry_multiplicity
 _atom_site_fract_x
 _atom_site_fract_y
 _atom_site_fract_z
 _atom_site_occupancy
  In  In0  1  0.65542633  0.50960580  0.53627176  1
  In  In1  1  0.30975206  0.31300897  -0.03221234  1
  In  In2  1  0.31484396  -0.01031622  -0.03698695  1
  In  In3  1  0.50818570  0.16736996  0.02564452  1
  In  In4  1  0.83035957  0.67449090  0.82642354  1
  In  In5  1  0.66701532  0.00613286  0.02373780  1
  In  In6  1  0.33686563  0.71632662  0.33748108  1
  In  In7  1  0.67416174  0.69425362  0.30912166  1
  In  In8  1  0.67657675  0.32356930  0.33357128  1
  In  In9  1  0.83511350  0.48819499  0.36196736  1
  In  In10  1  -0.01450894  0.50535338  0.18182884  1
  In  In11  1  0.85267374  0.86208244  0.36013992  1
  In  In12  1  0.87166878  0.27750082  0.49911218  1
  In  In13  1  0.66308130  0.67659460  0.66111668  1
  In  In14  1  0.49165213  -0.01600949  0.52512805  1
  In  In15  1  0.63174097  0.35030777  -0.02012257  1
  In  In16  1  -0.00998879  0.68497444  -0.00333750  1
  In  In17  1  0.17866920  0.68555035  0.51900964  1
  In  In18  1  0.50049395  0.33619934  0.81277516  1
  In  In19  1  0.71431521  -0.04054799  0.64839291  1
  In  In20  1  0.82506421  0.00108868  0.16452505  1
  In  In21  1  0.35381470  0.64198926  -0.03263106  1
  In  In22  1  0.49198569  0.18558500  0.65303225  1
  In  In23  1  0.66410461  0.17706008  0.48943919  1
  In  In24  1  0.16985795  0.29109040  0.78622729  1
  In  In25  1  0.50798864  0.68555621  0.16989098  1
  In  In26  1  0.32410973  0.50096803  0.14217551  1
  In  In27  1  0.66298025  0.84129658  0.83653467  1
  In  In28  1  0.92703999  0.02504106  0.77607628  1
  In  In29  1  0.16573403  0.30360683  0.51014401  1
  In  In30  1  0.17861018  0.48706943  0.35642949  1
  In  In31  1  0.83616396  0.34163883  0.16239085  1
  In  In32  1  0.84813681  0.46929086  0.67615785  1
  In  In33  1  0.47743273  0.14427075  0.34498933  1
  In  In34  1  0.14715590  0.14217537  -0.03745744  1
  In  In35  1  0.85944958  0.14763243  0.34193122  1
  In  In36  1  0.49709185  0.00505169  0.17922908  1
  In  In37  1  0.33199398  0.30431532  0.34867593  1
  In  In38  1  0.65766806  0.33879064  0.67132600  1
  In  In39  1  0.67371407  0.53397861  0.17283603  1
  In  In40  1  0.16992402  0.01827669  0.20198017  1
  In  In41  1  0.17505450  0.32005954  0.14954382  1
  In  In42  1  0.02542677  0.68055488  0.64984976  1
  In  In43  1  0.48188496  0.82530531  0.67569650  1
  In  In44  1  0.84241923  0.66806196  0.47382636  1
  In  In45  1  0.50307921  0.86267143  -0.01159672  1
  In  In46  1  0.15765009  -0.00471452  0.50333180  1
  In  In47  1  0.00481224  0.66226915  0.32221544  1
  In  In48  1  0.17131008  0.81626553  -0.01184460  1
  In  In49  1  0.66151834  0.00247642  0.36479964  1
  In  In50  1  0.49377096  0.53822387  0.34532338  1
  In  In51  1  0.16396705  0.66830609  0.80639257  1
  In  In52  1  0.04800948  0.30984160  -0.01199770  1
  In  In53  1  0.49533736  0.50543310  0.68202304  1
  In  In54  1  0.19200920  0.49791615  -0.00480473  1
  In  In55  1  -0.01838018  0.00057498  -0.01168720  1
  In  In56  1  0.32419346  0.48542454  0.50657271  1
  In  In57  1  0.64923242  0.66510290  0.01069126  1
  In  In58  1  -0.00168382  0.29454079  0.64548075  1
  In  In59  1  0.02953635  0.48806097  0.81641904  1
  In  In60  1  0.01785516  0.86006612  0.18729390  1
  In  In61  1  -0.00520007  0.18139768  0.17108078  1
  In  In62  1  0.49235567  0.35394404  0.18123214  1
  In  In63  1  0.31965089  0.67497122  0.65193536  1
  In  In64  1  0.48732531  0.69542984  0.47773820  1
  In  In65  1  0.02036428  0.84882973  0.50955514  1
  In  In66  1  0.80204820  0.81072135  0.00165059  1
  In  In67  1  0.80757231  0.33520674  0.82784519  1
  In  In68  1  0.33096203  0.84256799  0.16039078  1
  In  In69  1  0.48468023  0.01765145  0.82243338  1
  In  In70  1  0.85102285  0.50074345  -0.01472972  1
  In  In71  1  0.31912131  0.14900124  0.51596597  1
  Te  Te72  1  0.07407694  0.08002407  0.08418512  1
  Te  Te73  1  0.05693101  0.06514331  0.42095874  1
  Te  Te74  1  0.08327352  0.04059220  0.79543621  1
  Te  Te75  1  0.07679657  0.43138852  0.07847383  1
  Te  Te76  1  0.08981368  0.40439012  0.43541044  1
  Te  Te77  1  0.09007719  0.39910148  0.71341422  1
  Te  Te78  1  0.08083641  0.75425309  0.09452731  1
  Te  Te79  1  0.08666612  0.74762421  0.41648891  1
  Te  Te80  1  0.06748504  0.77008930  0.75912266  1
  Te  Te81  1  0.41122245  0.05903371  0.06600536  1
  Te  Te82  1  0.39263796  0.05151672  0.42675255  1
  Te  Te83  1  0.40043177  0.08800076  0.72215106  1
  Te  Te84  1  0.39722440  0.39204386  0.07008395  1
  Te  Te85  1  0.41662671  0.42293754  0.40198218  1
  Te  Te86  1  0.39745879  0.42022707  0.75009490  1
  Te  Te87  1  0.41586127  0.75625997  0.06537751  1
  Te  Te88  1  0.38121891  0.79734316  0.45361970  1
  Te  Te89  1  0.42647163  0.70935717  0.74754135  1
  Te  Te90  1  0.75673371  0.10198648  0.08628748  1
  Te  Te91  1  0.76912218  0.07920143  0.44182737  1
  Te  Te92  1  0.78020321  0.04847260  0.74019170  1
  Te  Te93  1  0.74699102  0.43465167  0.08194251  1
  Te  Te94  1  0.73302343  0.41202504  0.44240493  1
  Te  Te95  1  0.72463607  0.44220444  0.75890165  1
  Te  Te96  1  0.72599547  0.74430519  0.10685114  1
  Te  Te97  1  0.74124559  0.77305287  0.42911075  1
  Te  Te98  1  0.75532326  0.77079852  0.73791471  1
  Te  Te99  1  0.08299515  0.26761856  0.24904934  1
  Te  Te100  1  0.10631296  0.19310389  0.59894382  1
  Te  Te101  1  0.05963429  0.22285361  0.86574869  1
  Te  Te102  1  0.10281730  0.57096857  0.25050842  1
  Te  Te103  1  0.11249899  0.57615218  0.59368390  1
  Te  Te104  1  0.08181886  0.58783232  0.92306584  1
  Te  Te105  1  0.12046807  0.90673721  0.28173028  1
  Te  Te106  1  0.06501492  0.94456098  0.62003938  1
  Te  Te107  1  0.08589760  0.91923360  0.91409381  1
  Te  Te108  1  0.41445174  0.23730863  0.23960552  1
  Te  Te109  1  0.40235813  0.26130250  0.56311366  1
  Te  Te110  1  0.43597601  0.24547061  0.91772655  1
  Te  Te111  1  0.40042796  0.59469141  0.24105366  1
  Te  Te112  1  0.42653974  0.58743205  0.56363121  1
  Te  Te113  1  0.40464887  0.51787170  0.91222299  1
  Te  Te114  1  0.38975673  0.93870629  0.25287876  1
  Te  Te115  1  0.39653723  0.93396756  0.62711820  1
  Te  Te116  1  0.40674322  0.90075275  0.87845787  1
  Te  Te117  1  0.77167928  0.23880848  0.25427187  1
  Te  Te118  1  0.75103852  0.25038517  0.58857840  1
  Te  Te119  1  0.72930296  0.25871095  0.92388093  1
  Te  Te120  1  0.77785676  0.59147067  0.26615942  1
  Te  Te121  1  0.77511765  0.58648450  0.59110164  1
  Te  Te122  1  0.74751751  0.58916813  0.91927563  1
  Te  Te123  1  0.74896239  0.92093424  0.26662970  1
  Te  Te124  1  0.76108620  0.89226573  0.52996844  1
  Te  Te125  1  0.75078780  0.92822141  0.92268013  1
  Te  Te126  1  0.24102771  0.21680626  0.06271619  1
  Te  Te127  1  0.22703027  0.20644105  0.39864148  1
  Te  Te128  1  0.28763692  0.20790619  0.75859334  1
  Te  Te129  1  0.24696251  0.61182830  0.07608116  1
  Te  Te130  1  0.26519014  0.59925857  0.41599007  1
  Te  Te131  1  0.23471233  0.57348539  0.71951730  1
  Te  Te132  1  0.22965658  0.92914413  0.07552692  1
  Te  Te133  1  0.24002038  0.87194641  0.48441806  1
  Te  Te134  1  0.21374579  0.97566087  0.82774176  1
  Te  Te135  1  0.59148693  0.26957096  0.10282958  1
  Te  Te136  1  0.56460531  0.25480096  0.40834907  1
  Te  Te137  1  0.59564262  0.23027805  0.75520446  1
  Te  Te138  1  0.55621369  0.56980432  0.08437521  1
  Te  Te139  1  0.61104396  0.59913102  0.42108215  1
  Te  Te140  1  0.57671010  0.60440951  0.75492431  1
  Te  Te141  1  0.58772461  0.90632227  0.10397512  1
  Te  Te142  1  0.55767752  0.91270246  0.41432666  1
  Te  Te143  1  0.58707803  0.93000702  0.74062370  1
  Te  Te144  1  0.92385904  0.26408485  0.06540903  1
  Te  Te145  1  0.97468434  0.20243687  0.42159697  1
  Te  Te146  1  0.88067584  0.24720744  0.73161566  1
  Te  Te147  1  0.90710554  0.59663614  0.08838036  1
  Te  Te148  1  0.94687169  0.56916332  0.42662137  1
  Te  Te149  1  0.92578075  0.58102356  0.75086720  1
  Te  Te150  1  0.90913299  0.89816762  0.08081518  1
  Te  Te151  1  0.94464633  0.95464322  0.43266892  1
  Te  Te152  1  0.95555345  0.89571968  0.70970128  1
  Te  Te153  1  0.23812681  0.12926497  0.26308511  1
  Te  Te154  1  0.22535847  0.07945240  0.60790527  1
  Te  Te155  1  0.27651144  0.11460994  0.87970549  1
  Te  Te156  1  0.26264311  0.40500028  0.24973854  1
  Te  Te157  1  0.27405658  0.37162499  0.58612286  1
  Te  Te158  1  0.22211820  0.40179137  0.88424947  1
  Te  Te159  1  0.23628005  0.76847890  0.24681996  1
  Te  Te160  1  0.22835548  0.78864642  0.61655502  1
  Te  Te161  1  0.26366621  0.74169687  0.89280628  1
  Te  Te162  1  0.59247162  0.09050200  0.26142467  1
  Te  Te163  1  0.58751752  0.08803743  0.58370932  1
  Te  Te164  1  0.57982981  0.07931041  0.92267209  1
  Te  Te165  1  0.59671091  0.43817946  0.26392491  1
  Te  Te166  1  0.55740200  0.40515719  0.58102790  1
  Te  Te167  1  0.54465667  0.44677787  0.90771107  1
  Te  Te168  1  0.55314540  0.77087757  0.27997256  1
  Te  Te169  1  0.57871289  0.76683435  0.57449611  1
  Te  Te170  1  0.57085941  0.74905070  0.91280606  1
  Te  Te171  1  0.93752693  0.06160035  0.24515636  1
  Te  Te172  1  0.95641196  0.15031274  0.62830213  1
  Te  Te173  1  0.90432172  0.09171184  0.90632779  1
  Te  Te174  1  0.92199198  0.40149910  0.27217093  1
  Te  Te175  1  0.92256980  0.40545686  0.56416379  1
  Te  Te176  1  0.93107409  0.40618509  0.89783110  1
  Te  Te177  1  0.91818202  0.76844954  0.25856568  1
  Te  Te178  1  0.91815366  0.75366246  0.57281512  1
  Te  Te179  1  0.91388052  0.77421686  0.90280643  1
