# generated using pymatgen
data_In2Te3
_symmetry_space_group_name_H-M   'P 1'
_cell_length_a   18.77223440
_cell_length_b   18.77005166
_cell_length_c   18.77356388
_cell_angle_alpha   90.05537099
_cell_angle_beta   90.01800593
_cell_angle_gamma   89.96685557
_symmetry_Int_Tables_number   1
_chemical_formula_structural   In2Te3
_chemical_formula_sum   'In72 Te108'
_cell_volume   6614.96977767
_cell_formula_units_Z   36
loop_
 _symmetry_equiv_pos_site_id
 _symmetry_equiv_pos_as_xyz
  1  'x, y, z'
loop_
 _atom_site_type_symbol
 _atom_site_label
 _atom_site_symmetry_multiplicity
 _atom_site_fract_x
 _atom_site_fract_y
 _atom_site_fract_z
 _atom_site_occupancy
  In  In0  1  0.66441214  0.85848293  0.16738156  1
  In  In1  1  0.16855933  0.64866018  0.83829092  1
  In  In2  1  0.83024560  0.65464498  0.49525149  1
  In  In3  1  0.32514309  0.13278893  0.87721278  1
  In  In4  1  0.82625042  0.16869456  0.33297781  1
  In  In5  1  0.67907030  0.49905556  0.49875112  1
  In  In6  1  0.14933355  0.33443299  0.51153517  1
  In  In7  1  0.51560704  0.17017146  0.30801472  1
  In  In8  1  0.82909787  0.66693745  0.83235937  1
  In  In9  1  0.66883967  0.34049991  0.32999174  1
  In  In10  1  0.82768859  0.18067538  -0.00315525  1
  In  In11  1  0.32248508  0.85353925  0.17444315  1
  In  In12  1  0.65526238  0.67061312  -0.01719960  1
  In  In13  1  -0.00811749  -0.01258955  0.33362469  1
  In  In14  1  0.15433656  0.50337851  0.03115887  1
  In  In15  1  -0.02214927  0.34221796  0.65647744  1
  In  In16  1  0.00207938  0.49910089  0.84446119  1
  In  In17  1  0.15643471  -0.00522278  0.49872776  1
  In  In18  1  0.01179877  0.32601402  -0.00446286  1
  In  In19  1  0.33351624  0.00369101  0.32802684  1
  In  In20  1  0.16497135  0.51011788  0.66399906  1
  In  In21  1  0.14243799  0.81727138  0.03181648  1
  In  In22  1  -0.02853072  0.86168971  0.81227513  1
  In  In23  1  0.66275754  -0.00712079  -0.00239408  1
  In  In24  1  0.83190161  0.00031219  0.16597605  1
  In  In25  1  -0.00507449  0.67111332  0.66394855  1
  In  In26  1  0.66445050  0.49408036  0.83550142  1
  In  In27  1  0.33677921  0.65052123  0.00403825  1
  In  In28  1  0.67979060  0.82301866  0.83196588  1
  In  In29  1  0.00070722  0.84209143  0.49971915  1
  In  In30  1  0.82296504  0.34040021  0.50699443  1
  In  In31  1  0.34221527  -0.01201614  0.67042366  1
  In  In32  1  0.32568350  0.66500192  0.33098140  1
  In  In33  1  0.16562549  0.84861706  0.65682675  1
  In  In34  1  0.50863411  0.85652987  0.31272508  1
  In  In35  1  0.50525679  0.16613062  0.03582092  1
  In  In36  1  0.13312548  0.53132546  0.31148817  1
  In  In37  1  0.14233162  0.78922035  0.33650103  1
  In  In38  1  0.52983640  0.32389624  0.81878978  1
  In  In39  1  0.34661665  0.34055077  0.32328750  1
  In  In40  1  0.15017081  0.69347852  0.49240412  1
  In  In41  1  0.00718346  0.00051889  0.01118166  1
  In  In42  1  0.83425923  0.34172406  0.17355703  1
  In  In43  1  0.35444042  0.32789246  0.64176790  1
  In  In44  1  0.67680489  0.30960173  0.66166746  1
  In  In45  1  0.34847225  0.18291016  0.49308210  1
  In  In46  1  -0.01558538  0.16617216  0.82077093  1
  In  In47  1  0.68459999  0.02641935  0.64143214  1
  In  In48  1  0.83249840  0.32536665  0.83173002  1
  In  In49  1  0.50322292  0.32037247  0.47112571  1
  In  In50  1  0.48870106  0.48617287  -0.00453851  1
  In  In51  1  0.16527569  0.29974961  0.84409194  1
  In  In52  1  0.50468597  0.83255828  0.66424247  1
  In  In53  1  0.50549664  0.66731915  0.50171323  1
  In  In54  1  0.49721824  0.68111614  0.17468356  1
  In  In55  1  -0.01079722  0.33902943  0.32223912  1
  In  In56  1  0.34595208  0.32513974  0.01643144  1
  In  In57  1  0.51857477  0.52606025  0.66408418  1
  In  In58  1  0.68129854  0.00766818  0.33466708  1
  In  In59  1  0.68688410  0.83037203  0.49168933  1
  In  In60  1  0.50597903  0.00535216  0.84227278  1
  In  In61  1  0.82530866  0.83715485  -0.00495955  1
  In  In62  1  0.17800146  0.32418804  0.15809855  1
  In  In63  1  0.34814275  0.84380798  0.83395469  1
  In  In64  1  0.52267227  0.48731040  0.32736183  1
  In  In65  1  0.84802796  0.65038812  0.17487638  1
  In  In66  1  0.33683036  0.84485213  0.51635475  1
  In  In67  1  0.17749093  0.00542731  0.17190147  1
  In  In68  1  0.15929952  0.13538129  0.33450703  1
  In  In69  1  0.33836025  0.49935727  0.85251016  1
  In  In70  1  0.14963446  0.15788667  0.68027187  1
  In  In71  1  0.68568682  0.49385069  0.17280667  1
  Te  Te72  1  0.07373796  0.09013679  0.10821729  1
  Te  Te73  1  0.05369531  0.08756140  0.43468226  1
  Te  Te74  1  0.08233734  0.06439654  0.77020490  1
  Te  Te75  1  0.06116892  0.41344887  0.11050951  1
  Te  Te76  1  0.07712524  0.42588494  0.41435900  1
  Te  Te77  1  0.09016538  0.40607754  0.75146449  1
  Te  Te78  1  0.04682796  0.73132570  0.11204023  1
  Te  Te79  1  0.02031889  0.71307284  0.40189737  1
  Te  Te80  1  0.08928918  0.75245762  0.75548097  1
  Te  Te81  1  0.43387083  0.05039538  0.08924937  1
  Te  Te82  1  0.43102644  0.08370824  0.41206879  1
  Te  Te83  1  0.41165718  0.09157781  0.75638427  1
  Te  Te84  1  0.39438972  0.43721221  0.09788322  1
  Te  Te85  1  0.41332382  0.43425582  0.42349741  1
  Te  Te86  1  0.42265938  0.41476694  0.75208043  1
  Te  Te87  1  0.40823336  0.76266205  0.08294132  1
  Te  Te88  1  0.41690272  0.76542481  0.40375090  1
  Te  Te89  1  0.40929759  0.74918382  0.73950746  1
  Te  Te90  1  0.73988235  0.09054578  0.08701651  1
  Te  Te91  1  0.76904058  0.07617925  0.43414234  1
  Te  Te92  1  0.77677613  0.08793961  0.74509141  1
  Te  Te93  1  0.76084758  0.42021963  0.07030458  1
  Te  Te94  1  0.77014176  0.43233605  0.39449327  1
  Te  Te95  1  0.75431970  0.41795580  0.73742814  1
  Te  Te96  1  0.74473718  0.74411636  0.08645590  1
  Te  Te97  1  0.76679973  0.74793548  0.39780571  1
  Te  Te98  1  0.76477847  0.75454487  0.73286698  1
  Te  Te99  1  0.08677206  0.24252894  0.25255418  1
  Te  Te100  1  0.06010097  0.23352457  0.58289187  1
  Te  Te101  1  0.08709464  0.20852518  0.93358064  1
  Te  Te102  1  0.04751849  0.60608238  0.20946624  1
  Te  Te103  1  0.07207967  0.58048424  0.56797569  1
  Te  Te104  1  0.06815656  0.59685066  0.94110626  1
  Te  Te105  1  0.09011210  0.90641656  0.25073299  1
  Te  Te106  1  0.05766371  0.94118121  0.60275783  1
  Te  Te107  1  0.07652815  0.90030198  0.91814639  1
  Te  Te108  1  0.41231322  0.24576332  0.23133598  1
  Te  Te109  1  0.45952331  0.22406055  0.59356600  1
  Te  Te110  1  0.42164272  0.25031228  0.90817107  1
  Te  Te111  1  0.41884343  0.57452124  0.25133977  1
  Te  Te112  1  0.41309237  0.58246223  0.57821987  1
  Te  Te113  1  0.44169730  0.59956761  0.90354112  1
  Te  Te114  1  0.43522326  0.95434261  0.21614117  1
  Te  Te115  1  0.44407454  0.93805065  0.56860556  1
  Te  Te116  1  0.41400081  0.93185321  0.93327640  1
  Te  Te117  1  0.73596058  0.24107013  0.23457641  1
  Te  Te118  1  0.73849221  0.22650562  0.55373628  1
  Te  Te119  1  0.73109532  0.24880765  0.90770429  1
  Te  Te120  1  0.75227908  0.58552369  0.26796135  1
  Te  Te121  1  0.74767368  0.58393833  0.59707133  1
  Te  Te122  1  0.75936047  0.57271783  0.92984013  1
  Te  Te123  1  0.77182907  0.90160085  0.26539571  1
  Te  Te124  1  0.77075344  0.92288496  0.57656622  1
  Te  Te125  1  0.76214425  0.93530835  0.89726600  1
  Te  Te126  1  0.24701060  0.22830722  0.06669691  1
  Te  Te127  1  0.23764851  0.25264572  0.41235625  1
  Te  Te128  1  0.26217067  0.24641954  0.73815709  1
  Te  Te129  1  0.25236057  0.58457397  0.10588250  1
  Te  Te130  1  0.23302136  0.58398694  0.41898953  1
  Te  Te131  1  0.27073671  0.58598594  0.74424534  1
  Te  Te132  1  0.24878153  0.93283822  0.05476036  1
  Te  Te133  1  0.24111050  0.90443234  0.40570214  1
  Te  Te134  1  0.23847615  0.92868250  0.76469146  1
  Te  Te135  1  0.57468926  0.26832372  0.11343992  1
  Te  Te136  1  0.61013050  0.22815048  0.41698444  1
  Te  Te137  1  0.60339577  0.21386843  0.75008353  1
  Te  Te138  1  0.57918582  0.58125619  0.08855879  1
  Te  Te139  1  0.59878588  0.59274603  0.40660997  1
  Te  Te140  1  0.59732444  0.60279825  0.76103345  1
  Te  Te141  1  0.56861840  0.89795136  0.06201714  1
  Te  Te142  1  0.58481963  0.92608016  0.42344088  1
  Te  Te143  1  0.59478228  0.92958483  0.74255741  1
  Te  Te144  1  0.92508142  0.24551301  0.09348481  1
  Te  Te145  1  0.91775827  0.25105297  0.42396303  1
  Te  Te146  1  0.88879756  0.23407285  0.71878871  1
  Te  Te147  1  0.94614519  0.59299704  0.07934312  1
  Te  Te148  1  0.94010892  0.58330301  0.42613229  1
  Te  Te149  1  0.91278136  0.57008255  0.74489871  1
  Te  Te150  1  0.92244955  0.90179665  0.09360058  1
  Te  Te151  1  0.89796033  0.91686093  0.42308704  1
  Te  Te152  1  0.87407294  0.94255239  0.72781303  1
  Te  Te153  1  0.27370969  0.10907608  0.23576148  1
  Te  Te154  1  0.25583073  0.08334452  0.57474929  1
  Te  Te155  1  0.23215747  0.05788436  0.95941079  1
  Te  Te156  1  0.23693781  0.42459416  0.25838219  1
  Te  Te157  1  0.25637329  0.42411380  0.57368209  1
  Te  Te158  1  0.23006719  0.41714174  0.92225197  1
  Te  Te159  1  0.23805292  0.73657815  0.22816641  1
  Te  Te160  1  0.25562376  0.74237796  0.59380475  1
  Te  Te161  1  0.24374579  0.74919891  0.92672903  1
  Te  Te162  1  0.59869296  0.07414798  0.23117074  1
  Te  Te163  1  0.57622985  0.11490904  0.59513695  1
  Te  Te164  1  0.59228474  0.10375424  0.92076915  1
  Te  Te165  1  0.56827181  0.38746353  0.21653697  1
  Te  Te166  1  0.57976708  0.40715962  0.57636902  1
  Te  Te167  1  0.59683774  0.39775647  0.93508005  1
  Te  Te168  1  0.60309758  0.74913943  0.25964536  1
  Te  Te169  1  0.60367941  0.74294535  0.58961451  1
  Te  Te170  1  0.57161396  0.77659232  0.92272578  1
  Te  Te171  1  0.92538696  0.09215285  0.24363689  1
  Te  Te172  1  0.89217085  0.07222400  0.64904550  1
  Te  Te173  1  0.90795974  0.07598951  0.92007256  1
  Te  Te174  1  0.90794198  0.44250785  0.25456910  1
  Te  Te175  1  0.90963719  0.44184812  0.57362427  1
  Te  Te176  1  0.90730572  0.41647081  0.93065237  1
  Te  Te177  1  0.94841900  0.74463464  0.23685048  1
  Te  Te178  1  0.90479441  0.76396926  0.59000285  1
  Te  Te179  1  0.92533041  0.75484881  0.91302380  1
