# generated using pymatgen
data_In2Te3
_symmetry_space_group_name_H-M   'P 1'
_cell_length_a   18.93825478
_cell_length_b   18.92620449
_cell_length_c   18.95370956
_cell_angle_alpha   90.01801734
_cell_angle_beta   90.01853584
_cell_angle_gamma   90.07640205
_symmetry_Int_Tables_number   1
_chemical_formula_structural   In2Te3
_chemical_formula_sum   'In72 Te108'
_cell_volume   6793.55779036
_cell_formula_units_Z   36
loop_
 _symmetry_equiv_pos_site_id
 _symmetry_equiv_pos_as_xyz
  1  'x, y, z'
loop_
 _atom_site_type_symbol
 _atom_site_label
 _atom_site_symmetry_multiplicity
 _atom_site_fract_x
 _atom_site_fract_y
 _atom_site_fract_z
 _atom_site_occupancy
  In  In0  1  0.14573889  0.83529959  0.03814074  1
  In  In1  1  0.51472398  0.16119177  0.66478192  1
  In  In2  1  0.34062192  0.82310796  0.16482968  1
  In  In3  1  0.66847898  0.00229570  0.35885498  1
  In  In4  1  -0.02768608  0.47137033  0.50841686  1
  In  In5  1  0.81858215  0.00546425  0.18408763  1
  In  In6  1  0.85074213  0.84401737  0.32876479  1
  In  In7  1  0.34164535  0.67099024  0.67056170  1
  In  In8  1  0.83791500  0.46450703  -0.04583350  1
  In  In9  1  0.50995997  0.82126332  0.00112854  1
  In  In10  1  0.15942532  0.30153437  0.00442399  1
  In  In11  1  0.00517564  0.02490162  0.35936415  1
  In  In12  1  0.33972703  0.01931073  0.66764798  1
  In  In13  1  0.19296866  0.83510704  0.33752280  1
  In  In14  1  0.14040811  0.02251846  0.81103181  1
  In  In15  1  0.48273865  0.48302936  -0.01583096  1
  In  In16  1  0.83250276  0.82678928  -0.00113542  1
  In  In17  1  0.67678032  0.67063721  0.31649133  1
  In  In18  1  0.34371292  0.86334299  0.48808072  1
  In  In19  1  0.66151505  0.50301464  0.17656224  1
  In  In20  1  -0.02100836  -0.00652864  -0.00916395  1
  In  In21  1  0.70910200  0.17385714  0.80010503  1
  In  In22  1  0.13305449  0.47378101  0.34233254  1
  In  In23  1  0.00540980  0.84848742  0.49926903  1
  In  In24  1  0.01853715  0.80043994  0.16315861  1
  In  In25  1  0.82484735  0.84403396  0.66642585  1
  In  In26  1  0.17264855  0.64757214  0.85097052  1
  In  In27  1  0.51964018  0.68052715  0.50901018  1
  In  In28  1  0.32618757  0.65403510  0.30011855  1
  In  In29  1  0.68020553  0.64638320  -0.00723728  1
  In  In30  1  0.00308454  0.64280741  0.66251331  1
  In  In31  1  0.32782137  0.49257296  0.82897854  1
  In  In32  1  0.52639156  -0.00122924  0.82189717  1
  In  In33  1  0.83400501  0.64371557  0.14607614  1
  In  In34  1  0.13814020  0.49487018  -0.00656252  1
  In  In35  1  0.70428157  0.32846204  0.35963843  1
  In  In36  1  0.47455908  0.32982086  0.81600936  1
  In  In37  1  -0.00983674  0.80858224  0.84036313  1
  In  In38  1  0.83560412  0.62903289  0.51251748  1
  In  In39  1  0.83294319  0.15028818  0.00319875  1
  In  In40  1  0.53549188  0.51616466  0.67045837  1
  In  In41  1  0.31631115  0.48467592  0.49246906  1
  In  In42  1  0.49965261  0.16523849  -0.01109078  1
  In  In43  1  0.51962279  0.80822710  0.33721753  1
  In  In44  1  0.49341236  -0.02597609  0.16370022  1
  In  In45  1  0.82195189  0.32734058  0.17980897  1
  In  In46  1  -0.01135965  0.44162688  0.78862520  1
  In  In47  1  0.15343138  0.66036385  0.51879187  1
  In  In48  1  0.29095916  0.19722313  0.82006422  1
  In  In49  1  0.48823324  0.51880080  0.35116391  1
  In  In50  1  0.84645593  0.00751449  0.83090395  1
  In  In51  1  0.12600846  0.30248060  0.54702196  1
  In  In52  1  0.32548229  0.63496165  -0.00734743  1
  In  In53  1  0.01333823  0.17917256  0.15765302  1
  In  In54  1  0.32666255  0.35111461  0.32137708  1
  In  In55  1  0.52490939  0.18429180  0.34165682  1
  In  In56  1  -0.01878579  0.47827543  0.18299209  1
  In  In57  1  0.30668338  0.02637958  0.32326415  1
  In  In58  1  0.34207428  0.79783862  0.81547641  1
  In  In59  1  0.32559541  0.18952677  0.52526061  1
  In  In60  1  0.72390766  0.18260842  0.50783837  1
  In  In61  1  0.48636916  0.02688824  0.52416431  1
  In  In62  1  0.73178752  0.43080842  0.58162136  1
  In  In63  1  0.16011505  0.85676096  0.66476596  1
  In  In64  1  0.15627210  0.16999801  0.33686832  1
  In  In65  1  0.64526888  0.32644704  -0.00600796  1
  In  In66  1  -0.03453553  0.05163456  0.65219880  1
  In  In67  1  0.34013294  0.01834004  -0.02640683  1
  In  In68  1  0.49028189  0.35171107  0.16962134  1
  In  In69  1  0.67983036  0.83336143  0.50863746  1
  In  In70  1  0.68181384  0.84036435  0.83033708  1
  In  In71  1  0.15615124  0.00107640  0.17694740  1
  Te  Te72  1  0.08173160  0.07750687  0.06830317  1
  Te  Te73  1  0.07152998  0.12230513  0.44985834  1
  Te  Te74  1  0.07408571  0.12063043  0.72586904  1
  Te  Te75  1  0.07982020  0.39622036  0.09365270  1
  Te  Te76  1  0.05810390  0.37136888  0.43045841  1
  Te  Te77  1  0.11937188  0.36467239  0.76534864  1
  Te  Te78  1  0.06026412  0.71641910  0.05043844  1
  Te  Te79  1  0.08979646  0.75445057  0.41562975  1
  Te  Te80  1  0.09895225  0.74163733  0.74364139  1
  Te  Te81  1  0.41599387  0.08268203  0.08706132  1
  Te  Te82  1  0.40959265  0.09710876  0.41284657  1
  Te  Te83  1  0.41298077  0.10092965  0.77173221  1
  Te  Te84  1  0.38917280  0.40598231  0.07284889  1
  Te  Te85  1  0.42505201  0.40245042  0.42585208  1
  Te  Te86  1  0.41587758  0.43030585  0.72073233  1
  Te  Te87  1  0.41710369  0.72875144  0.07698011  1
  Te  Te88  1  0.40310563  0.74111492  0.40809261  1
  Te  Te89  1  0.45214945  0.73654527  0.74220244  1
  Te  Te90  1  0.73772220  0.07628670  0.08575258  1
  Te  Te91  1  0.77377949  0.10532747  0.38574376  1
  Te  Te92  1  0.78971525  0.08170934  0.71566160  1
  Te  Te93  1  0.73790187  0.41940873  0.07516272  1
  Te  Te94  1  0.78554493  0.42090806  0.44004298  1
  Te  Te95  1  0.79930403  0.37893930  0.74374406  1
  Te  Te96  1  0.73978645  0.74843081  0.09048540  1
  Te  Te97  1  0.76840620  0.74613609  0.42050863  1
  Te  Te98  1  0.78608252  0.75287582  0.77349453  1
  Te  Te99  1  0.08524760  0.26530614  0.25125914  1
  Te  Te100  1  0.00241088  0.27341523  0.62815725  1
  Te  Te101  1  0.07741088  0.27602769  0.88405009  1
  Te  Te102  1  0.05967586  0.57425419  0.26362304  1
  Te  Te103  1  0.08833975  0.54286852  0.58742004  1
  Te  Te104  1  0.05966820  0.55296943  0.87668929  1
  Te  Te105  1  0.07283408  0.91262555  0.26726738  1
  Te  Te106  1  0.07248778  0.95067638  0.58796578  1
  Te  Te107  1  0.08692521  0.91196217  0.91211609  1
  Te  Te108  1  0.41775276  0.24747256  0.25426524  1
  Te  Te109  1  0.43488623  0.25943743  0.59104487  1
  Te  Te110  1  0.39622499  0.25415350  0.92146715  1
  Te  Te111  1  0.41988363  0.56659261  0.23105641  1
  Te  Te112  1  0.40939362  0.58594885  0.56455009  1
  Te  Te113  1  0.42858379  0.58956839  0.89019634  1
  Te  Te114  1  0.39997996  0.91323659  0.27311344  1
  Te  Te115  1  0.42615942  0.90995217  0.60666539  1
  Te  Te116  1  0.42425262  0.91061463  0.90455399  1
  Te  Te117  1  0.73152118  0.23481151  0.24905890  1
  Te  Te118  1  0.75658594  0.27584604  0.63031226  1
  Te  Te119  1  0.75647014  0.25432928  0.92028825  1
  Te  Te120  1  0.77127567  0.56616770  0.26088322  1
  Te  Te121  1  0.73143987  0.58718979  0.60991049  1
  Te  Te122  1  0.73709409  0.55374151  0.88947638  1
  Te  Te123  1  0.73082900  0.90470963  0.25882893  1
  Te  Te124  1  0.76247715  0.93730622  0.57229072  1
  Te  Te125  1  0.75483384  0.93485299  0.92663427  1
  Te  Te126  1  0.29156823  0.28203362  0.06553135  1
  Te  Te127  1  0.24591914  0.26427325  0.41926445  1
  Te  Te128  1  0.24300604  0.28625182  0.71225795  1
  Te  Te129  1  0.22837404  0.57313190  0.08119182  1
  Te  Te130  1  0.23854432  0.58986013  0.41337254  1
  Te  Te131  1  0.24159995  0.57682566  0.73510786  1
  Te  Te132  1  0.26609401  0.93017678  0.08484371  1
  Te  Te133  1  0.23122493  0.94937775  0.43124189  1
  Te  Te134  1  0.25642140  0.92082987  0.76495127  1
  Te  Te135  1  0.57283845  0.24441873  0.09743975  1
  Te  Te136  1  0.60138339  0.25756179  0.44680291  1
  Te  Te137  1  0.59240077  0.26226518  0.74800241  1
  Te  Te138  1  0.57513920  0.56908189  0.07095220  1
  Te  Te139  1  0.60341329  0.58877960  0.42191549  1
  Te  Te140  1  0.65049449  0.57061483  0.74407716  1
  Te  Te141  1  0.58956640  0.92502920  0.06630284  1
  Te  Te142  1  0.56220178  0.91547666  0.43513562  1
  Te  Te143  1  0.60930724  0.92207580  0.73095077  1
  Te  Te144  1  0.91122163  0.25728232  0.07859436  1
  Te  Te145  1  0.85267164  0.24064509  0.44360148  1
  Te  Te146  1  0.87908113  0.25292075  0.72689902  1
  Te  Te147  1  0.91114743  0.54369150  0.06392641  1
  Te  Te148  1  0.94402709  0.58988346  0.42406701  1
  Te  Te149  1  0.90609668  0.56888698  0.74778365  1
  Te  Te150  1  0.92067921  0.90894456  0.10297956  1
  Te  Te151  1  0.90264370  0.93993091  0.43412979  1
  Te  Te152  1  0.94201921  0.91804502  0.74761056  1
  Te  Te153  1  0.24465783  0.11676965  0.22022303  1
  Te  Te154  1  0.23843403  0.09582532  0.59622055  1
  Te  Te155  1  0.22448509  0.09769863  0.91544630  1
  Te  Te156  1  0.24636247  0.45099136  0.25124390  1
  Te  Te157  1  0.23797141  0.39646805  0.58423191  1
  Te  Te158  1  0.24134528  0.41158847  0.92112795  1
  Te  Te159  1  0.22665866  0.74015239  0.22314459  1
  Te  Te160  1  0.25146400  0.76884513  0.57785754  1
  Te  Te161  1  0.24763565  0.75830555  0.92901223  1
  Te  Te162  1  0.57396881  0.06722839  0.25923571  1
  Te  Te163  1  0.61159719  0.08775144  0.57594186  1
  Te  Te164  1  0.60313091  0.10535003  0.89545256  1
  Te  Te165  1  0.58371925  0.41533051  0.27261151  1
  Te  Te166  1  0.58487425  0.42553430  0.56720232  1
  Te  Te167  1  0.57837800  0.41416302  0.88999048  1
  Te  Te168  1  0.57754221  0.73280068  0.22824717  1
  Te  Te169  1  0.60554313  0.74979431  0.60450448  1
  Te  Te170  1  0.59525208  0.73994865  0.90719155  1
  Te  Te171  1  0.92652049  0.09330134  0.24838581  1
  Te  Te172  1  0.93144361  0.14921032  0.54031310  1
  Te  Te173  1  0.93799205  0.10730186  0.89956293  1
  Te  Te174  1  0.90364747  0.39731376  0.27880366  1
  Te  Te175  1  0.89454128  0.45589036  0.64022967  1
  Te  Te176  1  0.94603865  0.36918566  0.91468251  1
  Te  Te177  1  0.91249399  0.73249224  0.24713171  1
  Te  Te178  1  0.92532292  0.74904772  0.58472174  1
  Te  Te179  1  0.91083533  0.72316329  0.92882990  1
