# generated using pymatgen
data_In2Te3
_symmetry_space_group_name_H-M   'P 1'
_cell_length_a   18.87261076
_cell_length_b   18.89352484
_cell_length_c   18.88529564
_cell_angle_alpha   89.94843906
_cell_angle_beta   90.00560745
_cell_angle_gamma   90.00686893
_symmetry_Int_Tables_number   1
_chemical_formula_structural   In2Te3
_chemical_formula_sum   'In72 Te108'
_cell_volume   6733.92970832
_cell_formula_units_Z   36
loop_
 _symmetry_equiv_pos_site_id
 _symmetry_equiv_pos_as_xyz
  1  'x, y, z'
loop_
 _atom_site_type_symbol
 _atom_site_label
 _atom_site_symmetry_multiplicity
 _atom_site_fract_x
 _atom_site_fract_y
 _atom_site_fract_z
 _atom_site_occupancy
  In  In0  1  0.66497307  0.66244922  0.34920259  1
  In  In1  1  0.17677106  0.02867154  0.84684298  1
  In  In2  1  0.84089430  0.50712952  0.32071916  1
  In  In3  1  0.83034608  0.31657206  0.52402023  1
  In  In4  1  0.00388318  0.16703058  0.17064197  1
  In  In5  1  0.65333907  0.48423987  0.48368807  1
  In  In6  1  0.00488046  0.33444757  0.67282716  1
  In  In7  1  0.62751754  0.64266761  -0.00686807  1
  In  In8  1  0.48562268  0.82657864  0.65904509  1
  In  In9  1  0.47932671  0.19851823  0.31895581  1
  In  In10  1  0.33804200  0.85295089  0.83136831  1
  In  In11  1  0.81804192  0.65426318  0.17455460  1
  In  In12  1  0.79758215  -0.00745344  0.15421284  1
  In  In13  1  0.65863876  0.30262016  0.67742710  1
  In  In14  1  0.01107909  0.01631878  0.35603244  1
  In  In15  1  0.18407250  0.64589929  0.15097077  1
  In  In16  1  0.18518862  0.17713654  0.68168711  1
  In  In17  1  -0.01332593  0.00738021  -0.01512976  1
  In  In18  1  0.36979671  0.03335568  0.66393477  1
  In  In19  1  0.83875855  0.82809312  0.65207898  1
  In  In20  1  0.00666759  0.50157107  0.16052091  1
  In  In21  1  0.46209470  0.47397921  0.00763645  1
  In  In22  1  0.00920939  0.82588565  0.51895804  1
  In  In23  1  0.63360065  0.02413625  0.31811120  1
  In  In24  1  0.65160113  0.02880532  -0.01024628  1
  In  In25  1  0.33626260  0.83940497  0.16469381  1
  In  In26  1  0.48261059  0.32658829  0.50314190  1
  In  In27  1  0.83393918  0.48286277  0.66825888  1
  In  In28  1  0.83166180  -0.00455876  0.49910472  1
  In  In29  1  0.33977563  0.00554736  0.32905315  1
  In  In30  1  0.82852514  0.66821338  0.83821283  1
  In  In31  1  0.33964046  0.66342195  -0.00728489  1
  In  In32  1  0.18648208  0.85376684  0.35088965  1
  In  In33  1  0.34977121  0.63620290  0.65217929  1
  In  In34  1  0.64363651  0.34211135  0.31805303  1
  In  In35  1  0.19383057  0.34753117  0.20377379  1
  In  In36  1  0.01972061  0.48066287  0.82523079  1
  In  In37  1  0.01650588  0.66556628  0.31117994  1
  In  In38  1  0.34289660  0.65995609  0.35100109  1
  In  In39  1  0.65167177  0.83639605  0.17256422  1
  In  In40  1  0.82377426  0.17289121  0.34755405  1
  In  In41  1  0.03259183  0.15086704  0.49511264  1
  In  In42  1  0.81606761  0.02919800  0.84357082  1
  In  In43  1  0.59755965  0.02877011  0.64971219  1
  In  In44  1  0.84492904  0.82636190  0.00867537  1
  In  In45  1  0.32744311  0.48346976  0.83535807  1
  In  In46  1  0.17293132  0.82823560  0.66286375  1
  In  In47  1  0.49259521  0.32319322  0.84245200  1
  In  In48  1  0.05907309  0.35244634  0.37975133  1
  In  In49  1  0.64641193  0.18438077  0.83528124  1
  In  In50  1  0.00635490  0.78915662  0.17617757  1
  In  In51  1  0.50630510  0.83873550  -0.00989040  1
  In  In52  1  0.49561144  0.82148491  0.33961587  1
  In  In53  1  0.18620559  -0.00521126  0.17546525  1
  In  In54  1  0.82255606  0.34813372  0.17410879  1
  In  In55  1  0.18580519  0.18908628  -0.00038887  1
  In  In56  1  0.19486273  0.65638665  0.82302323  1
  In  In57  1  0.83240766  0.65353651  0.49494662  1
  In  In58  1  0.23284088  0.19571508  0.34071995  1
  In  In59  1  0.84908557  0.33472274  0.83401604  1
  In  In60  1  0.45413048  0.17656271  0.02546024  1
  In  In61  1  0.03800978  0.85005145  0.80280534  1
  In  In62  1  0.16169421  0.63192756  0.52670216  1
  In  In63  1  0.48199719  0.49175979  0.31698308  1
  In  In64  1  0.62903674  0.53101551  0.80105679  1
  In  In65  1  0.65130954  0.32645461  0.01519543  1
  In  In66  1  0.33362651  0.32805565  0.65759489  1
  In  In67  1  0.02301326  0.67046854  0.00233937  1
  In  In68  1  0.01057688  0.31882265  -0.00140682  1
  In  In69  1  0.64189126  0.83945548  0.51189127  1
  In  In70  1  0.66903731  0.84169592  0.80867745  1
  In  In71  1  0.01200732  -0.01296688  0.66822774  1
  Te  Te72  1  0.09355833  0.08219244  0.08137896  1
  Te  Te73  1  0.13575046  0.08738567  0.40265336  1
  Te  Te74  1  0.07424256  0.09341415  0.75495412  1
  Te  Te75  1  0.09680349  0.40140251  0.09324114  1
  Te  Te76  1  0.12290316  0.46576168  0.46316070  1
  Te  Te77  1  0.11230997  0.38734386  0.76005309  1
  Te  Te78  1  0.11758081  0.76342952  0.07655927  1
  Te  Te79  1  0.09508267  0.74524436  0.41942738  1
  Te  Te80  1  0.08687136  0.72461495  0.73566693  1
  Te  Te81  1  0.37598440  0.07469356  0.10094763  1
  Te  Te82  1  0.42143270  0.09829032  0.41594332  1
  Te  Te83  1  0.44356221  0.10308612  0.76936310  1
  Te  Te84  1  0.39380708  0.37807841  0.10542261  1
  Te  Te85  1  0.39671976  0.39532485  0.39929101  1
  Te  Te86  1  0.42907430  0.41900466  0.74261681  1
  Te  Te87  1  0.42766836  0.74732165  0.08456461  1
  Te  Te88  1  0.42437729  0.74259372  0.44080252  1
  Te  Te89  1  0.40417711  0.74093273  0.75486560  1
  Te  Te90  1  0.75359323  0.09997982  0.06775503  1
  Te  Te91  1  0.73080289  0.08184634  0.42591233  1
  Te  Te92  1  0.71203088  0.07823213  0.74725444  1
  Te  Te93  1  0.74463479  0.42391278  0.07689547  1
  Te  Te94  1  0.76396533  0.40444286  0.40942921  1
  Te  Te95  1  0.73021391  0.41236987  0.75719877  1
  Te  Te96  1  0.73668720  0.74323063  0.07717362  1
  Te  Te97  1  0.74684548  0.76176297  0.43050039  1
  Te  Te98  1  0.74493281  0.73528699  0.73027251  1
  Te  Te99  1  0.09593893  0.24040933  0.26536270  1
  Te  Te100  1  0.10003800  0.25564232  0.57923927  1
  Te  Te101  1  0.09659261  0.25225524  0.89983365  1
  Te  Te102  1  0.11261063  0.56134295  0.25481551  1
  Te  Te103  1  0.07055945  0.53287405  0.58717001  1
  Te  Te104  1  0.10191228  0.57621148  0.91600724  1
  Te  Te105  1  0.07960454  0.91401589  0.25480800  1
  Te  Te106  1  0.10832782  0.93065816  0.56564657  1
  Te  Te107  1  0.09578418  0.92111665  0.92303765  1
  Te  Te108  1  0.39689862  0.30043014  0.24142313  1
  Te  Te109  1  0.39769219  0.21840740  0.56978230  1
  Te  Te110  1  0.38476440  0.26565868  0.92618087  1
  Te  Te111  1  0.38788727  0.57765937  0.23339604  1
  Te  Te112  1  0.44638797  0.54657753  0.58801916  1
  Te  Te113  1  0.42580907  0.58219646  0.90017622  1
  Te  Te114  1  0.43498126  0.92363193  0.24331992  1
  Te  Te115  1  0.40083428  0.91700675  0.57750222  1
  Te  Te116  1  0.41608295  0.93453505  0.92467479  1
  Te  Te117  1  0.73757085  0.24332784  0.24506639  1
  Te  Te118  1  0.73859860  0.22062872  0.58500088  1
  Te  Te119  1  0.74988898  0.25399264  0.91932848  1
  Te  Te120  1  0.72128750  0.56251392  0.24691923  1
  Te  Te121  1  0.74132170  0.56726685  0.57947387  1
  Te  Te122  1  0.73582802  0.57423781  0.91086998  1
  Te  Te123  1  0.73703374  0.91664905  0.26912490  1
  Te  Te124  1  0.73444890  0.92735766  0.59781029  1
  Te  Te125  1  0.74670494  0.90917251  0.92629042  1
  Te  Te126  1  0.26816541  0.27783957  0.09107903  1
  Te  Te127  1  0.26092988  0.30596104  0.43581295  1
  Te  Te128  1  0.27413445  0.25422985  0.77249898  1
  Te  Te129  1  0.25548936  0.55165125  0.05377188  1
  Te  Te130  1  0.26513328  0.56860713  0.43927659  1
  Te  Te131  1  0.24464799  0.55229927  0.72535297  1
  Te  Te132  1  0.27630150  0.93891914  0.07014890  1
  Te  Te133  1  0.29120766  0.91267731  0.43529406  1
  Te  Te134  1  0.24672463  0.93732082  0.74027472  1
  Te  Te135  1  0.57212451  0.23142571  0.09942625  1
  Te  Te136  1  0.58706286  0.25007351  0.42130656  1
  Te  Te137  1  0.53430706  0.22346418  0.72724524  1
  Te  Te138  1  0.55026564  0.56320026  0.08813916  1
  Te  Te139  1  0.55677168  0.58149940  0.42012914  1
  Te  Te140  1  0.54841203  0.59599107  0.69086858  1
  Te  Te141  1  0.57736967  0.93633598  0.08687855  1
  Te  Te142  1  0.56489197  0.93119853  0.42055947  1
  Te  Te143  1  0.55615444  0.92640320  0.75362278  1
  Te  Te144  1  0.90870516  0.24984210  0.08983255  1
  Te  Te145  1  0.93416790  0.24731555  0.42167836  1
  Te  Te146  1  0.89961508  0.24708069  0.72872282  1
  Te  Te147  1  0.91530978  0.58979046  0.07633534  1
  Te  Te148  1  0.93664124  0.57990730  0.41197140  1
  Te  Te149  1  0.91733339  0.57417107  0.75707274  1
  Te  Te150  1  0.92725904  0.91513727  0.09920593  1
  Te  Te151  1  0.92477757  0.90574535  0.41978465  1
  Te  Te152  1  0.90198388  0.91907543  0.76014042  1
  Te  Te153  1  0.28056281  0.10915446  0.21936401  1
  Te  Te154  1  0.26735929  0.10481377  0.58147250  1
  Te  Te155  1  0.27920663  0.10392129  0.92068206  1
  Te  Te156  1  0.29861425  0.44488882  0.24835901  1
  Te  Te157  1  0.25337981  0.40280498  0.55693462  1
  Te  Te158  1  0.25102073  0.43811772  0.95120368  1
  Te  Te159  1  0.24502167  0.75206574  0.25236437  1
  Te  Te160  1  0.25922507  0.73793251  0.57882883  1
  Te  Te161  1  0.24938888  0.76152943  0.91751233  1
  Te  Te162  1  0.56262215  0.11432515  0.22476205  1
  Te  Te163  1  0.51223321  0.10001616  0.55273221  1
  Te  Te164  1  0.54402288  0.10112012  0.91323907  1
  Te  Te165  1  0.57126631  0.42333088  0.22013716  1
  Te  Te166  1  0.58147642  0.40359531  0.59067848  1
  Te  Te167  1  0.58183372  0.42339292  0.91365542  1
  Te  Te168  1  0.57364878  0.72908781  0.24560906  1
  Te  Te169  1  0.58260651  0.73167283  0.59469594  1
  Te  Te170  1  0.58077313  0.74720078  0.89279951  1
  Te  Te171  1  0.90971330  0.07842058  0.25619776  1
  Te  Te172  1  0.92597878  0.08030130  0.58232632  1
  Te  Te173  1  0.91714113  0.11113172  0.90982511  1
  Te  Te174  1  0.94118864  0.40780600  0.26336708  1
  Te  Te175  1  0.92945637  0.42481066  0.56508133  1
  Te  Te176  1  0.92322707  0.42495622  0.93019536  1
  Te  Te177  1  0.89142411  0.74836101  0.26737689  1
  Te  Te178  1  0.92906602  0.72080058  0.59380693  1
  Te  Te179  1  0.93771109  0.75853889  0.90854885  1
