# generated using pymatgen
data_In2Te3
_symmetry_space_group_name_H-M   'P 1'
_cell_length_a   18.94529910
_cell_length_b   18.97921764
_cell_length_c   18.96080981
_cell_angle_alpha   89.90021076
_cell_angle_beta   89.87510693
_cell_angle_gamma   90.07920280
_symmetry_Int_Tables_number   1
_chemical_formula_structural   In2Te3
_chemical_formula_sum   'In72 Te108'
_cell_volume   6817.64755724
_cell_formula_units_Z   36
loop_
 _symmetry_equiv_pos_site_id
 _symmetry_equiv_pos_as_xyz
  1  'x, y, z'
loop_
 _atom_site_type_symbol
 _atom_site_label
 _atom_site_symmetry_multiplicity
 _atom_site_fract_x
 _atom_site_fract_y
 _atom_site_fract_z
 _atom_site_occupancy
  In  In0  1  0.15116730  0.72624249  0.85578986  1
  In  In1  1  0.16789774  0.16943282  0.01936846  1
  In  In2  1  0.66796780  0.83078037  0.49104127  1
  In  In3  1  0.70469251  0.15795618  0.84911584  1
  In  In4  1  0.47806110  0.83186919  0.63763609  1
  In  In5  1  0.66102575  0.81702593  0.85748213  1
  In  In6  1  0.52226714  -0.01298299  0.84753894  1
  In  In7  1  0.34173456  0.51327244  0.16253842  1
  In  In8  1  0.31105201  0.52127356  0.50497670  1
  In  In9  1  0.67130873  0.30907886  -0.00301119  1
  In  In10  1  0.18173698  -0.02110606  0.15466651  1
  In  In11  1  0.52937129  0.14590891  0.68691541  1
  In  In12  1  0.13996385  0.33586900  0.50028781  1
  In  In13  1  0.81841251  0.50247897  0.32145742  1
  In  In14  1  0.80824317  0.82389413  0.32506082  1
  In  In15  1  0.64784380  0.51098592  0.48913590  1
  In  In16  1  0.15177306  0.69753803  0.17589238  1
  In  In17  1  0.16747730  0.51789543  0.66488675  1
  In  In18  1  0.83358202  0.48815731  -0.00784848  1
  In  In19  1  0.82580793  -0.01025286  0.48546871  1
  In  In20  1  0.13216198  -0.01661579  0.84146080  1
  In  In21  1  0.84417886  0.67041664  0.53413939  1
  In  In22  1  0.84495546  0.14999647  0.67321857  1
  In  In23  1  0.33702504  0.12688194  0.14081806  1
  In  In24  1  0.17892786  0.85639031  0.34603546  1
  In  In25  1  0.67469370  0.33541707  0.29913849  1
  In  In26  1  0.34969162  0.14729047  0.87620119  1
  In  In27  1  0.84309246  0.30561587  0.15893544  1
  In  In28  1  0.47999025  0.83825570  0.02305814  1
  In  In29  1  0.00264899  0.83373760  0.50155091  1
  In  In30  1  -0.01013886  0.48834671  0.14181804  1
  In  In31  1  0.31014341  0.68780739  0.68392127  1
  In  In32  1  0.64871518  0.15483544  0.50189938  1
  In  In33  1  0.50731753  0.31198416  0.85636933  1
  In  In34  1  0.35765757  0.53296092  0.88724256  1
  In  In35  1  -0.00519549  0.32177389  -0.00299273  1
  In  In36  1  -0.00936389  -0.00927703  0.66986029  1
  In  In37  1  0.32887991  0.82576348  0.84142232  1
  In  In38  1  0.17338201  0.16702393  0.30024159  1
  In  In39  1  0.68550529  0.65419332  0.68080924  1
  In  In40  1  0.35403333  0.33024277  0.67832096  1
  In  In41  1  0.50614922  0.50558529  0.67066028  1
  In  In42  1  0.17326043  0.51777854  0.34421982  1
  In  In43  1  0.64940774  0.84027881  0.13079831  1
  In  In44  1  -0.01008774  0.29768656  0.67836272  1
  In  In45  1  0.17074267  0.35771151  0.83320340  1
  In  In46  1  0.64016494  0.50766863  0.15757083  1
  In  In47  1  0.15517417  0.51242624  0.00319273  1
  In  In48  1  0.86343868  0.02059237  0.86808281  1
  In  In49  1  0.83203074  0.83574662  -0.00273516  1
  In  In50  1  0.33473062  0.13563946  0.48950325  1
  In  In51  1  0.49522525  0.14662820  0.33108480  1
  In  In52  1  0.47799472  0.33646444  0.49230378  1
  In  In53  1  -0.00713894  0.84341143  0.14076227  1
  In  In54  1  0.66351226  -0.02410010  0.62703368  1
  In  In55  1  0.68013383  0.03001831  0.02972877  1
  In  In56  1  -0.01198720  0.68778773  0.32456357  1
  In  In57  1  0.85183865  0.29346588  0.47056746  1
  In  In58  1  0.84406630  0.64585197  0.84348565  1
  In  In59  1  0.16202544  0.84068992  0.65909065  1
  In  In60  1  -0.01619030  0.11745467  0.28164594  1
  In  In61  1  0.50560448  0.34267746  0.16744281  1
  In  In62  1  0.63454520  0.64390031  0.32775368  1
  In  In63  1  0.63385802  0.00023989  0.30209480  1
  In  In64  1  0.71346278  0.35522200  0.68601177  1
  In  In65  1  0.68311531  0.47969495  0.82850906  1
  In  In66  1  0.17859033  0.15390956  0.66888168  1
  In  In67  1  0.01736982  0.67215684  0.00644467  1
  In  In68  1  0.47620211  0.68983612  0.17917420  1
  In  In69  1  0.46135081  0.72689869  0.48553297  1
  In  In70  1  0.31345767  0.33609177  0.32348716  1
  In  In71  1  -0.00411982  0.49272385  0.51146019  1
  Te  Te72  1  0.08256874  0.05644853  0.07250052  1
  Te  Te73  1  0.08905440  0.07529558  0.37813211  1
  Te  Te74  1  0.07004384  0.08990113  0.75394185  1
  Te  Te75  1  0.09439595  0.39790364  0.08376738  1
  Te  Te76  1  0.06851000  0.41967326  0.39853094  1
  Te  Te77  1  0.07654969  0.41528446  0.72958864  1
  Te  Te78  1  0.11093307  0.78846279  0.06095927  1
  Te  Te79  1  0.09156814  0.74676991  0.41411316  1
  Te  Te80  1  0.08214335  0.73529445  0.72654807  1
  Te  Te81  1  0.41382406  0.11904517  0.01401483  1
  Te  Te82  1  0.40845879  0.04592644  0.39773603  1
  Te  Te83  1  0.42482685  0.07007362  0.76278204  1
  Te  Te84  1  0.42379700  0.42477930  0.07848228  1
  Te  Te85  1  0.39467250  0.42969510  0.41116648  1
  Te  Te86  1  0.42777251  0.42170990  0.77352166  1
  Te  Te87  1  0.37441402  0.79015956  0.12192689  1
  Te  Te88  1  0.41138338  0.80362203  0.36807217  1
  Te  Te89  1  0.42852180  0.74814711  0.75571596  1
  Te  Te90  1  0.78820325  0.11210788  0.08769787  1
  Te  Te91  1  0.73195045  0.07452775  0.40519694  1
  Te  Te92  1  0.73282057  0.06614051  0.73148749  1
  Te  Te93  1  0.74468675  0.41336190  0.09651631  1
  Te  Te94  1  0.74806003  0.41023468  0.42146986  1
  Te  Te95  1  0.81582987  0.43698171  0.76650644  1
  Te  Te96  1  0.73558239  0.74565734  0.06031534  1
  Te  Te97  1  0.74484510  0.71793596  0.41916208  1
  Te  Te98  1  0.76142453  0.75375723  0.76359506  1
  Te  Te99  1  0.05844347  0.24277880  0.24537441  1
  Te  Te100  1  0.07647369  0.22266694  0.57764965  1
  Te  Te101  1  0.09583849  0.25041269  0.90832071  1
  Te  Te102  1  0.06592528  0.58567690  0.23988742  1
  Te  Te103  1  0.09703669  0.58701253  0.55822357  1
  Te  Te104  1  0.08014732  0.58826522  0.89812365  1
  Te  Te105  1  0.07687345  0.91236890  0.24509247  1
  Te  Te106  1  0.08973576  0.93906827  0.56694875  1
  Te  Te107  1  0.09614303  0.85869914  0.91097012  1
  Te  Te108  1  0.41073591  0.24729559  0.25049538  1
  Te  Te109  1  0.43108926  0.23116119  0.59319776  1
  Te  Te110  1  0.40108175  0.26770773  0.95008065  1
  Te  Te111  1  0.40363487  0.59593651  0.26681874  1
  Te  Te112  1  0.40606332  0.59380699  0.59962427  1
  Te  Te113  1  0.44374552  0.61925347  0.96741058  1
  Te  Te114  1  0.47635035  0.92447700  0.29424072  1
  Te  Te115  1  0.37114822  0.91032460  0.57675236  1
  Te  Te116  1  0.40553373  0.92697764  0.92432279  1
  Te  Te117  1  0.77905565  0.23809704  0.27370015  1
  Te  Te118  1  0.74960791  0.23673081  0.58100601  1
  Te  Te119  1  0.78266187  0.26525329  0.91015535  1
  Te  Te120  1  0.74204920  0.59541844  0.23042214  1
  Te  Te121  1  0.75548617  0.55763948  0.58697769  1
  Te  Te122  1  0.73435770  0.58392406  0.92878590  1
  Te  Te123  1  0.73943943  0.91749097  0.22881178  1
  Te  Te124  1  0.77636156  0.88462782  0.58330846  1
  Te  Te125  1  0.73703022  0.93588456  0.91709845  1
  Te  Te126  1  0.25331296  0.24351895  0.11196669  1
  Te  Te127  1  0.25061505  0.24848970  0.43294005  1
  Te  Te128  1  0.25854990  0.24717249  0.76227910  1
  Te  Te129  1  0.23736934  0.60140782  0.09267860  1
  Te  Te130  1  0.26759214  0.61437124  0.40004472  1
  Te  Te131  1  0.26685328  0.56714278  0.76567729  1
  Te  Te132  1  0.30520093  0.92658497  0.09435489  1
  Te  Te133  1  0.28388628  0.87864419  0.45191547  1
  Te  Te134  1  0.24405958  0.92023352  0.75826921  1
  Te  Te135  1  0.59464539  0.24108390  0.10420009  1
  Te  Te136  1  0.58019523  0.25870150  0.40922672  1
  Te  Te137  1  0.60656377  0.25941935  0.75298202  1
  Te  Te138  1  0.55046492  0.59940517  0.08148583  1
  Te  Te139  1  0.53860095  0.59825100  0.43511262  1
  Te  Te140  1  0.58525870  0.58506828  0.77144643  1
  Te  Te141  1  0.55851273  0.95231873  0.08587671  1
  Te  Te142  1  0.57288902  0.91727490  0.41569561  1
  Te  Te143  1  0.58663241  0.89986189  0.73955632  1
  Te  Te144  1  0.91829434  0.21495230  0.06823846  1
  Te  Te145  1  0.95113986  0.23064614  0.38417475  1
  Te  Te146  1  0.90495102  0.23153009  0.78046736  1
  Te  Te147  1  0.90745978  0.59529712  0.07662064  1
  Te  Te148  1  0.91020453  0.58730196  0.41216195  1
  Te  Te149  1  0.88838844  0.56584276  0.73039250  1
  Te  Te150  1  0.90375109  0.94457397  0.07346287  1
  Te  Te151  1  0.91408952  0.90481639  0.39687585  1
  Te  Te152  1  0.91149945  0.92195735  0.77197157  1
  Te  Te153  1  0.26815988  0.05673144  0.25530536  1
  Te  Te154  1  0.27007404  0.06129073  0.59894323  1
  Te  Te155  1  0.22974275  0.06659956  0.92434100  1
  Te  Te156  1  0.23159660  0.42704852  0.23835097  1
  Te  Te157  1  0.25299799  0.39945539  0.58897020  1
  Te  Te158  1  0.26055921  0.42543886  0.93537452  1
  Te  Te159  1  0.25570051  0.77383617  0.24864394  1
  Te  Te160  1  0.25276156  0.76123874  0.56856497  1
  Te  Te161  1  0.27641364  0.72270513  0.93263527  1
  Te  Te162  1  0.59112311  0.11809474  0.22135928  1
  Te  Te163  1  0.55115521  0.05653298  0.56520442  1
  Te  Te164  1  0.58865453  0.10168569  0.92414603  1
  Te  Te165  1  0.56788554  0.43739752  0.27160131  1
  Te  Te166  1  0.58216265  0.40473453  0.58619373  1
  Te  Te167  1  0.58712629  0.41668868  0.93142360  1
  Te  Te168  1  0.58851024  0.76330083  0.25159529  1
  Te  Te169  1  0.59213843  0.73535368  0.58608929  1
  Te  Te170  1  0.55200097  0.74653276  0.92927692  1
  Te  Te171  1  0.87753735  0.05158129  0.20020643  1
  Te  Te172  1  0.91940301  0.07924416  0.56258252  1
  Te  Te173  1  0.97474287  0.05099998  0.95761213  1
  Te  Te174  1  0.91353663  0.41179962  0.24764984  1
  Te  Te175  1  0.91329021  0.38315635  0.57578833  1
  Te  Te176  1  0.94537921  0.43353017  0.91556273  1
  Te  Te177  1  0.89906130  0.75470966  0.22277343  1
  Te  Te178  1  0.94449154  0.74691034  0.60734097  1
  Te  Te179  1  0.92630629  0.75251699  0.91335535  1
