# generated using pymatgen
data_In2Te3
_symmetry_space_group_name_H-M   'P 1'
_cell_length_a   18.95768995
_cell_length_b   18.94997122
_cell_length_c   18.96273783
_cell_angle_alpha   90.01765720
_cell_angle_beta   89.89289694
_cell_angle_gamma   89.89820138
_symmetry_Int_Tables_number   1
_chemical_formula_structural   In2Te3
_chemical_formula_sum   'In72 Te108'
_cell_volume   6812.29656625
_cell_formula_units_Z   36
loop_
 _symmetry_equiv_pos_site_id
 _symmetry_equiv_pos_as_xyz
  1  'x, y, z'
loop_
 _atom_site_type_symbol
 _atom_site_label
 _atom_site_symmetry_multiplicity
 _atom_site_fract_x
 _atom_site_fract_y
 _atom_site_fract_z
 _atom_site_occupancy
  In  In0  1  0.34086098  0.51982132  0.19092404  1
  In  In1  1  0.32252707  0.00478044  0.68092549  1
  In  In2  1  0.82258738  0.16710266  0.64629120  1
  In  In3  1  0.47508835  0.67512681  0.83915203  1
  In  In4  1  -0.01557739  0.31430932  0.34292092  1
  In  In5  1  0.49524396  0.51161631  -0.00763474  1
  In  In6  1  0.34304822  0.50184197  0.48859161  1
  In  In7  1  0.15677641  0.82879421  0.31089785  1
  In  In8  1  0.15872119  -0.00501402  0.15774415  1
  In  In9  1  -0.00637871  0.83267852  0.84917660  1
  In  In10  1  0.82832683  0.68954316  0.48754872  1
  In  In11  1  0.82174468  0.33201508  0.18461178  1
  In  In12  1  0.50276561  0.15731325  -0.00995616  1
  In  In13  1  -0.03149236  -0.03379167  0.04698570  1
  In  In14  1  0.68594403  0.00313776  0.33305076  1
  In  In15  1  0.88021431  0.63856460  0.13991803  1
  In  In16  1  0.14797568  0.83118639  0.69841707  1
  In  In17  1  0.51099850  0.01935605  0.48899394  1
  In  In18  1  0.66741113  0.50467601  0.81156644  1
  In  In19  1  0.18486360  0.50972608  0.33617642  1
  In  In20  1  -0.01747788  0.13408738  0.49804364  1
  In  In21  1  0.18354896  0.35997652  0.51896971  1
  In  In22  1  0.49892714  0.82531026  0.31664942  1
  In  In23  1  -0.01691259  0.32394560  0.65300059  1
  In  In24  1  0.46255651  0.79420241  0.03980877  1
  In  In25  1  0.68474733  0.51356926  0.49427141  1
  In  In26  1  0.02059106  0.17121237  0.84553278  1
  In  In27  1  0.66841870  -0.01371071  0.02080978  1
  In  In28  1  0.63565509  0.32444600  0.68201698  1
  In  In29  1  0.50262732  0.35201506  0.49804603  1
  In  In30  1  0.30908422  -0.00959970  -0.01744852  1
  In  In31  1  0.66078838  0.34435145  -0.00196460  1
  In  In32  1  0.66196556  0.85000834  0.83854151  1
  In  In33  1  0.15919313  0.35457242  0.16141832  1
  In  In34  1  0.66081000  0.51194796  0.18265212  1
  In  In35  1  0.00683435  0.49545592  0.52926243  1
  In  In36  1  0.15739244  0.67153036  0.14619029  1
  In  In37  1  0.15524434  0.17724306  0.68023263  1
  In  In38  1  0.17971565  0.18320907  0.34188867  1
  In  In39  1  0.81235615  0.83351945  0.65139782  1
  In  In40  1  0.15878256  0.50074581  -0.03040282  1
  In  In41  1  0.54003906  0.33971114  0.18621068  1
  In  In42  1  -0.00658526  0.49071896  0.83828082  1
  In  In43  1  0.14656096  -0.01438829  0.49449499  1
  In  In44  1  0.17400096  0.52318611  0.68844179  1
  In  In45  1  0.65747027  0.66123572  0.65980815  1
  In  In46  1  0.14576729  0.01611273  0.83303013  1
  In  In47  1  0.82400130  0.00469960  0.82426319  1
  In  In48  1  0.18094007  0.80259215  -0.02022734  1
  In  In49  1  0.82601432  0.49840578  0.32886846  1
  In  In50  1  0.33783385  0.17648736  0.16228088  1
  In  In51  1  0.49800903  -0.03809684  0.16335099  1
  In  In52  1  0.35048317  0.16808730  0.50181979  1
  In  In53  1  -0.04388255  0.13953344  0.19250216  1
  In  In54  1  0.48137985  -0.00185403  0.83522878  1
  In  In55  1  0.52481200  0.66012917  0.49014413  1
  In  In56  1  0.17341357  0.32648633  0.84352338  1
  In  In57  1  0.83344657  0.82828286  0.31310611  1
  In  In58  1  0.83006880  0.35137904  0.84254589  1
  In  In59  1  0.69861070  0.67796397  0.00512751  1
  In  In60  1  -0.02161856  0.84279658  0.48767303  1
  In  In61  1  0.67612801  0.00008765  0.63427513  1
  In  In62  1  0.85665047  0.65390759  0.83956542  1
  In  In63  1  0.33918426  0.67792904  0.66814956  1
  In  In64  1  0.35702299  0.18315136  0.83286662  1
  In  In65  1  0.50529411  0.80872598  0.64544185  1
  In  In66  1  0.31565852  0.36334446  0.01873864  1
  In  In67  1  0.50794904  0.17147607  0.34274557  1
  In  In68  1  0.83980892  0.18492392  -0.01225298  1
  In  In69  1  0.33073545  0.84450787  0.49369621  1
  In  In70  1  0.69786057  0.15727641  0.19573193  1
  In  In71  1  0.02545337  0.66251534  0.34369581  1
  Te  Te72  1  0.05488696  0.08389433  0.08808596  1
  Te  Te73  1  0.08072202  0.07951685  0.39561327  1
  Te  Te74  1  0.05348375  0.07623591  0.72959283  1
  Te  Te75  1  0.07013587  0.43528687  0.07283053  1
  Te  Te76  1  0.08559109  0.41217201  0.41418761  1
  Te  Te77  1  0.08290070  0.39880228  0.73837499  1
  Te  Te78  1  0.07009281  0.75259716  0.06050710  1
  Te  Te79  1  0.09515400  0.76098857  0.43389437  1
  Te  Te80  1  0.07798073  0.73051781  0.78104305  1
  Te  Te81  1  0.40969532  0.06998467  0.07438970  1
  Te  Te82  1  0.40365615  0.07342587  0.39654784  1
  Te  Te83  1  0.43259918  0.09759667  0.73024019  1
  Te  Te84  1  0.43664730  0.42231615  0.10017354  1
  Te  Te85  1  0.43197914  0.43098595  0.39540066  1
  Te  Te86  1  0.48520763  0.34079150  0.71873870  1
  Te  Te87  1  0.39150133  0.72450058  0.14999168  1
  Te  Te88  1  0.41833871  0.74604549  0.42101416  1
  Te  Te89  1  0.40878338  0.78327118  0.75670556  1
  Te  Te90  1  0.76470945  0.08795208  0.08028720  1
  Te  Te91  1  0.76739562  0.11413461  0.38775581  1
  Te  Te92  1  0.73069790  0.09002743  0.74511707  1
  Te  Te93  1  0.74748342  0.42551584  0.09065365  1
  Te  Te94  1  0.77218317  0.41008304  0.43342609  1
  Te  Te95  1  0.75741501  0.41612407  0.72984689  1
  Te  Te96  1  0.80124516  0.75272545  0.08087652  1
  Te  Te97  1  0.73629574  0.75215737  0.39399257  1
  Te  Te98  1  0.74202417  0.74457023  0.76105713  1
  Te  Te99  1  0.08015634  0.24526167  0.24349841  1
  Te  Te100  1  0.08362329  0.24518141  0.56212894  1
  Te  Te101  1  0.07641362  0.26958343  0.93659443  1
  Te  Te102  1  0.08643971  0.57131836  0.23993117  1
  Te  Te103  1  0.10218216  0.59155325  0.58107153  1
  Te  Te104  1  0.08026633  0.59912858  0.89130702  1
  Te  Te105  1  0.06478912  0.91589755  0.23760577  1
  Te  Te106  1  0.06627505  0.91189526  0.59666689  1
  Te  Te107  1  0.07679749  0.92925163  0.93618268  1
  Te  Te108  1  0.42551721  0.26120755  0.25099098  1
  Te  Te109  1  0.42398296  0.26009728  0.58948002  1
  Te  Te110  1  0.41530025  0.27019908  0.94205697  1
  Te  Te111  1  0.44680408  0.60934358  0.24388075  1
  Te  Te112  1  0.42743621  0.58892401  0.58259395  1
  Te  Te113  1  0.39224841  0.61111074  0.94748988  1
  Te  Te114  1  0.39611867  0.90841754  0.25118126  1
  Te  Te115  1  0.41963448  0.93206313  0.58351172  1
  Te  Te116  1  0.42177910  0.90101597  0.93360298  1
  Te  Te117  1  0.73235172  0.26894665  0.28315146  1
  Te  Te118  1  0.71613593  0.24432702  0.58087551  1
  Te  Te119  1  0.73319896  0.25015417  0.90269312  1
  Te  Te120  1  0.76581845  0.60414575  0.23977740  1
  Te  Te121  1  0.77218349  0.59267504  0.59181834  1
  Te  Te122  1  0.75598187  0.56869380  0.91664758  1
  Te  Te123  1  0.73717411  0.91076923  0.22709159  1
  Te  Te124  1  0.77216858  0.92949485  0.54563842  1
  Te  Te125  1  0.76555131  0.91102199  0.92928042  1
  Te  Te126  1  0.23546925  0.24944733  0.07742569  1
  Te  Te127  1  0.26897044  0.27203551  0.42632691  1
  Te  Te128  1  0.26516179  0.26049917  0.73767253  1
  Te  Te129  1  0.24386471  0.56125262  0.08495186  1
  Te  Te130  1  0.25864577  0.60129417  0.42073305  1
  Te  Te131  1  0.25803332  0.61270925  0.77396916  1
  Te  Te132  1  0.24854053  0.89724211  0.08342219  1
  Te  Te133  1  0.24547527  0.92433837  0.39899857  1
  Te  Te134  1  0.24668497  0.91653030  0.77798026  1
  Te  Te135  1  0.59543592  0.23456935  0.08501278  1
  Te  Te136  1  0.59153732  0.25232251  0.43039512  1
  Te  Te137  1  0.56619581  0.23607024  0.78034972  1
  Te  Te138  1  0.59149624  0.59334551  0.07459119  1
  Te  Te139  1  0.60024525  0.57977221  0.39222572  1
  Te  Te140  1  0.55648676  0.58679651  0.74560379  1
  Te  Te141  1  0.58949833  0.87275291  0.08219907  1
  Te  Te142  1  0.58580461  0.91776658  0.40744809  1
  Te  Te143  1  0.57928052  0.92064389  0.73263665  1
  Te  Te144  1  0.91824179  0.25350621  0.09684628  1
  Te  Te145  1  0.89524365  0.22778720  0.42275770  1
  Te  Te146  1  0.91074899  0.24214597  0.75878669  1
  Te  Te147  1  0.95254908  0.54468996  0.05178974  1
  Te  Te148  1  0.92303389  0.58190035  0.42209128  1
  Te  Te149  1  0.91493614  0.56498859  0.73917730  1
  Te  Te150  1  0.86560256  0.91460516  0.13621045  1
  Te  Te151  1  0.92248357  0.92904793  0.38042574  1
  Te  Te152  1  0.90749731  0.90590301  0.74685750  1
  Te  Te153  1  0.24685224  0.08782462  0.24388434  1
  Te  Te154  1  0.23867311  0.08272990  0.58171091  1
  Te  Te155  1  0.24494160  0.10469948  0.90616913  1
  Te  Te156  1  0.26391857  0.40638141  0.25709689  1
  Te  Te157  1  0.27288011  0.43518378  0.61209395  1
  Te  Te158  1  0.27386550  0.43001225  0.89046789  1
  Te  Te159  1  0.24973334  0.73191906  0.24678451  1
  Te  Te160  1  0.24517825  0.77129065  0.59439607  1
  Te  Te161  1  0.27224453  0.70992089  0.91447416  1
  Te  Te162  1  0.57372388  0.07481988  0.23624113  1
  Te  Te163  1  0.60698294  0.10763788  0.55788871  1
  Te  Te164  1  0.59404250  0.06465651  0.91253167  1
  Te  Te165  1  0.58672779  0.43716395  0.28726285  1
  Te  Te166  1  0.59096268  0.43935848  0.58653179  1
  Te  Te167  1  0.57483484  0.42116227  0.89979926  1
  Te  Te168  1  0.54910757  0.72495506  0.21886602  1
  Te  Te169  1  0.61711335  0.76464764  0.55617380  1
  Te  Te170  1  0.58865605  0.74148022  0.91544615  1
  Te  Te171  1  0.87747536  0.06286708  0.29224517  1
  Te  Te172  1  0.88563108  0.05241858  0.57495798  1
  Te  Te173  1  0.92144876  0.07515911  0.91921631  1
  Te  Te174  1  0.92860487  0.41965787  0.24850248  1
  Te  Te175  1  0.89948950  0.39866577  0.55856165  1
  Te  Te176  1  0.90758394  0.42697667  0.94360679  1
  Te  Te177  1  0.93654072  0.73492236  0.24749254  1
  Te  Te178  1  0.92271351  0.74636631  0.59259700  1
  Te  Te179  1  0.90876603  0.75045690  0.93934258  1
