# generated using pymatgen
data_In2Te3
_symmetry_space_group_name_H-M   'P 1'
_cell_length_a   18.93781390
_cell_length_b   18.93117899
_cell_length_c   18.93491948
_cell_angle_alpha   89.95459222
_cell_angle_beta   89.97022201
_cell_angle_gamma   90.07604178
_symmetry_Int_Tables_number   1
_chemical_formula_structural   In2Te3
_chemical_formula_sum   'In72 Te108'
_cell_volume   6788.44636308
_cell_formula_units_Z   36
loop_
 _symmetry_equiv_pos_site_id
 _symmetry_equiv_pos_as_xyz
  1  'x, y, z'
loop_
 _atom_site_type_symbol
 _atom_site_label
 _atom_site_symmetry_multiplicity
 _atom_site_fract_x
 _atom_site_fract_y
 _atom_site_fract_z
 _atom_site_occupancy
  In  In0  1  0.33982163  -0.02253119  0.35558126  1
  In  In1  1  -0.00465187  0.65003274  0.33908709  1
  In  In2  1  0.16588076  0.50165098  -0.00882914  1
  In  In3  1  0.70726374  -0.02397088  -0.02047041  1
  In  In4  1  0.32362587  0.52352870  0.81952520  1
  In  In5  1  0.34324859  0.66463247  -0.01309620  1
  In  In6  1  0.32991007  0.17401071  0.17232289  1
  In  In7  1  0.65324590  0.65906384  0.33304781  1
  In  In8  1  0.66416834  0.14877681  0.13763725  1
  In  In9  1  0.66221581  0.67204842  0.65754298  1
  In  In10  1  0.83001035  0.16845650  0.65611867  1
  In  In11  1  0.49179118  0.66579447  0.16888858  1
  In  In12  1  -0.00497675  0.49438167  0.18904504  1
  In  In13  1  0.83547485  0.50178274  -0.00856006  1
  In  In14  1  0.18468743  0.35697415  0.50713503  1
  In  In15  1  0.50176827  0.49147207  0.00326577  1
  In  In16  1  0.66295234  -0.00244849  0.65664972  1
  In  In17  1  0.15702051  -0.00711648  0.82353439  1
  In  In18  1  0.33587679  0.82726586  0.83169473  1
  In  In19  1  0.80688777  0.65906645  0.17317928  1
  In  In20  1  -0.00429664  0.35929743  -0.00740081  1
  In  In21  1  0.51265466  0.85038927  -0.00792647  1
  In  In22  1  0.80147545  0.86744011  0.30659411  1
  In  In23  1  0.16566143  0.16947836  0.00057288  1
  In  In24  1  0.18381380  0.83355636  0.34028796  1
  In  In25  1  0.64906833  0.33820454  0.33700271  1
  In  In26  1  0.00391869  0.14119365  0.49559347  1
  In  In27  1  0.18456079  0.17710972  0.67201939  1
  In  In28  1  0.33937455  0.49065370  0.16114194  1
  In  In29  1  -0.01927633  0.00671035  0.34111647  1
  In  In30  1  -0.00771511  0.69540301  -0.00523205  1
  In  In31  1  0.30671327  0.34730627  0.64915882  1
  In  In32  1  -0.01035380  0.50534213  0.81221991  1
  In  In33  1  0.50239770  -0.01728446  0.17397639  1
  In  In34  1  0.50778575  0.52657564  0.66052758  1
  In  In35  1  0.85720369  0.67104508  0.83052615  1
  In  In36  1  0.66411431  0.68787407  0.00140333  1
  In  In37  1  -0.00480331  0.31231553  0.32362234  1
  In  In38  1  0.49879457  0.01362611  0.79872596  1
  In  In39  1  0.69562592  0.33585186  0.67533977  1
  In  In40  1  0.14600570  0.15672706  0.33551684  1
  In  In41  1  0.50802906  0.50050546  0.36374623  1
  In  In42  1  0.30846806  -0.00231120  0.01365726  1
  In  In43  1  0.02760740  0.80571644  0.81062279  1
  In  In44  1  0.34998839  0.69562719  0.36523695  1
  In  In45  1  0.17029253  0.67564076  0.51928552  1
  In  In46  1  0.81473126  0.67912884  0.50609215  1
  In  In47  1  0.50680722  0.17231889  -0.01596293  1
  In  In48  1  0.84569505  0.33450222  0.14857830  1
  In  In49  1  0.17007155  0.50372694  0.33080109  1
  In  In50  1  0.33936113  0.15487486  0.48478663  1
  In  In51  1  -0.01867406  -0.02724036  -0.00991665  1
  In  In52  1  0.68363384  0.17747812  0.83588198  1
  In  In53  1  0.16409706  -0.01327994  0.15812381  1
  In  In54  1  -0.00378741  0.51392209  0.51947790  1
  In  In55  1  0.33533603  -0.00031070  0.68343604  1
  In  In56  1  0.35885132  0.34204176  0.32520938  1
  In  In57  1  0.67229467  0.32558850  -0.00314265  1
  In  In58  1  -0.00698790  0.17043523  0.86068444  1
  In  In59  1  0.48515470  0.33730151  0.84559811  1
  In  In60  1  0.53102372  0.85708154  0.34038936  1
  In  In61  1  -0.01922167  0.83005019  0.15403257  1
  In  In62  1  0.80714643  0.14502862  0.32419024  1
  In  In63  1  0.02216781  0.85139483  0.53586911  1
  In  In64  1  0.33192792  0.67095274  0.65577131  1
  In  In65  1  0.82247927  -0.00879924  0.50799682  1
  In  In66  1  0.51688644  0.34155480  0.50442792  1
  In  In67  1  0.50271797  0.83370967  0.65179902  1
  In  In68  1  0.85255905  0.83127007  0.68550513  1
  In  In69  1  0.50853443  0.14859224  0.65424501  1
  In  In70  1  0.01584324  0.34066519  0.67679406  1
  In  In71  1  0.80402849  0.33029374  0.49612011  1
  Te  Te72  1  0.07553966  0.06912915  0.06865784  1
  Te  Te73  1  0.10004239  0.04582617  0.42975719  1
  Te  Te74  1  0.08078681  0.10259979  0.75220788  1
  Te  Te75  1  0.08779605  0.41854260  0.09705003  1
  Te  Te76  1  0.07010661  0.41931788  0.41207992  1
  Te  Te77  1  0.10230198  0.43050092  0.75369244  1
  Te  Te78  1  0.08670535  0.75254352  0.09015063  1
  Te  Te79  1  0.07297489  0.75116012  0.42227632  1
  Te  Te80  1  0.09792489  0.70718353  0.72823836  1
  Te  Te81  1  0.42279246  0.07594129  0.08306827  1
  Te  Te82  1  0.42887352  0.09110872  0.38696290  1
  Te  Te83  1  0.39906222  0.11852336  0.75582401  1
  Te  Te84  1  0.41912605  0.39836206  0.08098621  1
  Te  Te85  1  0.40234483  0.42172053  0.44477877  1
  Te  Te86  1  0.41647065  0.42042129  0.73802998  1
  Te  Te87  1  0.42041886  0.76180511  0.07582525  1
  Te  Te88  1  0.46000500  0.76555354  0.43552639  1
  Te  Te89  1  0.42997098  0.74323789  0.74891158  1
  Te  Te90  1  0.76778009  0.09471839  0.04732939  1
  Te  Te91  1  0.72458190  0.05991011  0.41776605  1
  Te  Te92  1  0.75562103  0.07379944  0.75053365  1
  Te  Te93  1  0.74332288  0.42751789  0.08633901  1
  Te  Te94  1  0.72818041  0.42941475  0.42200935  1
  Te  Te95  1  0.77508727  0.39979985  0.77572732  1
  Te  Te96  1  0.75828187  0.76461639  0.08569060  1
  Te  Te97  1  0.74252497  0.76515392  0.40068509  1
  Te  Te98  1  0.74693930  0.75399372  0.76066675  1
  Te  Te99  1  0.07334704  0.23022768  0.23232661  1
  Te  Te100  1  0.08581544  0.24843526  0.56593174  1
  Te  Te101  1  0.09233528  0.27250201  0.91300507  1
  Te  Te102  1  0.09577010  0.59836485  0.23849529  1
  Te  Te103  1  0.07898131  0.59772528  0.61090671  1
  Te  Te104  1  0.06556123  0.58781045  0.91595635  1
  Te  Te105  1  0.07339346  0.91334589  0.25843341  1
  Te  Te106  1  0.09017059  0.91917276  0.64551606  1
  Te  Te107  1  0.09136126  0.89388011  0.91673099  1
  Te  Te108  1  0.43054635  0.22946828  0.26560499  1
  Te  Te109  1  0.41043618  0.24906547  0.58369736  1
  Te  Te110  1  0.39840952  0.25164310  0.92660076  1
  Te  Te111  1  0.40934210  0.58134751  0.26526744  1
  Te  Te112  1  0.41734289  0.59120596  0.56642923  1
  Te  Te113  1  0.43790447  0.58448840  0.90120333  1
  Te  Te114  1  0.40764903  0.89337887  0.24990618  1
  Te  Te115  1  0.42972015  0.94420141  0.58275535  1
  Te  Te116  1  0.41144714  0.93767234  0.90628059  1
  Te  Te117  1  0.74433903  0.24994380  0.23352776  1
  Te  Te118  1  0.72098730  0.22505523  0.56904456  1
  Te  Te119  1  0.77248205  0.23156145  0.94050780  1
  Te  Te120  1  0.73918125  0.56403273  0.25958897  1
  Te  Te121  1  0.76836876  0.57925158  0.60606218  1
  Te  Te122  1  0.75110070  0.59549512  0.91158158  1
  Te  Te123  1  0.71103311  0.96119603  0.24111533  1
  Te  Te124  1  0.74703220  0.89002876  0.59056675  1
  Te  Te125  1  0.76463233  0.87318220  0.89421575  1
  Te  Te126  1  0.24910907  0.25668407  0.08416278  1
  Te  Te127  1  0.24247448  0.25295991  0.40851638  1
  Te  Te128  1  0.23720480  0.28086983  0.75985784  1
  Te  Te129  1  0.25340915  0.58743155  0.08264468  1
  Te  Te130  1  0.25103872  0.58870489  0.42348118  1
  Te  Te131  1  0.23385069  0.63174212  0.76545804  1
  Te  Te132  1  0.24500942  0.88827592  0.08546300  1
  Te  Te133  1  0.25942685  0.89658144  0.45125902  1
  Te  Te134  1  0.23721237  0.89339567  0.73554410  1
  Te  Te135  1  0.57151904  0.25894014  0.08990067  1
  Te  Te136  1  0.58411112  0.23953259  0.42512765  1
  Te  Te137  1  0.57962182  0.24724949  0.74903147  1
  Te  Te138  1  0.58848752  0.58322730  0.08803016  1
  Te  Te139  1  0.58412526  0.59385809  0.44718918  1
  Te  Te140  1  0.59987620  0.58376594  0.75794573  1
  Te  Te141  1  0.60965601  0.91807193  0.08609981  1
  Te  Te142  1  0.61696531  0.94593565  0.42081715  1
  Te  Te143  1  0.59147743  0.90460047  0.75490597  1
  Te  Te144  1  0.93008297  0.24977081  0.06515241  1
  Te  Te145  1  0.90342933  0.22844656  0.42259217  1
  Te  Te146  1  0.91794608  0.24805677  0.74864681  1
  Te  Te147  1  0.92212424  0.58349761  0.08773607  1
  Te  Te148  1  0.89603035  0.57481911  0.42340134  1
  Te  Te149  1  0.89169626  0.57345230  0.72333863  1
  Te  Te150  1  0.89220447  0.93326273  0.10200974  1
  Te  Te151  1  0.91065324  0.89931458  0.42362511  1
  Te  Te152  1  0.95761082  0.91964689  0.74518160  1
  Te  Te153  1  0.24926768  0.06651087  0.25663087  1
  Te  Te154  1  0.25057859  0.07701607  0.58039687  1
  Te  Te155  1  0.24808315  0.08358131  0.90449890  1
  Te  Te156  1  0.24468697  0.40311647  0.24629738  1
  Te  Te157  1  0.22631592  0.46128617  0.60057051  1
  Te  Te158  1  0.27367420  0.43135530  0.92162674  1
  Te  Te159  1  0.26027825  0.74040456  0.25875268  1
  Te  Te160  1  0.26960306  0.77453081  0.56726912  1
  Te  Te161  1  0.24441306  0.74701979  0.91436786  1
  Te  Te162  1  0.59910583  0.07142869  0.24869990  1
  Te  Te163  1  0.56080679  0.04669080  0.55783660  1
  Te  Te164  1  0.59260148  0.07007014  0.91136356  1
  Te  Te165  1  0.55648328  0.41695642  0.25468137  1
  Te  Te166  1  0.60499318  0.42584142  0.59365472  1
  Te  Te167  1  0.59722478  0.41931619  0.90441621  1
  Te  Te168  1  0.58889932  0.75900281  0.23776653  1
  Te  Te169  1  0.57972894  0.74800592  0.55733808  1
  Te  Te170  1  0.57208356  0.75038707  0.90505998  1
  Te  Te171  1  0.91231296  0.08754141  0.24061564  1
  Te  Te172  1  0.92280774  0.06328855  0.59624937  1
  Te  Te173  1  0.90663352  0.05734037  0.89512472  1
  Te  Te174  1  0.89579759  0.41324742  0.26988359  1
  Te  Te175  1  0.91504987  0.40016196  0.57954888  1
  Te  Te176  1  0.88726967  0.40486724  0.88509296  1
  Te  Te177  1  0.90520423  0.74636872  0.26299208  1
  Te  Te178  1  0.92781907  0.74408938  0.58734574  1
  Te  Te179  1  0.88499635  0.78324691  0.93201420  1
