# generated using pymatgen
data_In2Te3
_symmetry_space_group_name_H-M   'P 1'
_cell_length_a   18.94936298
_cell_length_b   19.00545080
_cell_length_c   18.99096614
_cell_angle_alpha   89.67395473
_cell_angle_beta   89.91533089
_cell_angle_gamma   89.89463637
_symmetry_Int_Tables_number   1
_chemical_formula_structural   In2Te3
_chemical_formula_sum   'In72 Te108'
_cell_volume   6839.29939938
_cell_formula_units_Z   36
loop_
 _symmetry_equiv_pos_site_id
 _symmetry_equiv_pos_as_xyz
  1  'x, y, z'
loop_
 _atom_site_type_symbol
 _atom_site_label
 _atom_site_symmetry_multiplicity
 _atom_site_fract_x
 _atom_site_fract_y
 _atom_site_fract_z
 _atom_site_occupancy
  In  In0  1  0.85442778  0.66603874  0.84439617  1
  In  In1  1  0.00362034  0.16259172  0.18350678  1
  In  In2  1  0.35015060  0.81905485  0.51153169  1
  In  In3  1  0.48586189  -0.01859694  0.13239009  1
  In  In4  1  0.13431674  0.82836212  0.67830046  1
  In  In5  1  0.17379535  0.80221841  -0.01907695  1
  In  In6  1  0.51861979  0.01447265  0.82764029  1
  In  In7  1  0.01540573  -0.00232200  0.32542985  1
  In  In8  1  0.01233893  0.14742831  0.81981336  1
  In  In9  1  0.82436832  0.00478731  0.51908115  1
  In  In10  1  0.00571300  0.36438737  0.01840375  1
  In  In11  1  0.48809632  0.64474849  0.18137691  1
  In  In12  1  0.49431674  -0.01097223  0.51023685  1
  In  In13  1  0.49553232  0.65858780  0.49749088  1
  In  In14  1  0.85909049  0.84692947  0.69502306  1
  In  In15  1  0.17256298  0.18685257  0.33424691  1
  In  In16  1  0.67944481  0.17183043  0.14009386  1
  In  In17  1  0.45902910  0.54244372  -0.02914939  1
  In  In18  1  0.64692335  0.34480795  0.65726424  1
  In  In19  1  0.33774420  0.01199318  0.32631436  1
  In  In20  1  0.81532205  0.52166061  0.34710198  1
  In  In21  1  -0.00688544  0.82709112  0.48013784  1
  In  In22  1  0.82572702  0.66776837  0.52225723  1
  In  In23  1  0.63542507  0.66671831  0.65391995  1
  In  In24  1  0.51791939  0.16901740  0.31338140  1
  In  In25  1  0.33063523  0.19310376  0.80967122  1
  In  In26  1  0.83069794  0.48651455  0.00437156  1
  In  In27  1  0.65616151  0.35408492  0.34520715  1
  In  In28  1  0.67099328  0.82629188  0.83212029  1
  In  In29  1  0.30960581  0.42559712  0.42175201  1
  In  In30  1  0.86817476  0.15872739  0.32978912  1
  In  In31  1  0.17166125  0.01955353  0.50666484  1
  In  In32  1  0.32181857  0.01273068  -0.03322471  1
  In  In33  1  0.16931949  0.51939098  -0.01776971  1
  In  In34  1  0.00512766  0.22129704  0.51338841  1
  In  In35  1  0.66972863  0.67232117  -0.00186519  1
  In  In36  1  0.03528489  0.38329408  0.66279938  1
  In  In37  1  0.50226228  0.18709196  0.65849076  1
  In  In38  1  0.34465562  0.31376629  0.01056238  1
  In  In39  1  0.82090090  0.34818783  0.19927966  1
  In  In40  1  0.50760709  0.81401953  0.35075809  1
  In  In41  1  0.03388021  0.60946381  0.33988371  1
  In  In42  1  -0.00053932  0.68809928  0.00189534  1
  In  In43  1  0.02048668  0.38627921  0.35000381  1
  In  In44  1  0.50030162  0.33755676  0.81163345  1
  In  In45  1  0.67587585  0.18711198  0.49894950  1
  In  In46  1  0.83968672  0.33718977  0.83461209  1
  In  In47  1  0.31155112  0.81199288  0.17788392  1
  In  In48  1  0.83817078  0.67087494  0.15145759  1
  In  In49  1  0.18560489  0.17759168  -0.01168285  1
  In  In50  1  0.13357902  -0.03756710  0.14359784  1
  In  In51  1  0.66495764  -0.01738117  -0.02260592  1
  In  In52  1  0.19221624  0.79613468  0.34335727  1
  In  In53  1  0.31143568  0.50228840  0.17474097  1
  In  In54  1  0.68895395  -0.02266806  0.30728693  1
  In  In55  1  0.49463999  0.34514558  0.17909042  1
  In  In56  1  0.32579700  0.17089902  0.17940030  1
  In  In57  1  0.31866104  0.81391057  0.81266547  1
  In  In58  1  0.84282742  0.15992739  0.68567519  1
  In  In59  1  0.84569957  0.79450895  0.32596921  1
  In  In60  1  0.64039395  0.34264233  -0.01258255  1
  In  In61  1  0.47879175  0.49606161  0.66819352  1
  In  In62  1  0.28064959  0.65726229  0.67378787  1
  In  In63  1  0.68105961  -0.00267704  0.68942483  1
  In  In64  1  0.82381718  0.49370262  0.66183310  1
  In  In65  1  -0.00866653  -0.06322598  -0.00301321  1
  In  In66  1  0.85195341  0.16087723  0.00323406  1
  In  In67  1  0.32894086  0.18603140  0.52396717  1
  In  In68  1  0.66048989  0.66033497  0.34062035  1
  In  In69  1  0.50500215  0.81383131  -0.01272607  1
  In  In70  1  0.15332586  0.34378989  0.83366569  1
  In  In71  1  0.04271258  0.64014883  0.66458008  1
  Te  Te72  1  0.09425945  0.09471162  0.08182243  1
  Te  Te73  1  0.07005941  0.10650692  0.41747448  1
  Te  Te74  1  0.04887927  0.05812045  0.71142254  1
  Te  Te75  1  0.10005774  0.44515764  0.09360908  1
  Te  Te76  1  0.10599719  0.43920797  0.46432659  1
  Te  Te77  1  0.12194061  0.46710589  0.75104377  1
  Te  Te78  1  0.09615542  0.75008958  0.09298617  1
  Te  Te79  1  0.08781160  0.72370463  0.42533947  1
  Te  Te80  1  0.09213804  0.72251694  0.77631349  1
  Te  Te81  1  0.40015747  0.09210068  0.07374572  1
  Te  Te82  1  0.42443404  0.09370380  0.41749772  1
  Te  Te83  1  0.41945833  0.09003329  0.74044706  1
  Te  Te84  1  0.41949807  0.42881656  0.07423642  1
  Te  Te85  1  0.45522826  0.44540340  0.44615874  1
  Te  Te86  1  0.38921622  0.39173235  0.73028694  1
  Te  Te87  1  0.41665990  0.74561106  0.09000838  1
  Te  Te88  1  0.39280139  0.73001715  0.39899822  1
  Te  Te89  1  0.40105135  0.72663532  0.72869105  1
  Te  Te90  1  0.75850856  0.06462301  0.07440019  1
  Te  Te91  1  0.74496005  0.08286856  0.41101876  1
  Te  Te92  1  0.77364948  0.06794662  0.77829480  1
  Te  Te93  1  0.73282002  0.40827961  0.09003275  1
  Te  Te94  1  0.75423439  0.41766686  0.43045603  1
  Te  Te95  1  0.73567568  0.41757938  0.75974628  1
  Te  Te96  1  0.77307828  0.76030245  0.05279540  1
  Te  Te97  1  0.74217857  0.75316585  0.42858628  1
  Te  Te98  1  0.75649220  0.73662224  0.74186616  1
  Te  Te99  1  0.07387348  0.27283803  0.25745687  1
  Te  Te100  1  0.10828416  0.26390218  0.60891546  1
  Te  Te101  1  0.06403014  0.25416661  0.92968536  1
  Te  Te102  1  0.11464815  0.51172927  0.26232317  1
  Te  Te103  1  0.11567063  0.56388560  0.55728868  1
  Te  Te104  1  0.08084820  0.61186434  0.90304126  1
  Te  Te105  1  0.08902531  0.88306287  0.26292520  1
  Te  Te106  1  0.07167798  0.92112938  0.56630921  1
  Te  Te107  1  0.10805589  0.91467523  0.91348805  1
  Te  Te108  1  0.40482744  0.26272525  0.26934568  1
  Te  Te109  1  0.40434881  0.28449036  0.60379694  1
  Te  Te110  1  0.43089012  0.24161644  0.91050751  1
  Te  Te111  1  0.40887430  0.55841735  0.26856373  1
  Te  Te112  1  0.39448014  0.59388679  0.58797808  1
  Te  Te113  1  0.37318246  0.59639395  0.86085560  1
  Te  Te114  1  0.42040033  0.90902154  0.25283983  1
  Te  Te115  1  0.39262921  0.92913291  0.59551182  1
  Te  Te116  1  0.42341656  0.91522492  0.90756818  1
  Te  Te117  1  0.74208997  0.23366934  0.26189589  1
  Te  Te118  1  0.76145196  0.25705859  0.59889084  1
  Te  Te119  1  0.75670900  0.25521806  0.93097828  1
  Te  Te120  1  0.73990137  0.58793111  0.23242826  1
  Te  Te121  1  0.72410735  0.56976576  0.57414884  1
  Te  Te122  1  0.75158253  0.57686802  0.91230092  1
  Te  Te123  1  0.76292698  0.87558176  0.23456583  1
  Te  Te124  1  0.75168805  0.89914009  0.59709210  1
  Te  Te125  1  0.76507476  0.92801322  0.88322961  1
  Te  Te126  1  0.23410150  0.26498591  0.10355374  1
  Te  Te127  1  0.25000955  0.26895775  0.42810136  1
  Te  Te128  1  0.21696066  0.25363046  0.73456816  1
  Te  Te129  1  0.26884004  0.59059643  0.06558816  1
  Te  Te130  1  0.23298762  0.55468282  0.44713176  1
  Te  Te131  1  0.25162261  0.55236589  0.77632474  1
  Te  Te132  1  0.26510096  0.92201633  0.07860433  1
  Te  Te133  1  0.24367772  0.92675515  0.40906421  1
  Te  Te134  1  0.22792053  0.91183138  0.75373788  1
  Te  Te135  1  0.56441264  0.24956397  0.08210161  1
  Te  Te136  1  0.56516521  0.25909188  0.42553979  1
  Te  Te137  1  0.60319234  0.23861238  0.75802139  1
  Te  Te138  1  0.56960065  0.58158758  0.06833620  1
  Te  Te139  1  0.56581308  0.56478834  0.40555758  1
  Te  Te140  1  0.58067298  0.56817351  0.74571421  1
  Te  Te141  1  0.59555940  0.89247282  0.07921726  1
  Te  Te142  1  0.59102256  0.92298541  0.41406611  1
  Te  Te143  1  0.57442613  0.90348843  0.74185278  1
  Te  Te144  1  0.91078016  0.26356644  0.10264153  1
  Te  Te145  1  0.91803706  0.27963246  0.40557368  1
  Te  Te146  1  0.93916611  0.26539524  0.74607163  1
  Te  Te147  1  0.92747769  0.57364961  0.07815166  1
  Te  Te148  1  0.91847160  0.58246258  0.44032752  1
  Te  Te149  1  0.92249748  0.58073924  0.73861611  1
  Te  Te150  1  0.93407776  0.92600219  0.12831042  1
  Te  Te151  1  0.90166317  0.92800506  0.40864199  1
  Te  Te152  1  0.96400611  0.93428087  0.74262453  1
  Te  Te153  1  0.22434443  0.07271285  0.24507257  1
  Te  Te154  1  0.25664876  0.08688669  0.60304274  1
  Te  Te155  1  0.23199253  0.09104836  0.87399238  1
  Te  Te156  1  0.24118162  0.42251528  0.28187545  1
  Te  Te157  1  0.23662912  0.44740894  0.55896403  1
  Te  Te158  1  0.25708936  0.40281689  0.92577780  1
  Te  Te159  1  0.23576235  0.70298503  0.23983079  1
  Te  Te160  1  0.22742616  0.76036682  0.57415191  1
  Te  Te161  1  0.28511395  0.72073649  0.92513389  1
  Te  Te162  1  0.58134703  0.06466030  0.22493868  1
  Te  Te163  1  0.59957557  0.08466115  0.58520082  1
  Te  Te164  1  0.58291932  0.09319187  0.93065080  1
  Te  Te165  1  0.58869908  0.43440668  0.24422275  1
  Te  Te166  1  0.55742465  0.42066330  0.56289484  1
  Te  Te167  1  0.55790384  0.44003850  0.90635412  1
  Te  Te168  1  0.58508863  0.74810401  0.24114995  1
  Te  Te169  1  0.56533657  0.76401430  0.57052783  1
  Te  Te170  1  0.57381862  0.72337244  0.88964884  1
  Te  Te171  1  0.90744144  0.04893498  0.22233590  1
  Te  Te172  1  0.92542385  0.10001215  0.57321053  1
  Te  Te173  1  0.93878513  0.06685055  0.92508165  1
  Te  Te174  1  0.91491935  0.44885513  0.25531365  1
  Te  Te175  1  0.91963182  0.41795112  0.58047966  1
  Te  Te176  1  0.93313206  0.43401912  0.90399237  1
  Te  Te177  1  0.94421788  0.70641474  0.25562059  1
  Te  Te178  1  0.93360827  0.74683955  0.59589113  1
  Te  Te179  1  0.90608744  0.77689670  0.92649422  1
