# generated using pymatgen
data_In2Te3
_symmetry_space_group_name_H-M   'P 1'
_cell_length_a   18.77267133
_cell_length_b   18.77069012
_cell_length_c   18.78096526
_cell_angle_alpha   90.04181413
_cell_angle_beta   90.02275115
_cell_angle_gamma   90.05870775
_symmetry_Int_Tables_number   1
_chemical_formula_structural   In2Te3
_chemical_formula_sum   'In72 Te108'
_cell_volume   6617.95558313
_cell_formula_units_Z   36
loop_
 _symmetry_equiv_pos_site_id
 _symmetry_equiv_pos_as_xyz
  1  'x, y, z'
loop_
 _atom_site_type_symbol
 _atom_site_label
 _atom_site_symmetry_multiplicity
 _atom_site_fract_x
 _atom_site_fract_y
 _atom_site_fract_z
 _atom_site_occupancy
  In  In0  1  0.67219253  0.84222638  0.83874437  1
  In  In1  1  0.80520770  0.15340141  -0.00725163  1
  In  In2  1  -0.01225062  0.83579022  0.83737413  1
  In  In3  1  -0.00083576  0.49215747  0.47766747  1
  In  In4  1  0.35094546  0.50654428  0.50086787  1
  In  In5  1  0.33650483  -0.00548814  0.33906807  1
  In  In6  1  0.83426697  0.52052639  0.01377398  1
  In  In7  1  0.83446005  0.67180700  0.47893598  1
  In  In8  1  0.17032743  0.34254938  0.82915722  1
  In  In9  1  0.68254354  0.67590171  0.64253939  1
  In  In10  1  0.64705347  0.12396743  0.20798260  1
  In  In11  1  0.02426577  0.51650075  0.82817952  1
  In  In12  1  0.32070149  0.32767857  0.67407230  1
  In  In13  1  0.65995264  0.14521114  0.48711019  1
  In  In14  1  0.00349390  0.15234733  0.80912664  1
  In  In15  1  0.84267482  0.34535107  0.48764552  1
  In  In16  1  0.49222332  -0.03327728  0.48396425  1
  In  In17  1  0.52093145  0.66437274  0.51276702  1
  In  In18  1  0.15269203  0.51461204  0.00169339  1
  In  In19  1  0.00131773  0.84543256  0.50042814  1
  In  In20  1  0.51233115  0.15252430  0.64475852  1
  In  In21  1  0.82876877  -0.00707140  0.80068885  1
  In  In22  1  -0.03814157  -0.02893718  0.02801377  1
  In  In23  1  0.18101412  0.52032146  0.69143976  1
  In  In24  1  0.00213708  -0.01279218  0.32678704  1
  In  In25  1  0.68186373  0.70412781  0.00029854  1
  In  In26  1  0.32884239  0.66696762  0.32162076  1
  In  In27  1  0.30796021  0.33665292  0.00652495  1
  In  In28  1  0.30650463  0.47888469  0.19266880  1
  In  In29  1  -0.02117995  0.15380485  0.50694040  1
  In  In30  1  0.33080504  -0.00151171  0.65566593  1
  In  In31  1  0.49600181  0.83809878  0.02286644  1
  In  In32  1  0.67181085  0.32699324  0.64193526  1
  In  In33  1  0.17062934  0.00798118  0.82996831  1
  In  In34  1  0.67326876  0.52288643  0.17287199  1
  In  In35  1  0.68407347  0.11351972  0.82488667  1
  In  In36  1  0.01245323  0.35685947  0.01270377  1
  In  In37  1  0.82460944  0.82023669  0.32585509  1
  In  In38  1  0.17205275  0.68438167  0.48497007  1
  In  In39  1  0.67355808  0.50888566  0.48105432  1
  In  In40  1  0.49654839  0.34585635  0.80794274  1
  In  In41  1  0.49912893  0.54132711  0.00894404  1
  In  In42  1  0.34293995  0.68985035  -0.01296745  1
  In  In43  1  0.50869703  0.32740731  0.46903482  1
  In  In44  1  0.86471098  0.31725372  0.18606287  1
  In  In45  1  0.33607403  0.13133062  0.49204022  1
  In  In46  1  0.66156754  -0.02243494  0.00357494  1
  In  In47  1  0.65134366  0.49640727  0.80318233  1
  In  In48  1  0.82773306  0.15707298  0.35534748  1
  In  In49  1  -0.00501558  0.67352662  0.65604579  1
  In  In50  1  0.85671500  0.32001044  0.81443748  1
  In  In51  1  0.83881017  0.67324362  0.83714943  1
  In  In52  1  0.33660634  0.84074064  0.50200612  1
  In  In53  1  0.14660758  0.32295624  0.49269580  1
  In  In54  1  0.49004134  0.33337082  0.17804974  1
  In  In55  1  0.15508564  0.84450815  0.68143417  1
  In  In56  1  0.01172923  0.16634818  0.17325643  1
  In  In57  1  0.34362912  0.13972902  0.17332824  1
  In  In58  1  0.46167149  0.14391793  0.03105562  1
  In  In59  1  0.19081493  0.84775892  0.02108201  1
  In  In60  1  -0.00127828  0.51423048  0.18468727  1
  In  In61  1  0.52992320  0.82612172  0.31740873  1
  In  In62  1  0.15829242  0.83631840  0.33381203  1
  In  In63  1  0.49985465  -0.01752274  0.84102456  1
  In  In64  1  0.49385123  0.52622552  0.67326428  1
  In  In65  1  0.16105166  0.67765188  0.16023022  1
  In  In66  1  0.16378629  0.17527097  0.33517265  1
  In  In67  1  0.50852376  0.51063947  0.34533716  1
  In  In68  1  0.31744968  0.17502291  0.84319421  1
  In  In69  1  0.16955916  0.15146555  0.00516909  1
  In  In70  1  0.84080690  0.67440222  0.17253308  1
  In  In71  1  0.65785662  0.33036270  0.01529148  1
  Te  Te72  1  0.07567002  0.06055564  0.08508548  1
  Te  Te73  1  0.08190627  0.07885033  0.42008622  1
  Te  Te74  1  0.07663100  0.05509069  0.72441924  1
  Te  Te75  1  0.10536415  0.41885044  0.11149858  1
  Te  Te76  1  0.10215779  0.42261960  0.38839480  1
  Te  Te77  1  0.07574955  0.41012457  0.73188678  1
  Te  Te78  1  0.07792919  0.78285886  0.09465919  1
  Te  Te79  1  0.05754217  0.74110102  0.40260861  1
  Te  Te80  1  0.08199719  0.73824730  0.76325159  1
  Te  Te81  1  0.41146162  0.02063859  0.10451408  1
  Te  Te82  1  0.45286906  0.09336526  0.39890435  1
  Te  Te83  1  0.41730265  0.09622914  0.75363453  1
  Te  Te84  1  0.41951806  0.42269889  0.07534944  1
  Te  Te85  1  0.40325422  0.40954711  0.39471645  1
  Te  Te86  1  0.39138610  0.43956460  0.75203524  1
  Te  Te87  1  0.40897311  0.74949993  0.10498355  1
  Te  Te88  1  0.42120201  0.74572330  0.41626336  1
  Te  Te89  1  0.38146534  0.68654202  0.76847609  1
  Te  Te90  1  0.74521229  0.06791785  0.10135942  1
  Te  Te91  1  0.73480152  0.04801241  0.40034142  1
  Te  Te92  1  0.77357202  0.09871525  0.70628926  1
  Te  Te93  1  0.76464664  0.41102680  0.09531435  1
  Te  Te94  1  0.73650359  0.40316759  0.40113399  1
  Te  Te95  1  0.75880094  0.41350140  0.73444841  1
  Te  Te96  1  0.75681439  0.78359768  0.10453571  1
  Te  Te97  1  0.73204741  0.76866764  0.43108259  1
  Te  Te98  1  0.76167105  0.76271875  0.74236501  1
  Te  Te99  1  0.08206838  0.26976358  0.25190494  1
  Te  Te100  1  0.06543893  0.24618837  0.58863900  1
  Te  Te101  1  0.08473089  0.24843501  0.91815110  1
  Te  Te102  1  0.09685828  0.59331847  0.26250329  1
  Te  Te103  1  0.09184896  0.58579816  0.57520335  1
  Te  Te104  1  0.07716136  0.61470242  0.92407970  1
  Te  Te105  1  0.07690718  0.90334045  0.22757668  1
  Te  Te106  1  0.09190287  0.93186190  0.58021862  1
  Te  Te107  1  0.07484085  0.93085958  0.92346304  1
  Te  Te108  1  0.40304856  0.24632119  0.25865722  1
  Te  Te109  1  0.42062411  0.25811918  0.58080500  1
  Te  Te110  1  0.41855476  0.26138722  0.91985325  1
  Te  Te111  1  0.41770759  0.57427170  0.23974713  1
  Te  Te112  1  0.39722150  0.61765830  0.59609120  1
  Te  Te113  1  0.42217754  0.59715969  0.89296191  1
  Te  Te114  1  0.42054662  0.90695700  0.25332174  1
  Te  Te115  1  0.43184354  0.89413399  0.60875941  1
  Te  Te116  1  0.41001596  0.89202945  0.91222880  1
  Te  Te117  1  0.75081115  0.23599430  0.24612665  1
  Te  Te118  1  0.76100661  0.23572568  0.56249033  1
  Te  Te119  1  0.74219200  0.25776474  0.89985048  1
  Te  Te120  1  0.77046479  0.58309819  0.26768693  1
  Te  Te121  1  0.77134086  0.57044425  0.57959309  1
  Te  Te122  1  0.73043804  0.57780166  0.91720411  1
  Te  Te123  1  0.75472090  0.90239044  0.22107821  1
  Te  Te124  1  0.79597060  0.95140549  0.63492408  1
  Te  Te125  1  0.77480263  0.91383528  0.92515156  1
  Te  Te126  1  0.24310665  0.24190722  0.10359398  1
  Te  Te127  1  0.26461172  0.24832189  0.42480579  1
  Te  Te128  1  0.22200304  0.22955295  0.73812912  1
  Te  Te129  1  0.26502304  0.58232214  0.08365896  1
  Te  Te130  1  0.24643452  0.57429403  0.40963508  1
  Te  Te131  1  0.24631053  0.62222525  0.77797727  1
  Te  Te132  1  0.26866296  0.95562238  0.08303229  1
  Te  Te133  1  0.23425597  0.92737565  0.43181054  1
  Te  Te134  1  0.26821490  0.90975810  0.76313918  1
  Te  Te135  1  0.58087325  0.22700535  0.10132894  1
  Te  Te136  1  0.60243877  0.24538864  0.39235050  1
  Te  Te137  1  0.59283012  0.24199399  0.74661343  1
  Te  Te138  1  0.58482459  0.63046743  0.10448622  1
  Te  Te139  1  0.60690329  0.61669245  0.39456765  1
  Te  Te140  1  0.58492568  0.62222755  0.74961458  1
  Te  Te141  1  0.59138485  0.90913076  0.11398926  1
  Te  Te142  1  0.61092556  0.92504601  0.39805909  1
  Te  Te143  1  0.60161579  0.93430324  0.74585836  1
  Te  Te144  1  0.91526458  0.24068507  0.06004028  1
  Te  Te145  1  0.93396512  0.25646997  0.40131267  1
  Te  Te146  1  0.92499245  0.23598987  0.71430147  1
  Te  Te147  1  0.94253880  0.60458258  0.07392466  1
  Te  Te148  1  0.90569743  0.57314819  0.39253805  1
  Te  Te149  1  0.91199256  0.57815897  0.74328040  1
  Te  Te150  1  0.88544218  0.89645030  0.13430854  1
  Te  Te151  1  0.89860105  0.92513467  0.42017734  1
  Te  Te152  1  0.92935216  0.91235127  0.72171363  1
  Te  Te153  1  0.23272398  0.06662423  0.25180932  1
  Te  Te154  1  0.23639760  0.09220171  0.59258724  1
  Te  Te155  1  0.27387604  0.06253737  0.93682448  1
  Te  Te156  1  0.21074068  0.40087476  0.27221939  1
  Te  Te157  1  0.24495776  0.42366072  0.58002402  1
  Te  Te158  1  0.25283853  0.44122287  0.90908205  1
  Te  Te159  1  0.25894554  0.77183623  0.23745410  1
  Te  Te160  1  0.24799917  0.75594940  0.59405575  1
  Te  Te161  1  0.23521940  0.75837577  0.91012469  1
  Te  Te162  1  0.54488914  0.04424592  0.27972984  1
  Te  Te163  1  0.59168987  0.04275667  0.58108523  1
  Te  Te164  1  0.57509428  0.09307146  0.93082260  1
  Te  Te165  1  0.59230141  0.41949248  0.25305068  1
  Te  Te166  1  0.56843509  0.42906636  0.57848776  1
  Te  Te167  1  0.57564746  0.42722953  0.91926832  1
  Te  Te168  1  0.59019297  0.72451897  0.23101527  1
  Te  Te169  1  0.59439003  0.77560544  0.57713614  1
  Te  Te170  1  0.57106209  0.75482652  0.91124554  1
  Te  Te171  1  0.91067246  0.08227569  0.24764112  1
  Te  Te172  1  0.89465241  0.04540876  0.56720489  1
  Te  Te173  1  0.91470960  0.07785158  0.91592054  1
  Te  Te174  1  0.90784770  0.43112993  0.26907209  1
  Te  Te175  1  0.92338107  0.42402527  0.58391359  1
  Te  Te176  1  0.91445226  0.42808509  0.91539457  1
  Te  Te177  1  0.93785423  0.75647522  0.25233050  1
  Te  Te178  1  0.89951494  0.76499794  0.58302626  1
  Te  Te179  1  0.90814640  0.75805301  0.93545829  1
