# generated using pymatgen
data_In2Te3
_symmetry_space_group_name_H-M   'P 1'
_cell_length_a   18.78759417
_cell_length_b   18.79232763
_cell_length_c   18.77912663
_cell_angle_alpha   89.95813370
_cell_angle_beta   90.06075169
_cell_angle_gamma   90.10764021
_symmetry_Int_Tables_number   1
_chemical_formula_structural   In2Te3
_chemical_formula_sum   'In72 Te108'
_cell_volume   6630.19055783
_cell_formula_units_Z   36
loop_
 _symmetry_equiv_pos_site_id
 _symmetry_equiv_pos_as_xyz
  1  'x, y, z'
loop_
 _atom_site_type_symbol
 _atom_site_label
 _atom_site_symmetry_multiplicity
 _atom_site_fract_x
 _atom_site_fract_y
 _atom_site_fract_z
 _atom_site_occupancy
  In  In0  1  0.66316566  -0.01690074  0.69179460  1
  In  In1  1  0.48123851  0.64558093  0.50591089  1
  In  In2  1  0.17265182  0.16704200  -0.01348677  1
  In  In3  1  0.49041778  0.49539278  0.00656455  1
  In  In4  1  0.64265017  0.17830902  0.47624305  1
  In  In5  1  0.16978673  0.17920529  0.33922299  1
  In  In6  1  0.17645119  0.49379850  0.67933287  1
  In  In7  1  0.50520551  0.67659429  0.85183367  1
  In  In8  1  0.00271029  -0.00961192  0.31941857  1
  In  In9  1  0.30597755  0.67920089  0.33341045  1
  In  In10  1  0.00875422  0.19004407  0.51801659  1
  In  In11  1  0.16357430  0.65790397  0.83111326  1
  In  In12  1  0.82916468  0.50334623  0.67742817  1
  In  In13  1  0.31991694  0.67902408  -0.01147667  1
  In  In14  1  0.68863403  0.66744478  0.33021005  1
  In  In15  1  0.81832149  0.32285726  0.16020703  1
  In  In16  1  0.16282935  0.67436165  0.50340636  1
  In  In17  1  0.67456629  0.18020348  0.82750634  1
  In  In18  1  0.81787481  0.50398272  0.33448830  1
  In  In19  1  0.83616322  0.83601225  0.00445338  1
  In  In20  1  0.29908514  0.31989566  0.69028410  1
  In  In21  1  0.33556010  0.17673087  0.15205221  1
  In  In22  1  0.66098623  0.32846882  0.67138759  1
  In  In23  1  0.33253925  0.50283778  0.15347621  1
  In  In24  1  0.46709997  0.01718589  0.50585047  1
  In  In25  1  0.46847472  0.83723731  0.32588163  1
  In  In26  1  0.32663217  0.82966480  0.83748563  1
  In  In27  1  0.15880726  -0.01175058  0.14502477  1
  In  In28  1  0.66375045  0.83661112  0.14059690  1
  In  In29  1  0.50197889  0.00050776  0.82805404  1
  In  In30  1  0.66701861  0.83001513  0.49137083  1
  In  In31  1  0.82715188  0.35157805  0.48151008  1
  In  In32  1  0.14932128  0.48757586  0.34131115  1
  In  In33  1  0.85757106  0.01301657  0.51861792  1
  In  In34  1  0.00600332  0.15462105  0.18832226  1
  In  In35  1  0.01064339  0.68966029  0.33129820  1
  In  In36  1  0.16241335  0.82474950  0.65726486  1
  In  In37  1  0.65169906  0.02009147  0.32516489  1
  In  In38  1  0.67068347  0.48952979  0.83523165  1
  In  In39  1  0.19399653  0.49241712  -0.02238488  1
  In  In40  1  0.69264529  0.51052797  0.50105161  1
  In  In41  1  0.67201004  -0.01276034  -0.00502036  1
  In  In42  1  0.48580090  0.85787460  0.67138861  1
  In  In43  1  0.84988893  0.66262703  0.82190561  1
  In  In44  1  0.33259550  0.33440697  0.33873531  1
  In  In45  1  0.31879270  -0.00064858  0.35517585  1
  In  In46  1  0.87310993  0.81754193  0.66601375  1
  In  In47  1  0.00897456  0.32799838  0.34027998  1
  In  In48  1  0.85060283  -0.00671898  0.14651091  1
  In  In49  1  0.50723703  0.65382032  0.16315090  1
  In  In50  1  0.65452663  0.17199962  0.16840700  1
  In  In51  1  0.03689106  0.68344506  0.02114331  1
  In  In52  1  0.66913978  0.31920270  -0.00044927  1
  In  In53  1  0.00593955  0.49407482  0.14340059  1
  In  In54  1  0.50035253  0.17634475  0.66718510  1
  In  In55  1  0.85787124  0.84379738  0.31979868  1
  In  In56  1  0.50947924  0.46428737  0.30785897  1
  In  In57  1  0.87432862  0.14109224  -0.02685425  1
  In  In58  1  0.46499934  0.19544333  -0.01586690  1
  In  In59  1  0.67762408  0.66467160  0.67303027  1
  In  In60  1  0.00922989  0.33495269  -0.02154651  1
  In  In61  1  0.84618308  0.48896729  -0.00297955  1
  In  In62  1  0.32646649  0.02136009  0.67328367  1
  In  In63  1  0.17364415  -0.01423099  0.50846325  1
  In  In64  1  0.49351379  0.32477394  0.49061189  1
  In  In65  1  0.85219255  0.16831364  0.67181796  1
  In  In66  1  0.01530848  0.49716765  0.50430702  1
  In  In67  1  0.31193286  0.84954361  0.17398754  1
  In  In68  1  0.03020495  0.32092460  0.68777491  1
  In  In69  1  0.02269916  0.85944480  0.83231893  1
  In  In70  1  0.46432059  0.48030934  0.66788934  1
  In  In71  1  0.50787378  0.84105785  -0.00533001  1
  Te  Te72  1  0.06787851  0.08508869  0.06976468  1
  Te  Te73  1  0.07461568  0.08647979  0.41654705  1
  Te  Te74  1  0.08765943  0.07117966  0.81474310  1
  Te  Te75  1  0.10658775  0.40561006  0.07323586  1
  Te  Te76  1  0.10165751  0.38524586  0.44745265  1
  Te  Te77  1  0.10428855  0.40958711  0.77972501  1
  Te  Te78  1  0.09902753  0.78239778  0.11330867  1
  Te  Te79  1  0.09975726  0.77721070  0.41394396  1
  Te  Te80  1  0.06875811  0.74245722  0.74580550  1
  Te  Te81  1  0.39816548  0.08442156  0.05434118  1
  Te  Te82  1  0.39821223  0.10881482  0.41552433  1
  Te  Te83  1  0.41059020  0.10723732  0.76996474  1
  Te  Te84  1  0.41556618  0.39952885  0.09117064  1
  Te  Te85  1  0.41606995  0.43755369  0.42356196  1
  Te  Te86  1  0.39616439  0.40281873  0.77495970  1
  Te  Te87  1  0.41542444  0.75240621  0.08823534  1
  Te  Te88  1  0.39853768  0.75400852  0.43102476  1
  Te  Te89  1  0.41537820  0.74416601  0.74751631  1
  Te  Te90  1  0.75852537  0.09355348  0.07384434  1
  Te  Te91  1  0.74833791  0.07801464  0.42870837  1
  Te  Te92  1  0.76276226  0.07640087  0.75958807  1
  Te  Te93  1  0.73649189  0.42660066  0.08499812  1
  Te  Te94  1  0.71348067  0.40143904  0.38794855  1
  Te  Te95  1  0.76457286  0.39313829  0.76224337  1
  Te  Te96  1  0.75746125  0.73940715  0.08614213  1
  Te  Te97  1  0.77662105  0.75466811  0.41860845  1
  Te  Te98  1  0.75466865  0.76310950  0.75711266  1
  Te  Te99  1  0.09900525  0.26615820  0.23399310  1
  Te  Te100  1  0.11722897  0.22258640  0.61613915  1
  Te  Te101  1  0.08510432  0.24325403  0.88809864  1
  Te  Te102  1  0.08145785  0.58146792  0.24320080  1
  Te  Te103  1  0.07868239  0.59258322  0.60094264  1
  Te  Te104  1  0.07600046  0.57291470  0.92303441  1
  Te  Te105  1  0.06771830  0.89335012  0.22279873  1
  Te  Te106  1  0.07002735  0.91980702  0.59092362  1
  Te  Te107  1  0.09712133  0.95870393  0.91705318  1
  Te  Te108  1  0.41842407  0.24780704  0.25397302  1
  Te  Te109  1  0.40005353  0.25288738  0.58674972  1
  Te  Te110  1  0.35277948  0.26833248  0.91416831  1
  Te  Te111  1  0.41350803  0.58795175  0.26416300  1
  Te  Te112  1  0.38376396  0.58331340  0.59801412  1
  Te  Te113  1  0.40393917  0.57906412  0.91039900  1
  Te  Te114  1  0.40972247  0.94675844  0.24151506  1
  Te  Te115  1  0.38140559  0.91314481  0.57498166  1
  Te  Te116  1  0.40565474  0.92956324  0.92288979  1
  Te  Te117  1  0.74803893  0.24159946  0.26136726  1
  Te  Te118  1  0.74705060  0.24529562  0.57619734  1
  Te  Te119  1  0.77726397  0.24861083  0.91818948  1
  Te  Te120  1  0.75091323  0.58209038  0.22868414  1
  Te  Te121  1  0.78626587  0.61563717  0.57244734  1
  Te  Te122  1  0.75502575  0.58564056  0.91549498  1
  Te  Te123  1  0.74222725  0.92229089  0.24715916  1
  Te  Te124  1  0.75324962  0.91419491  0.58732591  1
  Te  Te125  1  0.76650172  0.92176877  0.90531362  1
  Te  Te126  1  0.24613669  0.26499157  0.07241053  1
  Te  Te127  1  0.25603462  0.24993981  0.43469764  1
  Te  Te128  1  0.25933021  0.21599975  0.79263319  1
  Te  Te129  1  0.23437481  0.59589706  0.08398557  1
  Te  Te130  1  0.24568485  0.57210894  0.42363728  1
  Te  Te131  1  0.26692309  0.58539287  0.75655877  1
  Te  Te132  1  0.25747777  0.92175154  0.05702813  1
  Te  Te133  1  0.22076735  0.89544050  0.39811259  1
  Te  Te134  1  0.24154554  0.92007877  0.74964940  1
  Te  Te135  1  0.55864555  0.26099998  0.08674578  1
  Te  Te136  1  0.56303895  0.25541588  0.37833744  1
  Te  Te137  1  0.56194607  0.26933258  0.77092940  1
  Te  Te138  1  0.59343405  0.58242480  0.06975705  1
  Te  Te139  1  0.58587536  0.58482569  0.41160277  1
  Te  Te140  1  0.57658375  0.57245095  0.74431151  1
  Te  Te141  1  0.56521134  0.94317910  0.09457559  1
  Te  Te142  1  0.56595311  0.92254716  0.42199926  1
  Te  Te143  1  0.58978152  0.88487126  0.78196707  1
  Te  Te144  1  0.92626110  0.24665510  0.08300995  1
  Te  Te145  1  0.90701728  0.24059256  0.41339113  1
  Te  Te146  1  0.92978432  0.24638212  0.76941221  1
  Te  Te147  1  0.91837046  0.59836297  0.07707130  1
  Te  Te148  1  0.93075595  0.57729434  0.40655532  1
  Te  Te149  1  0.93873162  0.56850140  0.75111439  1
  Te  Te150  1  0.94639517  0.90857249  0.07506416  1
  Te  Te151  1  0.93479187  0.91187693  0.43384056  1
  Te  Te152  1  0.91583489  0.92911514  0.75328118  1
  Te  Te153  1  0.23708486  0.07871193  0.24346124  1
  Te  Te154  1  0.23097022  0.09884065  0.58901684  1
  Te  Te155  1  0.23703228  0.08395092  0.87661858  1
  Te  Te156  1  0.24379747  0.41660717  0.24502061  1
  Te  Te157  1  0.25298595  0.41076329  0.58296553  1
  Te  Te158  1  0.27760937  0.40451848  0.89240582  1
  Te  Te159  1  0.22192378  0.74168027  0.22656174  1
  Te  Te160  1  0.26385028  0.74047616  0.59082659  1
  Te  Te161  1  0.21577971  0.76942322  0.92479045  1
  Te  Te162  1  0.55366374  0.09345707  0.24484205  1
  Te  Te163  1  0.58912413  0.07576199  0.59304387  1
  Te  Te164  1  0.58354463  0.09649396  0.91926250  1
  Te  Te165  1  0.62094759  0.38966101  0.25312759  1
  Te  Te166  1  0.58490257  0.42469297  0.58022414  1
  Te  Te167  1  0.57306432  0.40339096  0.91407791  1
  Te  Te168  1  0.58254950  0.76112672  0.25895728  1
  Te  Te169  1  0.57497543  0.75045742  0.58695231  1
  Te  Te170  1  0.60399820  0.74540720  0.93670671  1
  Te  Te171  1  0.89376145  0.08377303  0.26199131  1
  Te  Te172  1  0.95936658  0.07645843  0.61264195  1
  Te  Te173  1  0.94851282  0.04677210  0.88473871  1
  Te  Te174  1  0.92010703  0.41401650  0.24759428  1
  Te  Te175  1  0.92089404  0.40566943  0.58816769  1
  Te  Te176  1  0.92787582  0.42509959  0.89305196  1
  Te  Te177  1  0.91136842  0.73869302  0.23265185  1
  Te  Te178  1  0.90708478  0.71673942  0.56822677  1
  Te  Te179  1  0.93995895  0.75031964  0.91431565  1
