# generated using pymatgen
data_In2Te3
_symmetry_space_group_name_H-M   'P 1'
_cell_length_a   18.98344945
_cell_length_b   18.97634655
_cell_length_c   18.97069201
_cell_angle_alpha   90.05238714
_cell_angle_beta   89.73326641
_cell_angle_gamma   90.06338262
_symmetry_Int_Tables_number   1
_chemical_formula_structural   In2Te3
_chemical_formula_sum   'In72 Te108'
_cell_volume   6833.85492540
_cell_formula_units_Z   36
loop_
 _symmetry_equiv_pos_site_id
 _symmetry_equiv_pos_as_xyz
  1  'x, y, z'
loop_
 _atom_site_type_symbol
 _atom_site_label
 _atom_site_symmetry_multiplicity
 _atom_site_fract_x
 _atom_site_fract_y
 _atom_site_fract_z
 _atom_site_occupancy
  In  In0  1  -0.02530941  0.26054148  0.28293662  1
  In  In1  1  0.18217475  0.63369791  0.12606796  1
  In  In2  1  0.83528865  0.33562876  0.82878029  1
  In  In3  1  0.17749500  0.15774494  0.69299740  1
  In  In4  1  0.51785462  0.82937756  -0.01804761  1
  In  In5  1  -0.00938113  0.85285050  0.83001827  1
  In  In6  1  0.32437466  0.51714967  0.50003334  1
  In  In7  1  0.31928714  0.00389703  0.68494544  1
  In  In8  1  0.16700619  0.83195067  0.66486160  1
  In  In9  1  0.84311409  0.01217029  0.16609975  1
  In  In10  1  0.15450974  0.01297141  0.16522717  1
  In  In11  1  -0.00464501  0.67517681  0.34614732  1
  In  In12  1  0.84944164  0.66232451  0.82891878  1
  In  In13  1  0.22308927  0.47308383  0.69886890  1
  In  In14  1  0.49419166  0.32680904  0.50759618  1
  In  In15  1  0.33021171  0.34749163  0.31827578  1
  In  In16  1  0.47733871  0.01188719  0.18384956  1
  In  In17  1  -0.00648512  0.49878624  0.51931315  1
  In  In18  1  0.79258411  -0.01185901  0.53067098  1
  In  In19  1  -0.00531279  0.33396562  0.66942890  1
  In  In20  1  0.35135803  0.69003609  0.69274257  1
  In  In21  1  0.34060255  0.65118400  0.32857829  1
  In  In22  1  0.68111157  0.66460465  0.34687688  1
  In  In23  1  0.53055000  -0.00096938  0.54332277  1
  In  In24  1  0.67158329  0.31552621  0.34389790  1
  In  In25  1  0.00585476  0.67244426  0.01314741  1
  In  In26  1  0.48788803  0.16696137  0.34620114  1
  In  In27  1  0.66641191  0.67019891  0.66929379  1
  In  In28  1  0.15745158  0.49038545  0.31905199  1
  In  In29  1  0.65657701  0.31184128  0.69172113  1
  In  In30  1  0.15782334  0.17407742  -0.00788060  1
  In  In31  1  0.15542417  -0.01040733  0.84072443  1
  In  In32  1  0.43225930  0.50351939  -0.05304920  1
  In  In33  1  0.30947543  0.16920729  0.13711904  1
  In  In34  1  0.16472727  0.34170747  0.49240467  1
  In  In35  1  0.82665594  0.18060127  0.66697045  1
  In  In36  1  0.82431592  0.01366053  0.83251864  1
  In  In37  1  0.63840992  0.02423721  -0.03283140  1
  In  In38  1  0.81441033  0.34020234  0.16680450  1
  In  In39  1  -0.01500213  0.82678078  0.16678643  1
  In  In40  1  0.64843928  0.32330540  -0.02575394  1
  In  In41  1  0.37632133  -0.00586334  -0.02699732  1
  In  In42  1  0.51061520  0.52766475  0.31906963  1
  In  In43  1  0.34542521  0.17320691  0.52270291  1
  In  In44  1  -0.02449228  0.01326980  0.33467635  1
  In  In45  1  0.00757517  0.32984666  -0.02556415  1
  In  In46  1  0.82842556  0.66932181  0.17833080  1
  In  In47  1  0.19583377  0.70998720  0.85086563  1
  In  In48  1  0.01533097  0.64993682  0.64248166  1
  In  In49  1  0.66264483  0.84683403  0.18101561  1
  In  In50  1  0.65928253  0.46985582  0.52052469  1
  In  In51  1  0.82908581  0.68753612  0.50921557  1
  In  In52  1  0.67785326  0.66639009  0.03036780  1
  In  In53  1  0.83512822  0.16013152  -0.00143605  1
  In  In54  1  0.50378443  0.32374679  0.12619504  1
  In  In55  1  0.49525942  0.68471190  0.53283945  1
  In  In56  1  0.19433517  0.48575844  -0.05280817  1
  In  In57  1  0.66268217  0.85324354  0.80786523  1
  In  In58  1  0.66229527  0.52589452  0.83741059  1
  In  In59  1  -0.01802847  0.15937581  0.49874285  1
  In  In60  1  0.66573451  0.00547822  0.36583874  1
  In  In61  1  0.00769592  0.50213537  0.81496823  1
  In  In62  1  0.65473905  0.47456459  0.15875250  1
  In  In63  1  0.00008544  0.86215121  0.51718027  1
  In  In64  1  0.33297274  -0.02301476  0.33375975  1
  In  In65  1  0.13744982  0.18256870  0.32903666  1
  In  In66  1  0.00739914  0.47450103  0.16230154  1
  In  In67  1  0.35473043  0.17854103  0.83949363  1
  In  In68  1  0.34159220  0.84484063  0.15239249  1
  In  In69  1  0.16584129  0.80824793  0.33506062  1
  In  In70  1  0.32604586  0.82644105  0.51607767  1
  In  In71  1  0.48147412  0.66398356  0.15769008  1
  Te  Te72  1  0.07094324  0.09966553  0.08499079  1
  Te  Te73  1  0.08424175  0.07546052  0.42023601  1
  Te  Te74  1  0.07797920  0.05731647  0.73457703  1
  Te  Te75  1  0.09716746  0.42485102  0.05256779  1
  Te  Te76  1  0.06320404  0.41444198  0.40969444  1
  Te  Te77  1  0.10040424  0.39808773  0.75782256  1
  Te  Te78  1  0.10288433  0.75768022  0.09208460  1
  Te  Te79  1  0.07921892  0.74980769  0.44635973  1
  Te  Te80  1  0.07784398  0.73652171  0.75267457  1
  Te  Te81  1  0.42774959  0.09946283  0.07134695  1
  Te  Te82  1  0.41610768  0.06332021  0.43148898  1
  Te  Te83  1  0.42502499  0.08187901  0.74971258  1
  Te  Te84  1  0.41146374  0.41934550  0.06718091  1
  Te  Te85  1  0.42161840  0.43249006  0.41217899  1
  Te  Te86  1  0.34356832  0.43137649  0.78336492  1
  Te  Te87  1  0.40376270  0.74404450  0.05120073  1
  Te  Te88  1  0.41436967  0.74619516  0.41948959  1
  Te  Te89  1  0.42264112  0.76200615  0.80015653  1
  Te  Te90  1  0.73536470  0.07201066  0.07381391  1
  Te  Te91  1  0.76151148  0.09344414  0.43293956  1
  Te  Te92  1  0.72797224  0.09098062  0.74143437  1
  Te  Te93  1  0.74541390  0.41470420  0.05519355  1
  Te  Te94  1  0.73746173  0.43127616  0.40358476  1
  Te  Te95  1  0.74091996  0.42616163  0.75375220  1
  Te  Te96  1  0.76395587  0.77573932  0.09200978  1
  Te  Te97  1  0.73334367  0.77520764  0.43296308  1
  Te  Te98  1  0.76474910  0.75637912  0.74603693  1
  Te  Te99  1  0.10794373  0.27373553  0.21920439  1
  Te  Te100  1  0.08901164  0.24431930  0.58069676  1
  Te  Te101  1  0.08723718  0.24521330  0.88502870  1
  Te  Te102  1  0.07505983  0.59803906  0.24099068  1
  Te  Te103  1  0.10992100  0.53828806  0.60666080  1
  Te  Te104  1  0.08556344  0.59538891  0.90789889  1
  Te  Te105  1  0.08158697  0.91352671  0.26370960  1
  Te  Te106  1  0.08580747  0.94079419  0.60823397  1
  Te  Te107  1  0.08252464  0.90142683  0.93230001  1
  Te  Te108  1  0.41108395  0.24392968  0.23822410  1
  Te  Te109  1  0.44999486  0.22807787  0.60754124  1
  Te  Te110  1  0.47067813  0.23940589  0.91370915  1
  Te  Te111  1  0.39534697  0.55621291  0.22494256  1
  Te  Te112  1  0.41449403  0.57845834  0.60356516  1
  Te  Te113  1  0.45894015  0.62867048  0.87182867  1
  Te  Te114  1  0.43516935  0.88886501  0.26296342  1
  Te  Te115  1  0.41249142  0.91403567  0.60098266  1
  Te  Te116  1  0.45222911  0.91000482  0.87503167  1
  Te  Te117  1  0.72918730  0.23894264  0.23173773  1
  Te  Te118  1  0.76085584  0.28668997  0.58858057  1
  Te  Te119  1  0.74728749  0.23571883  0.90006385  1
  Te  Te120  1  0.74099436  0.56637945  0.24742499  1
  Te  Te121  1  0.74926380  0.57945581  0.58131874  1
  Te  Te122  1  0.76416627  0.58721976  0.93084751  1
  Te  Te123  1  0.75557399  0.93232997  0.26164694  1
  Te  Te124  1  0.70298295  0.87054122  0.55389138  1
  Te  Te125  1  0.73747325  0.92117989  0.92081543  1
  Te  Te126  1  0.26065415  0.27021792  0.04154491  1
  Te  Te127  1  0.26106789  0.24586940  0.40975515  1
  Te  Te128  1  0.27897036  0.25310618  0.73553293  1
  Te  Te129  1  0.27956997  0.57210410  0.03321725  1
  Te  Te130  1  0.22751068  0.58955808  0.40957959  1
  Te  Te131  1  0.27136823  0.59300421  0.78233446  1
  Te  Te132  1  0.26682148  0.95087075  0.07976013  1
  Te  Te133  1  0.23429958  0.90858384  0.42727844  1
  Te  Te134  1  0.25314582  0.89597388  0.77012113  1
  Te  Te135  1  0.61621954  0.23743684  0.09178819  1
  Te  Te136  1  0.58945085  0.23020042  0.43938131  1
  Te  Te137  1  0.56290254  0.24360590  0.78675106  1
  Te  Te138  1  0.56964698  0.56997310  0.07526654  1
  Te  Te139  1  0.57840881  0.58965546  0.44105645  1
  Te  Te140  1  0.56283423  0.59993671  0.75314954  1
  Te  Te141  1  0.57086717  0.92516947  0.08731015  1
  Te  Te142  1  0.56678061  0.91585394  0.42817456  1
  Te  Te143  1  0.63249896  0.96205539  0.70917372  1
  Te  Te144  1  0.91343967  0.26586150  0.07427526  1
  Te  Te145  1  0.90219769  0.24080456  0.40824383  1
  Te  Te146  1  0.92946512  0.23519141  0.76464895  1
  Te  Te147  1  0.91777563  0.57955654  0.09493177  1
  Te  Te148  1  0.90594465  0.58470435  0.42604649  1
  Te  Te149  1  0.91101959  0.57191200  0.72281321  1
  Te  Te150  1  0.93255465  0.93156901  0.08163076  1
  Te  Te151  1  0.89767121  0.92491358  0.42803246  1
  Te  Te152  1  0.89011461  0.91421522  0.74522920  1
  Te  Te153  1  0.25720417  0.08599284  0.26013984  1
  Te  Te154  1  0.24331146  0.07764890  0.57610553  1
  Te  Te155  1  0.26092952  0.07745811  0.91334571  1
  Te  Te156  1  0.23070455  0.40317871  0.22544451  1
  Te  Te157  1  0.28036023  0.39278846  0.57415050  1
  Te  Te158  1  0.28131273  0.37141938  0.90537941  1
  Te  Te159  1  0.25746657  0.73811493  0.23259274  1
  Te  Te160  1  0.24316520  0.72378754  0.59061368  1
  Te  Te161  1  0.28038827  0.75874910  0.95611531  1
  Te  Te162  1  0.58225103  0.08553862  0.25989207  1
  Te  Te163  1  0.63179782  0.08323399  0.61163141  1
  Te  Te164  1  0.55598987  0.11168438  0.87975545  1
  Te  Te165  1  0.56427543  0.39921097  0.25787944  1
  Te  Te166  1  0.56004605  0.41029602  0.61675090  1
  Te  Te167  1  0.56590385  0.43355339  0.90984593  1
  Te  Te168  1  0.58772990  0.73102293  0.24592006  1
  Te  Te169  1  0.57720984  0.77722502  0.61497197  1
  Te  Te170  1  0.62363891  0.74635545  0.91429721  1
  Te  Te171  1  0.92748250  0.11621454  0.23841471  1
  Te  Te172  1  0.90538425  0.07295960  0.59609102  1
  Te  Te173  1  0.92336568  0.07352298  0.92079697  1
  Te  Te174  1  0.91188526  0.41126777  0.25705676  1
  Te  Te175  1  0.90204505  0.39691179  0.57535898  1
  Te  Te176  1  0.91474702  0.43382482  0.91297880  1
  Te  Te177  1  0.89757065  0.76438979  0.27463058  1
  Te  Te178  1  0.92145104  0.76299618  0.60192721  1
  Te  Te179  1  0.91381994  0.75600525  0.92850345  1
