# generated using pymatgen
data_In2Te3
_symmetry_space_group_name_H-M   'P 1'
_cell_length_a   18.79616862
_cell_length_b   18.79214896
_cell_length_c   18.79042906
_cell_angle_alpha   90.04829294
_cell_angle_beta   90.04733864
_cell_angle_gamma   90.05777052
_symmetry_Int_Tables_number   1
_chemical_formula_structural   In2Te3
_chemical_formula_sum   'In72 Te108'
_cell_volume   6637.15487723
_cell_formula_units_Z   36
loop_
 _symmetry_equiv_pos_site_id
 _symmetry_equiv_pos_as_xyz
  1  'x, y, z'
loop_
 _atom_site_type_symbol
 _atom_site_label
 _atom_site_symmetry_multiplicity
 _atom_site_fract_x
 _atom_site_fract_y
 _atom_site_fract_z
 _atom_site_occupancy
  In  In0  1  0.49473262  0.16056853  0.00805784  1
  In  In1  1  0.49340800  0.14376794  0.63894580  1
  In  In2  1  0.33844330  0.00147990  0.32813775  1
  In  In3  1  0.32485025  0.65077992  0.01965288  1
  In  In4  1  0.82563941  0.64747773  0.84411973  1
  In  In5  1  0.31579248  0.16992222  0.15319144  1
  In  In6  1  0.17755128  0.65898555  0.17797613  1
  In  In7  1  0.32726027  0.48808491  0.48977437  1
  In  In8  1  0.88042011  0.34524466  0.87180530  1
  In  In9  1  0.66876323  0.01049044  0.67181626  1
  In  In10  1  0.00201765  0.14051002  0.87565033  1
  In  In11  1  0.18303682  0.84797157  0.00467885  1
  In  In12  1  -0.01301486  0.84476274  0.48300974  1
  In  In13  1  0.65052806  0.85828259  0.49043135  1
  In  In14  1  0.02400765  0.86418210  0.85617726  1
  In  In15  1  0.00413083  0.86200306  0.15322636  1
  In  In16  1  0.34872125  0.68455173  0.67352333  1
  In  In17  1  0.85235020  0.48229254  0.32099410  1
  In  In18  1  0.31286251  0.15524837  0.87040111  1
  In  In19  1  0.68869212  0.52509224  0.48932904  1
  In  In20  1  0.01159132  0.18502910  0.48992506  1
  In  In21  1  0.46057471  0.87125532  -0.02547510  1
  In  In22  1  -0.00982861  0.66748223  0.68712529  1
  In  In23  1  0.49571335  0.30437252  0.85218997  1
  In  In24  1  0.83207657  0.17858307  0.66325356  1
  In  In25  1  0.13940352  0.65839973  0.87256700  1
  In  In26  1  0.15526269  0.02372494  0.48897243  1
  In  In27  1  0.16217359  0.48880141  0.67083687  1
  In  In28  1  0.31754596  0.51629794  0.85608820  1
  In  In29  1  0.83165605  0.85155033  0.33149971  1
  In  In30  1  0.64852085  0.64876911  0.31847097  1
  In  In31  1  0.66826534  -0.00738902  0.31909803  1
  In  In32  1  0.01892959  0.47525059  0.14380312  1
  In  In33  1  -0.00106590  0.46266919  0.48286551  1
  In  In34  1  0.51290587  0.34909659  0.48575250  1
  In  In35  1  0.68399293  0.03101946  0.02172642  1
  In  In36  1  0.50605272  0.67407082  0.16840611  1
  In  In37  1  0.00943520  0.30360671  0.29880945  1
  In  In38  1  0.66924433  0.31658622  0.01298285  1
  In  In39  1  0.66225066  0.83901670  0.83951987  1
  In  In40  1  0.36183035  0.81695632  0.48568245  1
  In  In41  1  0.33032646  0.33614536  0.68510107  1
  In  In42  1  0.00539380  0.68964210  0.31572824  1
  In  In43  1  0.66171796  0.46684797  0.85152689  1
  In  In44  1  0.65790941  0.82874694  0.18338037  1
  In  In45  1  0.00200282  0.32389614  0.64970501  1
  In  In46  1  0.82894102  0.66852719  0.50539509  1
  In  In47  1  0.82033072  -0.00621346  0.49868454  1
  In  In48  1  0.83742376  0.83684676  0.00767725  1
  In  In49  1  0.33115357  0.00120633  0.68157146  1
  In  In50  1  0.67204694  0.67458419  0.65497245  1
  In  In51  1  0.85274768  0.16848453  0.29883012  1
  In  In52  1  0.00381714  0.63719950  0.00187033  1
  In  In53  1  0.47157697  0.67000211  0.81384067  1
  In  In54  1  0.51620042  0.83331284  0.66167911  1
  In  In55  1  0.50027043  -0.00281403  0.16750619  1
  In  In56  1  0.49179620  0.52038519  0.66601855  1
  In  In57  1  -0.00100566  0.00967802  0.69759141  1
  In  In58  1  0.19020464  0.45022073  0.29000362  1
  In  In59  1  0.18594709  0.86812565  0.68377913  1
  In  In60  1  0.16576877  0.33128291  0.85678177  1
  In  In61  1  0.18756981  0.63620943  0.49944052  1
  In  In62  1  0.47914469  0.49043854  0.31162322  1
  In  In63  1  0.18293349  0.83227124  0.30813508  1
  In  In64  1  0.16895997  0.01992531  0.15203842  1
  In  In65  1  0.66761726  0.32771896  0.31894243  1
  In  In66  1  0.65828807  0.65529498  -0.00746818  1
  In  In67  1  0.48471046  0.16214920  0.31489104  1
  In  In68  1  0.66820681  0.15598594  0.83425650  1
  In  In69  1  0.30126774  0.18843109  0.47233509  1
  In  In70  1  0.69515854  0.32952496  0.66174608  1
  In  In71  1  0.68634102  0.47920824  0.17004114  1
  Te  Te72  1  0.06430543  0.11759451  0.10455209  1
  Te  Te73  1  0.08630912  0.10619924  0.38884967  1
  Te  Te74  1  0.09466281  0.09436412  0.76870002  1
  Te  Te75  1  0.08870235  0.35562432  0.08328703  1
  Te  Te76  1  0.10425674  0.38386260  0.40480865  1
  Te  Te77  1  0.07203027  0.40828696  0.75870409  1
  Te  Te78  1  0.08769143  0.74615605  0.08655560  1
  Te  Te79  1  0.09535831  0.75252742  0.42260330  1
  Te  Te80  1  0.09419243  0.75777242  0.75552286  1
  Te  Te81  1  0.39736468  0.06539933  0.07731916  1
  Te  Te82  1  0.41089924  0.09136253  0.42900049  1
  Te  Te83  1  0.41503053  0.10305676  0.76103035  1
  Te  Te84  1  0.35518487  0.47472757  0.09788920  1
  Te  Te85  1  0.39775382  0.39079200  0.39524502  1
  Te  Te86  1  0.42412819  0.42639974  0.76677623  1
  Te  Te87  1  0.42030470  0.76034809  0.07322946  1
  Te  Te88  1  0.43582342  0.74089115  0.38707359  1
  Te  Te89  1  0.40267166  0.79519718  0.76246731  1
  Te  Te90  1  0.76359139  0.13196657  0.09828942  1
  Te  Te91  1  0.75939137  0.08786530  0.39615328  1
  Te  Te92  1  0.77479136  0.07476393  0.76096527  1
  Te  Te93  1  0.77259925  0.40039687  0.08003476  1
  Te  Te94  1  0.75592531  0.41087989  0.41655550  1
  Te  Te95  1  0.77315082  0.40250749  0.76910241  1
  Te  Te96  1  0.74189087  0.74408039  0.08490772  1
  Te  Te97  1  0.74379462  0.75185299  0.40851451  1
  Te  Te98  1  0.75673642  0.75276711  0.75584678  1
  Te  Te99  1  0.10801107  0.25182715  0.19664089  1
  Te  Te100  1  0.10554221  0.23821214  0.59044508  1
  Te  Te101  1  0.06689527  0.25898440  0.94388812  1
  Te  Te102  1  0.07876626  0.56510536  0.26358778  1
  Te  Te103  1  0.07043226  0.57487437  0.57919229  1
  Te  Te104  1  0.08678148  0.53028766  0.93259476  1
  Te  Te105  1  0.08495902  0.93462210  0.25910575  1
  Te  Te106  1  0.07703833  0.92126206  0.58459130  1
  Te  Te107  1  0.09875108  0.96007435  0.94532353  1
  Te  Te108  1  0.40680818  0.25968492  0.23329955  1
  Te  Te109  1  0.41913044  0.26496831  0.57975110  1
  Te  Te110  1  0.39046046  0.25974621  0.95264763  1
  Te  Te111  1  0.39966731  0.57769384  0.21842058  1
  Te  Te112  1  0.40926064  0.59629623  0.56349955  1
  Te  Te113  1  0.43271638  0.58156258  0.93160502  1
  Te  Te114  1  0.40720063  0.90649084  0.23880754  1
  Te  Te115  1  0.41910455  0.92078984  0.58218458  1
  Te  Te116  1  0.35437699  0.95929972  0.91788133  1
  Te  Te117  1  0.74993665  0.24820655  0.22209336  1
  Te  Te118  1  0.73931033  0.23185828  0.56172791  1
  Te  Te119  1  0.75837782  0.25321549  0.90656326  1
  Te  Te120  1  0.76631223  0.58741206  0.24662708  1
  Te  Te121  1  0.77398473  0.56966411  0.60861525  1
  Te  Te122  1  0.75612870  0.55087672  0.93997500  1
  Te  Te123  1  0.76728704  0.93157005  0.21833043  1
  Te  Te124  1  0.74986062  0.90123732  0.59777671  1
  Te  Te125  1  0.75019391  0.93047942  0.92320916  1
  Te  Te126  1  0.22016390  0.25812245  0.07799705  1
  Te  Te127  1  0.22778263  0.28550480  0.39105902  1
  Te  Te128  1  0.24211500  0.23914786  0.75986417  1
  Te  Te129  1  0.22058871  0.55362674  0.07680552  1
  Te  Te130  1  0.25186713  0.56632325  0.38246499  1
  Te  Te131  1  0.24148122  0.59469668  0.74741875  1
  Te  Te132  1  0.25639348  0.90369058  0.12114539  1
  Te  Te133  1  0.24809787  0.91498406  0.42800862  1
  Te  Te134  1  0.24548174  0.94780902  0.79610328  1
  Te  Te135  1  0.57415041  0.24355846  0.10013139  1
  Te  Te136  1  0.58317666  0.23855341  0.40973914  1
  Te  Te137  1  0.58337981  0.24845466  0.74056272  1
  Te  Te138  1  0.58408583  0.56731002  0.09234291  1
  Te  Te139  1  0.56364401  0.56994019  0.41647535  1
  Te  Te140  1  0.59899465  0.58478749  0.76393757  1
  Te  Te141  1  0.58692373  0.91027650  0.07160256  1
  Te  Te142  1  0.56231586  0.94337861  0.40976479  1
  Te  Te143  1  0.57109116  0.93471866  0.76260255  1
  Te  Te144  1  0.90751475  0.19061252  0.07215093  1
  Te  Te145  1  0.90927929  0.26180836  0.40779456  1
  Te  Te146  1  0.93049541  0.23856530  0.76430441  1
  Te  Te147  1  0.91941613  0.57973402  0.10740158  1
  Te  Te148  1  0.92245429  0.59155560  0.41265453  1
  Te  Te149  1  0.92763814  0.56666138  0.77319450  1
  Te  Te150  1  0.92846436  0.94687899  0.05578563  1
  Te  Te151  1  0.92832285  0.95187144  0.39329028  1
  Te  Te152  1  0.91499710  0.91414133  0.77136733  1
  Te  Te153  1  0.24039740  0.09792566  0.26659586  1
  Te  Te154  1  0.25271657  0.09319275  0.58467375  1
  Te  Te155  1  0.22725224  0.06015163  0.94714069  1
  Te  Te156  1  0.28953139  0.38379556  0.19855836  1
  Te  Te157  1  0.24034149  0.39828188  0.57700812  1
  Te  Te158  1  0.26767281  0.40499947  0.93841053  1
  Te  Te159  1  0.27921498  0.73443753  0.25593481  1
  Te  Te160  1  0.24569542  0.75807741  0.58492702  1
  Te  Te161  1  0.25584644  0.74577250  0.91662168  1
  Te  Te162  1  0.59528671  0.09634215  0.23164920  1
  Te  Te163  1  0.59856254  0.07808327  0.56064990  1
  Te  Te164  1  0.57548872  0.06884706  0.91785801  1
  Te  Te165  1  0.56748954  0.39950637  0.22734564  1
  Te  Te166  1  0.59198475  0.43052029  0.59212339  1
  Te  Te167  1  0.55818466  0.40746704  0.94579470  1
  Te  Te168  1  0.55816124  0.77164767  0.28772475  1
  Te  Te169  1  0.57586284  0.73889865  0.55775909  1
  Te  Te170  1  0.56484536  0.75107929  0.91763518  1
  Te  Te171  1  0.94776599  0.09883705  0.20781296  1
  Te  Te172  1  0.92105028  0.08101674  0.57626558  1
  Te  Te173  1  0.89145560  0.08652445  0.96225296  1
  Te  Te174  1  0.91156577  0.38871728  0.21786101  1
  Te  Te175  1  0.90326647  0.40885412  0.57995353  1
  Te  Te176  1  0.94941030  0.45413365  0.94628124  1
  Te  Te177  1  0.90841604  0.76572743  0.22886658  1
  Te  Te178  1  0.91486245  0.76225894  0.59025208  1
  Te  Te179  1  0.92669427  0.74746753  0.91774842  1
