# generated using pymatgen
data_In2Te3
_symmetry_space_group_name_H-M   'P 1'
_cell_length_a   18.97129244
_cell_length_b   18.93776542
_cell_length_c   18.96179758
_cell_angle_alpha   89.79462503
_cell_angle_beta   90.10648265
_cell_angle_gamma   89.96341078
_symmetry_Int_Tables_number   1
_chemical_formula_structural   In2Te3
_chemical_formula_sum   'In72 Te108'
_cell_volume   6812.42175252
_cell_formula_units_Z   36
loop_
 _symmetry_equiv_pos_site_id
 _symmetry_equiv_pos_as_xyz
  1  'x, y, z'
loop_
 _atom_site_type_symbol
 _atom_site_label
 _atom_site_symmetry_multiplicity
 _atom_site_fract_x
 _atom_site_fract_y
 _atom_site_fract_z
 _atom_site_occupancy
  In  In0  1  0.16602539  0.01346708  0.47565516  1
  In  In1  1  0.67031546  0.47905275  0.49063942  1
  In  In2  1  0.32884929  0.01624508  0.65173580  1
  In  In3  1  0.19466489  0.33180627  0.81382207  1
  In  In4  1  0.67750788  0.49123062  0.16927947  1
  In  In5  1  0.50942235  0.83756332  -0.02548587  1
  In  In6  1  0.33568077  0.68142876  -0.00561855  1
  In  In7  1  0.82180526  0.83737110  0.32914272  1
  In  In8  1  0.68370909  0.64016550  0.32755997  1
  In  In9  1  0.00409981  0.66655787  0.65642550  1
  In  In10  1  0.32321491  0.35332586  0.35513592  1
  In  In11  1  0.51174782  0.81092728  0.68195546  1
  In  In12  1  0.83382178  0.16439624  0.67001400  1
  In  In13  1  0.00214673  0.35769114  0.01055558  1
  In  In14  1  0.51989874  0.31010682  0.17499206  1
  In  In15  1  0.48213159  0.62842091  0.53187534  1
  In  In16  1  -0.00973689  -0.01442125  -0.00197436  1
  In  In17  1  0.19388048  0.89762894  -0.01406506  1
  In  In18  1  0.68227513  0.01041673  0.00523452  1
  In  In19  1  0.33602359  0.02027938  0.30602100  1
  In  In20  1  0.00236859  0.03575998  0.66130996  1
  In  In21  1  0.50677269  0.66452805  0.85069030  1
  In  In22  1  0.16061921  0.34145154  0.51852457  1
  In  In23  1  0.49659353  0.66088645  0.17016938  1
  In  In24  1  0.33743818  0.49073944  0.81786377  1
  In  In25  1  0.84838555  0.35898591  0.16093407  1
  In  In26  1  0.83453514  0.80610670  0.00344511  1
  In  In27  1  0.64357786  0.30761608  0.69354263  1
  In  In28  1  0.82454849  0.00448124  0.83180053  1
  In  In29  1  0.49397028  0.18515404  -0.00733160  1
  In  In30  1  0.17957624  0.49923782  0.67584461  1
  In  In31  1  0.16495699  0.83111640  0.30869908  1
  In  In32  1  0.32380090  0.82438541  0.51730149  1
  In  In33  1  -0.01520494  0.83036073  0.50117649  1
  In  In34  1  0.27920206  0.81551394  0.15347075  1
  In  In35  1  0.32843917  0.33004526  -0.02156282  1
  In  In36  1  0.86167973  0.65722086  0.48208682  1
  In  In37  1  0.64581365  0.01462793  0.68967220  1
  In  In38  1  0.17007753  0.65281734  0.49365461  1
  In  In39  1  0.52404496  0.47600970  0.01547259  1
  In  In40  1  0.66998171  0.65478499  0.67342451  1
  In  In41  1  0.00293347  0.16842071  0.82424217  1
  In  In42  1  0.35610558  0.85092596  0.82512589  1
  In  In43  1  0.33506776  0.51101545  0.16240957  1
  In  In44  1  0.33480056  0.19415601  0.53134158  1
  In  In45  1  0.49943827  0.81962020  0.36618087  1
  In  In46  1  0.65262173  0.00823149  0.32396316  1
  In  In47  1  0.17687065  0.15104252  -0.03426490  1
  In  In48  1  0.50309979  0.15037144  0.33406437  1
  In  In49  1  -0.00283263  0.79595661  0.15770700  1
  In  In50  1  0.27858569  0.19181217  0.18398727  1
  In  In51  1  0.68598173  0.10834178  0.53314845  1
  In  In52  1  0.82307635  0.66025123  0.81985823  1
  In  In53  1  0.00107451  0.00086229  0.33656730  1
  In  In54  1  0.66922403  0.33150522  0.33771282  1
  In  In55  1  -0.01759628  0.84870304  0.80861819  1
  In  In56  1  0.48188374  0.02554591  0.15497711  1
  In  In57  1  0.02162944  0.49964452  0.84777162  1
  In  In58  1  0.16180272  0.81870273  0.66405496  1
  In  In59  1  0.51876649  0.01336878  0.50507690  1
  In  In60  1  0.84662235  0.18057242  0.30457328  1
  In  In61  1  0.47853765  0.00992045  0.81991717  1
  In  In62  1  0.16116931  0.50461191  0.32401812  1
  In  In63  1  0.02031931  0.62523424  0.31527833  1
  In  In64  1  0.85027452  0.46197211  0.64446084  1
  In  In65  1  0.80629869  0.31639186  0.86786483  1
  In  In66  1  0.68166470  0.82115145  0.15127889  1
  In  In67  1  0.66806751  0.50897731  0.84280521  1
  In  In68  1  0.12857379  0.66297296  0.15697272  1
  In  In69  1  0.84208599  0.30387691  0.47727336  1
  In  In70  1  0.02040864  0.18092214  0.16728371  1
  In  In71  1  0.48791394  0.32297869  0.52171788  1
  Te  Te72  1  0.08461745  0.08319299  0.06552070  1
  Te  Te73  1  0.05664850  0.10021312  0.43065524  1
  Te  Te74  1  0.10236501  0.08944640  0.75259103  1
  Te  Te75  1  0.08261625  0.45723928  0.08447441  1
  Te  Te76  1  0.08634534  0.40898766  0.40726610  1
  Te  Te77  1  0.07835251  0.40411416  0.74185869  1
  Te  Te78  1  0.11760495  0.78708343  0.06035210  1
  Te  Te79  1  0.08021673  0.75217628  0.41374832  1
  Te  Te80  1  0.08148936  0.73891790  0.76417544  1
  Te  Te81  1  0.39452537  0.13151099  0.09474968  1
  Te  Te82  1  0.40098632  0.08251306  0.43531975  1
  Te  Te83  1  0.36634881  0.10237270  0.77219120  1
  Te  Te84  1  0.41417259  0.39189044  0.09103514  1
  Te  Te85  1  0.43057415  0.42013810  0.42830263  1
  Te  Te86  1  0.41278283  0.42506173  0.71144632  1
  Te  Te87  1  0.41765703  0.76831665  0.09151173  1
  Te  Te88  1  0.40425845  0.72551242  0.43529134  1
  Te  Te89  1  0.40813089  0.72684353  0.75246521  1
  Te  Te90  1  0.77637667  0.11294075  0.04695066  1
  Te  Te91  1  0.74858926  0.10104965  0.39464187  1
  Te  Te92  1  0.73361550  0.10912026  0.77076067  1
  Te  Te93  1  0.75344347  0.41983557  0.06628180  1
  Te  Te94  1  0.77609493  0.41886938  0.40093102  1
  Te  Te95  1  0.75013338  0.41111835  0.74824358  1
  Te  Te96  1  0.77219205  0.71821144  0.10376972  1
  Te  Te97  1  0.74981313  0.74036984  0.42209934  1
  Te  Te98  1  0.74194526  0.75814553  0.74615552  1
  Te  Te99  1  0.13995697  0.23022635  0.24014513  1
  Te  Te100  1  0.06675780  0.28078784  0.61305633  1
  Te  Te101  1  0.08126352  0.26769250  0.90920522  1
  Te  Te102  1  0.00288782  0.51498772  0.20706598  1
  Te  Te103  1  0.07772854  0.56478266  0.57558358  1
  Te  Te104  1  0.05595704  0.57067018  0.97443409  1
  Te  Te105  1  0.07053048  0.91590228  0.23168561  1
  Te  Te106  1  0.08793687  0.91642338  0.57396521  1
  Te  Te107  1  0.07923601  0.93422595  0.88702686  1
  Te  Te108  1  0.40790969  0.24867625  0.26819083  1
  Te  Te109  1  0.40407739  0.27233316  0.64195945  1
  Te  Te110  1  0.42442311  0.26726009  0.88435656  1
  Te  Te111  1  0.42234977  0.57486866  0.26036184  1
  Te  Te112  1  0.39076085  0.53360585  0.60212139  1
  Te  Te113  1  0.42156381  0.56831922  0.93881810  1
  Te  Te114  1  0.44295158  0.92353306  0.26566282  1
  Te  Te115  1  0.42856709  0.90963068  0.59035867  1
  Te  Te116  1  0.40603443  0.94134170  0.93914607  1
  Te  Te117  1  0.74553799  0.26247295  0.22817582  1
  Te  Te118  1  0.73664973  0.25393071  0.57757614  1
  Te  Te119  1  0.72731402  0.22437557  0.95333805  1
  Te  Te120  1  0.77868497  0.56250606  0.24952179  1
  Te  Te121  1  0.76237145  0.57092675  0.57756025  1
  Te  Te122  1  0.76240787  0.58075105  0.92736468  1
  Te  Te123  1  0.74830644  0.93112313  0.23513451  1
  Te  Te124  1  0.73876015  0.97835313  0.58163154  1
  Te  Te125  1  0.75158001  0.90557399  0.92063551  1
  Te  Te126  1  0.22081847  0.26291480  0.05964429  1
  Te  Te127  1  0.24267277  0.24554874  0.42428632  1
  Te  Te128  1  0.27507198  0.24703259  0.72688062  1
  Te  Te129  1  0.24293776  0.59463568  0.07653465  1
  Te  Te130  1  0.25822999  0.57128803  0.41109334  1
  Te  Te131  1  0.23195915  0.58627356  0.78180492  1
  Te  Te132  1  0.26407588  0.95110983  0.10374459  1
  Te  Te133  1  0.25976386  0.90765508  0.40669362  1
  Te  Te134  1  0.25046692  0.91759035  0.73773620  1
  Te  Te135  1  0.60109279  0.26621268  0.05936727  1
  Te  Te136  1  0.58001228  0.24372028  0.42360751  1
  Te  Te137  1  0.56196233  0.26272387  0.80638314  1
  Te  Te138  1  0.59445651  0.59189178  0.08018570  1
  Te  Te139  1  0.58100672  0.57934361  0.42139226  1
  Te  Te140  1  0.56742588  0.57236538  0.74680763  1
  Te  Te141  1  0.58014998  0.92083879  0.08958787  1
  Te  Te142  1  0.60245027  0.91097789  0.43073341  1
  Te  Te143  1  0.58181393  0.90571477  0.77456564  1
  Te  Te144  1  0.92007600  0.24979756  0.07635373  1
  Te  Te145  1  0.94609270  0.26714371  0.37473572  1
  Te  Te146  1  0.90215820  0.26289756  0.76192466  1
  Te  Te147  1  0.98943239  0.65587619  0.08897202  1
  Te  Te148  1  0.94526160  0.55466551  0.42149259  1
  Te  Te149  1  0.92204724  0.56324896  0.73757344  1
  Te  Te150  1  0.90610824  0.90490532  0.09254665  1
  Te  Te151  1  0.89786088  0.92746163  0.42493918  1
  Te  Te152  1  0.89997381  0.93768026  0.71808507  1
  Te  Te153  1  0.21040108  0.08184366  0.26283750  1
  Te  Te154  1  0.22377248  0.10257597  0.58448403  1
  Te  Te155  1  0.28442714  0.07717156  0.90248482  1
  Te  Te156  1  0.24496858  0.41391032  0.23670788  1
  Te  Te157  1  0.26745422  0.43036805  0.57636229  1
  Te  Te158  1  0.23621785  0.43420388  0.91882920  1
  Te  Te159  1  0.24297133  0.71330029  0.25517505  1
  Te  Te160  1  0.25610793  0.71829863  0.60185038  1
  Te  Te161  1  0.25419351  0.77497295  0.90978357  1
  Te  Te162  1  0.59340740  0.10512748  0.22081745  1
  Te  Te163  1  0.55183146  0.10935202  0.61528274  1
  Te  Te164  1  0.57101531  0.07535716  0.92113138  1
  Te  Te165  1  0.57521830  0.42197663  0.25880040  1
  Te  Te166  1  0.58663632  0.41331974  0.59721488  1
  Te  Te167  1  0.57612720  0.40363650  0.89696271  1
  Te  Te168  1  0.58976027  0.75334054  0.26074257  1
  Te  Te169  1  0.58405967  0.73527988  0.57415089  1
  Te  Te170  1  0.60505866  0.73870495  0.92890684  1
  Te  Te171  1  0.92484044  0.07740119  0.22791158  1
  Te  Te172  1  0.92728942  0.11847276  0.56520247  1
  Te  Te173  1  0.91206034  0.09098525  0.91958652  1
  Te  Te174  1  0.96240770  0.37751837  0.25646869  1
  Te  Te175  1  0.94178539  0.36495935  0.57465979  1
  Te  Te176  1  0.90526658  0.42493012  0.91408132  1
  Te  Te177  1  0.91900408  0.73667498  0.27555254  1
  Te  Te178  1  0.89564514  0.75439238  0.59669519  1
  Te  Te179  1  0.92516046  0.74305448  0.90036461  1
