# generated using pymatgen
data_In2Te3
_symmetry_space_group_name_H-M   'P 1'
_cell_length_a   18.94833967
_cell_length_b   18.98949270
_cell_length_c   18.98603340
_cell_angle_alpha   90.22848338
_cell_angle_beta   90.07690481
_cell_angle_gamma   90.12887171
_symmetry_Int_Tables_number   1
_chemical_formula_structural   In2Te3
_chemical_formula_sum   'In72 Te108'
_cell_volume   6831.46450920
_cell_formula_units_Z   36
loop_
 _symmetry_equiv_pos_site_id
 _symmetry_equiv_pos_as_xyz
  1  'x, y, z'
loop_
 _atom_site_type_symbol
 _atom_site_label
 _atom_site_symmetry_multiplicity
 _atom_site_fract_x
 _atom_site_fract_y
 _atom_site_fract_z
 _atom_site_occupancy
  In  In0  1  0.17436613  0.81211553  0.33697342  1
  In  In1  1  0.65907010  0.65368524  0.32753427  1
  In  In2  1  0.84118729  0.76578461  0.04364241  1
  In  In3  1  0.31713959  0.78288812  0.56638835  1
  In  In4  1  0.14445629  -0.01222363  0.50395576  1
  In  In5  1  0.67411012  0.00030477  0.33438004  1
  In  In6  1  0.33768170  0.83548929  0.82285007  1
  In  In7  1  0.83257765  0.34154331  0.79858099  1
  In  In8  1  0.64345192  0.83162547  0.82593519  1
  In  In9  1  0.51503138  -0.00007341  0.51641852  1
  In  In10  1  0.83063209  0.51201926  0.33823875  1
  In  In11  1  -0.02442329  0.15457592  0.82029032  1
  In  In12  1  0.16305436  0.67318638  0.17860242  1
  In  In13  1  0.51013828  0.37751599  0.51559084  1
  In  In14  1  0.68383884  0.82074324  0.50352878  1
  In  In15  1  -0.00684605  0.49026998  0.83937205  1
  In  In16  1  0.15606802  0.52346302  0.00285056  1
  In  In17  1  0.18163673  0.02357971  0.16897686  1
  In  In18  1  0.65885584  0.01427301  -0.01140128  1
  In  In19  1  0.32927892  0.66890614  -0.02024046  1
  In  In20  1  0.17905687  0.15049452  -0.00916894  1
  In  In21  1  0.82043032  0.82508113  0.66820095  1
  In  In22  1  0.49580271  0.02946125  0.16073169  1
  In  In23  1  0.00370998  0.63953731  0.65395619  1
  In  In24  1  0.68755929  0.51670632  0.83336758  1
  In  In25  1  0.84096110  0.15922727  0.34680687  1
  In  In26  1  0.67927178  0.63542338  0.63788781  1
  In  In27  1  0.16529081  0.65095614  0.78835909  1
  In  In28  1  0.04377486  0.37533678  0.60823789  1
  In  In29  1  0.49921579  -0.00127027  0.80728232  1
  In  In30  1  0.00497909  0.33589472  0.00856377  1
  In  In31  1  0.51203778  0.83588079  -0.01229530  1
  In  In32  1  0.38977547  0.43635242  0.21119230  1
  In  In33  1  0.35987877  0.19310460  0.51284932  1
  In  In34  1  -0.03138091  0.83054432  0.52556470  1
  In  In35  1  0.84142054  0.16162941  0.66882696  1
  In  In36  1  0.50595557  0.24678578  0.31615990  1
  In  In37  1  0.19013378  0.18472132  0.36037058  1
  In  In38  1  0.17193084  0.00372576  0.84327831  1
  In  In39  1  0.66250911  0.18293144  0.16617747  1
  In  In40  1  -0.01023494  -0.02897714  0.32925857  1
  In  In41  1  0.65894162  0.16168318  0.52889218  1
  In  In42  1  -0.01966460  0.15942939  0.50527047  1
  In  In43  1  0.53920567  0.31668107  0.79988731  1
  In  In44  1  0.33882781  0.00496120  0.66469761  1
  In  In45  1  0.84662875  0.66730986  0.84793094  1
  In  In46  1  0.49867428  0.62518548  0.50294432  1
  In  In47  1  0.82414348  0.17810579  -0.00931331  1
  In  In48  1  0.33353812  0.61707601  0.36050213  1
  In  In49  1  0.83788347  0.35310116  0.48778581  1
  In  In50  1  0.17063593  0.16676632  0.67424729  1
  In  In51  1  0.82571133  0.33862462  0.18668316  1
  In  In52  1  -0.03186486  0.53949700  0.15768031  1
  In  In53  1  0.50160559  0.78784240  0.33607987  1
  In  In54  1  0.30686089  0.49192722  0.52043401  1
  In  In55  1  0.49824186  0.67098495  0.83094064  1
  In  In56  1  0.19390301  0.35455637  0.18819063  1
  In  In57  1  0.32460101  0.85438680  0.16214751  1
  In  In58  1  0.66480732  0.33367930  -0.01588503  1
  In  In59  1  0.15259186  0.84707180  0.01459059  1
  In  In60  1  0.81519295  0.82631416  0.32538299  1
  In  In61  1  0.34682934  0.46833587  0.80549064  1
  In  In62  1  -0.01077113  0.81713003  0.17448157  1
  In  In63  1  0.33436173  0.01217274  0.33350089  1
  In  In64  1  0.47732473  0.16959031  -0.01922292  1
  In  In65  1  0.16158779  0.32954609  0.81436435  1
  In  In66  1  -0.01107199  0.65481010  0.36005288  1
  In  In67  1  0.03139668  0.17349594  0.18894604  1
  In  In68  1  0.63794770  0.48035653  0.18015262  1
  In  In69  1  0.51650684  0.66088496  0.16405131  1
  In  In70  1  0.34359675  0.35082742  0.00157565  1
  In  In71  1  0.81546087  -0.00415585  0.80990127  1
  Te  Te72  1  0.07492483  0.08031694  0.07664031  1
  Te  Te73  1  0.08246939  0.07477322  0.39514839  1
  Te  Te74  1  0.07450804  0.07267115  0.74114288  1
  Te  Te75  1  0.08174499  0.43037273  0.09786443  1
  Te  Te76  1  0.14449240  0.43407510  0.50601646  1
  Te  Te77  1  0.09515244  0.44081381  0.73799035  1
  Te  Te78  1  0.07184943  0.73463917  0.07648070  1
  Te  Te79  1  0.07063866  0.76105383  0.43098143  1
  Te  Te80  1  0.06138121  0.74535321  0.74089694  1
  Te  Te81  1  0.39675819  0.09622175  0.07863932  1
  Te  Te82  1  0.42919108  0.08712952  0.42623076  1
  Te  Te83  1  0.39693799  0.09760105  0.76381685  1
  Te  Te84  1  0.42999643  0.44914335  0.06820372  1
  Te  Te85  1  0.39433650  0.41223631  0.42788653  1
  Te  Te86  1  0.44919326  0.40455455  0.71770006  1
  Te  Te87  1  0.41637732  0.75687127  0.07927005  1
  Te  Te88  1  0.40206625  0.73750972  0.44008081  1
  Te  Te89  1  0.43229836  0.76278778  0.73874328  1
  Te  Te90  1  0.74979246  0.08816226  0.08719253  1
  Te  Te91  1  0.75151441  0.07855770  0.43870515  1
  Te  Te92  1  0.73164937  0.10211140  0.74924998  1
  Te  Te93  1  0.74453043  0.41300206  0.08569097  1
  Te  Te94  1  0.73487521  0.42063050  0.40459584  1
  Te  Te95  1  0.73171589  0.42173186  0.72528406  1
  Te  Te96  1  0.72085764  0.73765718  0.11889960  1
  Te  Te97  1  0.75955478  0.72021799  0.42041814  1
  Te  Te98  1  0.73237136  0.72968483  0.75320411  1
  Te  Te99  1  0.09871402  0.27540472  0.27778873  1
  Te  Te100  1  0.09677918  0.23661436  0.56120552  1
  Te  Te101  1  0.07370702  0.24207726  0.91060000  1
  Te  Te102  1  0.07956407  0.58110288  0.26181203  1
  Te  Te103  1  0.10796960  0.58318223  0.56225298  1
  Te  Te104  1  0.07407900  0.60019517  0.90533857  1
  Te  Te105  1  0.10580404  0.91023237  0.23719604  1
  Te  Te106  1  0.08007517  0.89641134  0.59616174  1
  Te  Te107  1  0.07476450  0.92733704  0.92165024  1
  Te  Te108  1  0.41114556  0.28681817  0.21240469  1
  Te  Te109  1  0.43613750  0.28153298  0.60509002  1
  Te  Te110  1  0.41947596  0.27765919  0.89366886  1
  Te  Te111  1  0.43988856  0.57641547  0.26446996  1
  Te  Te112  1  0.40331911  0.57351826  0.60234782  1
  Te  Te113  1  0.41201701  0.56996562  0.90419229  1
  Te  Te114  1  0.42636300  0.91671938  0.25617021  1
  Te  Te115  1  0.41112015  0.90671262  0.57500186  1
  Te  Te116  1  0.41774991  0.92734727  0.91477913  1
  Te  Te117  1  0.74226649  0.25110569  0.27661498  1
  Te  Te118  1  0.76490087  0.25740188  0.58031815  1
  Te  Te119  1  0.74534592  0.25073022  0.88617103  1
  Te  Te120  1  0.74577912  0.57755043  0.22896435  1
  Te  Te121  1  0.70347181  0.53465747  0.52855197  1
  Te  Te122  1  0.77421581  0.57568882  0.94297852  1
  Te  Te123  1  0.76409583  0.93435836  0.24085672  1
  Te  Te124  1  0.72268856  0.91960711  0.60616932  1
  Te  Te125  1  0.73849787  0.91122292  0.91320789  1
  Te  Te126  1  0.23747540  0.26723862  0.07122915  1
  Te  Te127  1  0.29241898  0.27984411  0.41231088  1
  Te  Te128  1  0.26382388  0.27429285  0.72169410  1
  Te  Te129  1  0.25881164  0.59238374  0.09062394  1
  Te  Te130  1  0.22006571  0.60835890  0.45549059  1
  Te  Te131  1  0.28626540  0.58242091  0.72932314  1
  Te  Te132  1  0.26022145  0.94558294  0.06279699  1
  Te  Te133  1  0.25107098  0.91645213  0.41640717  1
  Te  Te134  1  0.24095914  0.91707261  0.73944479  1
  Te  Te135  1  0.57075483  0.25320317  0.07058950  1
  Te  Te136  1  0.58512192  0.26290338  0.44328323  1
  Te  Te137  1  0.60799797  0.21517496  0.71582670  1
  Te  Te138  1  0.56958779  0.55848623  0.07424924  1
  Te  Te139  1  0.58344141  0.55178381  0.40521266  1
  Te  Te140  1  0.58275668  0.58104358  0.74185325  1
  Te  Te141  1  0.58190088  0.92879587  0.08688782  1
  Te  Te142  1  0.58407098  0.90280579  0.41157425  1
  Te  Te143  1  0.59260634  0.92165063  0.72092212  1
  Te  Te144  1  0.91977120  0.24571637  0.09816339  1
  Te  Te145  1  0.93271529  0.26419882  0.40737034  1
  Te  Te146  1  0.94367934  0.26857695  0.72639489  1
  Te  Te147  1  0.89381223  0.59045805  0.04442447  1
  Te  Te148  1  0.93190819  0.54680448  0.44360736  1
  Te  Te149  1  0.90210084  0.56853804  0.74780212  1
  Te  Te150  1  0.89914710  0.89527860  0.09186322  1
  Te  Te151  1  0.89098561  0.91613161  0.42739097  1
  Te  Te152  1  0.91186952  0.90387221  0.75089308  1
  Te  Te153  1  0.26978031  0.11847382  0.24748193  1
  Te  Te154  1  0.25251397  0.08640561  0.56476362  1
  Te  Te155  1  0.26765971  0.11132200  0.88038651  1
  Te  Te156  1  0.25447882  0.45933929  0.27041095  1
  Te  Te157  1  0.24592210  0.39107818  0.61132861  1
  Te  Te158  1  0.23453767  0.42923320  0.91252170  1
  Te  Te159  1  0.28068921  0.73839198  0.25719895  1
  Te  Te160  1  0.21931145  0.72072759  0.65932800  1
  Te  Te161  1  0.23478066  0.76089623  0.90939139  1
  Te  Te162  1  0.57431785  0.10390287  0.26909246  1
  Te  Te163  1  0.55244087  0.10453065  0.61840706  1
  Te  Te164  1  0.57936867  0.09834385  0.89522149  1
  Te  Te165  1  0.55513543  0.37696766  0.24903124  1
  Te  Te166  1  0.62342191  0.42968127  0.60118537  1
  Te  Te167  1  0.58409333  0.42687782  0.89932802  1
  Te  Te168  1  0.61292671  0.76850983  0.22746825  1
  Te  Te169  1  0.58290836  0.73395178  0.57458756  1
  Te  Te170  1  0.59855017  0.72749362  0.93122987  1
  Te  Te171  1  0.92420857  0.08098334  0.24654696  1
  Te  Te172  1  0.91671586  0.06267934  0.59110832  1
  Te  Te173  1  0.90299643  0.07051164  0.92033702  1
  Te  Te174  1  0.92822444  0.42682979  0.25167499  1
  Te  Te175  1  0.91470415  0.44447497  0.57752495  1
  Te  Te176  1  0.90156641  0.40321625  0.92365785  1
  Te  Te177  1  0.90357219  0.72413120  0.25580923  1
  Te  Te178  1  0.88959227  0.71712085  0.58496740  1
  Te  Te179  1  0.91210856  0.77867577  0.91565061  1
