# generated using pymatgen
data_In2Te3
_symmetry_space_group_name_H-M   'P 1'
_cell_length_a   19.01782107
_cell_length_b   18.98552438
_cell_length_c   19.03384904
_cell_angle_alpha   89.81699704
_cell_angle_beta   89.82928652
_cell_angle_gamma   90.06041541
_symmetry_Int_Tables_number   1
_chemical_formula_structural   In2Te3
_chemical_formula_sum   'In72 Te108'
_cell_volume   6872.35500550
_cell_formula_units_Z   36
loop_
 _symmetry_equiv_pos_site_id
 _symmetry_equiv_pos_as_xyz
  1  'x, y, z'
loop_
 _atom_site_type_symbol
 _atom_site_label
 _atom_site_symmetry_multiplicity
 _atom_site_fract_x
 _atom_site_fract_y
 _atom_site_fract_z
 _atom_site_occupancy
  In  In0  1  -0.01860487  0.82994945  0.15758587  1
  In  In1  1  0.51318946  -0.01436953  0.13966061  1
  In  In2  1  0.85752759  0.83874150  0.35234215  1
  In  In3  1  0.83923751  0.81850415  -0.01031061  1
  In  In4  1  -0.02516162  0.70535280  0.66124808  1
  In  In5  1  0.68583883  0.15874384  0.49844670  1
  In  In6  1  0.33152273  0.81978285  0.50940672  1
  In  In7  1  0.51132723  0.00416825  0.49641351  1
  In  In8  1  0.63235355  0.51186109  0.51387192  1
  In  In9  1  0.51379878  0.83561815  -0.01181390  1
  In  In10  1  0.80107435  0.34018166  0.83549184  1
  In  In11  1  0.64654605  0.31638137  0.68709771  1
  In  In12  1  0.84905472  0.50742415  0.01667340  1
  In  In13  1  0.51043962  0.15411619  0.35551592  1
  In  In14  1  0.50875735  0.34245966  0.14647604  1
  In  In15  1  0.16212921  0.16259943  0.36574470  1
  In  In16  1  0.30226681  0.15247469  0.79669081  1
  In  In17  1  0.53333309  0.82799420  0.36078428  1
  In  In18  1  0.02392867  -0.00944985  -0.00172187  1
  In  In19  1  0.47358231  0.17283189  -0.01016086  1
  In  In20  1  0.17621433  0.67953493  0.50320529  1
  In  In21  1  0.17493796  0.35335314  0.16165519  1
  In  In22  1  0.68981064  0.49162853  0.15830944  1
  In  In23  1  -0.02240272  0.51949232  0.80456482  1
  In  In24  1  0.31751944  0.19591811  0.18896774  1
  In  In25  1  0.32453779  0.81930020  0.17142506  1
  In  In26  1  0.02751011  0.64056861  0.32744506  1
  In  In27  1  0.17721881  0.67126892  0.82244379  1
  In  In28  1  0.70488523  0.66612714  0.36689831  1
  In  In29  1  0.47998752  0.51256681  -0.02720189  1
  In  In30  1  0.45404124  0.67695928  0.80444464  1
  In  In31  1  0.34114477  0.35426437  0.67529202  1
  In  In32  1  0.84942810  0.49125496  0.34005260  1
  In  In33  1  0.02059806  0.66227043  -0.00089015  1
  In  In34  1  0.85128461  0.17644677  0.02205648  1
  In  In35  1  0.15429492  -0.01925692  0.50480596  1
  In  In36  1  0.82063248  -0.00767994  0.82286940  1
  In  In37  1  0.62319527  0.50999639  0.81346658  1
  In  In38  1  0.00721405  0.15691827  0.82759787  1
  In  In39  1  0.17621132  0.34099569  0.83539564  1
  In  In40  1  0.68314789  0.00495005  -0.00411789  1
  In  In41  1  0.16184899  0.50009792  0.67316971  1
  In  In42  1  0.33764691  0.36662988  0.32885523  1
  In  In43  1  0.33546897  0.00767427  -0.00725233  1
  In  In44  1  0.36879048  -0.00693072  0.34353937  1
  In  In45  1  0.16975839  0.33819756  0.50449231  1
  In  In46  1  0.16539116  -0.01993885  0.82905620  1
  In  In47  1  0.83752016  -0.01208869  0.50467493  1
  In  In48  1  0.66212485  -0.02075397  0.66176051  1
  In  In49  1  -0.01178577  0.30642506  0.64448035  1
  In  In50  1  0.84494682  0.33473462  0.46845494  1
  In  In51  1  0.31456215  0.66735194  0.34066322  1
  In  In52  1  0.17514644  0.00795377  0.15462948  1
  In  In53  1  0.30046878  0.55870928  0.13454433  1
  In  In54  1  0.64803425  0.67610587  0.64981294  1
  In  In55  1  0.31648724  -0.01461498  0.65907049  1
  In  In56  1  0.53291585  0.67713328  0.17712091  1
  In  In57  1  0.67713757  -0.01913560  0.31976921  1
  In  In58  1  0.73537915  0.17884526  0.21883470  1
  In  In59  1  0.34719115  0.35070188  -0.02214865  1
  In  In60  1  0.81549703  0.13734741  0.67191660  1
  In  In61  1  0.13856744  0.84415605  0.31977220  1
  In  In62  1  -0.00432675  0.31176012  0.32649357  1
  In  In63  1  0.50881867  0.49486871  0.31044270  1
  In  In64  1  0.01720392  0.35203520  0.01133631  1
  In  In65  1  0.67183743  0.67406668  -0.00435440  1
  In  In66  1  0.01770756  0.48274167  0.50229617  1
  In  In67  1  0.50145745  -0.01749454  0.81710363  1
  In  In68  1  0.00008159  -0.03905092  0.66056220  1
  In  In69  1  0.49094939  0.32364776  0.50462975  1
  In  In70  1  0.67418838  0.33673862  0.00312640  1
  In  In71  1  0.79757218  0.65867985  0.82793066  1
  Te  Te72  1  0.08851322  0.09503405  0.07689264  1
  Te  Te73  1  0.06938123  0.05571577  0.40820861  1
  Te  Te74  1  0.08506941  0.06917104  0.73648496  1
  Te  Te75  1  0.09486177  0.45382969  0.08584353  1
  Te  Te76  1  0.09286068  0.41009600  0.39658751  1
  Te  Te77  1  0.06110287  0.40215043  0.74160960  1
  Te  Te78  1  0.09104082  0.76258131  0.08346608  1
  Te  Te79  1  0.07288908  0.75408779  0.42162476  1
  Te  Te80  1  0.08459755  0.75543019  0.74377269  1
  Te  Te81  1  0.40302993  0.08832724  0.10732014  1
  Te  Te82  1  0.40226574  0.09943777  0.44552683  1
  Te  Te83  1  0.41626838  0.07598105  0.73445216  1
  Te  Te84  1  0.40470475  0.43617983  0.09208375  1
  Te  Te85  1  0.42653220  0.43970563  0.42571301  1
  Te  Te86  1  0.36795472  0.44475506  0.79034387  1
  Te  Te87  1  0.43461553  0.75354314  0.08990540  1
  Te  Te88  1  0.42296903  0.73968514  0.41692647  1
  Te  Te89  1  0.36267044  0.77236878  0.73806091  1
  Te  Te90  1  0.75707142  0.08507284  0.09964662  1
  Te  Te91  1  0.76434669  0.07554772  0.40306051  1
  Te  Te92  1  0.71223794  0.08269910  0.76559451  1
  Te  Te93  1  0.78250579  0.39157262  0.09264198  1
  Te  Te94  1  0.73973299  0.43519220  0.43194615  1
  Te  Te95  1  0.73349264  0.43452849  0.74027328  1
  Te  Te96  1  0.76909365  0.73055022  0.08522686  1
  Te  Te97  1  0.78355436  0.75562664  0.45456185  1
  Te  Te98  1  0.71388147  0.75441197  0.75718524  1
  Te  Te99  1  0.11058510  0.24493718  0.25043086  1
  Te  Te100  1  0.08257810  0.23464546  0.56143899  1
  Te  Te101  1  0.08471936  0.25053441  0.91657446  1
  Te  Te102  1  0.04906653  0.55724415  0.20785152  1
  Te  Te103  1  0.07327107  0.59465688  0.59319971  1
  Te  Te104  1  0.08240718  0.56886195  0.89614304  1
  Te  Te105  1  0.06296624  0.93806609  0.23040523  1
  Te  Te106  1  0.10065264  0.87676817  0.59346773  1
  Te  Te107  1  0.08460551  0.89141025  0.91242975  1
  Te  Te108  1  0.43448224  0.25932220  0.26158282  1
  Te  Te109  1  0.41861357  0.24984468  0.60759199  1
  Te  Te110  1  0.39345882  0.24211056  0.88352864  1
  Te  Te111  1  0.41825136  0.59805670  0.24236116  1
  Te  Te112  1  0.49705969  0.65307483  0.62777961  1
  Te  Te113  1  0.38824782  0.62184554  0.93019413  1
  Te  Te114  1  0.44158745  0.89699094  0.24900279  1
  Te  Te115  1  0.42666328  0.91185857  0.58122932  1
  Te  Te116  1  0.40630639  0.90527850  0.90822429  1
  Te  Te117  1  0.79055575  0.28623732  0.30517944  1
  Te  Te118  1  0.75741291  0.25476325  0.59220138  1
  Te  Te119  1  0.74623193  0.22980749  0.92382363  1
  Te  Te120  1  0.76325391  0.58168250  0.25169015  1
  Te  Te121  1  0.73951416  0.59235704  0.57103696  1
  Te  Te122  1  0.73209183  0.54822743  0.92111454  1
  Te  Te123  1  0.78091547  0.90929584  0.24851512  1
  Te  Te124  1  0.78221290  0.90072275  0.61456456  1
  Te  Te125  1  0.73708399  0.89586059  0.90733347  1
  Te  Te126  1  0.25778541  0.26349515  0.07001270  1
  Te  Te127  1  0.26745617  0.26364622  0.41384017  1
  Te  Te128  1  0.22636446  0.25801508  0.72079828  1
  Te  Te129  1  0.21455099  0.65303476  0.05605296  1
  Te  Te130  1  0.22775206  0.57579584  0.41412842  1
  Te  Te131  1  0.26492572  0.57317213  0.74913223  1
  Te  Te132  1  0.25138475  0.90706962  0.07187247  1
  Te  Te133  1  0.26113838  0.90048765  0.39833575  1
  Te  Te134  1  0.25824917  0.88672450  0.75604974  1
  Te  Te135  1  0.58306774  0.23344709  0.07519833  1
  Te  Te136  1  0.59939008  0.25635541  0.42059002  1
  Te  Te137  1  0.57004251  0.28310909  0.80435486  1
  Te  Te138  1  0.58130794  0.56618396  0.08081580  1
  Te  Te139  1  0.57426207  0.59666910  0.40262104  1
  Te  Te140  1  0.48813899  0.53264106  0.74991214  1
  Te  Te141  1  0.61680239  0.89421605  0.08295786  1
  Te  Te142  1  0.62245992  0.91466324  0.44539535  1
  Te  Te143  1  0.57767010  0.88574843  0.73754299  1
  Te  Te144  1  0.95035305  0.25308201  0.10006793  1
  Te  Te145  1  0.92857280  0.22346526  0.42579576  1
  Te  Te146  1  0.89835818  0.24203441  0.75977266  1
  Te  Te147  1  0.93381670  0.59322193  0.10246581  1
  Te  Te148  1  0.93026000  0.58251740  0.42908505  1
  Te  Te149  1  0.88311517  0.59585669  0.71871025  1
  Te  Te150  1  0.90500941  0.92751165  0.07054587  1
  Te  Te151  1  0.94651887  0.93780560  0.41772726  1
  Te  Te152  1  0.91126758  0.89689048  0.75913806  1
  Te  Te153  1  0.26027643  0.07743091  0.26880931  1
  Te  Te154  1  0.24026706  0.07555913  0.57388201  1
  Te  Te155  1  0.23459624  0.08695266  0.91527090  1
  Te  Te156  1  0.25442541  0.45482945  0.24179968  1
  Te  Te157  1  0.25944283  0.43630986  0.57604234  1
  Te  Te158  1  0.24726156  0.44052376  0.91731677  1
  Te  Te159  1  0.22024097  0.73888975  0.24638733  1
  Te  Te160  1  0.28115826  0.71535789  0.60268555  1
  Te  Te161  1  0.26328317  0.72657085  0.93173770  1
  Te  Te162  1  0.57932691  0.07454676  0.24769264  1
  Te  Te163  1  0.58650255  0.09395895  0.59174714  1
  Te  Te164  1  0.56503186  0.07005051  0.92511910  1
  Te  Te165  1  0.60711200  0.39890157  0.24638436  1
  Te  Te166  1  0.56204170  0.41318387  0.60452149  1
  Te  Te167  1  0.56482787  0.39518268  0.91139562  1
  Te  Te168  1  0.62562746  0.75493143  0.26587435  1
  Te  Te169  1  0.56606833  0.76728410  0.56438373  1
  Te  Te170  1  0.56714464  0.72413116  0.90132882  1
  Te  Te171  1  0.88435732  0.18417491  0.24812460  1
  Te  Te172  1  0.92464209  0.07824627  0.59114074  1
  Te  Te173  1  0.90874145  0.07810459  0.91395973  1
  Te  Te174  1  0.93294418  0.41813707  0.24436417  1
  Te  Te175  1  0.90824424  0.41795036  0.58396935  1
  Te  Te176  1  0.91466644  0.41451833  0.90824219  1
  Te  Te177  1  0.92672566  0.73681401  0.26225758  1
  Te  Te178  1  0.88475360  0.78819988  0.57875748  1
  Te  Te179  1  0.91275524  0.71915148  0.90378442  1
