# generated using pymatgen
data_In2Te3
_symmetry_space_group_name_H-M   'P 1'
_cell_length_a   18.95145384
_cell_length_b   18.97845308
_cell_length_c   18.96970998
_cell_angle_alpha   89.99969641
_cell_angle_beta   90.12973098
_cell_angle_gamma   89.87960459
_symmetry_Int_Tables_number   1
_chemical_formula_structural   In2Te3
_chemical_formula_sum   'In72 Te108'
_cell_volume   6822.78932854
_cell_formula_units_Z   36
loop_
 _symmetry_equiv_pos_site_id
 _symmetry_equiv_pos_as_xyz
  1  'x, y, z'
loop_
 _atom_site_type_symbol
 _atom_site_label
 _atom_site_symmetry_multiplicity
 _atom_site_fract_x
 _atom_site_fract_y
 _atom_site_fract_z
 _atom_site_occupancy
  In  In0  1  0.49362971  0.64789445  0.16705584  1
  In  In1  1  0.83620073  0.31257509  0.51927269  1
  In  In2  1  0.15958389  0.67291725  0.17594572  1
  In  In3  1  0.16789975  0.46314900  0.31668439  1
  In  In4  1  0.36449721  0.66687964  0.66897871  1
  In  In5  1  0.49809216  0.17626310  0.31141316  1
  In  In6  1  0.52221628  -0.01707356  0.18435092  1
  In  In7  1  0.66359707  0.51103697  0.19338947  1
  In  In8  1  0.15870896  0.81521032  0.66309026  1
  In  In9  1  0.83035336  0.51715469  0.01627184  1
  In  In10  1  0.32848626  0.32973773  0.64867054  1
  In  In11  1  0.31828465  0.82726435  0.82692419  1
  In  In12  1  0.32900148  0.17593435  0.14421028  1
  In  In13  1  0.16230791  0.83206726  0.31642015  1
  In  In14  1  0.67605746  0.66061192  0.69138179  1
  In  In15  1  0.49398316  0.82064110  0.01266727  1
  In  In16  1  0.33565965  0.50449412  0.83217959  1
  In  In17  1  0.50026142  0.64742612  0.49656074  1
  In  In18  1  0.16757104  0.49254549  0.69852259  1
  In  In19  1  0.84136080  0.32172730  0.16080039  1
  In  In20  1  0.14445387  0.01132896  0.86191004  1
  In  In21  1  0.13862430  0.32363597  0.86400676  1
  In  In22  1  0.15488099  0.83097181  -0.00819789  1
  In  In23  1  0.48424778  0.18029685  0.68845114  1
  In  In24  1  0.02337578  0.32633549  0.66718996  1
  In  In25  1  0.49005285  0.46987968  0.35161020  1
  In  In26  1  0.15029773  0.00069896  0.16167879  1
  In  In27  1  0.69707164  0.83873673  0.15786393  1
  In  In28  1  0.00585893  0.65526127  -0.02397424  1
  In  In29  1  0.83241620  0.08280842  0.86648054  1
  In  In30  1  0.54300818  0.45797218  0.68561551  1
  In  In31  1  0.49396447  0.16189096  -0.01210775  1
  In  In32  1  0.68688059  0.68745879  0.34967755  1
  In  In33  1  0.32858171  0.48889741  0.48975832  1
  In  In34  1  -0.03602750  0.64745975  0.72206946  1
  In  In35  1  0.66826573  0.87063103  0.84896352  1
  In  In36  1  0.81638924  0.01058398  0.48338968  1
  In  In37  1  0.49316570  0.47723503  -0.03469740  1
  In  In38  1  0.31098878  0.49381798  0.16020384  1
  In  In39  1  0.67345609  0.02452487  0.32677023  1
  In  In40  1  0.01180775  -0.00382733  0.65986309  1
  In  In41  1  0.15962739  0.65834918  0.50544041  1
  In  In42  1  0.50653188  0.02768025  0.52425913  1
  In  In43  1  0.30707874  0.01031251  -0.00135740  1
  In  In44  1  0.81393057  0.68422796  0.48707229  1
  In  In45  1  0.33802372  0.32618608  -0.01058338  1
  In  In46  1  0.65763357  0.82666197  0.48646227  1
  In  In47  1  -0.01404134  0.32103944  0.32251239  1
  In  In48  1  0.00154089  0.18277803  0.14769161  1
  In  In49  1  0.17950385  0.01739775  0.46513002  1
  In  In50  1  0.07141425  0.51106229  0.11951699  1
  In  In51  1  0.19988730  0.20613395  0.34464885  1
  In  In52  1  0.84359751  0.34818164  0.83907442  1
  In  In53  1  0.69334131  0.28984294  0.00432172  1
  In  In54  1  0.66370135  0.48529638  0.52214433  1
  In  In55  1  0.49828561  0.00366539  0.82632520  1
  In  In56  1  0.67475477  0.49209278  0.85141770  1
  In  In57  1  0.83386781  0.52518863  0.32790587  1
  In  In58  1  0.17805361  0.15895565  0.67372137  1
  In  In59  1  0.00343890  0.16237087  0.48585995  1
  In  In60  1  0.67515687  0.67860919  0.01094466  1
  In  In61  1  0.67534614  0.32901108  0.34331824  1
  In  In62  1  0.70408252  0.03859715  0.01518496  1
  In  In63  1  0.80651353  0.17552532  0.67181169  1
  In  In64  1  0.82041209  0.82560928  0.64371421  1
  In  In65  1  0.34315620  -0.02074589  0.31254487  1
  In  In66  1  0.49141897  0.80634540  0.33872011  1
  In  In67  1  -0.02134800  0.84130600  0.48424348  1
  In  In68  1  -0.01330661  0.83236022  0.83977189  1
  In  In69  1  0.00920043  0.50046870  0.50051623  1
  In  In70  1  0.35202318  -0.02912972  0.66140303  1
  In  In71  1  -0.05011110  0.84124954  0.16686565  1
  Te  Te72  1  0.08039634  0.08724809  0.06393400  1
  Te  Te73  1  0.08959421  0.10015484  0.37831351  1
  Te  Te74  1  0.06913206  0.09551882  0.75775683  1
  Te  Te75  1  0.15113623  0.39341090  0.08683261  1
  Te  Te76  1  0.07918478  0.39360819  0.41940902  1
  Te  Te77  1  0.05445788  0.43309592  0.78137990  1
  Te  Te78  1  0.06471646  0.76030559  0.09373052  1
  Te  Te79  1  0.07831221  0.74920046  0.41460082  1
  Te  Te80  1  0.07944853  0.73802517  0.76694385  1
  Te  Te81  1  0.42236423  0.06411616  0.09337538  1
  Te  Te82  1  0.42986852  0.06960854  0.39687500  1
  Te  Te83  1  0.38611080  0.07908610  0.75911238  1
  Te  Te84  1  0.41902083  0.41556810  0.08059237  1
  Te  Te85  1  0.40090493  0.37579214  0.42476500  1
  Te  Te86  1  0.41507009  0.40754528  0.74738351  1
  Te  Te87  1  0.40788057  0.71905888  0.07217572  1
  Te  Te88  1  0.40327957  0.71858058  0.41401990  1
  Te  Te89  1  0.42953608  0.77311165  0.74633938  1
  Te  Te90  1  0.82170399  0.11019541  0.08102314  1
  Te  Te91  1  0.71754227  0.11153053  0.43790830  1
  Te  Te92  1  0.74290849  0.07008388  0.75039470  1
  Te  Te93  1  0.73668853  0.41974006  0.08960113  1
  Te  Te94  1  0.77308408  0.42655147  0.42467800  1
  Te  Te95  1  0.75883802  0.42962689  0.74541769  1
  Te  Te96  1  0.78219567  0.76861376  0.05860998  1
  Te  Te97  1  0.78530988  0.80052883  0.38892520  1
  Te  Te98  1  0.75162668  0.76821472  0.76432216  1
  Te  Te99  1  0.09685766  0.25644673  0.24351375  1
  Te  Te100  1  0.10206613  0.24070592  0.56912831  1
  Te  Te101  1  0.03269068  0.24056445  0.92500485  1
  Te  Te102  1  0.07960451  0.57280787  0.25909349  1
  Te  Te103  1  0.07526056  0.58429860  0.61088622  1
  Te  Te104  1  0.04766223  0.54227093  0.89330308  1
  Te  Te105  1  0.05893516  0.91892420  0.24830051  1
  Te  Te106  1  0.09662614  0.91878397  0.56094102  1
  Te  Te107  1  0.04735171  0.92608310  0.94193623  1
  Te  Te108  1  0.40080576  0.26368481  0.23891219  1
  Te  Te109  1  0.39785934  0.22314333  0.57145863  1
  Te  Te110  1  0.42702931  0.25480173  0.89009660  1
  Te  Te111  1  0.41089277  0.56226754  0.25981792  1
  Te  Te112  1  0.42877287  0.55101677  0.58907640  1
  Te  Te113  1  0.41854327  0.59211449  0.91608062  1
  Te  Te114  1  0.41851343  0.88042156  0.22585548  1
  Te  Te115  1  0.43460426  0.90599691  0.56082763  1
  Te  Te116  1  0.40558134  0.91856981  0.92469317  1
  Te  Te117  1  0.75488673  0.24630398  0.25074299  1
  Te  Te118  1  0.72205729  0.27541376  0.60414232  1
  Te  Te119  1  0.77446107  0.22558821  0.89682703  1
  Te  Te120  1  0.76255093  0.61862587  0.23248981  1
  Te  Te121  1  0.75822757  0.58620255  0.58754922  1
  Te  Te122  1  0.76861161  0.59954590  0.90301904  1
  Te  Te123  1  0.76381014  0.94540438  0.23733781  1
  Te  Te124  1  0.72951732  0.92554655  0.57594041  1
  Te  Te125  1  0.77916847  0.94502201  0.92203514  1
  Te  Te126  1  0.22815936  0.25840294  0.06869953  1
  Te  Te127  1  0.29590554  0.24781782  0.44560275  1
  Te  Te128  1  0.23547766  0.27204014  0.75609565  1
  Te  Te129  1  0.21489864  0.57416602  0.07624968  1
  Te  Te130  1  0.23385368  0.57188245  0.40573859  1
  Te  Te131  1  0.25297140  0.60423467  0.75271536  1
  Te  Te132  1  0.24454810  0.90625715  0.08888429  1
  Te  Te133  1  0.26071630  0.90146722  0.41247787  1
  Te  Te134  1  0.21675453  0.92151546  0.75594353  1
  Te  Te135  1  0.57567015  0.24415853  0.07854126  1
  Te  Te136  1  0.59116719  0.23010473  0.41472348  1
  Te  Te137  1  0.55127057  0.25565201  0.79570474  1
  Te  Te138  1  0.58829457  0.56790549  0.06936638  1
  Te  Te139  1  0.60210465  0.57111131  0.40284341  1
  Te  Te140  1  0.57568594  0.57883392  0.76947857  1
  Te  Te141  1  0.60051590  0.92599496  0.06533408  1
  Te  Te142  1  0.58289327  0.91621298  0.39021506  1
  Te  Te143  1  0.56794755  0.90207855  0.74574832  1
  Te  Te144  1  0.95516681  0.30042916  0.06327398  1
  Te  Te145  1  0.89553889  0.23165499  0.40474360  1
  Te  Te146  1  0.91887134  0.25142948  0.74382022  1
  Te  Te147  1  0.93784377  0.58819575  0.09532116  1
  Te  Te148  1  0.92548034  0.60033402  0.42201872  1
  Te  Te149  1  0.86207645  0.55835422  0.77582184  1
  Te  Te150  1  0.88694223  0.97216565  0.12376204  1
  Te  Te151  1  0.93042965  0.95728216  0.40892553  1
  Te  Te152  1  0.91182980  0.91231973  0.73484989  1
  Te  Te153  1  0.25385305  0.08267901  0.24493586  1
  Te  Te154  1  0.25856127  0.06747475  0.58312842  1
  Te  Te155  1  0.23815165  0.10953030  0.91712131  1
  Te  Te156  1  0.27849854  0.38509632  0.25619191  1
  Te  Te157  1  0.22620755  0.41982643  0.58012858  1
  Te  Te158  1  0.24295825  0.42321218  0.91869505  1
  Te  Te159  1  0.26035279  0.74276130  0.25474976  1
  Te  Te160  1  0.26175657  0.74246176  0.57968655  1
  Te  Te161  1  0.23435749  0.74072242  0.90948981  1
  Te  Te162  1  0.60167133  0.10548548  0.21939135  1
  Te  Te163  1  0.58646287  0.09359099  0.62627482  1
  Te  Te164  1  0.59651571  0.08112323  0.91212866  1
  Te  Te165  1  0.57760298  0.40057066  0.24851177  1
  Te  Te166  1  0.57206062  0.37938782  0.56528382  1
  Te  Te167  1  0.59724636  0.37831765  0.91311023  1
  Te  Te168  1  0.59477585  0.74641244  0.23450600  1
  Te  Te169  1  0.59103087  0.73202842  0.58247643  1
  Te  Te170  1  0.58765376  0.75422661  0.91419803  1
  Te  Te171  1  0.89726815  0.10341143  0.21788894  1
  Te  Te172  1  0.91525896  0.08829973  0.58488608  1
  Te  Te173  1  0.94957710  0.11269778  0.95399933  1
  Te  Te174  1  0.91455600  0.42880640  0.24318256  1
  Te  Te175  1  0.92410700  0.41452851  0.59168969  1
  Te  Te176  1  0.91914607  0.41649007  0.94976586  1
  Te  Te177  1  0.88638883  0.76634921  0.27373208  1
  Te  Te178  1  0.93578535  0.74122457  0.59496965  1
  Te  Te179  1  0.90302413  0.75092062  0.93029612  1
