# generated using pymatgen
data_In2Te3
_symmetry_space_group_name_H-M   'P 1'
_cell_length_a   19.03264093
_cell_length_b   19.01740269
_cell_length_c   18.99646542
_cell_angle_alpha   89.86859984
_cell_angle_beta   89.96384236
_cell_angle_gamma   89.87219987
_symmetry_Int_Tables_number   1
_chemical_formula_structural   In2Te3
_chemical_formula_sum   'In72 Te108'
_cell_volume   6875.76066185
_cell_formula_units_Z   36
loop_
 _symmetry_equiv_pos_site_id
 _symmetry_equiv_pos_as_xyz
  1  'x, y, z'
loop_
 _atom_site_type_symbol
 _atom_site_label
 _atom_site_symmetry_multiplicity
 _atom_site_fract_x
 _atom_site_fract_y
 _atom_site_fract_z
 _atom_site_occupancy
  In  In0  1  0.33246107  0.16916712  0.15864740  1
  In  In1  1  0.66611724  0.15706779  0.85007104  1
  In  In2  1  0.32207110  0.68407037  0.31969281  1
  In  In3  1  0.69111175  0.66313468  0.00614447  1
  In  In4  1  0.32172508  0.01305716  0.66280136  1
  In  In5  1  0.52247332  0.69786428  0.81783940  1
  In  In6  1  0.84275517  0.46272510  0.00834030  1
  In  In7  1  0.66781209  0.30717540  0.01773051  1
  In  In8  1  0.16981580  -0.00085163  0.45150140  1
  In  In9  1  0.35181330  0.00658421  0.36159861  1
  In  In10  1  0.18165747  0.67995323  0.47717420  1
  In  In11  1  0.84282370  0.69006833  0.16388717  1
  In  In12  1  0.33775797  0.68326060  0.01766661  1
  In  In13  1  0.49825710  0.33852208  0.16157808  1
  In  In14  1  0.50252453  0.01371844  0.83149578  1
  In  In15  1  0.27915309  0.02999414  -0.00864929  1
  In  In16  1  0.15481602  0.48552244  0.66564915  1
  In  In17  1  0.84113899  0.31841024  0.17351350  1
  In  In18  1  0.32561839  0.50635570  0.84335553  1
  In  In19  1  0.84155614  0.14446725  0.30270467  1
  In  In20  1  0.51625183  0.69408057  0.16252753  1
  In  In21  1  0.18335362  0.17754170  0.66983377  1
  In  In22  1  0.82062347  0.84816050  0.72467186  1
  In  In23  1  0.00747825  0.30404307  0.70720867  1
  In  In24  1  0.84830975  0.83393100  0.32663830  1
  In  In25  1  0.48916065  0.49539078  0.65804914  1
  In  In26  1  0.65957109  -0.00384288  0.32566192  1
  In  In27  1  0.01539724  0.16457078  0.51108148  1
  In  In28  1  0.50221145  0.85416925  0.66915353  1
  In  In29  1  0.48943829  0.50408547  0.32349592  1
  In  In30  1  0.84653554  0.68196276  0.49744726  1
  In  In31  1  -0.02736936  0.49199931  0.49174743  1
  In  In32  1  0.03598425  0.83849816  0.44823950  1
  In  In33  1  0.50976583  0.87152096  0.00104781  1
  In  In34  1  0.01593833  -0.00713272  0.00938335  1
  In  In35  1  0.16174871  0.83517042  0.65313645  1
  In  In36  1  0.48256879  0.30765859  0.54958812  1
  In  In37  1  0.01331284  0.50332472  0.14798581  1
  In  In38  1  0.17934576  0.19456548  0.31297064  1
  In  In39  1  0.82272775  0.01134865  0.12787931  1
  In  In40  1  0.80845856  -0.01270404  0.50910333  1
  In  In41  1  0.79775384  0.14039604  0.68624636  1
  In  In42  1  0.63832365  0.47641520  0.47532806  1
  In  In43  1  0.34135924  0.34697504  0.32765833  1
  In  In44  1  0.51070635  0.30554159  0.82663040  1
  In  In45  1  0.47781232  0.51146377  0.01673236  1
  In  In46  1  0.00257827  0.32529482  0.32579990  1
  In  In47  1  0.00427099  0.14573901  0.12998482  1
  In  In48  1  0.84307110  0.71426471  0.87934538  1
  In  In49  1  0.00493066  0.69115025  0.63871701  1
  In  In50  1  0.67141613  0.84724049  0.50511487  1
  In  In51  1  -0.00123472  0.13248009  0.85128468  1
  In  In52  1  0.15323200  0.83960747  -0.01112479  1
  In  In53  1  0.49012883  0.03043000  0.53875958  1
  In  In54  1  -0.00357343  0.31013716  -0.01530081  1
  In  In55  1  0.33146639  0.50831933  0.51205432  1
  In  In56  1  0.16325443  0.67599976  0.15281074  1
  In  In57  1  0.50072266  0.82831974  0.32902542  1
  In  In58  1  0.67504005  0.65827688  0.64554426  1
  In  In59  1  0.34078844  0.84015931  0.81189179  1
  In  In60  1  0.51180546  0.02673216  0.17060044  1
  In  In61  1  0.64831318  0.16791027  0.52023414  1
  In  In62  1  0.29380350  0.50612809  0.17770262  1
  In  In63  1  0.80742924  0.52109444  0.32745884  1
  In  In64  1  0.31019098  0.26792983  -0.05006144  1
  In  In65  1  0.00553488  0.50148999  0.81797086  1
  In  In66  1  0.66356342  0.48085568  0.85205274  1
  In  In67  1  0.81626747  0.49985459  0.68736621  1
  In  In68  1  0.83683940  0.34536106  0.50461988  1
  In  In69  1  -0.02305050  -0.01444188  0.68170819  1
  In  In70  1  0.19556497  0.35719390  0.48970744  1
  In  In71  1  0.15442517  0.65316018  0.83092507  1
  Te  Te72  1  0.11981489  0.05967542  0.09340420  1
  Te  Te73  1  0.07790894  0.10665366  0.39017914  1
  Te  Te74  1  0.08302670  0.08419709  0.73166708  1
  Te  Te75  1  0.07556597  0.39932870  0.06854093  1
  Te  Te76  1  0.08100796  0.42153903  0.41186556  1
  Te  Te77  1  0.10863109  0.39123073  0.77459531  1
  Te  Te78  1  0.06355573  0.74754855  0.06484352  1
  Te  Te79  1  0.08102464  0.71803466  0.37763326  1
  Te  Te80  1  0.07588211  0.75762236  0.75398106  1
  Te  Te81  1  0.40281875  0.06938842  0.07045740  1
  Te  Te82  1  0.43204849  0.10909516  0.43006024  1
  Te  Te83  1  0.40924785  0.09917457  0.74851720  1
  Te  Te84  1  0.38877044  0.41945908  0.09384334  1
  Te  Te85  1  0.42469307  0.41098139  0.43800369  1
  Te  Te86  1  0.42304144  0.41565618  0.76755051  1
  Te  Te87  1  0.41925430  0.78676429  0.08944439  1
  Te  Te88  1  0.42610409  0.73284122  0.40932794  1
  Te  Te89  1  0.41139332  0.73901511  0.72635800  1
  Te  Te90  1  0.70303315  0.05636423  0.05409683  1
  Te  Te91  1  0.74682130  0.09382432  0.42080570  1
  Te  Te92  1  0.76341665  0.05244475  0.80000054  1
  Te  Te93  1  0.73831318  0.41055045  0.10285402  1
  Te  Te94  1  0.74413088  0.40028557  0.39842893  1
  Te  Te95  1  0.74416339  0.39713909  0.76170526  1
  Te  Te96  1  0.76264302  0.77351459  0.06983864  1
  Te  Te97  1  0.74678946  0.75589346  0.41186574  1
  Te  Te98  1  0.73937595  0.72409237  0.76364036  1
  Te  Te99  1  0.07410526  0.25012332  0.21766990  1
  Te  Te100  1  0.09357800  0.27513761  0.57701684  1
  Te  Te101  1  0.09602268  0.21988610  0.91942639  1
  Te  Te102  1  0.09343045  0.58090865  0.24127733  1
  Te  Te103  1  0.07913470  0.57752207  0.56946122  1
  Te  Te104  1  0.07105981  0.57774070  0.92269770  1
  Te  Te105  1  0.11935297  0.90670868  0.34280462  1
  Te  Te106  1  0.06747172  0.92498893  0.57480506  1
  Te  Te107  1  0.08959087  0.93397505  0.89467566  1
  Te  Te108  1  0.42293034  0.24442473  0.25498706  1
  Te  Te109  1  0.39743571  0.22089732  0.63343849  1
  Te  Te110  1  0.45391913  0.22837924  0.93960283  1
  Te  Te111  1  0.41170759  0.59238306  0.22303764  1
  Te  Te112  1  0.42905543  0.59672986  0.57316159  1
  Te  Te113  1  0.42913514  0.60940462  0.91045402  1
  Te  Te114  1  0.42359460  0.93098014  0.25131806  1
  Te  Te115  1  0.39956121  0.91506817  0.57734085  1
  Te  Te116  1  0.39443280  0.93390723  0.91630769  1
  Te  Te117  1  0.74227189  0.22677102  0.23447318  1
  Te  Te118  1  0.75470778  0.25370132  0.59077664  1
  Te  Te119  1  0.74676320  0.26924607  0.90172120  1
  Te  Te120  1  0.74036561  0.61125254  0.23581493  1
  Te  Te121  1  0.76121691  0.56684221  0.55971535  1
  Te  Te122  1  0.77036562  0.56921317  0.91353239  1
  Te  Te123  1  0.76217275  0.92671080  0.24203837  1
  Te  Te124  1  0.73140951  0.92362662  0.61997381  1
  Te  Te125  1  0.79793408  0.90449467  0.86459999  1
  Te  Te126  1  0.24634975  0.25708328  0.08156530  1
  Te  Te127  1  0.26888973  0.24573727  0.42368626  1
  Te  Te128  1  0.29531174  0.23209108  0.74846003  1
  Te  Te129  1  0.23877633  0.57884383  0.05630983  1
  Te  Te130  1  0.25328892  0.57090835  0.40000137  1
  Te  Te131  1  0.24755119  0.58245191  0.73573433  1
  Te  Te132  1  0.23037701  0.92397796  0.08272629  1
  Te  Te133  1  0.26786575  0.89436381  0.41417703  1
  Te  Te134  1  0.23383305  0.92727255  0.75082561  1
  Te  Te135  1  0.55444298  0.23192201  0.07314861  1
  Te  Te136  1  0.55916251  0.25037259  0.43791190  1
  Te  Te137  1  0.58621572  0.21473565  0.73725988  1
  Te  Te138  1  0.58967832  0.58335605  0.08713525  1
  Te  Te139  1  0.58051126  0.58750911  0.40297435  1
  Te  Te140  1  0.58970503  0.57592154  0.75300971  1
  Te  Te141  1  0.60384956  0.93217481  0.09868350  1
  Te  Te142  1  0.57301000  0.93916121  0.43659896  1
  Te  Te143  1  0.58099017  0.90006153  0.78221227  1
  Te  Te144  1  0.89331773  0.22818864  0.06392649  1
  Te  Te145  1  0.91009934  0.24455071  0.41503497  1
  Te  Te146  1  0.90296230  0.21880942  0.76743176  1
  Te  Te147  1  0.90841443  0.57985223  0.07368841  1
  Te  Te148  1  0.91980241  0.59726910  0.39627319  1
  Te  Te149  1  0.92383815  0.59550327  0.73064870  1
  Te  Te150  1  0.90172146  0.90402332  0.05673515  1
  Te  Te151  1  0.91506112  0.93307864  0.41975028  1
  Te  Te152  1  0.93943089  0.90882512  0.80627349  1
  Te  Te153  1  0.26080314  0.08036865  0.26015985  1
  Te  Te154  1  0.23579777  0.08543348  0.56238057  1
  Te  Te155  1  0.24491506  0.13940846  0.89718237  1
  Te  Te156  1  0.22654268  0.40447001  0.25822981  1
  Te  Te157  1  0.27196773  0.40719430  0.60949525  1
  Te  Te158  1  0.25359262  0.40161788  0.91236058  1
  Te  Te159  1  0.25863662  0.76580098  0.21733205  1
  Te  Te160  1  0.25289676  0.74579286  0.58321409  1
  Te  Te161  1  0.25773048  0.74923386  0.90451319  1
  Te  Te162  1  0.59766162  0.10929383  0.25688901  1
  Te  Te163  1  0.59201545  0.08593851  0.63037651  1
  Te  Te164  1  0.59456624  0.06150846  0.94190049  1
  Te  Te165  1  0.58144802  0.41649449  0.25242414  1
  Te  Te166  1  0.59367160  0.40409827  0.59901696  1
  Te  Te167  1  0.56268710  0.41110925  0.93968580  1
  Te  Te168  1  0.60634197  0.77071034  0.24674785  1
  Te  Te169  1  0.57968468  0.75243285  0.57942783  1
  Te  Te170  1  0.58956190  0.75846612  0.93708802  1
  Te  Te171  1  0.93363887  0.05397790  0.22823978  1
  Te  Te172  1  0.90654132  0.09035963  0.58506364  1
  Te  Te173  1  0.90967643  0.08718594  0.96044565  1
  Te  Te174  1  0.91118344  0.42489611  0.25557907  1
  Te  Te175  1  0.92840147  0.40566398  0.61329154  1
  Te  Te176  1  0.91692868  0.40234746  0.89181293  1
  Te  Te177  1  0.94202019  0.77396610  0.23292697  1
  Te  Te178  1  0.89004392  0.78078008  0.60064623  1
  Te  Te179  1  0.93771194  0.77664508  0.97270121  1
