# generated using pymatgen
data_In2Te3
_symmetry_space_group_name_H-M   'P 1'
_cell_length_a   18.73742518
_cell_length_b   18.73721452
_cell_length_c   18.73505059
_cell_angle_alpha   90.04278740
_cell_angle_beta   90.02894625
_cell_angle_gamma   90.04249680
_symmetry_Int_Tables_number   1
_chemical_formula_structural   In2Te3
_chemical_formula_sum   'In72 Te108'
_cell_volume   6577.63112934
_cell_formula_units_Z   36
loop_
 _symmetry_equiv_pos_site_id
 _symmetry_equiv_pos_as_xyz
  1  'x, y, z'
loop_
 _atom_site_type_symbol
 _atom_site_label
 _atom_site_symmetry_multiplicity
 _atom_site_fract_x
 _atom_site_fract_y
 _atom_site_fract_z
 _atom_site_occupancy
  In  In0  1  0.33721473  0.16633463  0.18795844  1
  In  In1  1  0.84103633  0.17532881  -0.00751351  1
  In  In2  1  0.15726070  0.49539559  0.65745684  1
  In  In3  1  0.84113523  0.01209212  0.17098651  1
  In  In4  1  0.67102228  0.84406834  0.53024722  1
  In  In5  1  0.81792059  0.02890137  0.80833085  1
  In  In6  1  0.84710061  0.67043028  0.50719252  1
  In  In7  1  0.50406459  0.84068656  0.66681392  1
  In  In8  1  0.51646219  0.17508913  0.35801334  1
  In  In9  1  0.52367976  0.16548609  -0.00565154  1
  In  In10  1  -0.03618271  0.17646903  0.50316857  1
  In  In11  1  0.83123473  0.47373544  0.00613578  1
  In  In12  1  0.49307383  0.65945404  0.82277164  1
  In  In13  1  -0.00381784  0.17086837  0.80957353  1
  In  In14  1  0.35461227  0.49741341  0.80436322  1
  In  In15  1  0.49832168  0.63706369  0.15384893  1
  In  In16  1  0.52777918  0.47080809  0.33311931  1
  In  In17  1  0.67642973  0.47587422  0.49524226  1
  In  In18  1  0.14181987  0.32718846  0.50069074  1
  In  In19  1  0.00613677  0.84271808  0.50341565  1
  In  In20  1  0.33133420  0.33842208  0.33588499  1
  In  In21  1  0.15581604  0.51884921  -0.00793531  1
  In  In22  1  0.15088162  0.82893143  0.33716101  1
  In  In23  1  0.83137284  0.32150026  0.82474759  1
  In  In24  1  0.65949003  0.83182943  0.16220383  1
  In  In25  1  0.00171977  0.82639615  0.15032917  1
  In  In26  1  0.15415395  0.00595473  0.82605875  1
  In  In27  1  0.51214868  0.47624440  0.66659221  1
  In  In28  1  0.01401564  0.67947205  -0.00926574  1
  In  In29  1  0.67672641  0.49262130  0.83350459  1
  In  In30  1  -0.02404593  0.33121907  -0.00343605  1
  In  In31  1  0.50198163  0.83988085  0.34950862  1
  In  In32  1  0.32430366  0.82023640  0.52072211  1
  In  In33  1  0.67530579  0.64243811  0.34173549  1
  In  In34  1  0.36496130  0.18676738  0.53322770  1
  In  In35  1  0.68040761  0.02160215  -0.01641708  1
  In  In36  1  0.85257912  0.84602606  0.03449476  1
  In  In37  1  0.34014768  0.34434918  0.00581407  1
  In  In38  1  0.30852179  0.84682867  0.15664629  1
  In  In39  1  0.66763470  0.85385038  0.80460824  1
  In  In40  1  0.00266389  0.63967290  0.34128915  1
  In  In41  1  0.33439126  0.50150869  0.49320166  1
  In  In42  1  0.84393329  0.49039932  0.65920501  1
  In  In43  1  0.53465312  0.30583912  0.80096250  1
  In  In44  1  0.16522869  0.33445582  0.80442542  1
  In  In45  1  0.47221361  0.84819562  -0.01757805  1
  In  In46  1  0.33127688  -0.02876713  -0.01587398  1
  In  In47  1  0.67411448  0.33091310  0.00464299  1
  In  In48  1  0.86356492  0.85036758  0.35578421  1
  In  In49  1  0.68064792  0.01936729  0.35641870  1
  In  In50  1  0.15934456  0.16556446  0.32077953  1
  In  In51  1  0.32827805  0.00405102  0.67785363  1
  In  In52  1  0.13728415  0.13782567  0.01266522  1
  In  In53  1  0.62496590  0.64538425  0.00543500  1
  In  In54  1  0.16193693  0.33096194  0.18535898  1
  In  In55  1  -0.01767260  0.48229464  0.19620374  1
  In  In56  1  -0.00415649  0.48340142  0.49747809  1
  In  In57  1  0.82049073  0.63696988  0.18398538  1
  In  In58  1  0.84151874  0.65910151  0.80697341  1
  In  In59  1  0.67314608  0.17008897  0.51788991  1
  In  In60  1  0.31667710  0.66987591  0.66802317  1
  In  In61  1  0.29489603  0.70289712  -0.03038568  1
  In  In62  1  0.33363822  0.17295981  0.80547358  1
  In  In63  1  0.50467556  0.51422961  0.02127362  1
  In  In64  1  0.32769771  0.04219452  0.33543456  1
  In  In65  1  0.32563018  0.48897679  0.16208112  1
  In  In66  1  0.83599748  0.84750305  0.66482870  1
  In  In67  1  -0.02020743  -0.00030000  0.33632645  1
  In  In68  1  0.16494608  -0.01754045  0.50692893  1
  In  In69  1  0.01784924  0.83435668  0.82212989  1
  In  In70  1  0.50991913  0.02424523  0.18513909  1
  In  In71  1  0.32278015  0.66894913  0.35262052  1
  Te  Te72  1  0.03977120  0.08936584  0.10926654  1
  Te  Te73  1  0.07984977  0.08476530  0.42662796  1
  Te  Te74  1  0.08740612  0.09081805  0.72390956  1
  Te  Te75  1  0.08121279  0.41682647  0.07967777  1
  Te  Te76  1  0.08275341  0.41344892  0.39755210  1
  Te  Te77  1  0.06129707  0.41123943  0.73484143  1
  Te  Te78  1  0.10933600  0.75676056  0.07438557  1
  Te  Te79  1  0.08527849  0.73127458  0.43294584  1
  Te  Te80  1  0.11865449  0.73740484  0.77215641  1
  Te  Te81  1  0.41114170  0.07933736  0.07942701  1
  Te  Te82  1  0.43057785  0.08039825  0.44054324  1
  Te  Te83  1  0.43552199  0.10056416  0.72186504  1
  Te  Te84  1  0.43836897  0.40258461  0.10702129  1
  Te  Te85  1  0.43212754  0.40079081  0.43132364  1
  Te  Te86  1  0.40715611  0.37348272  0.73127788  1
  Te  Te87  1  0.41272695  0.74894651  0.08361919  1
  Te  Te88  1  0.42800929  0.73994883  0.43871807  1
  Te  Te89  1  0.40418237  0.76164266  0.75620837  1
  Te  Te90  1  0.74491549  0.10343634  0.09354349  1
  Te  Te91  1  0.77664921  0.10803553  0.42485770  1
  Te  Te92  1  0.74619622  0.12608038  0.72171828  1
  Te  Te93  1  0.77269224  0.38202135  0.10532890  1
  Te  Te94  1  0.75616466  0.36686231  0.42550580  1
  Te  Te95  1  0.73722118  0.40128726  0.73128758  1
  Te  Te96  1  0.74742189  0.73580226  0.08249334  1
  Te  Te97  1  0.74824978  0.75765861  0.41631875  1
  Te  Te98  1  0.74108613  0.74265163  0.72735934  1
  Te  Te99  1  0.05888648  0.24610583  0.24856339  1
  Te  Te100  1  0.07204221  0.23297213  0.59096776  1
  Te  Te101  1  0.08561698  0.25127342  0.91898857  1
  Te  Te102  1  0.08179851  0.58636686  0.22945226  1
  Te  Te103  1  0.07374994  0.58545210  0.57406072  1
  Te  Te104  1  0.07132324  0.58582959  0.89075359  1
  Te  Te105  1  0.07756952  0.92414691  0.24557755  1
  Te  Te106  1  0.08355995  0.91372487  0.60890141  1
  Te  Te107  1  0.08484083  0.91865342  0.92644608  1
  Te  Te108  1  0.43614532  0.25949109  0.25598587  1
  Te  Te109  1  0.45069796  0.28684411  0.60221102  1
  Te  Te110  1  0.42242210  0.25556758  0.91217706  1
  Te  Te111  1  0.41480745  0.56892707  0.26669096  1
  Te  Te112  1  0.41774067  0.57724099  0.59775542  1
  Te  Te113  1  0.40458580  0.58753218  0.92729183  1
  Te  Te114  1  0.41607256  0.91913830  0.24856777  1
  Te  Te115  1  0.41534820  0.92751684  0.57542982  1
  Te  Te116  1  0.42560327  0.93745434  0.87440145  1
  Te  Te117  1  0.78793676  0.28185210  0.30020596  1
  Te  Te118  1  0.77535378  0.23454878  0.61275897  1
  Te  Te119  1  0.73227151  0.23425681  0.90144398  1
  Te  Te120  1  0.75481012  0.53549092  0.27336867  1
  Te  Te121  1  0.74587321  0.58152972  0.58191702  1
  Te  Te122  1  0.75435598  0.58772891  0.92409632  1
  Te  Te123  1  0.74924003  0.91290228  0.25594330  1
  Te  Te124  1  0.75330558  0.95150636  0.59412509  1
  Te  Te125  1  0.76241464  0.91244697  0.91502960  1
  Te  Te126  1  0.24894114  0.24949266  0.08572657  1
  Te  Te127  1  0.25838826  0.23333152  0.41902614  1
  Te  Te128  1  0.23863531  0.24231460  0.71535454  1
  Te  Te129  1  0.25577822  0.59498548  0.07876265  1
  Te  Te130  1  0.22979746  0.58343992  0.42837622  1
  Te  Te131  1  0.23643404  0.58362111  0.76641935  1
  Te  Te132  1  0.21618849  0.91302639  0.05990260  1
  Te  Te133  1  0.26337552  0.91239936  0.40215743  1
  Te  Te134  1  0.24273682  0.90657981  0.75312133  1
  Te  Te135  1  0.58631968  0.25218166  0.09527650  1
  Te  Te136  1  0.60295570  0.27366747  0.42933721  1
  Te  Te137  1  0.60993437  0.21098403  0.70788220  1
  Te  Te138  1  0.62317829  0.54072754  0.12373888  1
  Te  Te139  1  0.57413757  0.57664145  0.43487899  1
  Te  Te140  1  0.59557542  0.58359667  0.74025184  1
  Te  Te141  1  0.57770179  0.92824721  0.07712118  1
  Te  Te142  1  0.58356525  0.93333506  0.43756777  1
  Te  Te143  1  0.59509939  0.94937231  0.71856555  1
  Te  Te144  1  0.91394805  0.24720756  0.10092355  1
  Te  Te145  1  0.89908848  0.28558021  0.41974069  1
  Te  Te146  1  0.90755057  0.24937824  0.71599708  1
  Te  Te147  1  0.92199528  0.58174588  0.08101615  1
  Te  Te148  1  0.88990414  0.56330867  0.40762981  1
  Te  Te149  1  0.93998048  0.58030767  0.73131726  1
  Te  Te150  1  0.95205783  0.96193855  0.07471598  1
  Te  Te151  1  0.90139133  0.95245900  0.46879154  1
  Te  Te152  1  0.92661146  0.93690217  0.74959890  1
  Te  Te153  1  0.22771169  0.06528273  0.22344442  1
  Te  Te154  1  0.25080926  0.08869992  0.57607113  1
  Te  Te155  1  0.25532794  0.09783890  0.91615461  1
  Te  Te156  1  0.23250902  0.43637068  0.27210085  1
  Te  Te157  1  0.25129201  0.40432650  0.57835889  1
  Te  Te158  1  0.25234789  0.42179740  0.90799878  1
  Te  Te159  1  0.23945208  0.74254465  0.24637434  1
  Te  Te160  1  0.21682747  0.75023758  0.59244778  1
  Te  Te161  1  0.21806712  0.79150324  0.87453552  1
  Te  Te162  1  0.61295662  0.11250987  0.25407641  1
  Te  Te163  1  0.56789885  0.10165045  0.60528730  1
  Te  Te164  1  0.57784299  0.07432707  0.89163653  1
  Te  Te165  1  0.62186795  0.42439409  0.22995674  1
  Te  Te166  1  0.58538686  0.38098247  0.57514371  1
  Te  Te167  1  0.56697737  0.42014817  0.91035565  1
  Te  Te168  1  0.57764714  0.73778137  0.25199721  1
  Te  Te169  1  0.58064367  0.74232042  0.58624289  1
  Te  Te170  1  0.58555839  0.75949165  0.90835774  1
  Te  Te171  1  0.90297847  0.10601389  0.26785784  1
  Te  Te172  1  0.88819412  0.06886293  0.57379432  1
  Te  Te173  1  0.92338966  0.07875207  0.90822586  1
  Te  Te174  1  0.90891897  0.37795934  0.27033424  1
  Te  Te175  1  0.91143274  0.38710758  0.57505213  1
  Te  Te176  1  0.92128545  0.42772264  0.89093282  1
  Te  Te177  1  0.91367003  0.74749454  0.25068836  1
  Te  Te178  1  0.93560630  0.74723988  0.60352520  1
  Te  Te179  1  0.90303681  0.75849648  0.91030204  1
