# generated using pymatgen
data_In2Te3
_symmetry_space_group_name_H-M   'P 1'
_cell_length_a   18.95001542
_cell_length_b   18.95254164
_cell_length_c   18.93922592
_cell_angle_alpha   89.87211677
_cell_angle_beta   90.02620652
_cell_angle_gamma   89.83325735
_symmetry_Int_Tables_number   1
_chemical_formula_structural   In2Te3
_chemical_formula_sum   'In72 Te108'
_cell_volume   6801.99462506
_cell_formula_units_Z   36
loop_
 _symmetry_equiv_pos_site_id
 _symmetry_equiv_pos_as_xyz
  1  'x, y, z'
loop_
 _atom_site_type_symbol
 _atom_site_label
 _atom_site_symmetry_multiplicity
 _atom_site_fract_x
 _atom_site_fract_y
 _atom_site_fract_z
 _atom_site_occupancy
  In  In0  1  0.87759183  -0.00738063  0.82867766  1
  In  In1  1  0.49083125  0.49787497  0.67567457  1
  In  In2  1  0.04306012  0.33497945  0.68030741  1
  In  In3  1  0.69700971  0.17553683  0.84546867  1
  In  In4  1  0.83084961  0.50680771  0.66754179  1
  In  In5  1  0.67293414  0.51745642  0.52655699  1
  In  In6  1  0.67201987  0.18145551  0.49786195  1
  In  In7  1  0.32703852  0.65230179  0.69135342  1
  In  In8  1  0.65976075  0.52412056  0.19197944  1
  In  In9  1  0.16036033  0.29970082  0.15242353  1
  In  In10  1  0.01174330  0.50001625  0.46119836  1
  In  In11  1  0.31662235  0.18708213  0.51489965  1
  In  In12  1  0.01318985  0.32481535  0.31238948  1
  In  In13  1  0.83391588  0.34470043  0.17045379  1
  In  In14  1  0.31021299  0.20222482  0.83866000  1
  In  In15  1  0.16197714  -0.00254494  0.83614423  1
  In  In16  1  0.51965513  0.84014038  0.02418264  1
  In  In17  1  -0.00870631  0.65786130  0.00006341  1
  In  In18  1  0.49362170  0.15065431  0.03647669  1
  In  In19  1  0.66896389  0.66403227  0.02468464  1
  In  In20  1  0.69249775  -0.00373455  0.66651596  1
  In  In21  1  0.32679462  0.81616092  0.84051795  1
  In  In22  1  0.17181289  0.02698818  0.49535962  1
  In  In23  1  0.02343140  -0.01328095  0.65360738  1
  In  In24  1  0.15889378  0.05242625  0.16841802  1
  In  In25  1  0.00837664  0.16486245  0.50301035  1
  In  In26  1  0.15759808  0.84246759  0.33339497  1
  In  In27  1  0.30916456  0.67739141  0.36159571  1
  In  In28  1  0.68755677  0.66308697  0.63435048  1
  In  In29  1  0.85778342  0.65743458  0.82700609  1
  In  In30  1  0.47314772  0.67324427  0.16262686  1
  In  In31  1  0.31622714  0.46569174  0.14851894  1
  In  In32  1  0.29103860  0.46613764  0.52128732  1
  In  In33  1  0.48597395  0.34169370  0.82917903  1
  In  In34  1  0.69869594  0.70774768  0.36999759  1
  In  In35  1  0.66769287  0.52159756  0.81356149  1
  In  In36  1  0.67587028  0.82258484  0.83962527  1
  In  In37  1  0.15716625  0.50580920  0.01068179  1
  In  In38  1  0.29281811  0.48735409  0.83087242  1
  In  In39  1  0.50888828  -0.00648599  0.48304272  1
  In  In40  1  0.50587216  0.84880895  0.30496293  1
  In  In41  1  0.84583132  -0.01342923  0.17794266  1
  In  In42  1  0.48370587  0.50129673  0.35759996  1
  In  In43  1  0.65520234  0.32900922  0.66098157  1
  In  In44  1  0.34355067  0.85670744  0.16414556  1
  In  In45  1  0.83227495  0.69373934  0.16629640  1
  In  In46  1  0.67783473  -0.00795288  0.01986790  1
  In  In47  1  0.49532268  0.15216925  0.31984355  1
  In  In48  1  -0.02927068  0.82560401  0.48996890  1
  In  In49  1  0.31261958  0.31425798  0.32354331  1
  In  In50  1  0.84064846  0.46321249  -0.00099332  1
  In  In51  1  0.14463540  0.65996754  0.50380968  1
  In  In52  1  0.51643434  0.01172666  0.82126196  1
  In  In53  1  -0.01010829  0.32781964  -0.00302199  1
  In  In54  1  0.85819951  0.14948079  -0.00523612  1
  In  In55  1  0.35138094  0.01022017  0.01295161  1
  In  In56  1  0.33698373  0.86034401  0.51099697  1
  In  In57  1  0.15703815  0.80237197  -0.00413455  1
  In  In58  1  0.64872723  0.32144998  0.33410228  1
  In  In59  1  0.62829715  0.31334836  0.01093801  1
  In  In60  1  0.47325969  0.16867977  0.65522832  1
  In  In61  1  0.17577304  0.82530870  0.66731549  1
  In  In62  1  -0.00541327  0.83957897  0.14194065  1
  In  In63  1  0.44397808  0.47995921  -0.01936856  1
  In  In64  1  0.66840227  0.85958141  0.17329436  1
  In  In65  1  0.00656769  0.52088585  0.20213974  1
  In  In66  1  0.87070745  0.31017728  0.82382050  1
  In  In67  1  0.84347065  -0.00195602  0.48454610  1
  In  In68  1  0.81786158  0.34683810  0.50905808  1
  In  In69  1  0.84853858  0.15196449  0.33239146  1
  In  In70  1  0.49667497  0.67474488  0.51455829  1
  In  In71  1  0.01245164  0.82041639  0.82718655  1
  Te  Te72  1  0.11098441  0.12916384  0.05396476  1
  Te  Te73  1  0.06825942  0.07532229  0.40256810  1
  Te  Te74  1  0.12028706  0.07867852  0.71823411  1
  Te  Te75  1  0.06061842  0.41831392  0.10209146  1
  Te  Te76  1  0.09541671  0.38831994  0.41655379  1
  Te  Te77  1  0.12642740  0.39408423  0.78943908  1
  Te  Te78  1  0.08400799  0.72212750  0.10180393  1
  Te  Te79  1  0.06892472  0.72999872  0.38910191  1
  Te  Te80  1  0.07886368  0.73560112  0.72872233  1
  Te  Te81  1  0.36870333  0.12036759  0.11756085  1
  Te  Te82  1  0.41006867  0.09418166  0.43145091  1
  Te  Te83  1  0.40256172  0.09633380  0.76711240  1
  Te  Te84  1  0.42839026  0.38820540  0.09223757  1
  Te  Te85  1  0.39086553  0.40310704  0.42353009  1
  Te  Te86  1  0.38827588  0.40288093  0.73313343  1
  Te  Te87  1  0.39864729  0.75418155  0.05988160  1
  Te  Te88  1  0.42535919  0.76536980  0.41100924  1
  Te  Te89  1  0.41534147  0.75763240  0.73941834  1
  Te  Te90  1  0.76016871  0.09095654  0.09464194  1
  Te  Te91  1  0.73588684  0.08184859  0.40656409  1
  Te  Te92  1  0.77733952  0.08609333  0.75591934  1
  Te  Te93  1  0.72160576  0.42236141  0.09532093  1
  Te  Te94  1  0.72693472  0.42216906  0.41500719  1
  Te  Te95  1  0.74830516  0.40519219  0.75742102  1
  Te  Te96  1  0.75121224  0.78116138  0.07159997  1
  Te  Te97  1  0.80114316  0.77314188  0.46403653  1
  Te  Te98  1  0.76148473  0.74088878  0.74382953  1
  Te  Te99  1  0.09894102  0.21585800  0.25830161  1
  Te  Te100  1  0.11096472  0.24720873  0.57456795  1
  Te  Te101  1  0.06971624  0.22009963  0.93554542  1
  Te  Te102  1  0.07701108  0.60112400  0.30056110  1
  Te  Te103  1  0.05069825  0.57789576  0.57960233  1
  Te  Te104  1  0.09281446  0.59758762  0.91247153  1
  Te  Te105  1  0.09416081  0.92678843  0.22277593  1
  Te  Te106  1  0.09958360  0.89502488  0.55379583  1
  Te  Te107  1  0.07579755  0.91387493  0.92833697  1
  Te  Te108  1  0.41107048  0.24395660  0.23787012  1
  Te  Te109  1  0.39211138  0.27904562  0.60415531  1
  Te  Te110  1  0.43150367  0.23877794  0.92437314  1
  Te  Te111  1  0.39948070  0.59082184  0.26747556  1
  Te  Te112  1  0.40241708  0.56885692  0.56768368  1
  Te  Te113  1  0.40010802  0.57634552  0.88267565  1
  Te  Te114  1  0.40335970  0.94980372  0.26305979  1
  Te  Te115  1  0.43000772  0.93596021  0.59276481  1
  Te  Te116  1  0.43954854  0.92154915  0.91783264  1
  Te  Te117  1  0.75386851  0.24753227  0.25554897  1
  Te  Te118  1  0.76334051  0.23930174  0.60371957  1
  Te  Te119  1  0.76682396  0.27001706  0.94030538  1
  Te  Te120  1  0.75992332  0.60597468  0.26883587  1
  Te  Te121  1  0.81518469  0.58086032  0.52885925  1
  Te  Te122  1  0.75539418  0.58208847  0.92316026  1
  Te  Te123  1  0.77008696  0.89874386  0.27087929  1
  Te  Te124  1  0.76020030  0.90817697  0.56963057  1
  Te  Te125  1  0.75716083  0.93217269  0.90507914  1
  Te  Te126  1  0.27311669  0.29995304  0.05740879  1
  Te  Te127  1  0.22873613  0.22135130  0.40128249  1
  Te  Te128  1  0.22008940  0.28512641  0.75028596  1
  Te  Te129  1  0.25124499  0.58341210  0.09267182  1
  Te  Te130  1  0.22985930  0.56257882  0.41930213  1
  Te  Te131  1  0.22558642  0.55215937  0.71616495  1
  Te  Te132  1  0.24636217  0.91124156  0.06113881  1
  Te  Te133  1  0.25522135  0.93338946  0.40699037  1
  Te  Te134  1  0.26089357  0.91828105  0.74991444  1
  Te  Te135  1  0.59399429  0.21949222  0.12185425  1
  Te  Te136  1  0.55708187  0.24942941  0.42895915  1
  Te  Te137  1  0.58409646  0.23822688  0.76151452  1
  Te  Te138  1  0.55892427  0.57518410  0.08128112  1
  Te  Te139  1  0.58954438  0.59638794  0.41617525  1
  Te  Te140  1  0.57759239  0.60892005  0.73115778  1
  Te  Te141  1  0.55859860  0.95926081  0.11665309  1
  Te  Te142  1  0.59765853  0.91406505  0.39824691  1
  Te  Te143  1  0.59363164  0.90769592  0.74278430  1
  Te  Te144  1  0.92004406  0.24199632  0.10172713  1
  Te  Te145  1  0.91106414  0.26249940  0.42130537  1
  Te  Te146  1  0.95305946  0.23001206  0.73582981  1
  Te  Te147  1  0.89803227  0.57223886  0.09060242  1
  Te  Te148  1  0.89855111  0.57184740  0.40199452  1
  Te  Te149  1  0.93942632  0.56875443  0.74462158  1
  Te  Te150  1  0.91851525  0.93540477  0.06080846  1
  Te  Te151  1  0.94066641  0.93288304  0.39514288  1
  Te  Te152  1  0.92523939  0.89485951  0.72438415  1
  Te  Te153  1  0.28729309  0.06486360  0.23741091  1
  Te  Te154  1  0.24884283  0.08805751  0.60498399  1
  Te  Te155  1  0.25423881  0.08536442  0.92048878  1
  Te  Te156  1  0.22027444  0.40957164  0.24753816  1
  Te  Te157  1  0.18414583  0.38458709  0.58344054  1
  Te  Te158  1  0.23932234  0.39575926  0.94452550  1
  Te  Te159  1  0.25521316  0.76151570  0.24865706  1
  Te  Te160  1  0.26398509  0.73923306  0.56786632  1
  Te  Te161  1  0.22223845  0.72466956  0.88928722  1
  Te  Te162  1  0.57693801  0.08113575  0.21993659  1
  Te  Te163  1  0.59142786  0.09139879  0.59581946  1
  Te  Te164  1  0.59697596  0.09145672  0.92676460  1
  Te  Te165  1  0.56553065  0.42328449  0.25595970  1
  Te  Te166  1  0.56832699  0.41508570  0.57348495  1
  Te  Te167  1  0.58567768  0.42877428  0.90618772  1
  Te  Te168  1  0.58913665  0.73904369  0.23460190  1
  Te  Te169  1  0.59728967  0.76162381  0.57417404  1
  Te  Te170  1  0.58095307  0.74006184  0.92435870  1
  Te  Te171  1  0.93685180  0.08674835  0.23712792  1
  Te  Te172  1  0.91945333  0.07775661  0.58920064  1
  Te  Te173  1  0.95492551  0.10497860  0.88964027  1
  Te  Te174  1  0.90501927  0.43102650  0.27161452  1
  Te  Te175  1  0.92180101  0.40123630  0.60302429  1
  Te  Te176  1  0.93910265  0.42791628  0.88960795  1
  Te  Te177  1  0.91292900  0.78052901  0.25151168  1
  Te  Te178  1  0.89663560  0.72967858  0.57189286  1
  Te  Te179  1  0.90974434  0.76084923  0.92389604  1
