# generated using pymatgen
data_In2Te3
_symmetry_space_group_name_H-M   'P 1'
_cell_length_a   18.74882725
_cell_length_b   18.74838285
_cell_length_c   18.74893728
_cell_angle_alpha   90.00736406
_cell_angle_beta   90.01508925
_cell_angle_gamma   89.98085397
_symmetry_Int_Tables_number   1
_chemical_formula_structural   In2Te3
_chemical_formula_sum   'In72 Te108'
_cell_volume   6590.44188001
_cell_formula_units_Z   36
loop_
 _symmetry_equiv_pos_site_id
 _symmetry_equiv_pos_as_xyz
  1  'x, y, z'
loop_
 _atom_site_type_symbol
 _atom_site_label
 _atom_site_symmetry_multiplicity
 _atom_site_fract_x
 _atom_site_fract_y
 _atom_site_fract_z
 _atom_site_occupancy
  In  In0  1  0.00416270  -0.01180387  0.34892001  1
  In  In1  1  0.66507923  0.68815226  0.30931893  1
  In  In2  1  0.84013497  0.68646485  0.17515013  1
  In  In3  1  0.49799244  0.11473716  0.01919569  1
  In  In4  1  0.49740318  -0.02677834  0.86038412  1
  In  In5  1  0.67534246  -0.01560293  0.67669907  1
  In  In6  1  0.15005663  0.49589958  0.67432783  1
  In  In7  1  0.34163087  0.68035110  0.33600123  1
  In  In8  1  0.51325978  0.52877326  0.00470676  1
  In  In9  1  0.49292571  0.18879384  0.65466858  1
  In  In10  1  0.16706476  0.84457006  0.65788820  1
  In  In11  1  -0.02696864  0.50930742  0.17349172  1
  In  In12  1  0.01736321  0.15286562  0.18799286  1
  In  In13  1  0.66545455  0.35298392  0.66583643  1
  In  In14  1  0.82170798  -0.00274977  0.16489803  1
  In  In15  1  -0.00541728  0.00034423  0.02389936  1
  In  In16  1  0.01183112  0.18071461  0.83755457  1
  In  In17  1  0.34807673  0.81854327  0.16512895  1
  In  In18  1  0.49341097  0.33972817  0.81260634  1
  In  In19  1  0.83743269  0.49765675  0.33819903  1
  In  In20  1  0.68236215  0.16738040  0.47951593  1
  In  In21  1  0.34360375  0.16619205  0.83217611  1
  In  In22  1  -0.03064323  0.49912450  0.83324361  1
  In  In23  1  0.67219292  0.32704727  0.00192105  1
  In  In24  1  0.35693208  0.48039609  0.83637467  1
  In  In25  1  0.18535027  0.68775556  0.85427160  1
  In  In26  1  0.82793583  0.66993456  0.50300522  1
  In  In27  1  0.81990337  0.33843526  0.17697828  1
  In  In28  1  0.51145655  0.15527891  0.33690458  1
  In  In29  1  0.49411805  0.32818939  0.19233389  1
  In  In30  1  0.17019776  0.31366328  0.17380930  1
  In  In31  1  0.66457679  0.15370287  0.19003422  1
  In  In32  1  0.14109207  0.70693081  0.46450426  1
  In  In33  1  0.81840310  0.82487207  0.65303352  1
  In  In34  1  0.18138150  0.51554309  0.00981045  1
  In  In35  1  0.82637649  0.17570777  0.01074419  1
  In  In36  1  0.16186828  0.48740835  0.33085574  1
  In  In37  1  -0.01613017  0.82034710  0.85912710  1
  In  In38  1  0.68511054  0.52746720  0.83368179  1
  In  In39  1  0.82577637  0.82579761  0.00325020  1
  In  In40  1  0.50643556  0.67718080  0.15610762  1
  In  In41  1  0.50640726  0.48994269  0.34207664  1
  In  In42  1  0.35330953  0.51043726  0.50678946  1
  In  In43  1  -0.01859615  0.66573801  0.66199337  1
  In  In44  1  0.51206025  0.66998208  0.83522717  1
  In  In45  1  0.17100106  0.66603309  0.17955082  1
  In  In46  1  0.32853856  0.00120228  0.64582945  1
  In  In47  1  0.18999374  0.01568783  0.84200308  1
  In  In48  1  -0.01095159  0.49117323  0.49842114  1
  In  In49  1  0.30402657  0.50427391  0.15718128  1
  In  In50  1  -0.02035221  0.68289848  -0.00181718  1
  In  In51  1  0.18647931  0.16039832  0.65656324  1
  In  In52  1  0.50341611  -0.01120363  0.50332125  1
  In  In53  1  0.19111105  0.29521592  0.48273643  1
  In  In54  1  0.66511745  0.33881165  0.32779563  1
  In  In55  1  0.18446380  0.83707694  0.01820410  1
  In  In56  1  0.85025220  0.16294977  0.66472422  1
  In  In57  1  0.00442073  0.34173086  -0.01353596  1
  In  In58  1  0.32397211  0.32814243  0.01001771  1
  In  In59  1  0.33826841  0.83567972  0.48433362  1
  In  In60  1  0.32842001  -0.00936064  0.32175701  1
  In  In61  1  0.00895893  -0.01034191  0.62673411  1
  In  In62  1  0.66109743  0.50101561  0.51080247  1
  In  In63  1  0.65224840  0.81207925  0.51464774  1
  In  In64  1  0.82277644  -0.02479495  0.83496550  1
  In  In65  1  0.16143750  0.01367582  0.18547342  1
  In  In66  1  0.33732307  0.32940348  0.67093996  1
  In  In67  1  0.35631637  0.66551004  0.67382881  1
  In  In68  1  -0.01076040  0.34597254  0.65599994  1
  In  In69  1  0.66842410  0.80865627  0.83373988  1
  In  In70  1  0.66547800  0.00370370  0.31768023  1
  In  In71  1  -0.02481760  0.18453158  0.46191676  1
  Te  Te72  1  0.10063086  0.09766420  0.06989106  1
  Te  Te73  1  0.08327858  0.09559854  0.41620860  1
  Te  Te74  1  0.08119153  0.07377395  0.74177344  1
  Te  Te75  1  0.08865689  0.43038300  0.09863044  1
  Te  Te76  1  0.08663551  0.39700208  0.42770197  1
  Te  Te77  1  0.07519861  0.40482565  0.76959010  1
  Te  Te78  1  0.07768807  0.75309239  0.09110275  1
  Te  Te79  1  0.04398757  0.78344967  0.37348217  1
  Te  Te80  1  0.08486007  0.74875591  0.75352884  1
  Te  Te81  1  0.38054356  0.05310956  0.08067293  1
  Te  Te82  1  0.41112741  0.07683464  0.42241197  1
  Te  Te83  1  0.42731366  0.07497828  0.74193453  1
  Te  Te84  1  0.42059565  0.42510614  0.08463357  1
  Te  Te85  1  0.41116492  0.40715297  0.41855153  1
  Te  Te86  1  0.43607646  0.44015997  0.71159959  1
  Te  Te87  1  0.45273822  0.78299748  0.05633524  1
  Te  Te88  1  0.44092189  0.74811438  0.42201982  1
  Te  Te89  1  0.42076702  0.76390773  0.76210894  1
  Te  Te90  1  0.72354606  0.07250481  0.06534073  1
  Te  Te91  1  0.76344343  0.06553153  0.40977959  1
  Te  Te92  1  0.75308214  0.08736457  0.75823048  1
  Te  Te93  1  0.74592313  0.42566377  0.08455720  1
  Te  Te94  1  0.75581761  0.40770091  0.43107205  1
  Te  Te95  1  0.75698801  0.41749407  0.76277359  1
  Te  Te96  1  0.73326474  0.74990400  0.09173422  1
  Te  Te97  1  0.75370494  0.76450837  0.40813582  1
  Te  Te98  1  0.73379271  0.72808164  0.72600363  1
  Te  Te99  1  0.08423706  0.25069721  0.27743600  1
  Te  Te100  1  0.07766390  0.24328110  0.58274568  1
  Te  Te101  1  0.10282179  0.24417782  0.93443299  1
  Te  Te102  1  0.06928447  0.58891895  0.26304934  1
  Te  Te103  1  0.08846762  0.59189966  0.57190362  1
  Te  Te104  1  0.07932873  0.59062605  0.91481179  1
  Te  Te105  1  0.07284988  0.90915587  0.24007887  1
  Te  Te106  1  0.11207946  0.92202152  0.54230312  1
  Te  Te107  1  0.08909727  0.91845059  0.91962564  1
  Te  Te108  1  0.40690930  0.22681698  0.25557323  1
  Te  Te109  1  0.38838489  0.23975424  0.56474655  1
  Te  Te110  1  0.43112062  0.25366488  0.92521312  1
  Te  Te111  1  0.41547808  0.58044300  0.24377108  1
  Te  Te112  1  0.45037746  0.61198287  0.56578917  1
  Te  Te113  1  0.40223388  0.59431822  0.92413660  1
  Te  Te114  1  0.42936254  0.89449744  0.26455795  1
  Te  Te115  1  0.42682422  0.89520215  0.59537670  1
  Te  Te116  1  0.41344256  0.89176955  0.94961347  1
  Te  Te117  1  0.76680664  0.23187633  0.27676637  1
  Te  Te118  1  0.75551866  0.25087231  0.58371193  1
  Te  Te119  1  0.75300594  0.24793226  0.90605862  1
  Te  Te120  1  0.75118055  0.57848932  0.24377212  1
  Te  Te121  1  0.74024056  0.59518476  0.59704452  1
  Te  Te122  1  0.76923063  0.60297213  0.92798553  1
  Te  Te123  1  0.73280740  0.89822538  0.23327919  1
  Te  Te124  1  0.75274666  0.92623394  0.56116207  1
  Te  Te125  1  0.72405032  0.91655937  0.93162921  1
  Te  Te126  1  0.26968854  0.22874171  0.10422225  1
  Te  Te127  1  0.26464470  0.23274831  0.37140808  1
  Te  Te128  1  0.23937257  0.25553006  0.76331547  1
  Te  Te129  1  0.27112733  0.62523634  0.06995314  1
  Te  Te130  1  0.24626587  0.58628072  0.41637355  1
  Te  Te131  1  0.24910853  0.57937541  0.75736017  1
  Te  Te132  1  0.26697001  0.93907634  0.09900204  1
  Te  Te133  1  0.23467249  0.91630609  0.41485026  1
  Te  Te134  1  0.26380304  0.91335236  0.75479656  1
  Te  Te135  1  0.57660018  0.24129505  0.09344464  1
  Te  Te136  1  0.57397312  0.26249006  0.42534069  1
  Te  Te137  1  0.59533769  0.24378160  0.75308489  1
  Te  Te138  1  0.61423936  0.60647535  0.08001194  1
  Te  Te139  1  0.59307014  0.59499672  0.40919093  1
  Te  Te140  1  0.58263066  0.58038760  0.74051700  1
  Te  Te141  1  0.61400869  0.97052670  0.11336356  1
  Te  Te142  1  0.58709821  0.90641263  0.40984409  1
  Te  Te143  1  0.57511177  0.89799532  0.74852158  1
  Te  Te144  1  0.92742804  0.25131971  0.09704017  1
  Te  Te145  1  0.88557686  0.27745037  0.39426776  1
  Te  Te146  1  0.91024149  0.26501433  0.76203162  1
  Te  Te147  1  0.89159577  0.57756009  0.06502467  1
  Te  Te148  1  0.92676496  0.59913722  0.40954718  1
  Te  Te149  1  0.89161436  0.56858368  0.72734564  1
  Te  Te150  1  0.92078143  0.89519464  0.10249464  1
  Te  Te151  1  0.92534359  0.87800721  0.41382589  1
  Te  Te152  1  0.92400958  0.91179571  0.73897152  1
  Te  Te153  1  0.23598958  0.10622224  0.27978960  1
  Te  Te154  1  0.24238857  0.07471435  0.55053242  1
  Te  Te155  1  0.28349639  0.07932477  0.93918067  1
  Te  Te156  1  0.26901165  0.40328881  0.26302586  1
  Te  Te157  1  0.23818912  0.41352230  0.57956578  1
  Te  Te158  1  0.24185775  0.41312395  0.91217307  1
  Te  Te159  1  0.23992563  0.77081165  0.26546050  1
  Te  Te160  1  0.24915210  0.73840018  0.58073113  1
  Te  Te161  1  0.28204506  0.78316361  0.91667597  1
  Te  Te162  1  0.54534778  0.05201838  0.21960081  1
  Te  Te163  1  0.59197255  0.08637396  0.58527030  1
  Te  Te164  1  0.58267734  0.08669942  0.90202248  1
  Te  Te165  1  0.59730354  0.43473383  0.23017476  1
  Te  Te166  1  0.56439140  0.40416823  0.56976821  1
  Te  Te167  1  0.57690114  0.42130076  0.91429166  1
  Te  Te168  1  0.57111813  0.78246667  0.24013908  1
  Te  Te169  1  0.55572482  0.72697948  0.58544544  1
  Te  Te170  1  0.58377931  0.74886465  0.94189298  1
  Te  Te171  1  0.90742976  0.07732265  0.26082772  1
  Te  Te172  1  0.90821896  0.07596338  0.55323265  1
  Te  Te173  1  0.91571623  0.07564055  0.91521909  1
  Te  Te174  1  0.93251944  0.39570026  0.27022560  1
  Te  Te175  1  0.88948259  0.43417466  0.59136245  1
  Te  Te176  1  0.89232849  0.41820876  0.93052264  1
  Te  Te177  1  0.92484651  0.75107820  0.27566421  1
  Te  Te178  1  0.93462536  0.77325146  0.56552810  1
  Te  Te179  1  0.86790693  0.71819967  0.88836182  1
