# generated using pymatgen
data_In2Te3
_symmetry_space_group_name_H-M   'P 1'
_cell_length_a   18.80554720
_cell_length_b   18.80657273
_cell_length_c   18.81391961
_cell_angle_alpha   89.90756656
_cell_angle_beta   89.84390539
_cell_angle_gamma   89.90047322
_symmetry_Int_Tables_number   1
_chemical_formula_structural   In2Te3
_chemical_formula_sum   'In72 Te108'
_cell_volume   6653.83593510
_cell_formula_units_Z   36
loop_
 _symmetry_equiv_pos_site_id
 _symmetry_equiv_pos_as_xyz
  1  'x, y, z'
loop_
 _atom_site_type_symbol
 _atom_site_label
 _atom_site_symmetry_multiplicity
 _atom_site_fract_x
 _atom_site_fract_y
 _atom_site_fract_z
 _atom_site_occupancy
  In  In0  1  0.50594843  0.32714098  0.83268227  1
  In  In1  1  0.53670916  0.34799433  0.18114799  1
  In  In2  1  0.36332943  0.65030387  0.66400559  1
  In  In3  1  0.82282741  0.00269768  0.49597267  1
  In  In4  1  0.81958157  -0.05574623  0.86420425  1
  In  In5  1  -0.00228902  0.66629368  0.69148750  1
  In  In6  1  -0.00867954  0.51319730  0.17559162  1
  In  In7  1  0.19026208  0.47893378  0.68611964  1
  In  In8  1  0.84513047  0.17305765  0.01357165  1
  In  In9  1  0.50419412  -0.00070776  0.48641205  1
  In  In10  1  0.15450338  0.32171827  0.83364777  1
  In  In11  1  0.82897064  0.17079239  0.64676520  1
  In  In12  1  -0.00239661  -0.01008090  -0.00574198  1
  In  In13  1  0.33688047  0.83581790  0.47115893  1
  In  In14  1  0.84159099  0.66359177  0.46766575  1
  In  In15  1  0.32413560  0.49414298  0.81775567  1
  In  In16  1  -0.01852855  0.52507612  0.49870242  1
  In  In17  1  0.83810029  0.69114133  0.86731535  1
  In  In18  1  0.16733811  0.16417395  0.68730468  1
  In  In19  1  -0.02412600  0.18292342  0.16094364  1
  In  In20  1  0.33915663  0.83652803  0.15816184  1
  In  In21  1  0.83578297  0.49322854  0.66777207  1
  In  In22  1  0.66381616  0.15752989  0.83502608  1
  In  In23  1  0.65909901  0.67527487  0.66884186  1
  In  In24  1  0.82489929  0.83857301  0.32828392  1
  In  In25  1  0.67520882  -0.01497579  0.66181321  1
  In  In26  1  0.84357352  0.36110958  0.86911878  1
  In  In27  1  0.15396161  0.84177084  0.32137893  1
  In  In28  1  0.49874095  -0.03330354  0.17202436  1
  In  In29  1  0.51435486  0.14421036  0.01751736  1
  In  In30  1  0.17761023  0.65591932  0.49917466  1
  In  In31  1  0.47780627  0.15783701  0.69647976  1
  In  In32  1  0.30871947  0.68593839  -0.03012303  1
  In  In33  1  0.50788909  0.35771518  0.51392687  1
  In  In34  1  0.36196239  0.34146196  0.35787710  1
  In  In35  1  0.13873697  0.34970899  0.16915821  1
  In  In36  1  0.53119909  0.68175697  0.16559149  1
  In  In37  1  0.31657066  0.14024416  0.18154504  1
  In  In38  1  0.15982169  0.50261014  0.33104255  1
  In  In39  1  0.17127001  -0.00998696  0.84556746  1
  In  In40  1  0.01236902  0.13740440  0.45846621  1
  In  In41  1  0.15081488  0.53820245  -0.03348177  1
  In  In42  1  0.65497675  0.52001873  0.46665019  1
  In  In43  1  0.36216879  0.69175436  0.31319323  1
  In  In44  1  0.34041199  0.02676517  0.68240403  1
  In  In45  1  0.48155910  0.85105918  -0.02324143  1
  In  In46  1  0.83392385  0.85743763  0.66915345  1
  In  In47  1  0.69530162  0.33121141  0.33703475  1
  In  In48  1  -0.02025932  0.65918829  0.32198970  1
  In  In49  1  0.33394722  0.16469695  0.48651275  1
  In  In50  1  0.17128249  0.15792483  -0.02693125  1
  In  In51  1  0.50299983  0.83382329  0.68375448  1
  In  In52  1  0.84650900  0.00467730  0.15594926  1
  In  In53  1  0.68242910  0.16182814  0.16286790  1
  In  In54  1  0.00824444  0.35755031  0.68414032  1
  In  In55  1  -0.03048654  0.33603588  0.32692452  1
  In  In56  1  0.14611926  0.83100020  0.65892703  1
  In  In57  1  0.30159449  0.33573793  0.67340946  1
  In  In58  1  0.81567200  0.67134240  0.18511079  1
  In  In59  1  0.67513646  0.53121097  0.83560669  1
  In  In60  1  0.47930486  0.16583147  0.33602802  1
  In  In61  1  -0.01214733  0.84591115  0.49900774  1
  In  In62  1  0.49059961  0.66013000  0.84093347  1
  In  In63  1  0.00862287  0.17112424  0.83318716  1
  In  In64  1  0.34659247  0.32051396  0.01132479  1
  In  In65  1  0.54775018  0.53269337  0.00586796  1
  In  In66  1  0.67977123  0.16638309  0.50303032  1
  In  In67  1  0.66688263  -0.00913974  0.34612368  1
  In  In68  1  0.18161454  0.33379863  0.51136994  1
  In  In69  1  0.66221650  0.66450384  -0.00292650  1
  In  In70  1  0.17032202  -0.01660790  0.15883282  1
  In  In71  1  0.33440008  0.50878733  0.14806811  1
  Te  Te72  1  0.07812424  0.09275926  0.07711185  1
  Te  Te73  1  0.11518942  0.05690066  0.39291671  1
  Te  Te74  1  0.07363788  0.06219375  0.74980594  1
  Te  Te75  1  0.07681622  0.44014278  0.06369280  1
  Te  Te76  1  0.07780940  0.41787350  0.42662750  1
  Te  Te77  1  0.07623990  0.44613593  0.78567557  1
  Te  Te78  1  0.03247730  0.68967487  0.04771870  1
  Te  Te79  1  0.06991460  0.73496584  0.42437030  1
  Te  Te80  1  0.07954865  0.75954460  0.77255995  1
  Te  Te81  1  0.40692079  0.06014724  0.09050330  1
  Te  Te82  1  0.39302259  0.05695176  0.39645179  1
  Te  Te83  1  0.44875996  0.04210211  0.78901012  1
  Te  Te84  1  0.44141846  0.42140843  0.07690502  1
  Te  Te85  1  0.44295900  0.44955042  0.41469509  1
  Te  Te86  1  0.42276933  0.41101765  0.73664039  1
  Te  Te87  1  0.42234463  0.73254561  0.07057434  1
  Te  Te88  1  0.42996648  0.72417805  0.44159700  1
  Te  Te89  1  0.39871699  0.75642132  0.76831876  1
  Te  Te90  1  0.74351717  0.06815466  0.06004853  1
  Te  Te91  1  0.76171577  0.10027043  0.39390352  1
  Te  Te92  1  0.76546374  0.07318561  0.74778239  1
  Te  Te93  1  0.71302697  0.45230958  0.03727471  1
  Te  Te94  1  0.76025007  0.41946721  0.43582025  1
  Te  Te95  1  0.74540286  0.41548683  0.76282982  1
  Te  Te96  1  0.74372167  0.76031757  0.08063295  1
  Te  Te97  1  0.73316682  0.74418332  0.40233697  1
  Te  Te98  1  0.75511822  0.75584241  0.75468462  1
  Te  Te99  1  0.07670648  0.24822410  0.26147992  1
  Te  Te100  1  0.08327478  0.25307296  0.59608429  1
  Te  Te101  1  0.05941054  0.26417214  0.94201201  1
  Te  Te102  1  0.09648910  0.60478196  0.23832099  1
  Te  Te103  1  0.08938855  0.57316838  0.59694250  1
  Te  Te104  1  0.05668982  0.63866415  0.90667178  1
  Te  Te105  1  0.06466062  0.89914771  0.21906128  1
  Te  Te106  1  0.07341259  0.93259126  0.58061703  1
  Te  Te107  1  0.10745954  0.89495385  0.94776097  1
  Te  Te108  1  0.41546257  0.25631109  0.22922467  1
  Te  Te109  1  0.40818438  0.25134349  0.58738653  1
  Te  Te110  1  0.42760817  0.22972510  0.91938666  1
  Te  Te111  1  0.43594427  0.58135437  0.23538960  1
  Te  Te112  1  0.40068164  0.54204293  0.57335372  1
  Te  Te113  1  0.40921494  0.56153543  0.92612930  1
  Te  Te114  1  0.41389100  0.89555547  0.27099264  1
  Te  Te115  1  0.41249623  0.92358466  0.58464346  1
  Te  Te116  1  0.39515494  0.94352916  0.90161518  1
  Te  Te117  1  0.77200115  0.25583020  0.23320280  1
  Te  Te118  1  0.74217452  0.27131546  0.58430443  1
  Te  Te119  1  0.75021557  0.25174424  0.92139210  1
  Te  Te120  1  0.73002273  0.57175136  0.25611890  1
  Te  Te121  1  0.75816157  0.59404050  0.58230687  1
  Te  Te122  1  0.77815620  0.56335911  0.94808622  1
  Te  Te123  1  0.73888342  0.92023620  0.23310578  1
  Te  Te124  1  0.73567227  0.89260242  0.55634901  1
  Te  Te125  1  0.74705904  0.86564107  0.96346252  1
  Te  Te126  1  0.23744468  0.24684531  0.09074145  1
  Te  Te127  1  0.24446210  0.25183256  0.39841047  1
  Te  Te128  1  0.26734259  0.23059191  0.77955889  1
  Te  Te129  1  0.23669455  0.60166998  0.07644180  1
  Te  Te130  1  0.26438435  0.59460765  0.39125043  1
  Te  Te131  1  0.24264249  0.60530736  0.75593938  1
  Te  Te132  1  0.24786795  0.90122842  0.05978081  1
  Te  Te133  1  0.21870145  0.91834833  0.43141271  1
  Te  Te134  1  0.24982353  0.91679565  0.73721266  1
  Te  Te135  1  0.60029389  0.25806779  0.07596084  1
  Te  Te136  1  0.57555890  0.25095400  0.41575868  1
  Te  Te137  1  0.59372424  0.25083453  0.73393575  1
  Te  Te138  1  0.64220426  0.55302425  0.13116066  1
  Te  Te139  1  0.59808592  0.63367566  0.38819987  1
  Te  Te140  1  0.56535270  0.57463733  0.73975640  1
  Te  Te141  1  0.58246045  0.88965420  0.07878616  1
  Te  Te142  1  0.57150465  0.89610888  0.40596622  1
  Te  Te143  1  0.59776872  0.91311415  0.76453940  1
  Te  Te144  1  0.89469393  0.29022488  0.09310824  1
  Te  Te145  1  0.91442516  0.24273851  0.42762097  1
  Te  Te146  1  0.91172747  0.25896611  0.75366127  1
  Te  Te147  1  0.90300726  0.59462144  0.08506315  1
  Te  Te148  1  0.89029299  0.54912421  0.37801562  1
  Te  Te149  1  0.90213897  0.58042700  0.77274667  1
  Te  Te150  1  0.90792997  0.89773369  0.06968457  1
  Te  Te151  1  0.92046602  0.93549344  0.39649119  1
  Te  Te152  1  0.92767981  0.90466769  0.77184661  1
  Te  Te153  1  0.22226852  0.06803681  0.27329964  1
  Te  Te154  1  0.24180878  0.08622482  0.57936889  1
  Te  Te155  1  0.27615820  0.06428219  0.92332856  1
  Te  Te156  1  0.26062985  0.41518817  0.24665160  1
  Te  Te157  1  0.27723042  0.44632338  0.55738625  1
  Te  Te158  1  0.25031988  0.40703265  0.92778043  1
  Te  Te159  1  0.24134602  0.74899587  0.23680386  1
  Te  Te160  1  0.26210767  0.74882144  0.58500853  1
  Te  Te161  1  0.21956738  0.78855965  0.91567194  1
  Te  Te162  1  0.57648177  0.08680261  0.24854665  1
  Te  Te163  1  0.57611503  0.08869393  0.58928875  1
  Te  Te164  1  0.59952131  0.06238295  0.92802446  1
  Te  Te165  1  0.60477110  0.43662642  0.27784016  1
  Te  Te166  1  0.60410202  0.44358615  0.58394305  1
  Te  Te167  1  0.59736454  0.41559186  0.91537864  1
  Te  Te168  1  0.60986971  0.74110433  0.27456594  1
  Te  Te169  1  0.55888119  0.74085127  0.58243618  1
  Te  Te170  1  0.58581344  0.75764266  0.90281197  1
  Te  Te171  1  0.92344949  0.08202951  0.25463297  1
  Te  Te172  1  0.92680433  0.07685534  0.57840488  1
  Te  Te173  1  0.90719536  0.07787723  0.90516030  1
  Te  Te174  1  0.89347771  0.40798176  0.21917816  1
  Te  Te175  1  0.91738871  0.40632423  0.57184712  1
  Te  Te176  1  0.95920529  0.41056253  0.94223064  1
  Te  Te177  1  0.92532389  0.76963755  0.23436708  1
  Te  Te178  1  0.91217654  0.74181495  0.58683173  1
  Te  Te179  1  0.93780752  0.76645191  0.95075839  1
