# generated using pymatgen
data_In2Te3
_symmetry_space_group_name_H-M   'P 1'
_cell_length_a   18.98283424
_cell_length_b   19.01586550
_cell_length_c   18.98827033
_cell_angle_alpha   89.68204011
_cell_angle_beta   89.97165141
_cell_angle_gamma   90.05088306
_symmetry_Int_Tables_number   1
_chemical_formula_structural   In2Te3
_chemical_formula_sum   'In72 Te108'
_cell_volume   6854.18221111
_cell_formula_units_Z   36
loop_
 _symmetry_equiv_pos_site_id
 _symmetry_equiv_pos_as_xyz
  1  'x, y, z'
loop_
 _atom_site_type_symbol
 _atom_site_label
 _atom_site_symmetry_multiplicity
 _atom_site_fract_x
 _atom_site_fract_y
 _atom_site_fract_z
 _atom_site_occupancy
  In  In0  1  0.67716497  0.83721268  0.50576853  1
  In  In1  1  0.50549731  0.49396360  -0.00035458  1
  In  In2  1  0.67161308  0.15380091  0.48955432  1
  In  In3  1  0.34882337  0.33581059  0.32169056  1
  In  In4  1  0.52989231  0.02142445  0.82270265  1
  In  In5  1  0.15428885  0.33964003  0.15965804  1
  In  In6  1  0.13863517  0.83175450  0.00258157  1
  In  In7  1  0.16213055  0.83000099  0.68964964  1
  In  In8  1  0.51157152  0.19493876  -0.00126346  1
  In  In9  1  0.32301805  0.83090332  0.17394206  1
  In  In10  1  -0.01990482  0.66910859  0.31815995  1
  In  In11  1  0.30498912  0.48961705  0.12390759  1
  In  In12  1  0.83489125  0.33206639  0.16558438  1
  In  In13  1  0.69992303  0.48015962  0.52675010  1
  In  In14  1  0.18130789  0.31662716  0.50586076  1
  In  In15  1  -0.00210016  0.15883277  0.14279663  1
  In  In16  1  0.83921579  0.49635799  0.68271641  1
  In  In17  1  0.72461991  -0.00168502  0.00210805  1
  In  In18  1  0.49804063  0.68890412  0.52173798  1
  In  In19  1  0.31663109  -0.05349205  0.63323846  1
  In  In20  1  0.34019682  0.15130827  0.49471173  1
  In  In21  1  0.32334104  0.33625590  0.68468457  1
  In  In22  1  0.84776251  0.33518152  0.50214191  1
  In  In23  1  0.51350072  0.35117896  0.82443057  1
  In  In24  1  0.15415182  -0.02975641  0.50311745  1
  In  In25  1  0.82522435  0.68416561  0.16567059  1
  In  In26  1  0.69739065  0.20488727  0.84129089  1
  In  In27  1  0.13569848  0.14028284  0.68926916  1
  In  In28  1  0.33641854  0.01608904  0.31303203  1
  In  In29  1  0.36443649  0.15660977  0.83163773  1
  In  In30  1  -0.02807072  0.68961287  -0.00034043  1
  In  In31  1  0.82446123  0.67764956  0.49853205  1
  In  In32  1  0.53194287  0.50124179  0.67088641  1
  In  In33  1  -0.00327933  0.01011591  0.33359702  1
  In  In34  1  -0.02209912  0.58750005  0.56355952  1
  In  In35  1  0.32414156  0.83395994  0.53212774  1
  In  In36  1  0.01773279  0.37260906  0.70956107  1
  In  In37  1  0.34587371  -0.01683106  -0.00298999  1
  In  In38  1  0.70981831  -0.02295757  0.68327426  1
  In  In39  1  -0.05044532  -0.04680434  -0.01150925  1
  In  In40  1  0.14367791  0.66334845  0.86222221  1
  In  In41  1  0.68230733  0.49511437  0.17278250  1
  In  In42  1  0.13593957  0.02719367  0.86758733  1
  In  In43  1  0.66381984  0.69297174  0.34134652  1
  In  In44  1  0.54342403  0.81925592  -0.01581557  1
  In  In45  1  0.29374632  0.64701203  0.67314826  1
  In  In46  1  0.14090720  0.17390881  0.01750591  1
  In  In47  1  0.52424845  0.51171778  0.34575938  1
  In  In48  1  0.81407140  0.18926506  0.32377351  1
  In  In49  1  0.00255790  0.82603042  0.50519463  1
  In  In50  1  0.00118130  0.33065817  0.30262959  1
  In  In51  1  0.33557762  0.64872273  -0.00808569  1
  In  In52  1  0.73091322  0.71376984  -0.08913567  1
  In  In53  1  0.13357047  0.51231852  0.33502292  1
  In  In54  1  0.65911106  0.33563572  0.32553154  1
  In  In55  1  0.32217196  0.47925121  0.49660776  1
  In  In56  1  0.30661930  0.64761257  0.32675557  1
  In  In57  1  0.84848560  0.17734909  0.65896789  1
  In  In58  1  0.50266424  0.84019550  0.67743422  1
  In  In59  1  0.01225459  0.14800073  0.51594546  1
  In  In60  1  0.49412936  0.84218061  0.34048382  1
  In  In61  1  0.15021925  0.50449896  -0.00145458  1
  In  In62  1  0.66779536  0.83976249  0.16487037  1
  In  In63  1  0.32630418  0.16708049  0.14861306  1
  In  In64  1  0.51913766  0.15562612  0.30818253  1
  In  In65  1  0.33249718  0.83976880  0.81245802  1
  In  In66  1  0.69802907  0.50149678  0.83823449  1
  In  In67  1  -0.04711813  0.19853315  0.88029770  1
  In  In68  1  0.68566311  0.01258799  0.30405042  1
  In  In69  1  0.48464517  0.64293845  0.14230688  1
  In  In70  1  0.14066032  0.84614264  0.32974453  1
  In  In71  1  0.50756298  0.15991992  0.64107424  1
  Te  Te72  1  0.05653958  0.05458020  0.05226764  1
  Te  Te73  1  0.10604079  0.08361119  0.41769392  1
  Te  Te74  1  0.02940920  0.09341259  0.78480778  1
  Te  Te75  1  0.05965757  0.41601684  0.07718217  1
  Te  Te76  1  0.08494304  0.39372607  0.41609157  1
  Te  Te77  1  0.12086494  0.38736321  0.81501604  1
  Te  Te78  1  0.05095656  0.76455357  0.10050815  1
  Te  Te79  1  0.07968718  0.73565149  0.41282529  1
  Te  Te80  1  0.06979096  0.74365120  0.76317015  1
  Te  Te81  1  0.42781801  0.08472887  0.07091208  1
  Te  Te82  1  0.43762342  0.07352860  0.41016698  1
  Te  Te83  1  0.42029064  0.06392435  0.72502947  1
  Te  Te84  1  0.41293600  0.40752338  0.07581242  1
  Te  Te85  1  0.43410253  0.41208416  0.42062487  1
  Te  Te86  1  0.41504144  0.43791092  0.74828787  1
  Te  Te87  1  0.42010327  0.76297099  0.07157097  1
  Te  Te88  1  0.40841822  0.73420803  0.40493102  1
  Te  Te89  1  0.40571149  0.73677263  0.73233796  1
  Te  Te90  1  0.80090744  0.10238580  0.07233720  1
  Te  Te91  1  0.77263378  0.07339377  0.41431085  1
  Te  Te92  1  0.76607583  0.09628442  0.75985164  1
  Te  Te93  1  0.77085934  0.43091582  0.07186308  1
  Te  Te94  1  0.76090957  0.41511948  0.40488101  1
  Te  Te95  1  0.75695761  0.39709689  0.75206673  1
  Te  Te96  1  0.73172249  0.74860212  0.06631839  1
  Te  Te97  1  0.77230586  0.77865601  0.39768872  1
  Te  Te98  1  0.79234455  0.74163731  0.77505477  1
  Te  Te99  1  0.09289466  0.22831291  0.24216346  1
  Te  Te100  1  0.07792294  0.25555146  0.60761337  1
  Te  Te101  1  0.08932487  0.25840854  0.90584724  1
  Te  Te102  1  0.04930471  0.57115036  0.23301016  1
  Te  Te103  1  0.08359247  0.56760475  0.66270969  1
  Te  Te104  1  0.03879058  0.57265465  0.92162044  1
  Te  Te105  1  0.08308223  0.94158974  0.23680115  1
  Te  Te106  1  0.06675231  0.92197226  0.61384038  1
  Te  Te107  1  0.05775847  0.90008635  0.89419464  1
  Te  Te108  1  0.42754149  0.24779407  0.22869022  1
  Te  Te109  1  0.40586472  0.25586871  0.58175194  1
  Te  Te110  1  0.41373684  0.27439341  0.91050226  1
  Te  Te111  1  0.41153901  0.56703002  0.25273680  1
  Te  Te112  1  0.40065262  0.58638407  0.57626318  1
  Te  Te113  1  0.43374634  0.58478019  0.90738675  1
  Te  Te114  1  0.42754078  0.92445640  0.23211577  1
  Te  Te115  1  0.44911476  0.91752038  0.55994046  1
  Te  Te116  1  0.43772422  0.91418446  0.89721485  1
  Te  Te117  1  0.71905127  0.24527966  0.22094105  1
  Te  Te118  1  0.74509105  0.25338805  0.57727878  1
  Te  Te119  1  0.74353500  0.23732743  0.98348174  1
  Te  Te120  1  0.74930061  0.59448915  0.26652429  1
  Te  Te121  1  0.75157554  0.59446097  0.60592628  1
  Te  Te122  1  0.79521042  0.57710421  0.92016968  1
  Te  Te123  1  0.77677805  0.92142584  0.22562392  1
  Te  Te124  1  0.78314740  0.89548680  0.58769331  1
  Te  Te125  1  0.73364528  0.89316422  0.89615483  1
  Te  Te126  1  0.24892904  0.26939964  0.06572544  1
  Te  Te127  1  0.26024578  0.24042143  0.40080566  1
  Te  Te128  1  0.25116582  0.22028208  0.75109380  1
  Te  Te129  1  0.22546064  0.60977397  0.08704821  1
  Te  Te130  1  0.22612169  0.57958655  0.43562847  1
  Te  Te131  1  0.24157926  0.57350398  0.79198152  1
  Te  Te132  1  0.23902901  0.91779131  0.08170231  1
  Te  Te133  1  0.26346349  0.91071515  0.40668444  1
  Te  Te134  1  0.23409064  0.94775134  0.77001833  1
  Te  Te135  1  0.61444513  0.27512238  0.06140706  1
  Te  Te136  1  0.57701865  0.24583331  0.41602885  1
  Te  Te137  1  0.58189180  0.24151818  0.74499010  1
  Te  Te138  1  0.60410730  0.58387135  0.07522562  1
  Te  Te139  1  0.59951387  0.59916027  0.44417442  1
  Te  Te140  1  0.60205054  0.58785109  0.76347622  1
  Te  Te141  1  0.59715210  0.93141324  0.06632562  1
  Te  Te142  1  0.60482073  0.92198554  0.40076275  1
  Te  Te143  1  0.60611158  0.90140425  0.77007336  1
  Te  Te144  1  0.94949367  0.28436898  0.07240467  1
  Te  Te145  1  0.92923983  0.23836314  0.41827969  1
  Te  Te146  1  0.90909936  0.27757162  0.75691547  1
  Te  Te147  1  0.88333821  0.58937986  0.06659541  1
  Te  Te148  1  0.91339435  0.57985498  0.42643958  1
  Te  Te149  1  0.94996653  0.58978059  0.72426540  1
  Te  Te150  1  0.86547137  0.90362848  0.09828762  1
  Te  Te151  1  0.92577760  0.91327949  0.41734792  1
  Te  Te152  1  0.84801233  0.88661859  0.80137711  1
  Te  Te153  1  0.23839758  0.07949278  0.22611476  1
  Te  Te154  1  0.24012564  0.07737673  0.58310322  1
  Te  Te155  1  0.25998697  0.09258508  0.93029311  1
  Te  Te156  1  0.24396927  0.42594442  0.25611166  1
  Te  Te157  1  0.22859305  0.42337726  0.60316484  1
  Te  Te158  1  0.23996142  0.44682410  0.89791894  1
  Te  Te159  1  0.22322435  0.74365110  0.24638417  1
  Te  Te160  1  0.21615059  0.73976216  0.58108265  1
  Te  Te161  1  0.25502527  0.76671717  0.91980291  1
  Te  Te162  1  0.59739651  0.08150080  0.21076922  1
  Te  Te163  1  0.61209944  0.06209219  0.59394239  1
  Te  Te164  1  0.61016019  0.09876381  0.92050236  1
  Te  Te165  1  0.56773598  0.41717576  0.23605919  1
  Te  Te166  1  0.58739773  0.40471957  0.57884281  1
  Te  Te167  1  0.60812471  0.41054427  0.92416109  1
  Te  Te168  1  0.56272197  0.74060614  0.23916158  1
  Te  Te169  1  0.60401072  0.75037806  0.60883959  1
  Te  Te170  1  0.57992871  0.71081994  0.89505616  1
  Te  Te171  1  0.90566141  0.09682292  0.24555852  1
  Te  Te172  1  0.91788184  0.06775861  0.59222550  1
  Te  Te173  1  0.87554246  0.07994384  0.94267710  1
  Te  Te174  1  0.90733186  0.42808065  0.25094079  1
  Te  Te175  1  0.93888916  0.42214013  0.58318395  1
  Te  Te176  1  0.85708532  0.33449995  0.95908481  1
  Te  Te177  1  0.93162594  0.77263642  0.22171194  1
  Te  Te178  1  0.92271437  0.73727831  0.59539218  1
  Te  Te179  1  0.89650949  0.76131733  0.89019636  1
