# generated using pymatgen
data_In2Te3
_symmetry_space_group_name_H-M   'P 1'
_cell_length_a   18.79061239
_cell_length_b   18.79442116
_cell_length_c   18.79119245
_cell_angle_alpha   90.10811913
_cell_angle_beta   89.93526217
_cell_angle_gamma   89.99770042
_symmetry_Int_Tables_number   1
_chemical_formula_structural   In2Te3
_chemical_formula_sum   'In72 Te108'
_cell_volume   6636.25672012
_cell_formula_units_Z   36
loop_
 _symmetry_equiv_pos_site_id
 _symmetry_equiv_pos_as_xyz
  1  'x, y, z'
loop_
 _atom_site_type_symbol
 _atom_site_label
 _atom_site_symmetry_multiplicity
 _atom_site_fract_x
 _atom_site_fract_y
 _atom_site_fract_z
 _atom_site_occupancy
  In  In0  1  -0.01116311  0.16921425  0.49380057  1
  In  In1  1  0.36033210  0.32694439  0.68034304  1
  In  In2  1  0.50584256  0.66259895  0.85480949  1
  In  In3  1  0.81622294  0.67452965  0.83287875  1
  In  In4  1  -0.00416510  0.19162514  0.83553639  1
  In  In5  1  0.82222421  0.31872912  0.49089834  1
  In  In6  1  0.19467575  0.83137556  0.66732803  1
  In  In7  1  -0.00612783  0.33775307  0.34082213  1
  In  In8  1  0.35988471  0.66295439  0.32253629  1
  In  In9  1  0.66035869  -0.01600885  0.69384773  1
  In  In10  1  0.66602384  0.34144563  0.65328836  1
  In  In11  1  0.17122512  0.15639849  0.66942828  1
  In  In12  1  0.65135076  0.82565675  0.18865924  1
  In  In13  1  0.15969743  0.33588603  0.47203183  1
  In  In14  1  0.34261901  0.82777171  0.15604779  1
  In  In15  1  0.01810137  0.51545382  0.84402393  1
  In  In16  1  0.49505365  0.00641894  0.86904971  1
  In  In17  1  0.15069070  0.85065036  0.32538949  1
  In  In18  1  0.31679601  0.14236212  0.86121044  1
  In  In19  1  0.83806855  0.48693281  -0.00135786  1
  In  In20  1  0.00429998  0.01941228  0.65036036  1
  In  In21  1  0.50193267  0.00850356  0.47284079  1
  In  In22  1  0.00803115  0.00513912  0.01118446  1
  In  In23  1  0.65242875  0.50635333  0.50641063  1
  In  In24  1  0.33426269  0.33945693  0.29800671  1
  In  In25  1  0.64277329  0.51008566  0.12517114  1
  In  In26  1  -0.00640072  0.17276741  0.16882532  1
  In  In27  1  0.81326061  0.66236439  0.49343213  1
  In  In28  1  0.66212501  0.15985221  0.16653117  1
  In  In29  1  0.01446060  0.49070982  0.16500446  1
  In  In30  1  0.50091381  0.00903543  0.17848474  1
  In  In31  1  0.83677473  0.85020575  0.01279939  1
  In  In32  1  0.80112046  0.02242427  0.46030020  1
  In  In33  1  0.82163754  0.86145552  0.33129539  1
  In  In34  1  -0.00402855  -0.00257587  0.30711967  1
  In  In35  1  -0.02226548  0.33653559  0.68456409  1
  In  In36  1  0.01732814  0.33679018  0.01787596  1
  In  In37  1  0.50360848  0.84310068  0.66259385  1
  In  In38  1  0.64277219  0.49684604  0.84049783  1
  In  In39  1  0.65034432  0.84470832  0.48325887  1
  In  In40  1  0.16443766  0.83654806  0.01959565  1
  In  In41  1  0.51502989  0.17787745  0.65798683  1
  In  In42  1  0.34429489  0.86413229  0.84040490  1
  In  In43  1  0.67226819  -0.00302001  0.00585978  1
  In  In44  1  -0.01375224  0.67045724  0.65833137  1
  In  In45  1  0.51127631  0.14712816  0.01525942  1
  In  In46  1  -0.01500384  0.67160827  0.32630157  1
  In  In47  1  0.18785555  0.52714652  0.66132086  1
  In  In48  1  0.82752750  0.49935492  0.30457204  1
  In  In49  1  0.47904659  0.33444457  0.14844033  1
  In  In50  1  0.17258717  0.65971244  0.47568580  1
  In  In51  1  0.49315266  0.50066758  0.32877398  1
  In  In52  1  0.82383548  0.67442956  0.17015386  1
  In  In53  1  0.31561575  0.64941214  0.67474520  1
  In  In54  1  0.33984795  -0.00397818  0.65968326  1
  In  In55  1  0.34766122  0.48680736  0.49121682  1
  In  In56  1  0.18512614  0.15420327  0.30990532  1
  In  In57  1  0.80419325  0.29888565  0.86820540  1
  In  In58  1  0.49991865  0.33490484  0.85322715  1
  In  In59  1  0.17659793  0.00360590  0.51578785  1
  In  In60  1  0.81643172  0.81727672  0.67478371  1
  In  In61  1  0.19375833  0.50283249  -0.00874364  1
  In  In62  1  0.83128016  0.01620975  0.84383761  1
  In  In63  1  0.64804487  0.29988525  0.32859675  1
  In  In64  1  0.48166806  0.67515453  0.50092762  1
  In  In65  1  0.35304403  0.66857158  0.00546377  1
  In  In66  1  0.17317556  0.65047750  0.83331473  1
  In  In67  1  0.82704114  0.47187975  0.64262439  1
  In  In68  1  0.15496937  0.67024671  0.14802096  1
  In  In69  1  -0.01425719  0.83458964  0.84983014  1
  In  In70  1  0.34726114  0.00552480  0.33070461  1
  In  In71  1  0.18313432  0.36275767  0.86444989  1
  Te  Te72  1  0.10003198  0.09312611  0.09391775  1
  Te  Te73  1  0.08910134  0.08274459  0.41648306  1
  Te  Te74  1  0.07982974  0.08275054  0.76754277  1
  Te  Te75  1  0.13000495  0.40481634  0.09949875  1
  Te  Te76  1  0.08489446  0.43854730  0.39975404  1
  Te  Te77  1  0.09193612  0.42145092  0.74421149  1
  Te  Te78  1  0.05767332  0.76473783  0.09139137  1
  Te  Te79  1  0.07080454  0.75866993  0.41897392  1
  Te  Te80  1  0.08513011  0.74820039  0.74919010  1
  Te  Te81  1  0.40514518  0.10380822  0.11265492  1
  Te  Te82  1  0.42670142  0.11186776  0.39767615  1
  Te  Te83  1  0.42348057  0.08461330  0.75484785  1
  Te  Te84  1  0.41039973  0.43208871  0.06161295  1
  Te  Te85  1  0.43237438  0.38970810  0.41228996  1
  Te  Te86  1  0.43358469  0.42758035  0.75712000  1
  Te  Te87  1  0.44877187  0.73312006  0.10294831  1
  Te  Te88  1  0.42690639  0.76851583  0.40102329  1
  Te  Te89  1  0.40401681  0.75798448  0.74540472  1
  Te  Te90  1  0.76244551  0.08944363  0.07761106  1
  Te  Te91  1  0.70632052  0.11889449  0.39205902  1
  Te  Te92  1  0.74441982  0.09087938  0.75086646  1
  Te  Te93  1  0.74961525  0.41442391  0.09075935  1
  Te  Te94  1  0.74255086  0.42464545  0.41186332  1
  Te  Te95  1  0.75937540  0.41303446  0.76618621  1
  Te  Te96  1  0.73574645  0.75421393  0.07577403  1
  Te  Te97  1  0.73564309  0.74694228  0.39304319  1
  Te  Te98  1  0.71524341  0.74802777  0.75539333  1
  Te  Te99  1  0.09183127  0.25908418  0.25136167  1
  Te  Te100  1  0.08058072  0.24965436  0.58896826  1
  Te  Te101  1  0.10964683  0.24150260  0.92957554  1
  Te  Te102  1  0.09054595  0.58477046  0.25817841  1
  Te  Te103  1  0.07723088  0.58334762  0.57152635  1
  Te  Te104  1  0.08305677  0.60304279  0.94829404  1
  Te  Te105  1  0.09375928  0.93222979  0.21709073  1
  Te  Te106  1  0.08486089  0.90509153  0.58743124  1
  Te  Te107  1  0.09235080  0.92129328  0.91185936  1
  Te  Te108  1  0.42472963  0.23370556  0.24302038  1
  Te  Te109  1  0.42142456  0.25054250  0.57029452  1
  Te  Te110  1  0.41418585  0.23386521  0.93263138  1
  Te  Te111  1  0.41979810  0.57224921  0.22227677  1
  Te  Te112  1  0.42113015  0.57093848  0.59473678  1
  Te  Te113  1  0.43229346  0.55942368  0.93815596  1
  Te  Te114  1  0.43164735  0.89759448  0.25919298  1
  Te  Te115  1  0.41490611  0.91084448  0.55966357  1
  Te  Te116  1  0.41951279  0.91424579  0.95773981  1
  Te  Te117  1  0.75407204  0.25367770  0.23872992  1
  Te  Te118  1  0.74697095  0.23623009  0.58676703  1
  Te  Te119  1  0.72250465  0.21377783  0.95628031  1
  Te  Te120  1  0.72007517  0.58751927  0.24090912  1
  Te  Te121  1  0.73883078  0.58921905  0.60476273  1
  Te  Te122  1  0.74177976  0.58025351  0.92573552  1
  Te  Te123  1  0.74310607  0.93429144  0.23035927  1
  Te  Te124  1  0.75012738  0.91797100  0.57681719  1
  Te  Te125  1  0.74583739  0.90564551  0.90361431  1
  Te  Te126  1  0.21581986  0.19777617  0.04367977  1
  Te  Te127  1  0.25979760  0.24653742  0.40585140  1
  Te  Te128  1  0.24941446  0.24785421  0.76419004  1
  Te  Te129  1  0.26825983  0.58158133  0.10099304  1
  Te  Te130  1  0.26203669  0.56604822  0.39437799  1
  Te  Te131  1  0.27549617  0.54842182  0.78597784  1
  Te  Te132  1  0.26967384  0.92882479  0.07210162  1
  Te  Te133  1  0.25304567  0.91659088  0.41730545  1
  Te  Te134  1  0.23910867  0.94363872  0.76208096  1
  Te  Te135  1  0.59490526  0.26334859  0.07283849  1
  Te  Te136  1  0.60754111  0.22254851  0.44649304  1
  Te  Te137  1  0.59516758  0.25639034  0.76033426  1
  Te  Te138  1  0.56707549  0.62249941  0.05507788  1
  Te  Te139  1  0.58067118  0.59933914  0.40792283  1
  Te  Te140  1  0.57499148  0.58808634  0.74641934  1
  Te  Te141  1  0.57244793  0.91388477  0.08250683  1
  Te  Te142  1  0.59501845  0.93515407  0.37983607  1
  Te  Te143  1  0.57214767  0.90044310  0.78639868  1
  Te  Te144  1  0.91189485  0.24972272  0.06964667  1
  Te  Te145  1  0.89591569  0.22898077  0.38967465  1
  Te  Te146  1  0.88263788  0.23564528  0.74369515  1
  Te  Te147  1  0.91736739  0.58173259  0.08995964  1
  Te  Te148  1  0.90792240  0.57255347  0.41365120  1
  Te  Te149  1  0.91131078  0.57323607  0.74964880  1
  Te  Te150  1  0.91416367  0.93623551  0.10365958  1
  Te  Te151  1  0.92143654  0.93166075  0.42406446  1
  Te  Te152  1  0.91770820  0.92086279  0.74383418  1
  Te  Te153  1  0.27266956  0.07442167  0.22032129  1
  Te  Te154  1  0.27645872  0.10466871  0.57144877  1
  Te  Te155  1  0.24366196  0.07076374  0.96896166  1
  Te  Te156  1  0.23665852  0.40765681  0.21511274  1
  Te  Te157  1  0.24906924  0.40813893  0.58502517  1
  Te  Te158  1  0.29751466  0.39613876  0.95757185  1
  Te  Te159  1  0.24331584  0.75064634  0.25127427  1
  Te  Te160  1  0.26537729  0.74401865  0.56341684  1
  Te  Te161  1  0.25420246  0.75260268  0.91348911  1
  Te  Te162  1  0.59662062  0.07611195  0.27604670  1
  Te  Te163  1  0.58971166  0.06662745  0.58524705  1
  Te  Te164  1  0.61117011  0.10264520  0.90285401  1
  Te  Te165  1  0.58553063  0.41482213  0.24093290  1
  Te  Te166  1  0.56287081  0.41228126  0.57548287  1
  Te  Te167  1  0.58304413  0.41473346  0.94819386  1
  Te  Te168  1  0.60550843  0.72313414  0.28379975  1
  Te  Te169  1  0.59108297  0.74614054  0.58354328  1
  Te  Te170  1  0.58683200  0.73546347  0.95416393  1
  Te  Te171  1  0.89898891  0.09451852  0.25622517  1
  Te  Te172  1  0.89132284  0.08548934  0.57525292  1
  Te  Te173  1  0.91729918  0.10377314  0.93318632  1
  Te  Te174  1  0.91009056  0.39765418  0.22680848  1
  Te  Te175  1  0.93441580  0.40762386  0.55723055  1
  Te  Te176  1  0.93317582  0.40124763  0.90264948  1
  Te  Te177  1  0.91422753  0.77500630  0.24153308  1
  Te  Te178  1  0.90752545  0.76054825  0.56460506  1
  Te  Te179  1  0.91290853  0.73508028  0.93426876  1
