# generated using pymatgen
data_In2Te3
_symmetry_space_group_name_H-M   'P 1'
_cell_length_a   18.79883627
_cell_length_b   18.79219117
_cell_length_c   18.79659491
_cell_angle_alpha   90.06156989
_cell_angle_beta   89.95652266
_cell_angle_gamma   90.03403107
_symmetry_Int_Tables_number   1
_chemical_formula_structural   In2Te3
_chemical_formula_sum   'In72 Te108'
_cell_volume   6640.29107371
_cell_formula_units_Z   36
loop_
 _symmetry_equiv_pos_site_id
 _symmetry_equiv_pos_as_xyz
  1  'x, y, z'
loop_
 _atom_site_type_symbol
 _atom_site_label
 _atom_site_symmetry_multiplicity
 _atom_site_fract_x
 _atom_site_fract_y
 _atom_site_fract_z
 _atom_site_occupancy
  In  In0  1  0.18284527  0.51175193  0.35783470  1
  In  In1  1  0.81428713  0.17383996  0.33514821  1
  In  In2  1  0.51894919  0.17088778  0.66015540  1
  In  In3  1  0.67383990  0.67823094  0.33682301  1
  In  In4  1  0.84852841  0.83026881  -0.03081426  1
  In  In5  1  0.82409779  0.82495245  0.32589907  1
  In  In6  1  -0.02480698  0.48754011  0.17894400  1
  In  In7  1  0.66115611  0.83107890  0.18257638  1
  In  In8  1  0.17068829  0.86825096  0.33785659  1
  In  In9  1  0.66637109  0.02140478  -0.01847722  1
  In  In10  1  0.82159829  0.15827914  0.66041732  1
  In  In11  1  0.15244491  0.66833699  0.16085815  1
  In  In12  1  0.16088285  0.34621433  0.16917478  1
  In  In13  1  0.34548731  0.33103829  -0.02677464  1
  In  In14  1  0.49497974  0.15333288  0.34334319  1
  In  In15  1  0.66616629  0.00585190  0.66242104  1
  In  In16  1  0.51302334  0.31094515  0.15371081  1
  In  In17  1  0.49928019  0.01574964  0.15641690  1
  In  In18  1  0.48731030  0.67999617  0.52424959  1
  In  In19  1  0.33357779  -0.00345148  0.35466470  1
  In  In20  1  -0.00053049  0.32257922  0.65255078  1
  In  In21  1  0.16778755  0.32605717  0.83244147  1
  In  In22  1  0.83260507  0.16274123  -0.02360237  1
  In  In23  1  0.29966200  0.49225151  0.17328129  1
  In  In24  1  0.49362156  0.68670167  0.81799712  1
  In  In25  1  0.00864710  0.69362301  -0.02552752  1
  In  In26  1  0.64033874  -0.01752079  0.35247641  1
  In  In27  1  0.68062789  0.83857376  0.81210586  1
  In  In28  1  0.65951329  0.66099820  0.68243999  1
  In  In29  1  0.18854399  0.18831957  0.34776901  1
  In  In30  1  -0.02622736  0.52463577  0.81892079  1
  In  In31  1  0.66707484  0.63636744  -0.00835556  1
  In  In32  1  0.34663209  0.50219708  0.51643717  1
  In  In33  1  -0.00614630  0.36049821  0.31454310  1
  In  In34  1  0.47764766  0.83327039  -0.01020408  1
  In  In35  1  0.34643375  0.49747760  0.83027434  1
  In  In36  1  0.81978893  -0.01588824  0.50532301  1
  In  In37  1  0.17525557  -0.01314851  0.15047175  1
  In  In38  1  0.18909708  -0.00299335  0.52095188  1
  In  In39  1  0.00621276  0.16925912  0.52154253  1
  In  In40  1  0.67006729  0.31399106  -0.00505330  1
  In  In41  1  0.16927495  0.31141912  0.50889109  1
  In  In42  1  0.69619552  0.48488492  0.82506430  1
  In  In43  1  0.00051525  0.31004922  -0.02874205  1
  In  In44  1  0.31764203  0.82782367  0.83032617  1
  In  In45  1  -0.00192854  0.82287050  0.52016705  1
  In  In46  1  0.50686411  0.31837456  0.81434907  1
  In  In47  1  0.17598059  0.17601296  -0.01534256  1
  In  In48  1  0.01172772  -0.01283816  0.72964752  1
  In  In49  1  0.16727737  0.52582050  0.66653842  1
  In  In50  1  0.82970573  0.48801411  -0.00803213  1
  In  In51  1  0.01172489  -0.02832651  -0.04884195  1
  In  In52  1  -0.02932125  0.82069947  0.12303712  1
  In  In53  1  0.65804970  0.47500406  0.51544746  1
  In  In54  1  -0.01575305  0.17430412  0.13448228  1
  In  In55  1  0.14052429  0.53915523  -0.00770311  1
  In  In56  1  0.33198844  0.16050147  0.83744567  1
  In  In57  1  0.34511152  -0.00436307  0.66742073  1
  In  In58  1  0.81694528  0.64802203  0.15329902  1
  In  In59  1  -0.00472776  0.02235866  0.32125329  1
  In  In60  1  0.50411068  0.85425921  0.67641455  1
  In  In61  1  0.33472948  0.83599557  0.15982268  1
  In  In62  1  -0.01276009  0.50969247  0.52507768  1
  In  In63  1  0.36653712  0.15329135  0.15724816  1
  In  In64  1  0.83134474  0.31910034  0.52266895  1
  In  In65  1  0.84727041  0.66836362  0.50575705  1
  In  In66  1  0.34518946  0.66821785  0.35325309  1
  In  In67  1  -0.00619368  0.67166236  0.37192893  1
  In  In68  1  0.49932311  0.33584442  0.52505034  1
  In  In69  1  0.50212582  0.50510955  0.33044142  1
  In  In70  1  0.65646290  0.32657313  0.33291656  1
  In  In71  1  0.50136183  0.51709760  0.00520610  1
  Te  Te72  1  0.08141232  0.07666256  0.06552132  1
  Te  Te73  1  0.09683168  0.07943001  0.41991202  1
  Te  Te74  1  0.10959050  0.08368675  0.78397792  1
  Te  Te75  1  0.07138050  0.41607598  0.06706453  1
  Te  Te76  1  0.08068785  0.41706486  0.43624603  1
  Te  Te77  1  0.07898738  0.42189526  0.75091925  1
  Te  Te78  1  0.10688436  0.77885264  0.06660890  1
  Te  Te79  1  0.10289549  0.75927001  0.42792775  1
  Te  Te80  1  0.12993684  0.79728861  0.74045778  1
  Te  Te81  1  0.39776369  0.05409821  0.05153453  1
  Te  Te82  1  0.42946635  0.06631431  0.44598863  1
  Te  Te83  1  0.43392846  0.08330952  0.75645063  1
  Te  Te84  1  0.40848283  0.41399110  0.08831737  1
  Te  Te85  1  0.41815614  0.41285508  0.41597546  1
  Te  Te86  1  0.40970624  0.40117940  0.73744568  1
  Te  Te87  1  0.41691734  0.73869191  0.08402985  1
  Te  Te88  1  0.44052666  0.77051963  0.41119054  1
  Te  Te89  1  0.39828335  0.75358441  0.72054633  1
  Te  Te90  1  0.74760003  0.09715650  0.07922970  1
  Te  Te91  1  0.73485343  0.08356706  0.42995883  1
  Te  Te92  1  0.74728806  0.07901954  0.76196895  1
  Te  Te93  1  0.71918744  0.43219013  0.07144216  1
  Te  Te94  1  0.75542034  0.40515472  0.42152028  1
  Te  Te95  1  0.78180149  0.41359455  0.72986799  1
  Te  Te96  1  0.75459202  0.76165892  0.07444906  1
  Te  Te97  1  0.74591703  0.76541101  0.44017060  1
  Te  Te98  1  0.76895350  0.73251198  0.75526647  1
  Te  Te99  1  0.07511671  0.23837000  0.24765749  1
  Te  Te100  1  0.11042576  0.22073702  0.61936233  1
  Te  Te101  1  0.06885828  0.21376714  0.87033742  1
  Te  Te102  1  0.08126627  0.57294022  0.25890780  1
  Te  Te103  1  0.07513647  0.61540861  0.58577188  1
  Te  Te104  1  0.09065052  0.61338747  0.87073670  1
  Te  Te105  1  0.06405056  0.91343728  0.23556076  1
  Te  Te106  1  0.07881878  0.92439506  0.59868971  1
  Te  Te107  1  0.11192923  0.87324711  0.88851380  1
  Te  Te108  1  0.41616368  0.25489994  0.25915610  1
  Te  Te109  1  0.40585627  0.24286065  0.59351554  1
  Te  Te110  1  0.44628081  0.22657356  0.93103105  1
  Te  Te111  1  0.40432598  0.58316135  0.24252187  1
  Te  Te112  1  0.42209484  0.58299238  0.61418132  1
  Te  Te113  1  0.41058246  0.60502550  0.91922121  1
  Te  Te114  1  0.42061931  0.92422570  0.25082923  1
  Te  Te115  1  0.43635630  0.93039522  0.56659092  1
  Te  Te116  1  0.42694056  0.91875335  0.88155800  1
  Te  Te117  1  0.73561876  0.24759606  0.23518397  1
  Te  Te118  1  0.72332567  0.24778087  0.59250041  1
  Te  Te119  1  0.74532338  0.24629042  0.88738239  1
  Te  Te120  1  0.75251699  0.57636584  0.26325953  1
  Te  Te121  1  0.74452375  0.58228945  0.58202149  1
  Te  Te122  1  0.77947134  0.59851602  0.89929538  1
  Te  Te123  1  0.75278004  0.93287111  0.24967777  1
  Te  Te124  1  0.75193064  0.89884596  0.60297465  1
  Te  Te125  1  0.76325319  0.93564547  0.89709599  1
  Te  Te126  1  0.25612517  0.24994108  0.09276554  1
  Te  Te127  1  0.28347759  0.23650718  0.44892061  1
  Te  Te128  1  0.28045306  0.27123083  0.75340098  1
  Te  Te129  1  0.25647797  0.59929611  0.07195872  1
  Te  Te130  1  0.25021492  0.60698924  0.45498235  1
  Te  Te131  1  0.25949868  0.59903546  0.76040481  1
  Te  Te132  1  0.28128863  0.93444299  0.05936828  1
  Te  Te133  1  0.27069148  0.88830641  0.45034078  1
  Te  Te134  1  0.23611172  0.91870383  0.73932887  1
  Te  Te135  1  0.58320406  0.20966978  0.06702777  1
  Te  Te136  1  0.58154360  0.24243216  0.43321603  1
  Te  Te137  1  0.61723530  0.24102036  0.75060374  1
  Te  Te138  1  0.58154824  0.59434140  0.10298259  1
  Te  Te139  1  0.57920437  0.58496688  0.43531154  1
  Te  Te140  1  0.57638801  0.56820912  0.76878869  1
  Te  Te141  1  0.58850830  0.91397632  0.07402867  1
  Te  Te142  1  0.55244487  0.88216498  0.41086966  1
  Te  Te143  1  0.57305604  0.94089812  0.77981714  1
  Te  Te144  1  0.89376836  0.27737942  0.07381455  1
  Te  Te145  1  0.92970312  0.24848922  0.41667230  1
  Te  Te146  1  0.90436765  0.25378861  0.74085428  1
  Te  Te147  1  0.93578817  0.59089265  0.06462531  1
  Te  Te148  1  0.90047468  0.55927353  0.40767922  1
  Te  Te149  1  0.91177907  0.62346150  0.72851811  1
  Te  Te150  1  0.90516611  0.94023273  0.06284592  1
  Te  Te151  1  0.92671730  0.91409315  0.40808044  1
  Te  Te152  1  0.90576690  0.89479291  0.76939466  1
  Te  Te153  1  0.24918281  0.08091257  0.24772135  1
  Te  Te154  1  0.25947926  0.09846785  0.60008669  1
  Te  Te155  1  0.22913723  0.06717314  0.89543784  1
  Te  Te156  1  0.25065100  0.39647734  0.28315780  1
  Te  Te157  1  0.24468225  0.41677643  0.59239894  1
  Te  Te158  1  0.23534208  0.42918735  0.92888246  1
  Te  Te159  1  0.24111549  0.74815375  0.25873664  1
  Te  Te160  1  0.19529595  0.70813110  0.64494759  1
  Te  Te161  1  0.22052377  0.77100376  0.92842917  1
  Te  Te162  1  0.59638100  0.08790341  0.25007045  1
  Te  Te163  1  0.56854002  0.06368024  0.56619729  1
  Te  Te164  1  0.56380206  0.11927157  0.93707237  1
  Te  Te165  1  0.58514050  0.42067217  0.23455672  1
  Te  Te166  1  0.58078397  0.41182815  0.62336251  1
  Te  Te167  1  0.57592020  0.41960471  0.91440176  1
  Te  Te168  1  0.56905254  0.74188881  0.25426538  1
  Te  Te169  1  0.59489297  0.76487657  0.59141576  1
  Te  Te170  1  0.59767824  0.75096886  0.91514059  1
  Te  Te171  1  0.89731028  0.09180909  0.23077420  1
  Te  Te172  1  0.92650529  0.06048882  0.58940403  1
  Te  Te173  1  0.92649756  0.07868529  0.89505664  1
  Te  Te174  1  0.87314864  0.39973916  0.23783393  1
  Te  Te175  1  0.88953535  0.43518049  0.61770189  1
  Te  Te176  1  0.90947229  0.40574700  0.89163598  1
  Te  Te177  1  0.92548565  0.73488640  0.24534445  1
  Te  Te178  1  0.92361589  0.73685344  0.61917619  1
  Te  Te179  1  0.94349771  0.77646472  0.86362894  1
