# generated using pymatgen
data_In2Te3
_symmetry_space_group_name_H-M   'P 1'
_cell_length_a   18.91635293
_cell_length_b   18.91102091
_cell_length_c   18.92097335
_cell_angle_alpha   90.00932737
_cell_angle_beta   89.98209676
_cell_angle_gamma   90.11714557
_symmetry_Int_Tables_number   1
_chemical_formula_structural   In2Te3
_chemical_formula_sum   'In72 Te108'
_cell_volume   6768.53879639
_cell_formula_units_Z   36
loop_
 _symmetry_equiv_pos_site_id
 _symmetry_equiv_pos_as_xyz
  1  'x, y, z'
loop_
 _atom_site_type_symbol
 _atom_site_label
 _atom_site_symmetry_multiplicity
 _atom_site_fract_x
 _atom_site_fract_y
 _atom_site_fract_z
 _atom_site_occupancy
  In  In0  1  0.67714597  0.01873973  0.31440660  1
  In  In1  1  0.47959415  0.67110559  0.50969517  1
  In  In2  1  -0.00483667  0.64726816  0.62172763  1
  In  In3  1  0.64697139  0.32992252  0.68022185  1
  In  In4  1  0.47722169  0.21882916  0.03927861  1
  In  In5  1  0.35640802  -0.01528930  0.00337540  1
  In  In6  1  0.65837072  0.48175743  0.51625941  1
  In  In7  1  0.35173938  0.04424545  0.31812808  1
  In  In8  1  0.51493128  0.86572891  0.33716230  1
  In  In9  1  0.83055769  0.34776620  0.49746256  1
  In  In10  1  0.50867064  0.47866367  -0.00984749  1
  In  In11  1  0.83215978  0.83254863  0.02214017  1
  In  In12  1  0.00647426  0.34979092  0.32867595  1
  In  In13  1  0.33755423  0.64821992  0.01839669  1
  In  In14  1  0.31609314  -0.00620351  0.63772395  1
  In  In15  1  0.81790462  0.66191790  0.85107253  1
  In  In16  1  0.30846287  0.66183483  0.31545988  1
  In  In17  1  0.02753652  0.01234746  0.66423350  1
  In  In18  1  0.47977916  0.61643845  0.82360187  1
  In  In19  1  0.02702706  0.50881654  0.48058833  1
  In  In20  1  0.31626540  0.18076640  0.79577560  1
  In  In21  1  0.51064622  0.84183744  0.00760350  1
  In  In22  1  0.82709317  0.33352941  0.16630558  1
  In  In23  1  0.00873785  0.67269077  -0.00493651  1
  In  In24  1  0.48946538  0.48430018  0.32237329  1
  In  In25  1  0.84166496  -0.01716510  0.49693342  1
  In  In26  1  0.66466663  0.81515909  0.84164350  1
  In  In27  1  0.51264400  0.00817265  0.84916844  1
  In  In28  1  0.82059284  0.50470596  -0.00391377  1
  In  In29  1  0.16455155  0.81675236  0.00233302  1
  In  In30  1  0.18394906  0.00502069  0.82757636  1
  In  In31  1  0.45188589  0.18877180  0.66498719  1
  In  In32  1  0.13962470  0.64897317  0.48252592  1
  In  In33  1  0.01791354  0.17195185  0.15284142  1
  In  In34  1  0.82615753  0.17053245  0.00711100  1
  In  In35  1  0.32010438  0.84293220  0.48461631  1
  In  In36  1  0.15544543  0.83503085  0.32871763  1
  In  In37  1  0.32723503  0.45287470  0.52399152  1
  In  In38  1  0.64663713  0.18458191  0.49433897  1
  In  In39  1  0.83654508  0.50093433  0.66213621  1
  In  In40  1  0.67650626  0.67912614  0.01261826  1
  In  In41  1  0.49616511  0.01481143  0.47238054  1
  In  In42  1  0.00933007  0.20706990  0.85729383  1
  In  In43  1  0.28254419  0.44419731  0.13575690  1
  In  In44  1  0.01237234  0.01719282  0.35061599  1
  In  In45  1  0.00290166  0.52042137  0.17024768  1
  In  In46  1  0.47589912  0.34303076  0.82142591  1
  In  In47  1  0.18066084  0.01872222  0.17381874  1
  In  In48  1  0.85448449  0.01396101  0.82902942  1
  In  In49  1  0.64126528  0.65818767  0.67704113  1
  In  In50  1  0.18569511  0.48847733  0.33281931  1
  In  In51  1  0.17309532  0.05330595  0.49121769  1
  In  In52  1  0.15053794  0.83559326  0.64930612  1
  In  In53  1  0.83783056  0.19529206  0.33545277  1
  In  In54  1  0.51726106  0.01316053  0.17369586  1
  In  In55  1  0.83194260  0.31525876  0.83936489  1
  In  In56  1  0.02505994  0.49409016  0.82756809  1
  In  In57  1  0.68697015  0.02837149  0.66096786  1
  In  In58  1  0.83582730  0.13987056  0.66893415  1
  In  In59  1  0.49560966  0.67932499  0.19066672  1
  In  In60  1  0.64434838  0.49203179  0.18561847  1
  In  In61  1  0.83514102  -0.00277794  0.15320689  1
  In  In62  1  0.68312512  0.65380602  0.34553993  1
  In  In63  1  0.02061981  0.84938450  0.81812370  1
  In  In64  1  0.85500987  0.68209714  0.48105608  1
  In  In65  1  0.66318916  0.01023278  -0.00060662  1
  In  In66  1  0.18097795  0.64402959  0.83098116  1
  In  In67  1  0.31712221  0.62637842  0.66054419  1
  In  In68  1  0.05207001  0.31294691  0.63811093  1
  In  In69  1  0.51029597  0.80509189  0.67239240  1
  In  In70  1  0.64071146  0.34559175  0.33508677  1
  In  In71  1  0.05712814  0.35125695  -0.00341389  1
  Te  Te72  1  0.10926623  0.09392360  0.06775223  1
  Te  Te73  1  0.10123232  0.12849094  0.38768893  1
  Te  Te74  1  0.08569951  0.10421872  0.76878837  1
  Te  Te75  1  0.09506265  0.40734723  0.13104756  1
  Te  Te76  1  0.11273635  0.39397829  0.42785579  1
  Te  Te77  1  0.09607484  0.37659293  0.76696975  1
  Te  Te78  1  0.06619360  0.76073159  0.09659966  1
  Te  Te79  1  0.06183158  0.76453640  0.42450145  1
  Te  Te80  1  0.08546283  0.73210561  0.74474360  1
  Te  Te81  1  0.41227380  0.09088735  0.09639997  1
  Te  Te82  1  0.37967120  0.10776887  0.45322880  1
  Te  Te83  1  0.41209281  0.05966034  0.74527072  1
  Te  Te84  1  0.40271720  0.39323206  0.05692734  1
  Te  Te85  1  0.39833432  0.39368151  0.40128412  1
  Te  Te86  1  0.36929487  0.41233846  0.74515453  1
  Te  Te87  1  0.41398681  0.76100767  0.09226875  1
  Te  Te88  1  0.41444002  0.75543612  0.39890845  1
  Te  Te89  1  0.40453577  0.72256314  0.74297616  1
  Te  Te90  1  0.73256004  0.09747582  0.10237192  1
  Te  Te91  1  0.75768305  0.10310244  0.42837470  1
  Te  Te92  1  0.73892310  0.10109074  0.78375493  1
  Te  Te93  1  0.73207617  0.41694371  0.08270035  1
  Te  Te94  1  0.74723478  0.43159105  0.40313419  1
  Te  Te95  1  0.75172470  0.41526676  0.75268251  1
  Te  Te96  1  0.76141550  0.74297365  0.11356444  1
  Te  Te97  1  0.76627983  0.76338004  0.39782482  1
  Te  Te98  1  0.75294169  0.74434912  0.74108002  1
  Te  Te99  1  0.09288610  0.27960580  0.22718813  1
  Te  Te100  1  0.10832732  0.19868497  0.56399553  1
  Te  Te101  1  0.13434119  0.23028830  0.93881260  1
  Te  Te102  1  0.09972774  0.59109948  0.26421629  1
  Te  Te103  1  0.11103110  0.55534799  0.60122053  1
  Te  Te104  1  0.10181572  0.56814440  0.93690130  1
  Te  Te105  1  0.07513482  0.93084069  0.24161963  1
  Te  Te106  1  0.09199269  0.93285609  0.55223702  1
  Te  Te107  1  0.09220304  0.92899367  0.92212992  1
  Te  Te108  1  0.35511953  0.24963164  0.21929066  1
  Te  Te109  1  0.37894546  0.28768484  0.57529200  1
  Te  Te110  1  0.39600746  0.24576096  0.90764643  1
  Te  Te111  1  0.39989998  0.56937420  0.23387417  1
  Te  Te112  1  0.42933493  0.55287735  0.58844539  1
  Te  Te113  1  0.38766905  0.54424648  0.91964623  1
  Te  Te114  1  0.41195354  0.92485428  0.24459998  1
  Te  Te115  1  0.42960180  0.90190280  0.57434597  1
  Te  Te116  1  0.42122864  0.89612724  0.89725076  1
  Te  Te117  1  0.72694151  0.25203402  0.24945101  1
  Te  Te118  1  0.75500176  0.25306582  0.58999820  1
  Te  Te119  1  0.73371171  0.25658469  0.93100942  1
  Te  Te120  1  0.74773646  0.58392239  0.23390957  1
  Te  Te121  1  0.74890193  0.58971536  0.57628411  1
  Te  Te122  1  0.71307424  0.57159801  0.91000263  1
  Te  Te123  1  0.76883357  0.91852860  0.25939642  1
  Te  Te124  1  0.75394942  0.91715884  0.59570225  1
  Te  Te125  1  0.75204873  0.92017982  0.91110714  1
  Te  Te126  1  0.27992351  0.29465704  0.09830477  1
  Te  Te127  1  0.30728476  0.24564103  0.45101792  1
  Te  Te128  1  0.25786897  0.30559220  0.73530895  1
  Te  Te129  1  0.23672625  0.58269885  0.10310932  1
  Te  Te130  1  0.27208191  0.57517132  0.43508773  1
  Te  Te131  1  0.25755065  0.53550182  0.76174674  1
  Te  Te132  1  0.25146154  0.91427803  0.08503474  1
  Te  Te133  1  0.25147085  0.94274391  0.39527627  1
  Te  Te134  1  0.25327553  0.90018676  0.74122231  1
  Te  Te135  1  0.58436626  0.26367486  0.12740370  1
  Te  Te136  1  0.55055428  0.25621252  0.41034654  1
  Te  Te137  1  0.56527250  0.22936986  0.75683277  1
  Te  Te138  1  0.56716117  0.59104196  0.08603356  1
  Te  Te139  1  0.56522406  0.57518101  0.41825238  1
  Te  Te140  1  0.57368152  0.54378899  0.73760121  1
  Te  Te141  1  0.60661860  0.91089275  0.10055857  1
  Te  Te142  1  0.61333202  0.93267850  0.43033788  1
  Te  Te143  1  0.58984774  0.91359260  0.75022132  1
  Te  Te144  1  0.92604968  0.26956943  0.07048249  1
  Te  Te145  1  0.93503511  0.25974253  0.43131139  1
  Te  Te146  1  0.92251578  0.24917873  0.73268345  1
  Te  Te147  1  0.90620637  0.59768880  0.08050913  1
  Te  Te148  1  0.91714005  0.57196968  0.39780137  1
  Te  Te149  1  0.91958082  0.58784669  0.75755379  1
  Te  Te150  1  0.93178013  0.92923916  0.06677068  1
  Te  Te151  1  0.90968953  0.91630731  0.38443862  1
  Te  Te152  1  0.92134715  0.92204783  0.72925334  1
  Te  Te153  1  0.25296797  0.13164817  0.24698051  1
  Te  Te154  1  0.22793356  0.11303590  0.61944238  1
  Te  Te155  1  0.28180475  0.08106200  0.91372908  1
  Te  Te156  1  0.28230568  0.38212415  0.28025204  1
  Te  Te157  1  0.22545903  0.36709942  0.59072114  1
  Te  Te158  1  0.18642928  0.37540905  0.92906457  1
  Te  Te159  1  0.23740726  0.75849677  0.23324780  1
  Te  Te160  1  0.24907297  0.74292097  0.57462322  1
  Te  Te161  1  0.26217968  0.73920824  0.91587349  1
  Te  Te162  1  0.55772351  0.10035688  0.28640449  1
  Te  Te163  1  0.56800523  0.09298077  0.58981695  1
  Te  Te164  1  0.55973061  0.10715367  0.95008895  1
  Te  Te165  1  0.53668613  0.38180917  0.21132106  1
  Te  Te166  1  0.56643458  0.38035860  0.56818785  1
  Te  Te167  1  0.58665610  0.38367922  0.91091612  1
  Te  Te168  1  0.59671514  0.76047701  0.26543131  1
  Te  Te169  1  0.59791486  0.75130945  0.56063075  1
  Te  Te170  1  0.56072263  0.72763706  0.90991353  1
  Te  Te171  1  0.91541801  0.10207812  0.24463133  1
  Te  Te172  1  0.93247287  0.08390619  0.56757652  1
  Te  Te173  1  0.93301878  0.09466324  0.92896056  1
  Te  Te174  1  0.90536117  0.43164744  0.25159510  1
  Te  Te175  1  0.93779311  0.41726892  0.58650507  1
  Te  Te176  1  0.91945577  0.42241385  0.91425379  1
  Te  Te177  1  0.98190487  0.68389309  0.31493583  1
  Te  Te178  1  0.92543080  0.76694687  0.57908547  1
  Te  Te179  1  0.91749416  0.76513480  0.90312933  1
