# generated using pymatgen
data_In2Te3
_symmetry_space_group_name_H-M   'P 1'
_cell_length_a   18.87650468
_cell_length_b   18.88455691
_cell_length_c   18.88565216
_cell_angle_alpha   89.94507548
_cell_angle_beta   90.08358307
_cell_angle_gamma   90.07057284
_symmetry_Int_Tables_number   1
_chemical_formula_structural   In2Te3
_chemical_formula_sum   'In72 Te108'
_cell_volume   6732.23668009
_cell_formula_units_Z   36
loop_
 _symmetry_equiv_pos_site_id
 _symmetry_equiv_pos_as_xyz
  1  'x, y, z'
loop_
 _atom_site_type_symbol
 _atom_site_label
 _atom_site_symmetry_multiplicity
 _atom_site_fract_x
 _atom_site_fract_y
 _atom_site_fract_z
 _atom_site_occupancy
  In  In0  1  0.81798115  0.14739865  0.35007932  1
  In  In1  1  0.83508593  0.53019254  0.34410939  1
  In  In2  1  0.34609712  0.17013061  0.48402519  1
  In  In3  1  0.83054684  0.82297990  -0.01282339  1
  In  In4  1  0.81773060  0.85294690  0.33912543  1
  In  In5  1  0.33126966  0.51622390  0.16527552  1
  In  In6  1  0.67408439  0.82543689  0.82836880  1
  In  In7  1  -0.02665030  0.34462848  0.33803140  1
  In  In8  1  0.81624463  0.34126176  0.52660653  1
  In  In9  1  0.15933016  0.34952684  0.13440468  1
  In  In10  1  0.81470043  0.16713463  0.68304409  1
  In  In11  1  0.36149613  0.34714801  0.31450893  1
  In  In12  1  0.52199359  0.85737133  -0.02699352  1
  In  In13  1  0.31066010  0.53250044  0.80804690  1
  In  In14  1  0.00336872  0.35823512  -0.02198116  1
  In  In15  1  0.16478671  0.33995984  0.51002611  1
  In  In16  1  0.12793482  0.17491134  0.36473023  1
  In  In17  1  -0.00102310  0.52876868  0.49392277  1
  In  In18  1  0.80198376  0.15451092  -0.00044509  1
  In  In19  1  0.53830969  0.11986528  0.65788608  1
  In  In20  1  0.52134899  0.81771331  0.67242327  1
  In  In21  1  0.67414752  0.65872975  0.00882494  1
  In  In22  1  0.13909875  0.80544068  -0.00616521  1
  In  In23  1  0.16844432  0.12890485  0.00009648  1
  In  In24  1  0.50054020  0.51483239  0.36627900  1
  In  In25  1  0.34407191  -0.03529487  -0.02295608  1
  In  In26  1  0.17683580  -0.01554440  0.82617393  1
  In  In27  1  0.34800623  0.55499824  0.55152323  1
  In  In28  1  0.34215510  0.01739801  0.34315710  1
  In  In29  1  0.17340112  0.66063480  0.51380078  1
  In  In30  1  0.50395757  0.82860039  0.34989765  1
  In  In31  1  0.82663540  0.51465619  0.66640979  1
  In  In32  1  0.34718395  0.29795182  -0.03412329  1
  In  In33  1  0.51433495  0.34132962  0.50944201  1
  In  In34  1  0.15617287  0.52303656  -0.02594945  1
  In  In35  1  0.18745671  0.17270206  0.66623838  1
  In  In36  1  0.35195076  0.00018651  0.65630332  1
  In  In37  1  0.52456339  0.68712498  0.17147826  1
  In  In38  1  0.15297753  -0.02079678  0.19673547  1
  In  In39  1  0.33709515  0.81352079  0.50550765  1
  In  In40  1  0.66198774  0.32997303  -0.02101663  1
  In  In41  1  0.82228061  -0.01884467  0.50327445  1
  In  In42  1  0.84112127  0.33314647  0.15298017  1
  In  In43  1  0.67712523  0.49943884  0.18624366  1
  In  In44  1  0.51644333  0.33253730  0.82340921  1
  In  In45  1  0.03201865  0.15576854  0.50008613  1
  In  In46  1  0.51314494  0.63964519  0.79240599  1
  In  In47  1  0.32918721  0.69304529  -0.02315795  1
  In  In48  1  0.13066040  -0.02498802  0.51132751  1
  In  In49  1  0.65912179  0.14847716  0.84055400  1
  In  In50  1  0.32840112  0.34534430  0.65955969  1
  In  In51  1  0.83781695  0.81483009  0.66967492  1
  In  In52  1  0.68094180  0.14352253  0.18184816  1
  In  In53  1  0.67752692  0.51295629  0.50267652  1
  In  In54  1  0.33199290  0.11459470  0.14297769  1
  In  In55  1  -0.02115873  0.01291127  0.01518927  1
  In  In56  1  0.66862557  0.83170003  0.51453472  1
  In  In57  1  0.00220073  0.81473970  0.81810415  1
  In  In58  1  0.30480376  0.81964125  0.16254775  1
  In  In59  1  0.51728011  0.33767225  0.16593614  1
  In  In60  1  0.13758770  0.67513249  0.18301267  1
  In  In61  1  -0.01225422  0.67726537  0.32921315  1
  In  In62  1  0.50141306  0.46713296  -0.01650024  1
  In  In63  1  -0.01698300  -0.01873603  0.66995353  1
  In  In64  1  0.15308585  0.83694630  0.32560905  1
  In  In65  1  -0.01760096  0.52730553  0.81050458  1
  In  In66  1  0.52055015  -0.02713946  0.16359492  1
  In  In67  1  0.16365168  0.34976269  0.81743133  1
  In  In68  1  0.50660072  0.18857933  0.34744928  1
  In  In69  1  -0.04051724  0.17218997  0.19981031  1
  In  In70  1  0.85172940  0.53923072  -0.00058688  1
  In  In71  1  -0.01200314  0.17368009  0.82998842  1
  Te  Te72  1  0.07657587  0.08891687  0.11635231  1
  Te  Te73  1  0.05712211  0.04271667  0.39624555  1
  Te  Te74  1  0.08535544  0.08532321  0.74237365  1
  Te  Te75  1  0.06294933  0.45587257  0.08012385  1
  Te  Te76  1  0.07883768  0.42246714  0.41504754  1
  Te  Te77  1  0.08129867  0.44144827  0.74016969  1
  Te  Te78  1  0.04231065  0.72199303  0.07614690  1
  Te  Te79  1  0.08285229  0.74959285  0.42572163  1
  Te  Te80  1  0.11793700  0.72302280  0.78427789  1
  Te  Te81  1  0.44330371  0.05774899  0.05847948  1
  Te  Te82  1  0.45004867  0.07284145  0.43445827  1
  Te  Te83  1  0.42684838  0.08650285  0.74662321  1
  Te  Te84  1  0.40303409  0.40323114  0.08623220  1
  Te  Te85  1  0.40362776  0.42271734  0.44186093  1
  Te  Te86  1  0.40930963  0.42347187  0.76113338  1
  Te  Te87  1  0.41963878  0.76280267  0.07980183  1
  Te  Te88  1  0.41424397  0.73052047  0.41177560  1
  Te  Te89  1  0.41742088  0.74243176  0.74982398  1
  Te  Te90  1  0.75932640  0.05124718  0.09673424  1
  Te  Te91  1  0.72087436  0.07733073  0.44030988  1
  Te  Te92  1  0.73570360  0.06217164  0.74902249  1
  Te  Te93  1  0.74797665  0.42214863  0.07130074  1
  Te  Te94  1  0.75520706  0.41825392  0.41017946  1
  Te  Te95  1  0.71455617  0.42715809  0.70828550  1
  Te  Te96  1  0.76716534  0.73555676  0.09244279  1
  Te  Te97  1  0.76659001  0.75050878  0.43578534  1
  Te  Te98  1  0.74616681  0.72484265  0.74600799  1
  Te  Te99  1  0.07681101  0.27086825  0.24360618  1
  Te  Te100  1  0.07827009  0.25975627  0.60521693  1
  Te  Te101  1  0.09830477  0.24483994  0.92107290  1
  Te  Te102  1  0.08609548  0.57919427  0.28041981  1
  Te  Te103  1  0.07138413  0.59789316  0.60209715  1
  Te  Te104  1  0.06561697  0.61499089  0.90162365  1
  Te  Te105  1  0.05159917  0.87622994  0.22427416  1
  Te  Te106  1  0.09225511  0.88513317  0.62520917  1
  Te  Te107  1  0.06849181  0.92623020  0.91670507  1
  Te  Te108  1  0.41447304  0.22907254  0.23033623  1
  Te  Te109  1  0.42272049  0.24602594  0.59065358  1
  Te  Te110  1  0.47093207  0.22517484  0.92329441  1
  Te  Te111  1  0.43160363  0.59085590  0.24956583  1
  Te  Te112  1  0.46224151  0.59070488  0.64178231  1
  Te  Te113  1  0.41049426  0.57635878  0.92172776  1
  Te  Te114  1  0.39513374  0.91770998  0.24106040  1
  Te  Te115  1  0.43483766  0.90800259  0.57278343  1
  Te  Te116  1  0.42082442  0.89555717  0.87301543  1
  Te  Te117  1  0.75843246  0.25335275  0.25348428  1
  Te  Te118  1  0.73129361  0.23590425  0.58116860  1
  Te  Te119  1  0.76205081  0.25661032  0.89475044  1
  Te  Te120  1  0.75636860  0.60991207  0.24446047  1
  Te  Te121  1  0.76897956  0.61274178  0.56761762  1
  Te  Te122  1  0.75073145  0.58812503  0.90478601  1
  Te  Te123  1  0.76845218  0.96778641  0.25665584  1
  Te  Te124  1  0.74157424  0.92030552  0.61729815  1
  Te  Te125  1  0.73144533  0.91683895  0.92875371  1
  Te  Te126  1  0.25467477  0.23719084  0.07974083  1
  Te  Te127  1  0.25679854  0.26767571  0.40751994  1
  Te  Te128  1  0.26987117  0.25069326  0.76624340  1
  Te  Te129  1  0.24318310  0.60564260  0.07777512  1
  Te  Te130  1  0.26466845  0.57628154  0.43291175  1
  Te  Te131  1  0.21825084  0.61646433  0.72949561  1
  Te  Te132  1  0.22586920  0.91688464  0.07017876  1
  Te  Te133  1  0.24890779  0.92075180  0.41853026  1
  Te  Te134  1  0.24338549  0.91591991  0.71325675  1
  Te  Te135  1  0.60321621  0.24189370  0.08857907  1
  Te  Te136  1  0.60515456  0.26675832  0.42221892  1
  Te  Te137  1  0.59513124  0.24149723  0.73290616  1
  Te  Te138  1  0.56979114  0.55889917  0.08735880  1
  Te  Te139  1  0.59300476  0.61121092  0.42730919  1
  Te  Te140  1  0.60536504  0.56497474  0.70228140  1
  Te  Te141  1  0.61022053  0.88338068  0.08840148  1
  Te  Te142  1  0.59697496  0.92120179  0.41823711  1
  Te  Te143  1  0.58492045  0.92048615  0.75800373  1
  Te  Te144  1  0.92631827  0.24604817  0.06155205  1
  Te  Te145  1  0.91766773  0.23854764  0.43063781  1
  Te  Te146  1  0.91198528  0.26222055  0.74243225  1
  Te  Te147  1  0.94716529  0.59898792  0.09116288  1
  Te  Te148  1  0.88946492  0.62669070  0.45143650  1
  Te  Te149  1  0.89159629  0.62711121  0.74426186  1
  Te  Te150  1  0.92469677  0.89567046  0.08227282  1
  Te  Te151  1  0.92335384  0.88506255  0.44802429  1
  Te  Te152  1  0.89626192  0.91531420  0.77241534  1
  Te  Te153  1  0.23777303  0.09757470  0.26493431  1
  Te  Te154  1  0.23836448  0.08560623  0.55274284  1
  Te  Te155  1  0.27192395  0.07870753  0.90206850  1
  Te  Te156  1  0.24482018  0.41904573  0.24456430  1
  Te  Te157  1  0.24026530  0.44470092  0.58987234  1
  Te  Te158  1  0.25482830  0.41861669  0.92287061  1
  Te  Te159  1  0.25189790  0.73302019  0.27225786  1
  Te  Te160  1  0.27335604  0.72525426  0.60840248  1
  Te  Te161  1  0.24156123  0.77464146  0.88946855  1
  Te  Te162  1  0.57245895  0.07564272  0.26250166  1
  Te  Te163  1  0.60882696  0.05286660  0.54957192  1
  Te  Te164  1  0.56323517  0.09526936  0.93735346  1
  Te  Te165  1  0.58223055  0.41850775  0.27466332  1
  Te  Te166  1  0.59606963  0.42714738  0.60483495  1
  Te  Te167  1  0.61110182  0.43944679  0.88390549  1
  Te  Te168  1  0.60415305  0.78184837  0.25013523  1
  Te  Te169  1  0.56924074  0.72994540  0.56150067  1
  Te  Te170  1  0.57214432  0.72505428  0.91369582  1
  Te  Te171  1  0.90031979  0.05050767  0.26716719  1
  Te  Te172  1  0.91816465  0.08356606  0.57786058  1
  Te  Te173  1  0.89686835  0.07839223  0.90519029  1
  Te  Te174  1  0.90784212  0.43860560  0.23987798  1
  Te  Te175  1  0.92470869  0.42687780  0.58390016  1
  Te  Te176  1  0.89975979  0.42996829  0.89808326  1
  Te  Te177  1  0.87670855  0.74205199  0.25425337  1
  Te  Te178  1  0.95529310  0.80493344  0.58036352  1
  Te  Te179  1  0.91072765  0.73167190  0.89899833  1
