# generated using pymatgen
data_In2Te3
_symmetry_space_group_name_H-M   'P 1'
_cell_length_a   18.78834980
_cell_length_b   18.79953570
_cell_length_c   18.78837757
_cell_angle_alpha   89.99523063
_cell_angle_beta   89.97662677
_cell_angle_gamma   89.91585927
_symmetry_Int_Tables_number   1
_chemical_formula_structural   In2Te3
_chemical_formula_sum   'In72 Te108'
_cell_volume   6636.27743441
_cell_formula_units_Z   36
loop_
 _symmetry_equiv_pos_site_id
 _symmetry_equiv_pos_as_xyz
  1  'x, y, z'
loop_
 _atom_site_type_symbol
 _atom_site_label
 _atom_site_symmetry_multiplicity
 _atom_site_fract_x
 _atom_site_fract_y
 _atom_site_fract_z
 _atom_site_occupancy
  In  In0  1  0.17676933  0.31459607  0.83189179  1
  In  In1  1  0.16383207  0.34362532  0.50361901  1
  In  In2  1  0.34624763  0.32501331  0.34808954  1
  In  In3  1  0.14696646  0.50343295  0.32749989  1
  In  In4  1  0.85448386  0.82402657  0.32230403  1
  In  In5  1  -0.00787532  0.35339230  0.00729634  1
  In  In6  1  0.66625938  0.00962665  0.68344058  1
  In  In7  1  0.35451652  0.32711705  0.69462940  1
  In  In8  1  0.12891094  0.81303045  0.00804868  1
  In  In9  1  0.51244784  0.84841571  0.36697558  1
  In  In10  1  0.64673698  0.84956069  0.51052886  1
  In  In11  1  0.49685422  -0.03405585  0.50009222  1
  In  In12  1  0.65723397  0.85780582  0.16058760  1
  In  In13  1  0.49991711  0.83228366  0.68130475  1
  In  In14  1  -0.01235958  0.50375173  0.15894005  1
  In  In15  1  0.34223145  0.83256695  0.18309175  1
  In  In16  1  0.51261548  0.66434490  0.15832516  1
  In  In17  1  0.65996344  0.49693303  0.83570998  1
  In  In18  1  0.80474803  0.32366327  0.17164322  1
  In  In19  1  -0.00466814  -0.01737922  0.67722808  1
  In  In20  1  0.37128184  0.48241249  0.83297007  1
  In  In21  1  0.16362764  0.51280175  0.64173712  1
  In  In22  1  -0.00209895  0.51155170  0.48804534  1
  In  In23  1  0.47838286  0.83806407  0.00251184  1
  In  In24  1  0.82550744  0.00889524  0.49518872  1
  In  In25  1  0.32394919  0.01661432  0.30216363  1
  In  In26  1  -0.01688263  0.19231599  0.45922451  1
  In  In27  1  0.14713791  0.50007733  0.00870602  1
  In  In28  1  -0.01122584  0.83474899  0.84042973  1
  In  In29  1  0.84285994  0.65719205  0.50406893  1
  In  In30  1  0.49591879  0.16725158  0.68560811  1
  In  In31  1  -0.00423953  0.33162683  0.64513110  1
  In  In32  1  0.67786000  0.17414117  0.49463058  1
  In  In33  1  0.83640592  0.48749319  0.33241847  1
  In  In34  1  0.32172499  0.16839757  0.83428602  1
  In  In35  1  0.65615477  0.46632266  0.50313244  1
  In  In36  1  0.84743729  0.66358444  0.18080827  1
  In  In37  1  -0.01095038  0.81977529  0.49508845  1
  In  In38  1  0.33292518  0.16173782  0.51016175  1
  In  In39  1  0.00233380  0.17718867  0.17795260  1
  In  In40  1  0.50268525  0.65122172  0.83281226  1
  In  In41  1  0.34343218  0.01439119  -0.00404315  1
  In  In42  1  0.32577105  0.50185363  0.15141355  1
  In  In43  1  0.29234158  0.66911069  0.32882010  1
  In  In44  1  0.81985475  0.15409321  0.66186182  1
  In  In45  1  0.52703591  0.31632068  0.84600770  1
  In  In46  1  0.81456346  0.15231510  -0.02502037  1
  In  In47  1  0.84567973  0.00951466  0.15416418  1
  In  In48  1  0.32514106  0.67404735  0.66772698  1
  In  In49  1  0.81798348  0.32218794  0.83883554  1
  In  In50  1  0.17173136  0.68492229  0.83410828  1
  In  In51  1  0.83685300  0.84558592  -0.00263803  1
  In  In52  1  0.34602667  0.51298842  0.47803582  1
  In  In53  1  0.51800499  0.67523832  0.50488796  1
  In  In54  1  0.14018656  0.85129509  0.34199756  1
  In  In55  1  0.51478603  0.03696264  0.14043378  1
  In  In56  1  0.17440316  0.16305433  0.01730452  1
  In  In57  1  0.83183340  0.50521939  0.67583709  1
  In  In58  1  0.81348671  0.49412623  0.00743179  1
  In  In59  1  0.52164540  0.16932167  0.32706687  1
  In  In60  1  0.69399525  0.65460371  0.32572200  1
  In  In61  1  0.32887057  0.83364383  0.52421624  1
  In  In62  1  0.70181133  0.81979314  0.82075583  1
  In  In63  1  0.00225769  0.52924507  0.80732355  1
  In  In64  1  0.18081199  0.85042820  0.69703129  1
  In  In65  1  0.50508409  0.47649812  0.30291108  1
  In  In66  1  0.15386406  0.00162264  0.16321401  1
  In  In67  1  0.15797240  0.02130422  0.48524180  1
  In  In68  1  0.34330962  0.31851630  0.00643534  1
  In  In69  1  -0.00658107  0.13180926  0.83863310  1
  In  In70  1  0.66228099  0.65307453  0.00267802  1
  In  In71  1  0.52191453  0.31470525  0.16416909  1
  Te  Te72  1  0.05879239  0.08105102  0.07184650  1
  Te  Te73  1  0.07229483  0.09411109  0.38586194  1
  Te  Te74  1  0.09106683  0.06978290  0.74800966  1
  Te  Te75  1  0.09562515  0.39685893  0.10949990  1
  Te  Te76  1  0.06289613  0.40061755  0.40446841  1
  Te  Te77  1  0.09010310  0.41128900  0.74581581  1
  Te  Te78  1  0.07459541  0.73042854  0.11732545  1
  Te  Te79  1  0.07833989  0.73686645  0.41195804  1
  Te  Te80  1  0.07615299  0.74918187  0.73631696  1
  Te  Te81  1  0.39787266  0.11245920  0.09225513  1
  Te  Te82  1  0.41967637  0.07524225  0.41430150  1
  Te  Te83  1  0.42349552  0.07571880  0.77617764  1
  Te  Te84  1  0.43159325  0.41503138  0.08490842  1
  Te  Te85  1  0.44508656  0.40851030  0.42742511  1
  Te  Te86  1  0.47057805  0.42371588  0.73111493  1
  Te  Te87  1  0.40033600  0.73349698  0.08140841  1
  Te  Te88  1  0.40636175  0.74481718  0.41602889  1
  Te  Te89  1  0.40394451  0.75229873  0.77012344  1
  Te  Te90  1  0.73287951  0.09053786  0.08834099  1
  Te  Te91  1  0.76968606  0.10646525  0.39305725  1
  Te  Te92  1  0.75117317  0.08957888  0.77511449  1
  Te  Te93  1  0.72673350  0.38804379  0.06092235  1
  Te  Te94  1  0.75349775  0.39434952  0.41530719  1
  Te  Te95  1  0.73682072  0.40391485  0.73909594  1
  Te  Te96  1  0.74279597  0.74719571  0.09818419  1
  Te  Te97  1  0.74620665  0.76178108  0.42239692  1
  Te  Te98  1  0.79326107  0.74290653  0.73322042  1
  Te  Te99  1  0.10793647  0.21472894  0.27495985  1
  Te  Te100  1  0.08454669  0.23221307  0.57237063  1
  Te  Te101  1  0.07208792  0.25051446  0.92211915  1
  Te  Te102  1  0.08864055  0.59425927  0.22312071  1
  Te  Te103  1  0.04746815  0.59286111  0.60171839  1
  Te  Te104  1  0.07369831  0.60163136  0.91966321  1
  Te  Te105  1  0.05686169  0.92953830  0.24836759  1
  Te  Te106  1  0.09255868  0.91247815  0.57278767  1
  Te  Te107  1  0.09256223  0.91570308  0.90894854  1
  Te  Te108  1  0.41328778  0.23866482  0.24239662  1
  Te  Te109  1  0.42940004  0.25541994  0.58013331  1
  Te  Te110  1  0.43234494  0.22666826  0.92525251  1
  Te  Te111  1  0.40804802  0.59312890  0.26002385  1
  Te  Te112  1  0.42314013  0.58785179  0.58750637  1
  Te  Te113  1  0.41753424  0.58080727  0.93087459  1
  Te  Te114  1  0.44363632  0.92692432  0.24718112  1
  Te  Te115  1  0.39875617  0.93440274  0.61829927  1
  Te  Te116  1  0.41056143  0.92220608  0.90007095  1
  Te  Te117  1  0.76666839  0.22552859  0.27855563  1
  Te  Te118  1  0.74707442  0.26075153  0.59249722  1
  Te  Te119  1  0.71222125  0.25613158  0.92551199  1
  Te  Te120  1  0.74751220  0.55477909  0.22496990  1
  Te  Te121  1  0.73781464  0.57566080  0.57577247  1
  Te  Te122  1  0.76032097  0.59276084  0.90370332  1
  Te  Te123  1  0.75780941  0.92083270  0.25354380  1
  Te  Te124  1  0.75345948  0.91999396  0.59535553  1
  Te  Te125  1  0.74950282  0.92812580  0.91049275  1
  Te  Te126  1  0.23619757  0.27116119  0.09597086  1
  Te  Te127  1  0.24054225  0.24070393  0.41779994  1
  Te  Te128  1  0.23778637  0.23142978  0.72074642  1
  Te  Te129  1  0.24394637  0.59279069  0.07071040  1
  Te  Te130  1  0.21934429  0.58639899  0.43562138  1
  Te  Te131  1  0.25362974  0.56531497  0.75613471  1
  Te  Te132  1  0.26071171  0.92072320  0.08794418  1
  Te  Te133  1  0.26877216  0.91764686  0.40608618  1
  Te  Te134  1  0.29776775  0.92164203  0.74647495  1
  Te  Te135  1  0.60869430  0.21088793  0.08748834  1
  Te  Te136  1  0.58347900  0.26294426  0.42215692  1
  Te  Te137  1  0.60846860  0.23595285  0.75169943  1
  Te  Te138  1  0.58908375  0.55922603  0.09046675  1
  Te  Te139  1  0.58403995  0.58097749  0.40291925  1
  Te  Te140  1  0.60399909  0.59799692  0.74106588  1
  Te  Te141  1  0.58650317  0.93518206  0.05053019  1
  Te  Te142  1  0.61700561  0.95336421  0.40257861  1
  Te  Te143  1  0.58441751  0.91814339  0.77329957  1
  Te  Te144  1  0.90247403  0.24691161  0.06902048  1
  Te  Te145  1  0.86481383  0.26015381  0.39695635  1
  Te  Te146  1  0.92462471  0.24965602  0.75349049  1
  Te  Te147  1  0.91522143  0.59500949  0.06044938  1
  Te  Te148  1  0.92328232  0.60047925  0.38736198  1
  Te  Te149  1  0.89574818  0.62009329  0.75075568  1
  Te  Te150  1  0.93140253  0.90264381  0.09700231  1
  Te  Te151  1  0.92464180  0.92891074  0.40979000  1
  Te  Te152  1  0.89292974  0.91594524  0.75851686  1
  Te  Te153  1  0.22767649  0.11182924  0.23816985  1
  Te  Te154  1  0.25069081  0.06886419  0.58967963  1
  Te  Te155  1  0.22897720  0.07226386  0.90891345  1
  Te  Te156  1  0.26068805  0.42176540  0.26476866  1
  Te  Te157  1  0.27539253  0.41452817  0.58403264  1
  Te  Te158  1  0.25166515  0.41592118  0.91752137  1
  Te  Te159  1  0.21787579  0.76134064  0.23547648  1
  Te  Te160  1  0.22300655  0.74407072  0.58192983  1
  Te  Te161  1  0.24680990  0.76839330  0.92821827  1
  Te  Te162  1  0.61134199  0.08915709  0.23987249  1
  Te  Te163  1  0.57654734  0.07611967  0.57808802  1
  Te  Te164  1  0.62604152  0.12915823  0.96362343  1
  Te  Te165  1  0.61331505  0.38886109  0.25479945  1
  Te  Te166  1  0.55733121  0.41998687  0.59894885  1
  Te  Te167  1  0.57768893  0.42345083  0.93506105  1
  Te  Te168  1  0.58535919  0.75407631  0.26099228  1
  Te  Te169  1  0.60306349  0.74269475  0.61209761  1
  Te  Te170  1  0.58764966  0.75810716  0.92136363  1
  Te  Te171  1  0.90596403  0.09714011  0.25885554  1
  Te  Te172  1  0.93042422  0.09194812  0.57251354  1
  Te  Te173  1  0.90762752  0.04842231  0.92425625  1
  Te  Te174  1  0.92253171  0.39592328  0.24302612  1
  Te  Te175  1  0.90230444  0.42051123  0.56747259  1
  Te  Te176  1  0.91633804  0.42813211  0.89593820  1
  Te  Te177  1  0.95359959  0.76087973  0.22627665  1
  Te  Te178  1  0.89179247  0.76587864  0.59531791  1
  Te  Te179  1  0.91847113  0.74117480  0.93218009  1
