# generated using pymatgen
data_In2Te3
_symmetry_space_group_name_H-M   'P 1'
_cell_length_a   18.94619164
_cell_length_b   18.96118841
_cell_length_c   18.93653428
_cell_angle_alpha   89.72518409
_cell_angle_beta   89.87003011
_cell_angle_gamma   89.97873844
_symmetry_Int_Tables_number   1
_chemical_formula_structural   In2Te3
_chemical_formula_sum   'In72 Te108'
_cell_volume   6802.70811393
_cell_formula_units_Z   36
loop_
 _symmetry_equiv_pos_site_id
 _symmetry_equiv_pos_as_xyz
  1  'x, y, z'
loop_
 _atom_site_type_symbol
 _atom_site_label
 _atom_site_symmetry_multiplicity
 _atom_site_fract_x
 _atom_site_fract_y
 _atom_site_fract_z
 _atom_site_occupancy
  In  In0  1  0.68740422  0.45228651  0.84873229  1
  In  In1  1  0.52358301  0.81764083  -0.00947928  1
  In  In2  1  0.69124629  0.62241895  0.31766497  1
  In  In3  1  0.71007668  0.33756687  0.29852398  1
  In  In4  1  0.00367691  0.52447332  0.84486542  1
  In  In5  1  0.84848427  0.02783720  0.52622367  1
  In  In6  1  0.03730484  0.82990118  0.50347402  1
  In  In7  1  0.36671836  0.50446181  0.50812913  1
  In  In8  1  0.51919536  0.31239654  0.15641356  1
  In  In9  1  0.33677523  0.29496045  0.00377809  1
  In  In10  1  0.34636751  0.00131036  0.33564436  1
  In  In11  1  0.31865982  0.68280775  0.71687938  1
  In  In12  1  0.14450224  0.49545219  0.33943516  1
  In  In13  1  0.64945119  0.81551200  0.16339111  1
  In  In14  1  0.17435712  0.68492458  0.13482560  1
  In  In15  1  0.82865445  0.18641073  0.32819376  1
  In  In16  1  0.66862503  0.64589044  -0.00288826  1
  In  In17  1  0.17325340  0.81739532  0.32263480  1
  In  In18  1  0.50979473  0.33240828  0.79559047  1
  In  In19  1  0.34727069  0.87435640  0.82640692  1
  In  In20  1  0.82619677  0.64526970  0.52692121  1
  In  In21  1  0.49582570  0.87540268  0.68124604  1
  In  In22  1  -0.02667900  0.17458747  0.13962582  1
  In  In23  1  0.00559186  0.02077134  0.34142654  1
  In  In24  1  0.79163236  0.00948479  0.14735924  1
  In  In25  1  0.50859078  0.50657820  0.01437740  1
  In  In26  1  -0.03793708  0.34413136  0.01245179  1
  In  In27  1  0.34564203  0.85783077  0.51954924  1
  In  In28  1  0.65099283  0.01091928  0.32827339  1
  In  In29  1  0.32890844  0.15881214  0.15898445  1
  In  In30  1  0.14791286  0.33721278  0.84976486  1
  In  In31  1  -0.01578008  0.04869308  0.69986058  1
  In  In32  1  0.02511046  0.81715309  0.15199031  1
  In  In33  1  0.16346888  0.15264570  0.69064661  1
  In  In34  1  0.86630646  0.83027834  0.31650600  1
  In  In35  1  0.17085050  0.15803170  -0.01090737  1
  In  In36  1  0.49608045  0.15717830  -0.03461618  1
  In  In37  1  0.00425005  0.47259254  0.53193221  1
  In  In38  1  0.50029043  0.69107741  0.48088942  1
  In  In39  1  -0.03206287  0.31275712  0.71756381  1
  In  In40  1  0.31058975  0.66193854  0.30651932  1
  In  In41  1  0.69351880  0.20828125  0.51238994  1
  In  In42  1  0.76208883  0.48192889  0.08874797  1
  In  In43  1  0.83087660  0.01157906  0.83791804  1
  In  In44  1  0.31093338  0.50001848  0.16592491  1
  In  In45  1  0.67040321  0.03451549  0.66957652  1
  In  In46  1  0.83219749  0.81665157  0.00258481  1
  In  In47  1  0.20438225  -0.01380176  0.11467464  1
  In  In48  1  0.15526967  0.31675391  0.50590803  1
  In  In49  1  -0.01602307  0.67093322  0.68905232  1
  In  In50  1  -0.03046060  0.61005822  0.30428033  1
  In  In51  1  0.80381805  0.82542475  0.67798658  1
  In  In52  1  0.17214371  0.03687864  0.50093557  1
  In  In53  1  0.49583832  0.84544268  0.30735200  1
  In  In54  1  0.10612709  0.35544523  0.17302384  1
  In  In55  1  0.17417990  0.69279328  0.49733216  1
  In  In56  1  0.65753084  0.66012730  0.68162134  1
  In  In57  1  0.48231183  0.29690774  0.50474882  1
  In  In58  1  0.14163687  0.86492172  0.68802689  1
  In  In59  1  0.67890630  0.83091642  0.46318175  1
  In  In60  1  0.51112584  0.52150268  0.65498968  1
  In  In61  1  0.65939585  0.02030948  -0.02447757  1
  In  In62  1  0.34901888  0.48848224  0.86346066  1
  In  In63  1  0.17020846  0.18408355  0.32960216  1
  In  In64  1  0.50663246  0.49134105  0.34894558  1
  In  In65  1  -0.00808517  0.82873206  0.84856853  1
  In  In66  1  0.32083497  0.31861856  0.66056910  1
  In  In67  1  0.18865600  0.52764318  0.67981645  1
  In  In68  1  0.68713414  0.45193215  0.50555532  1
  In  In69  1  -0.01092327  -0.01793517  -0.01150449  1
  In  In70  1  0.51145534  0.16847920  0.32639461  1
  In  In71  1  0.34919950  0.70351240  -0.00924856  1
  Te  Te72  1  0.07882498  0.06986437  0.08716116  1
  Te  Te73  1  0.06707712  0.12270596  0.43177740  1
  Te  Te74  1  0.08841612  0.07979141  0.79788012  1
  Te  Te75  1  0.06526490  0.44062111  0.06126786  1
  Te  Te76  1  0.06038757  0.39305531  0.41374078  1
  Te  Te77  1  0.08896444  0.43161780  0.74544514  1
  Te  Te78  1  0.08257410  0.74890918  0.03250914  1
  Te  Te79  1  0.06770678  0.72753977  0.38948922  1
  Te  Te80  1  0.09157869  0.74352932  0.76463449  1
  Te  Te81  1  0.39919678  0.07959316  0.05461585  1
  Te  Te82  1  0.41563159  0.10034747  0.41534666  1
  Te  Te83  1  0.37443902  0.02739674  0.82310160  1
  Te  Te84  1  0.40932141  0.40650174  0.08767450  1
  Te  Te85  1  0.40559620  0.39702558  0.41111839  1
  Te  Te86  1  0.40124692  0.43548278  0.73100506  1
  Te  Te87  1  0.45050430  0.73631351  0.08982485  1
  Te  Te88  1  0.38770695  0.75848790  0.40421621  1
  Te  Te89  1  0.43888841  0.75901402  0.76069679  1
  Te  Te90  1  0.76572809  0.10437445  0.03847047  1
  Te  Te91  1  0.74887610  0.08194131  0.42125031  1
  Te  Te92  1  0.77991226  0.11125934  0.73709751  1
  Te  Te93  1  0.72760129  0.34133654  0.05131521  1
  Te  Te94  1  0.79138187  0.40368050  0.40833010  1
  Te  Te95  1  0.70210088  0.36417973  0.72643492  1
  Te  Te96  1  0.75274459  0.72863286  0.09787917  1
  Te  Te97  1  0.77640936  0.72859088  0.39963791  1
  Te  Te98  1  0.75015193  0.72869387  0.77410476  1
  Te  Te99  1  0.04927642  0.24187367  0.25450159  1
  Te  Te100  1  0.07814558  0.25856808  0.62177130  1
  Te  Te101  1  0.06141716  0.24920336  0.93656511  1
  Te  Te102  1  0.09607446  0.58522086  0.22651368  1
  Te  Te103  1  0.08532836  0.59817874  0.58447891  1
  Te  Te104  1  0.04025910  0.62519377  0.94507972  1
  Te  Te105  1  0.07711828  0.91423388  0.25583031  1
  Te  Te106  1  0.06760919  0.95424009  0.58817499  1
  Te  Te107  1  0.08915623  0.93271167  0.89198536  1
  Te  Te108  1  0.40973409  0.25221609  0.24440934  1
  Te  Te109  1  0.42793361  0.22556890  0.62234045  1
  Te  Te110  1  0.41085677  0.24982890  0.87937157  1
  Te  Te111  1  0.41666807  0.57087921  0.25038665  1
  Te  Te112  1  0.40666994  0.62489338  0.59300071  1
  Te  Te113  1  0.43776847  0.59775405  0.91621331  1
  Te  Te114  1  0.41645320  0.93625626  0.22551411  1
  Te  Te115  1  0.42643924  0.96009234  0.58401725  1
  Te  Te116  1  0.46065321  0.92885566  0.90995567  1
  Te  Te117  1  0.71579436  0.20456927  0.23338266  1
  Te  Te118  1  0.76902784  0.30017014  0.59998472  1
  Te  Te119  1  0.79131458  0.30959333  0.91412532  1
  Te  Te120  1  0.78643580  0.54165258  0.23404127  1
  Te  Te121  1  0.74035431  0.55213083  0.60698117  1
  Te  Te122  1  0.76411121  0.54613739  0.93897341  1
  Te  Te123  1  0.74409852  0.90403149  0.25752633  1
  Te  Te124  1  0.74673076  0.91711636  0.56835664  1
  Te  Te125  1  0.74978031  0.91017172  0.91660052  1
  Te  Te126  1  0.21903343  0.25200832  0.09966587  1
  Te  Te127  1  0.25745245  0.24604372  0.42896885  1
  Te  Te128  1  0.24664590  0.24921103  0.77495636  1
  Te  Te129  1  0.26054066  0.58952726  0.05571761  1
  Te  Te130  1  0.24932823  0.57656369  0.41874091  1
  Te  Te131  1  0.24205099  0.58775301  0.80761086  1
  Te  Te132  1  0.26617515  0.88376841  0.03325640  1
  Te  Te133  1  0.23100761  0.91557397  0.42722066  1
  Te  Te134  1  0.25741320  0.94767477  0.72875853  1
  Te  Te135  1  0.58971984  0.24317708  0.04606265  1
  Te  Te136  1  0.59974946  0.26889782  0.40270906  1
  Te  Te137  1  0.62126652  0.23974949  0.77029066  1
  Te  Te138  1  0.61179596  0.55780249  0.10589069  1
  Te  Te139  1  0.59746097  0.57643007  0.43745567  1
  Te  Te140  1  0.59342993  0.55772989  0.77407792  1
  Te  Te141  1  0.59286742  0.92503776  0.07930199  1
  Te  Te142  1  0.56537619  0.92193898  0.41801452  1
  Te  Te143  1  0.61258718  0.92674796  0.75109553  1
  Te  Te144  1  0.87601422  0.29207364  0.12965687  1
  Te  Te145  1  0.88106653  0.27937546  0.42593558  1
  Te  Te146  1  0.87062637  0.23532031  0.79823859  1
  Te  Te147  1  0.90791762  0.51862805  0.10572423  1
  Te  Te148  1  0.91825613  0.56119494  0.43687146  1
  Te  Te149  1  0.89950223  0.56936270  0.74920682  1
  Te  Te150  1  0.90638460  0.91144803  0.09927591  1
  Te  Te151  1  0.91917084  0.92457230  0.42445431  1
  Te  Te152  1  0.91163756  0.91261176  0.74087468  1
  Te  Te153  1  0.23186958  0.06992763  0.24840517  1
  Te  Te154  1  0.26299901  0.10257291  0.59370017  1
  Te  Te155  1  0.28306545  0.07290271  0.94194674  1
  Te  Te156  1  0.23088811  0.40513677  0.25334659  1
  Te  Te157  1  0.24441513  0.42918684  0.57635551  1
  Te  Te158  1  0.24933872  0.40379152  0.94117774  1
  Te  Te159  1  0.26907839  0.77497469  0.21330679  1
  Te  Te160  1  0.24598165  0.77108431  0.60688667  1
  Te  Te161  1  0.25452494  0.78813143  0.91109065  1
  Te  Te162  1  0.58625472  0.09202930  0.22284064  1
  Te  Te163  1  0.59663978  0.11411587  0.57098766  1
  Te  Te164  1  0.59888088  0.10624091  0.86832913  1
  Te  Te165  1  0.58867611  0.41443633  0.24682261  1
  Te  Te166  1  0.56473622  0.40185476  0.57992483  1
  Te  Te167  1  0.56355470  0.40073814  0.92172681  1
  Te  Te168  1  0.58634885  0.72805417  0.27175310  1
  Te  Te169  1  0.59963649  0.75638521  0.57355413  1
  Te  Te170  1  0.61676558  0.74543515  0.90130030  1
  Te  Te171  1  0.90134686  0.07119046  0.24086140  1
  Te  Te172  1  0.92353839  0.13198541  0.59478487  1
  Te  Te173  1  0.90512253  0.09336795  0.93711318  1
  Te  Te174  1  0.89926905  0.41786216  0.21745278  1
  Te  Te175  1  0.90315889  0.40235131  0.61602587  1
  Te  Te176  1  0.90719875  0.41538774  0.89145594  1
  Te  Te177  1  0.92066575  0.72642226  0.21926526  1
  Te  Te178  1  0.91447383  0.75964770  0.57781574  1
  Te  Te179  1  0.90880402  0.72316591  0.91555380  1
