# generated using pymatgen
data_In2Te3
_symmetry_space_group_name_H-M   'P 1'
_cell_length_a   18.91081229
_cell_length_b   19.02034136
_cell_length_c   19.00341134
_cell_angle_alpha   89.65453030
_cell_angle_beta   89.87635753
_cell_angle_gamma   89.98908094
_symmetry_Int_Tables_number   1
_chemical_formula_structural   In2Te3
_chemical_formula_sum   'In72 Te108'
_cell_volume   6835.19874661
_cell_formula_units_Z   36
loop_
 _symmetry_equiv_pos_site_id
 _symmetry_equiv_pos_as_xyz
  1  'x, y, z'
loop_
 _atom_site_type_symbol
 _atom_site_label
 _atom_site_symmetry_multiplicity
 _atom_site_fract_x
 _atom_site_fract_y
 _atom_site_fract_z
 _atom_site_occupancy
  In  In0  1  0.01939669  0.01160694  0.36870816  1
  In  In1  1  0.35010950  0.84496354  0.82943266  1
  In  In2  1  0.13790062  0.48580911  0.00122400  1
  In  In3  1  0.50509968  0.35737836  0.84247614  1
  In  In4  1  0.81236599  0.50650921  0.63502360  1
  In  In5  1  0.03137729  0.14563227  0.18228334  1
  In  In6  1  0.84890566  -0.00208692  0.50965295  1
  In  In7  1  0.82567821  0.33947776  0.47137518  1
  In  In8  1  0.47405924  0.17287205  0.31033845  1
  In  In9  1  0.00659016  0.84653768  0.18802370  1
  In  In10  1  0.64361361  0.34100892  0.31382499  1
  In  In11  1  0.74074906  0.47632694  -0.01037129  1
  In  In12  1  0.50217656  0.19536695  0.69762564  1
  In  In13  1  0.49975532  0.00496314  0.86314196  1
  In  In14  1  0.18587684  0.15940968  0.63187860  1
  In  In15  1  -0.02046610  0.31982794  0.00127749  1
  In  In16  1  -0.00764095  0.32235728  0.66712241  1
  In  In17  1  0.32957497  0.15828098  0.50489315  1
  In  In18  1  0.01156804  0.31480451  0.34379455  1
  In  In19  1  0.21333684  0.50428514  0.30547350  1
  In  In20  1  0.84515500  -0.00320133  0.84857918  1
  In  In21  1  0.79121059  0.65138772  0.81971577  1
  In  In22  1  0.00456464  -0.01651083  0.68582959  1
  In  In23  1  0.15757773  0.47494783  0.64949624  1
  In  In24  1  0.70531997  -0.00431820  0.67987060  1
  In  In25  1  0.01590676  0.67443596  0.32037005  1
  In  In26  1  0.19745803  0.81948399  0.35477844  1
  In  In27  1  0.36398701  0.51526281  0.48783861  1
  In  In28  1  -0.03949738  0.52557515  0.85052985  1
  In  In29  1  0.15927731  0.66513162  0.13604020  1
  In  In30  1  0.80005373  -0.02182064  0.16108931  1
  In  In31  1  0.30784407  0.02083181  0.66092348  1
  In  In32  1  0.35673500  0.67808467  -0.00461206  1
  In  In33  1  0.00978791  0.52664700  0.48734039  1
  In  In34  1  0.45097087  0.01545828  0.17029052  1
  In  In35  1  0.77227248  0.26198867  0.10309149  1
  In  In36  1  0.34051598  0.66117942  0.63542441  1
  In  In37  1  0.00707247  0.68165933  0.63872651  1
  In  In38  1  0.68302362  0.18356500  0.49624584  1
  In  In39  1  0.36194491  0.49081952  0.15206329  1
  In  In40  1  0.79107280  0.65775865  0.18463411  1
  In  In41  1  0.00969299  -0.00157550  0.02174997  1
  In  In42  1  0.37425061  0.67871228  0.34242104  1
  In  In43  1  0.49597161  0.82531539  0.66723879  1
  In  In44  1  0.35464310  0.81727879  0.16558580  1
  In  In45  1  0.35386428  0.51293110  0.84909554  1
  In  In46  1  0.67488655  0.82908010  0.82079929  1
  In  In47  1  0.52094991  0.01458912  0.52741937  1
  In  In48  1  0.30933262  0.31090008  0.01340638  1
  In  In49  1  0.79841053  0.80806714  -0.00400819  1
  In  In50  1  0.64341131  0.80071406  0.49868645  1
  In  In51  1  0.38972395  0.35040462  0.30748203  1
  In  In52  1  0.30537240  0.16937909  0.84159050  1
  In  In53  1  0.85498303  0.15693144  0.31338131  1
  In  In54  1  0.70063599  0.34802673  0.86323286  1
  In  In55  1  0.15981989  0.82522554  0.65842854  1
  In  In56  1  0.79510868  0.49768165  0.31439459  1
  In  In57  1  0.83299394  0.18029075  0.66476441  1
  In  In58  1  -0.02418644  0.47832391  0.15904167  1
  In  In59  1  0.60352518  0.09210791  0.06524096  1
  In  In60  1  0.15378643  0.31983547  0.82360073  1
  In  In61  1  -0.02159014  0.69241954  0.00438726  1
  In  In62  1  0.18882391  0.67863472  0.81639770  1
  In  In63  1  -0.00838324  0.16625304  0.83877873  1
  In  In64  1  0.64735782  -0.01664510  0.34228160  1
  In  In65  1  0.22778369  -0.00618244  0.18550860  1
  In  In66  1  0.18755096  0.33062786  0.47752144  1
  In  In67  1  0.16141486  0.01742529  0.86367940  1
  In  In68  1  0.54019385  0.63875376  0.81219164  1
  In  In69  1  0.61313420  0.83568367  0.19087855  1
  In  In70  1  0.82146336  0.66716265  0.50183896  1
  In  In71  1  0.51154758  0.35821990  0.51796364  1
  Te  Te72  1  0.12313012  0.06693052  0.09262149  1
  Te  Te73  1  0.10937656  0.12039477  0.39168992  1
  Te  Te74  1  0.09447422  0.10303262  0.74659849  1
  Te  Te75  1  0.08164669  0.38630182  0.09909820  1
  Te  Te76  1  0.10092361  0.43305113  0.40016903  1
  Te  Te77  1  0.05845270  0.42780374  0.76299387  1
  Te  Te78  1  0.08187337  0.77920779  0.07436128  1
  Te  Te79  1  0.08429477  0.75185909  0.42135330  1
  Te  Te80  1  0.07149327  0.75313588  0.75889642  1
  Te  Te81  1  0.39613471  0.09895816  0.05499665  1
  Te  Te82  1  0.42920262  0.07792072  0.42521549  1
  Te  Te83  1  0.41174213  0.08545021  0.75386332  1
  Te  Te84  1  0.41715399  0.40469035  0.04801909  1
  Te  Te85  1  0.46521192  0.44431246  0.39979620  1
  Te  Te86  1  0.40589404  0.41827266  0.75245513  1
  Te  Te87  1  0.44640523  0.71571094  0.10713521  1
  Te  Te88  1  0.40083301  0.75948172  0.46719338  1
  Te  Te89  1  0.41074507  0.72588894  0.75709845  1
  Te  Te90  1  0.75324847  0.10114803  0.09465177  1
  Te  Te91  1  0.75122471  0.08062174  0.40857870  1
  Te  Te92  1  0.75945833  0.10089142  0.77126945  1
  Te  Te93  1  0.76272375  0.41349323  0.12644182  1
  Te  Te94  1  0.71031105  0.42390402  0.42080379  1
  Te  Te95  1  0.75445590  0.45326087  0.76215138  1
  Te  Te96  1  0.70437337  0.74914431  0.09827964  1
  Te  Te97  1  0.73891646  0.74157719  0.40290114  1
  Te  Te98  1  0.73237754  0.73983638  0.71742192  1
  Te  Te99  1  0.11422521  0.22617956  0.27784905  1
  Te  Te100  1  0.08725151  0.25763361  0.56839831  1
  Te  Te101  1  0.08991855  0.23628323  0.93267896  1
  Te  Te102  1  0.08649939  0.56584435  0.22907365  1
  Te  Te103  1  0.11420407  0.59765355  0.57030505  1
  Te  Te104  1  0.07591080  0.59898320  0.91981123  1
  Te  Te105  1  0.11207331  0.92099866  0.26578724  1
  Te  Te106  1  0.07343512  0.91285282  0.57856179  1
  Te  Te107  1  0.06060769  0.92227483  0.90770802  1
  Te  Te108  1  0.46798178  0.27701339  0.20323774  1
  Te  Te109  1  0.42289227  0.25294502  0.58385076  1
  Te  Te110  1  0.40664498  0.25642715  0.90866972  1
  Te  Te111  1  0.43193261  0.59324901  0.22934951  1
  Te  Te112  1  0.45109016  0.57047020  0.59548890  1
  Te  Te113  1  0.45736400  0.58279033  0.93154233  1
  Te  Te114  1  0.42343430  0.89914228  0.27092910  1
  Te  Te115  1  0.41301158  0.93087510  0.59599920  1
  Te  Te116  1  0.44919792  0.88527557  0.93175430  1
  Te  Te117  1  0.74585297  0.24384866  0.25631461  1
  Te  Te118  1  0.74751347  0.28337886  0.59020314  1
  Te  Te119  1  0.75628564  0.24422323  0.95270120  1
  Te  Te120  1  0.68896152  0.59658460  0.27782808  1
  Te  Te121  1  0.71760564  0.57135786  0.54519106  1
  Te  Te122  1  0.72221318  0.61757062  0.94343162  1
  Te  Te123  1  0.73918279  0.89041967  0.26611751  1
  Te  Te124  1  0.73373611  0.91275029  0.56043656  1
  Te  Te125  1  0.73337492  0.92496699  0.92452240  1
  Te  Te126  1  0.29459053  0.19738202  0.10849297  1
  Te  Te127  1  0.29777008  0.26422521  0.39986446  1
  Te  Te128  1  0.25235397  0.25832049  0.72816397  1
  Te  Te129  1  0.25395970  0.57399819  0.06044499  1
  Te  Te130  1  0.25949532  0.59516736  0.41238119  1
  Te  Te131  1  0.24898834  0.56663141  0.73774862  1
  Te  Te132  1  0.26819948  0.90019450  0.08116628  1
  Te  Te133  1  0.31735550  0.89992674  0.37843318  1
  Te  Te134  1  0.23859970  0.92318939  0.75609070  1
  Te  Te135  1  0.60420972  0.23357125  0.01511810  1
  Te  Te136  1  0.56888503  0.24562777  0.41797566  1
  Te  Te137  1  0.60869269  0.27522674  0.76153933  1
  Te  Te138  1  0.64516433  0.50987539  0.10870638  1
  Te  Te139  1  0.51074208  0.66858770  0.41639048  1
  Te  Te140  1  0.61421306  0.52648750  0.74894406  1
  Te  Te141  1  0.56985935  0.94347231  0.09618584  1
  Te  Te142  1  0.55433477  0.90345354  0.42934710  1
  Te  Te143  1  0.58061353  0.93422683  0.74406531  1
  Te  Te144  1  0.92926942  0.23796422  0.11792647  1
  Te  Te145  1  0.91936795  0.22812883  0.42942428  1
  Te  Te146  1  0.90041071  0.26883645  0.77385105  1
  Te  Te147  1  0.90488381  0.59835499  0.09741488  1
  Te  Te148  1  0.90769523  0.57807033  0.38882107  1
  Te  Te149  1  0.91530818  0.58877955  0.71906728  1
  Te  Te150  1  0.89853717  0.89707595  0.07715943  1
  Te  Te151  1  0.91590522  0.91705664  0.40836256  1
  Te  Te152  1  0.88627609  0.91276702  0.73653453  1
  Te  Te153  1  0.32947880  0.09327002  0.23437260  1
  Te  Te154  1  0.22493918  0.04739850  0.53637628  1
  Te  Te155  1  0.28560555  0.05515139  0.93600538  1
  Te  Te156  1  0.26577373  0.39243823  0.22405614  1
  Te  Te157  1  0.27080254  0.41893285  0.56752200  1
  Te  Te158  1  0.23601303  0.41681191  0.90727257  1
  Te  Te159  1  0.24700831  0.72672974  0.24047078  1
  Te  Te160  1  0.26809428  0.77303607  0.56954436  1
  Te  Te161  1  0.25279276  0.76281331  0.92141690  1
  Te  Te162  1  0.57802091  0.07995707  0.25030726  1
  Te  Te163  1  0.60856954  0.10960053  0.60777659  1
  Te  Te164  1  0.58584894  0.11305620  0.91432041  1
  Te  Te165  1  0.57564605  0.40463632  0.19876103  1
  Te  Te166  1  0.55779927  0.44588805  0.62793636  1
  Te  Te167  1  0.59753087  0.42396438  0.94163712  1
  Te  Te168  1  0.58750206  0.73373023  0.29647218  1
  Te  Te169  1  0.59413572  0.72595127  0.61877353  1
  Te  Te170  1  0.56974974  0.75696602  0.89568237  1
  Te  Te171  1  0.92465622  0.04789997  0.23655646  1
  Te  Te172  1  0.93093504  0.09014171  0.59606578  1
  Te  Te173  1  0.91559106  0.09075154  0.94539717  1
  Te  Te174  1  0.90999532  0.40103221  0.27182917  1
  Te  Te175  1  0.92892034  0.41961091  0.56092470  1
  Te  Te176  1  0.89418260  0.43379256  0.94681997  1
  Te  Te177  1  0.90804930  0.74604873  0.24160559  1
  Te  Te178  1  0.91461845  0.76235560  0.56088623  1
  Te  Te179  1  0.89149281  0.74622589  0.89401735  1
