# generated using pymatgen
data_In2Te3
_symmetry_space_group_name_H-M   'P 1'
_cell_length_a   18.76681597
_cell_length_b   18.76249052
_cell_length_c   18.75812501
_cell_angle_alpha   90.02172514
_cell_angle_beta   90.03092797
_cell_angle_gamma   90.06089877
_symmetry_Int_Tables_number   1
_chemical_formula_structural   In2Te3
_chemical_formula_sum   'In72 Te108'
_cell_volume   6604.95962017
_cell_formula_units_Z   36
loop_
 _symmetry_equiv_pos_site_id
 _symmetry_equiv_pos_as_xyz
  1  'x, y, z'
loop_
 _atom_site_type_symbol
 _atom_site_label
 _atom_site_symmetry_multiplicity
 _atom_site_fract_x
 _atom_site_fract_y
 _atom_site_fract_z
 _atom_site_occupancy
  In  In0  1  0.50837785  -0.00977631  0.52329789  1
  In  In1  1  0.49710204  0.86262102  -0.02268324  1
  In  In2  1  0.02139304  0.15451024  0.82742917  1
  In  In3  1  0.31837255  0.51157142  0.16740294  1
  In  In4  1  0.49947187  0.64759873  0.50036124  1
  In  In5  1  0.15924162  0.16899711  0.32515374  1
  In  In6  1  0.01656201  0.50250740  0.16108779  1
  In  In7  1  0.84702151  0.49461837  0.34449668  1
  In  In8  1  0.49345281  0.20272075  0.34783984  1
  In  In9  1  0.33235469  0.34193613  0.32297014  1
  In  In10  1  0.48910152  0.48575218  -0.00485238  1
  In  In11  1  0.32169049  0.49071964  0.83451606  1
  In  In12  1  0.49017443  0.00619567  0.15246288  1
  In  In13  1  0.68601230  0.80235453  0.18435710  1
  In  In14  1  0.84671525  0.17761446  -0.00377839  1
  In  In15  1  0.66932886  -0.00917061  -0.02177024  1
  In  In16  1  0.00532603  0.85250262  0.83154696  1
  In  In17  1  0.47477195  0.03527820  0.81253184  1
  In  In18  1  0.81729242  0.31839360  0.50670724  1
  In  In19  1  0.67814394  0.84209547  0.83127929  1
  In  In20  1  0.82589272  0.34927766  0.83256355  1
  In  In21  1  -0.00170323  0.18208800  0.15007165  1
  In  In22  1  0.00680247  0.15395315  0.52586539  1
  In  In23  1  0.50277851  0.15770540  -0.00023426  1
  In  In24  1  0.51976054  0.47670299  0.63787268  1
  In  In25  1  0.00771445  0.34248536  0.33503716  1
  In  In26  1  0.30517154  0.66601665  -0.00789801  1
  In  In27  1  0.32659004  0.32412729  0.65604925  1
  In  In28  1  0.31944985  0.65568471  0.32601995  1
  In  In29  1  0.79714458  0.17639786  0.33762396  1
  In  In30  1  0.34281349  0.16241541  0.52016821  1
  In  In31  1  0.84071818  0.83904599  0.65697867  1
  In  In32  1  0.67039603  0.19029027  0.16867833  1
  In  In33  1  0.16871413  0.67234438  0.48533671  1
  In  In34  1  0.83701467  0.83639105  0.35687351  1
  In  In35  1  0.30441602  0.00474982  0.35409804  1
  In  In36  1  0.85394874  0.00071660  0.16514621  1
  In  In37  1  0.30118243  0.82173704  0.15795851  1
  In  In38  1  0.68181589  0.65600925  0.00148662  1
  In  In39  1  0.17822552  0.16152070  -0.00503422  1
  In  In40  1  0.13350547  0.66742375  0.85522022  1
  In  In41  1  0.66700541  0.15671253  0.50659048  1
  In  In42  1  0.67237438  0.02943676  0.35728715  1
  In  In43  1  0.45825599  0.64682043  0.16516926  1
  In  In44  1  0.33498873  0.32439568  0.00422521  1
  In  In45  1  0.18062234  0.48358060  0.65952751  1
  In  In46  1  0.00252403  0.50366378  0.48633867  1
  In  In47  1  0.64176121  0.46726011  0.19321417  1
  In  In48  1  0.85111949  0.50069411  -0.00006576  1
  In  In49  1  0.15745829  0.14972661  0.65960654  1
  In  In50  1  0.32738704  0.86518754  0.51819072  1
  In  In51  1  0.46685129  0.82807663  0.66186010  1
  In  In52  1  0.83139614  0.14542291  0.66103774  1
  In  In53  1  0.32222373  0.00411977  0.00027860  1
  In  In54  1  0.67304286  0.32419582  0.00066225  1
  In  In55  1  -0.02258087  0.67244599  0.67547834  1
  In  In56  1  0.50220645  0.67482531  0.79258063  1
  In  In57  1  0.66799859  0.66772502  0.35582396  1
  In  In58  1  0.52226082  0.30475486  0.81866788  1
  In  In59  1  0.01616661  0.66901994  0.33350302  1
  In  In60  1  0.48989074  0.84403067  0.34408079  1
  In  In61  1  0.02208789  0.00122823  -0.01350552  1
  In  In62  1  0.03967693  0.81489793  0.15016192  1
  In  In63  1  0.85544617  0.66959650  0.84378574  1
  In  In64  1  0.82780496  0.51018676  0.67556496  1
  In  In65  1  0.66104339  0.65015423  0.64733143  1
  In  In66  1  0.67266388  0.00183757  0.66971845  1
  In  In67  1  0.02393974  0.33372386  0.67255364  1
  In  In68  1  0.83185277  0.66716941  0.15969114  1
  In  In69  1  0.34620800  0.67228462  0.65623779  1
  In  In70  1  0.00237233  -0.02324453  0.32502655  1
  In  In71  1  0.18161148  0.32577821  0.85400726  1
  Te  Te72  1  0.09450441  0.07851897  0.09596008  1
  Te  Te73  1  0.08137310  0.07477236  0.41753122  1
  Te  Te74  1  0.09691237  0.04791884  0.75316586  1
  Te  Te75  1  0.08982417  0.44119596  0.04746302  1
  Te  Te76  1  0.10304224  0.42220178  0.41589311  1
  Te  Te77  1  0.09560995  0.42392199  0.77259840  1
  Te  Te78  1  0.10935492  0.71512721  0.06387539  1
  Te  Te79  1  0.07622170  0.77146985  0.42425895  1
  Te  Te80  1  0.08579293  0.75751242  0.74013409  1
  Te  Te81  1  0.39229692  0.10575721  0.09207763  1
  Te  Te82  1  0.43480585  0.06991085  0.41490504  1
  Te  Te83  1  0.38879909  0.09784479  0.71054558  1
  Te  Te84  1  0.41626215  0.41163767  0.10370301  1
  Te  Te85  1  0.43803352  0.42143387  0.39334425  1
  Te  Te86  1  0.42191918  0.41397441  0.75149908  1
  Te  Te87  1  0.41922493  0.76322451  0.06553755  1
  Te  Te88  1  0.40352143  0.75185607  0.43074361  1
  Te  Te89  1  0.38216929  0.76533675  0.77416627  1
  Te  Te90  1  0.74673714  0.08413862  0.08576939  1
  Te  Te91  1  0.78400304  0.07486050  0.45163146  1
  Te  Te92  1  0.75723969  0.07286786  0.76713432  1
  Te  Te93  1  0.74489793  0.42678918  0.08694559  1
  Te  Te94  1  0.74624677  0.41791363  0.42209512  1
  Te  Te95  1  0.73352356  0.41377997  0.73713582  1
  Te  Te96  1  0.76978047  0.76654452  0.05979985  1
  Te  Te97  1  0.74431664  0.75908912  0.44256564  1
  Te  Te98  1  0.74887733  0.73390219  0.74694586  1
  Te  Te99  1  0.09372038  0.27163197  0.22952432  1
  Te  Te100  1  0.10583964  0.26421643  0.56626570  1
  Te  Te101  1  0.07090024  0.25345198  0.93174983  1
  Te  Te102  1  0.09911221  0.56513858  0.26806992  1
  Te  Te103  1  0.08287362  0.58427197  0.59270682  1
  Te  Te104  1  0.08831417  0.56984815  0.95730009  1
  Te  Te105  1  0.10403321  0.91729655  0.23625496  1
  Te  Te106  1  0.12651190  0.95898327  0.61048266  1
  Te  Te107  1  0.11777048  0.91255042  0.91368935  1
  Te  Te108  1  0.39975762  0.23635385  0.24062317  1
  Te  Te109  1  0.43598007  0.26460451  0.57417114  1
  Te  Te110  1  0.41361163  0.23886723  0.90366426  1
  Te  Te111  1  0.42905881  0.55569441  0.28378164  1
  Te  Te112  1  0.40234881  0.55604934  0.57602517  1
  Te  Te113  1  0.41870407  0.59317678  0.91154995  1
  Te  Te114  1  0.40245445  0.91529824  0.24053710  1
  Te  Te115  1  0.38754589  0.96393920  0.63103864  1
  Te  Te116  1  0.39454844  0.92709267  0.88663553  1
  Te  Te117  1  0.73813950  0.28571533  0.25898892  1
  Te  Te118  1  0.73126073  0.25504112  0.61815846  1
  Te  Te119  1  0.74389434  0.23640055  0.89888207  1
  Te  Te120  1  0.74342489  0.57873722  0.24557148  1
  Te  Te121  1  0.75724525  0.57642288  0.56370376  1
  Te  Te122  1  0.75323709  0.56821166  0.90128985  1
  Te  Te123  1  0.74935983  0.93096249  0.25600781  1
  Te  Te124  1  0.73875357  0.91020556  0.57519694  1
  Te  Te125  1  0.77664599  0.91265714  0.91528863  1
  Te  Te126  1  0.23684045  0.25821684  0.09152557  1
  Te  Te127  1  0.25965229  0.24009029  0.41703088  1
  Te  Te128  1  0.25086057  0.23466559  0.75375844  1
  Te  Te129  1  0.22523621  0.62011647  0.11218011  1
  Te  Te130  1  0.24960207  0.56682083  0.42238538  1
  Te  Te131  1  0.24544938  0.59494371  0.75337638  1
  Te  Te132  1  0.22578201  0.91234110  0.06838890  1
  Te  Te133  1  0.22791086  0.89166983  0.41107105  1
  Te  Te134  1  0.24204913  0.90788330  0.68372665  1
  Te  Te135  1  0.56328605  0.26544202  0.08992980  1
  Te  Te136  1  0.59733705  0.27094630  0.43400179  1
  Te  Te137  1  0.59608291  0.23604359  0.71300104  1
  Te  Te138  1  0.58165933  0.57810449  0.08884598  1
  Te  Te139  1  0.59389261  0.56047009  0.42646095  1
  Te  Te140  1  0.59008221  0.56010920  0.74914004  1
  Te  Te141  1  0.59454077  0.90922813  0.09220181  1
  Te  Te142  1  0.59840273  0.91198056  0.42739217  1
  Te  Te143  1  0.56713642  0.91142868  0.75290220  1
  Te  Te144  1  0.90190004  0.27658885  0.08980451  1
  Te  Te145  1  0.92420945  0.24610200  0.42277654  1
  Te  Te146  1  0.92382443  0.24540095  0.74682171  1
  Te  Te147  1  0.93746298  0.60519810  0.07183725  1
  Te  Te148  1  0.90827437  0.60779201  0.42501948  1
  Te  Te149  1  0.93595284  0.56075369  0.77149095  1
  Te  Te150  1  0.93694974  0.91025038  0.07828263  1
  Te  Te151  1  0.92801910  0.91987568  0.43957133  1
  Te  Te152  1  0.91924199  0.93519966  0.73946888  1
  Te  Te153  1  0.24696061  0.08103467  0.24308638  1
  Te  Te154  1  0.22603210  0.06830458  0.55094467  1
  Te  Te155  1  0.24866680  0.07934364  0.89441393  1
  Te  Te156  1  0.23091632  0.42425523  0.24823513  1
  Te  Te157  1  0.26003970  0.41363252  0.55777614  1
  Te  Te158  1  0.24094944  0.43654394  0.95119386  1
  Te  Te159  1  0.22589220  0.75387848  0.26577514  1
  Te  Te160  1  0.23822706  0.76093748  0.59321279  1
  Te  Te161  1  0.22835014  0.76825751  0.91505606  1
  Te  Te162  1  0.57821775  0.08976563  0.24927525  1
  Te  Te163  1  0.56571683  0.10308564  0.61093631  1
  Te  Te164  1  0.59161933  0.09209672  0.89424687  1
  Te  Te165  1  0.54100011  0.40124129  0.27845972  1
  Te  Te166  1  0.58373396  0.39108374  0.53673183  1
  Te  Te167  1  0.58916234  0.41276054  0.90723206  1
  Te  Te168  1  0.56209097  0.74038392  0.25520329  1
  Te  Te169  1  0.57393503  0.75645577  0.57961634  1
  Te  Te170  1  0.58427051  0.74289286  0.91561119  1
  Te  Te171  1  0.91643598  0.10308125  0.26081810  1
  Te  Te172  1  0.93720482  0.05171233  0.61061493  1
  Te  Te173  1  0.91510797  0.07553472  0.90683678  1
  Te  Te174  1  0.91384984  0.41301247  0.23611809  1
  Te  Te175  1  0.92201233  0.40953039  0.58458392  1
  Te  Te176  1  0.92992724  0.40143895  0.92345544  1
  Te  Te177  1  0.91701506  0.76124519  0.24561102  1
  Te  Te178  1  0.93017927  0.76075770  0.56751010  1
  Te  Te179  1  0.94192407  0.75525141  0.92559965  1
