# generated using pymatgen
data_In2Te3
_symmetry_space_group_name_H-M   'P 1'
_cell_length_a   18.96517289
_cell_length_b   18.93406839
_cell_length_c   18.96793360
_cell_angle_alpha   89.99901177
_cell_angle_beta   90.06234219
_cell_angle_gamma   89.95553693
_symmetry_Int_Tables_number   1
_chemical_formula_structural   In2Te3
_chemical_formula_sum   'In72 Te108'
_cell_volume   6811.14899160
_cell_formula_units_Z   36
loop_
 _symmetry_equiv_pos_site_id
 _symmetry_equiv_pos_as_xyz
  1  'x, y, z'
loop_
 _atom_site_type_symbol
 _atom_site_label
 _atom_site_symmetry_multiplicity
 _atom_site_fract_x
 _atom_site_fract_y
 _atom_site_fract_z
 _atom_site_occupancy
  In  In0  1  -0.00151548  0.00449401  -0.01682111  1
  In  In1  1  -0.00678473  0.83979022  0.50505948  1
  In  In2  1  0.86164831  0.85063266  0.32920783  1
  In  In3  1  0.14026117  0.48331391  0.32547849  1
  In  In4  1  0.33881173  0.82119487  0.17641335  1
  In  In5  1  0.32892292  0.64079859  0.65582161  1
  In  In6  1  0.65656193  0.83854201  0.51957635  1
  In  In7  1  0.67362263  0.32331515  0.67440891  1
  In  In8  1  0.31694429  0.18460283  0.49504618  1
  In  In9  1  0.32656162  0.16037151  0.83861184  1
  In  In10  1  0.70673432  0.18503964  0.50549817  1
  In  In11  1  0.69162275  0.80601797  0.17835051  1
  In  In12  1  0.87381005  0.82001578  -0.03279832  1
  In  In13  1  0.50888233  0.03276616  0.14351079  1
  In  In14  1  -0.00902414  0.79744308  0.82680215  1
  In  In15  1  0.15298623  0.64223766  0.51956290  1
  In  In16  1  0.50516287  0.64163853  0.15970861  1
  In  In17  1  0.38238841  0.51168179  0.86985289  1
  In  In18  1  -0.00781249  0.02735721  0.65592629  1
  In  In19  1  0.49963263  0.17284585  0.32203863  1
  In  In20  1  0.16547362  0.83914669  0.67860173  1
  In  In21  1  0.03256826  0.00953365  0.35100775  1
  In  In22  1  0.65437787  0.19939483  0.15488502  1
  In  In23  1  0.50260643  0.49225369  0.68437010  1
  In  In24  1  0.85016979  0.34590413  0.82435043  1
  In  In25  1  0.48627360  0.34386207  0.51805371  1
  In  In26  1  0.82875366  0.66695947  0.49780139  1
  In  In27  1  0.49710093  0.82228804  0.01546596  1
  In  In28  1  0.67726792  0.18153576  0.84523346  1
  In  In29  1  0.82926739  0.47962171  0.29490702  1
  In  In30  1  0.83674795  0.03125491  0.17848908  1
  In  In31  1  0.84033807  0.02860291  0.83491100  1
  In  In32  1  0.17197673  0.66859974  0.16040660  1
  In  In33  1  0.00524062  0.82466354  0.14676521  1
  In  In34  1  0.64326678  0.46755536  0.86766130  1
  In  In35  1  0.14325879  0.19378349  -0.00448154  1
  In  In36  1  0.17919882  0.65148343  0.83816699  1
  In  In37  1  0.50729572  0.16837198  0.00326137  1
  In  In38  1  0.91286262  0.52077959  0.66211811  1
  In  In39  1  0.18775681  0.47875003  -0.03405164  1
  In  In40  1  0.33703538  0.83905608  0.46806025  1
  In  In41  1  0.67142080  0.32365237  0.34375440  1
  In  In42  1  0.16506206  0.15758173  0.68262852  1
  In  In43  1  0.67959571  0.65331836  0.32802740  1
  In  In44  1  0.51059041  0.33065503  0.15171208  1
  In  In45  1  0.47493717  0.83724031  0.34778900  1
  In  In46  1  0.50900910  0.80100340  0.67858407  1
  In  In47  1  0.00160413  0.35154159  0.00834611  1
  In  In48  1  0.50568802  -0.00046832  0.51169512  1
  In  In49  1  0.33368492  0.80773365  0.84568802  1
  In  In50  1  0.33276285  0.48759128  0.15932524  1
  In  In51  1  0.14742812  0.33614175  0.48443612  1
  In  In52  1  0.31651581  0.48341099  0.48942666  1
  In  In53  1  0.15137695  -0.00803735  0.82656107  1
  In  In54  1  0.68831630  0.01275763  0.02300388  1
  In  In55  1  0.35241938  0.02998676  0.65565989  1
  In  In56  1  0.66730503  0.63946511  0.00493525  1
  In  In57  1  0.82034707  0.82193897  0.68752633  1
  In  In58  1  0.16074384  -0.00112176  0.16679543  1
  In  In59  1  0.69496537  0.00824582  0.69383817  1
  In  In60  1  -0.01196776  0.18632376  0.49288876  1
  In  In61  1  0.85694222  0.63256036  0.12625535  1
  In  In62  1  0.00008356  0.66994042  0.34061290  1
  In  In63  1  0.67886800  0.64680662  0.67044859  1
  In  In64  1  0.49638827  0.50367197  0.34784269  1
  In  In65  1  0.30984091  0.01025278  0.31944479  1
  In  In66  1  0.15680472  0.31439318  0.16711453  1
  In  In67  1  0.66956817  0.82288312  0.83866305  1
  In  In68  1  0.85282891  0.18888780  0.33938590  1
  In  In69  1  0.34469894  -0.01271507  0.00755094  1
  In  In70  1  0.11370124  0.46854267  0.66704167  1
  In  In71  1  0.50925905  0.18177296  0.67230708  1
  Te  Te72  1  0.07173585  0.09157993  0.08359713  1
  Te  Te73  1  0.09959789  0.12369317  0.41463427  1
  Te  Te74  1  0.05713787  0.09794775  0.77338121  1
  Te  Te75  1  0.10557877  0.43282512  0.08395951  1
  Te  Te76  1  0.04320630  0.41814299  0.41696614  1
  Te  Te77  1  0.05695008  0.40588185  0.79193515  1
  Te  Te78  1  0.06985439  0.72211815  0.06650014  1
  Te  Te79  1  0.09056267  0.75170044  0.42984799  1
  Te  Te80  1  0.08582686  0.72554546  0.73390307  1
  Te  Te81  1  0.39229159  0.10717461  0.08758936  1
  Te  Te82  1  0.41445408  0.08149747  0.42282520  1
  Te  Te83  1  0.44123857  0.08156252  0.76338415  1
  Te  Te84  1  0.42004615  0.41361190  0.06406746  1
  Te  Te85  1  0.40346108  0.39437694  0.40252185  1
  Te  Te86  1  0.39651681  0.41730204  0.75251378  1
  Te  Te87  1  0.40056884  0.72190878  0.07488837  1
  Te  Te88  1  0.41928319  0.72672228  0.42482540  1
  Te  Te89  1  0.41622584  0.71248765  0.75937384  1
  Te  Te90  1  0.76971437  0.12479366  0.07967174  1
  Te  Te91  1  0.75338922  0.09659462  0.40023287  1
  Te  Te92  1  0.77449173  0.12823674  0.74002016  1
  Te  Te93  1  0.66399101  0.40564468  0.10304421  1
  Te  Te94  1  0.74622150  0.43279791  0.40754751  1
  Te  Te95  1  0.74257890  0.42965063  0.75702006  1
  Te  Te96  1  0.76581159  0.75036746  0.05859381  1
  Te  Te97  1  0.75292200  0.76952516  0.41222381  1
  Te  Te98  1  0.76144276  0.71661635  0.78097210  1
  Te  Te99  1  0.03385040  0.28963756  0.24844019  1
  Te  Te100  1  0.08346163  0.25097393  0.59550000  1
  Te  Te101  1  0.07834779  0.28586274  0.89583726  1
  Te  Te102  1  0.06821024  0.58396097  0.23776499  1
  Te  Te103  1  0.03828989  0.56526682  0.57553989  1
  Te  Te104  1  0.08283244  0.54577279  0.88285980  1
  Te  Te105  1  0.08104942  0.90074374  0.25229856  1
  Te  Te106  1  0.08553700  0.92981442  0.58602728  1
  Te  Te107  1  0.07629231  0.89472500  0.91471100  1
  Te  Te108  1  0.41632590  0.25382552  0.23572927  1
  Te  Te109  1  0.39644505  0.25656569  0.60333205  1
  Te  Te110  1  0.42180714  0.24400879  0.91262929  1
  Te  Te111  1  0.40455504  0.58299185  0.25573121  1
  Te  Te112  1  0.42068116  0.55945414  0.56929565  1
  Te  Te113  1  0.40058773  0.64685560  0.92440132  1
  Te  Te114  1  0.42686394  0.93701605  0.23613846  1
  Te  Te115  1  0.42420361  0.90031058  0.59377486  1
  Te  Te116  1  0.42977250  0.90820632  0.91008637  1
  Te  Te117  1  0.76197603  0.26431247  0.23870887  1
  Te  Te118  1  0.78013810  0.29358944  0.57377385  1
  Te  Te119  1  0.76427921  0.27279005  0.92180993  1
  Te  Te120  1  0.74420330  0.57877912  0.21391543  1
  Te  Te121  1  0.77503267  0.56274166  0.59227560  1
  Te  Te122  1  0.75308397  0.53853676  0.93974496  1
  Te  Te123  1  0.75346555  0.92406951  0.25092812  1
  Te  Te124  1  0.76231692  0.92307579  0.58718241  1
  Te  Te125  1  0.75739610  0.92221032  0.91346727  1
  Te  Te126  1  0.24814246  0.27021666  0.06084584  1
  Te  Te127  1  0.22729763  0.24643401  0.39669317  1
  Te  Te128  1  0.24082188  0.25341620  0.76322447  1
  Te  Te129  1  0.25056968  0.57572182  0.06825051  1
  Te  Te130  1  0.23210453  0.57912754  0.40840303  1
  Te  Te131  1  0.22627071  0.55877389  0.72578358  1
  Te  Te132  1  0.24655316  0.90259574  0.08562863  1
  Te  Te133  1  0.23551515  0.92691102  0.41341394  1
  Te  Te134  1  0.26727241  0.93027346  0.74766391  1
  Te  Te135  1  0.61223863  0.28567582  0.02989654  1
  Te  Te136  1  0.57165376  0.24260982  0.44130974  1
  Te  Te137  1  0.57376123  0.27086739  0.77622148  1
  Te  Te138  1  0.58329368  0.53974984  0.08270459  1
  Te  Te139  1  0.60602640  0.57051363  0.42182276  1
  Te  Te140  1  0.58846230  0.58040335  0.77105195  1
  Te  Te141  1  0.59868448  0.90569373  0.09225337  1
  Te  Te142  1  0.58748254  0.92079924  0.41215047  1
  Te  Te143  1  0.58782537  0.91121151  0.74665194  1
  Te  Te144  1  0.94452184  0.27363892  0.12273391  1
  Te  Te145  1  0.92488804  0.29668707  0.41329388  1
  Te  Te146  1  0.95170543  0.30048461  0.72440564  1
  Te  Te147  1  0.92684302  0.51518875  0.07257975  1
  Te  Te148  1  0.89809197  0.57609008  0.39819842  1
  Te  Te149  1  0.91087350  0.60978604  0.77697873  1
  Te  Te150  1  0.90608385  0.92459581  0.08602739  1
  Te  Te151  1  0.91750363  0.94774657  0.43019463  1
  Te  Te152  1  0.91981939  0.91929077  0.75399928  1
  Te  Te153  1  0.23417026  0.10418087  0.23806923  1
  Te  Te154  1  0.23857739  0.07902377  0.57296837  1
  Te  Te155  1  0.23545934  0.06626194  0.92910251  1
  Te  Te156  1  0.24818130  0.40531843  0.25426178  1
  Te  Te157  1  0.23286503  0.40763734  0.58865155  1
  Te  Te158  1  0.27807002  0.40281379  0.87618409  1
  Te  Te159  1  0.24549054  0.74826726  0.26006047  1
  Te  Te160  1  0.25110827  0.75208664  0.58471041  1
  Te  Te161  1  0.22461067  0.75950973  0.92811401  1
  Te  Te162  1  0.60241045  0.08915636  0.24828667  1
  Te  Te163  1  0.60007059  0.08552647  0.59441482  1
  Te  Te164  1  0.59605006  0.07419702  0.92132143  1
  Te  Te165  1  0.58302126  0.41566666  0.25761348  1
  Te  Te166  1  0.59481035  0.42146625  0.58638973  1
  Te  Te167  1  0.50986305  0.44929328  0.93101636  1
  Te  Te168  1  0.57039506  0.74845760  0.25112243  1
  Te  Te169  1  0.58272061  0.71890757  0.57522945  1
  Te  Te170  1  0.58033414  0.73458715  0.92284092  1
  Te  Te171  1  0.94588858  0.09532512  0.25734307  1
  Te  Te172  1  0.89741832  0.10678949  0.57944378  1
  Te  Te173  1  0.91629510  0.11227502  0.92733711  1
  Te  Te174  1  0.93059970  0.40363217  0.21281212  1
  Te  Te175  1  0.91880277  0.38541844  0.60256670  1
  Te  Te176  1  0.89866841  0.43950832  0.93746664  1
  Te  Te177  1  0.90041210  0.73645745  0.23631661  1
  Te  Te178  1  0.91491328  0.74679398  0.59462501  1
  Te  Te179  1  0.92600404  0.69040961  0.91154431  1
