# generated using pymatgen
data_In2Te3
_symmetry_space_group_name_H-M   'P 1'
_cell_length_a   18.78921964
_cell_length_b   18.80850129
_cell_length_c   18.81492411
_cell_angle_alpha   89.98762061
_cell_angle_beta   90.05336406
_cell_angle_gamma   89.98388061
_symmetry_Int_Tables_number   1
_chemical_formula_structural   In2Te3
_chemical_formula_sum   'In72 Te108'
_cell_volume   6649.13559819
_cell_formula_units_Z   36
loop_
 _symmetry_equiv_pos_site_id
 _symmetry_equiv_pos_as_xyz
  1  'x, y, z'
loop_
 _atom_site_type_symbol
 _atom_site_label
 _atom_site_symmetry_multiplicity
 _atom_site_fract_x
 _atom_site_fract_y
 _atom_site_fract_z
 _atom_site_occupancy
  In  In0  1  0.52261706  0.33992430  0.82121663  1
  In  In1  1  0.82023434  0.82465396  -0.00556009  1
  In  In2  1  0.16957632  0.16791316  0.00120337  1
  In  In3  1  0.14777835  0.68945566  0.48933728  1
  In  In4  1  0.54058010  0.83440769  0.68978436  1
  In  In5  1  0.32112063  0.63290279  0.67673635  1
  In  In6  1  0.00928249  0.83714553  0.47556456  1
  In  In7  1  0.82119880  -0.00686356  0.53692141  1
  In  In8  1  0.49348044  0.50678844  0.32567795  1
  In  In9  1  0.00011003  0.67041984  0.66141221  1
  In  In10  1  0.48656967  -0.00764974  0.16059089  1
  In  In11  1  0.31980362  0.51841463  0.83483496  1
  In  In12  1  0.33706882  0.48748807  0.16040152  1
  In  In13  1  0.13605990  0.35549348  0.83949016  1
  In  In14  1  0.83086991  0.34105744  0.50785426  1
  In  In15  1  0.30832644  0.33290592  0.65529803  1
  In  In16  1  0.51253191  0.01838263  0.49088388  1
  In  In17  1  0.67405765  0.67072266  0.00883161  1
  In  In18  1  0.18244979  -0.00492279  0.14528387  1
  In  In19  1  0.12795710  0.80788136  0.31869334  1
  In  In20  1  0.16261592  0.83175523  0.67452795  1
  In  In21  1  0.31401654  0.15189966  0.83368790  1
  In  In22  1  0.68406002  0.33471644  -0.02559406  1
  In  In23  1  0.86015118  0.31592545  0.82062197  1
  In  In24  1  0.00763990  0.66269425  0.00222559  1
  In  In25  1  0.84219070  0.66309209  0.48703816  1
  In  In26  1  -0.01662496  0.01248600  0.67034166  1
  In  In27  1  0.14795402  0.49874868  -0.00048454  1
  In  In28  1  0.50468316  0.15627239  0.00288963  1
  In  In29  1  0.83337610  0.01958603  0.80788409  1
  In  In30  1  -0.02122510  0.33439249  -0.00002291  1
  In  In31  1  0.50836617  0.65803534  0.81696736  1
  In  In32  1  0.34486407  0.31543690  0.02284250  1
  In  In33  1  0.13602692  0.00803710  0.82416404  1
  In  In34  1  0.69111574  0.52163649  0.17443399  1
  In  In35  1  0.50041234  0.84163852  0.01615067  1
  In  In36  1  0.83855011  -0.00255022  0.16405812  1
  In  In37  1  0.32461910  0.69372838  -0.00288128  1
  In  In38  1  -0.01475697  -0.00318351  -0.02706628  1
  In  In39  1  0.67199015  0.48441383  0.51202320  1
  In  In40  1  0.47396417  0.32830940  0.17758265  1
  In  In41  1  0.32393139  0.81523248  0.85648285  1
  In  In42  1  0.32078014  0.16621336  0.18744446  1
  In  In43  1  0.84532097  0.33132495  0.16069500  1
  In  In44  1  0.29494368  0.30972153  0.34888501  1
  In  In45  1  0.14157698  0.51334626  0.32968222  1
  In  In46  1  -0.01232558  0.51200052  0.15294172  1
  In  In47  1  0.68717300  0.30985248  0.67308787  1
  In  In48  1  0.03655992  0.31798006  0.31391978  1
  In  In49  1  0.52130516  0.70070867  0.51865644  1
  In  In50  1  0.68686836  0.84075332  0.82516813  1
  In  In51  1  0.66956530  -0.00789774  0.32071320  1
  In  In52  1  0.51676232  0.51952998  0.69471741  1
  In  In53  1  0.15783933  0.49305336  0.68019172  1
  In  In54  1  0.84144327  0.16051024  0.33963427  1
  In  In55  1  0.83398135  0.66738178  0.84838267  1
  In  In56  1  0.49983489  0.32320131  0.49073552  1
  In  In57  1  0.67140942  0.33937968  0.36457648  1
  In  In58  1  0.68319152  0.67025367  0.33224669  1
  In  In59  1  0.33366043  0.01088777  0.33365307  1
  In  In60  1  0.17549879  0.02716501  0.49382654  1
  In  In61  1  0.00245325  0.01041503  0.34587902  1
  In  In62  1  0.28902066  0.68793189  0.30427711  1
  In  In63  1  0.67147381  0.82240130  0.14828449  1
  In  In64  1  0.66511292  0.14550701  0.16992766  1
  In  In65  1  0.51201979  0.18633199  0.66605581  1
  In  In66  1  0.84115269  0.48301938  0.66499771  1
  In  In67  1  0.32901356  0.00643899  0.64437573  1
  In  In68  1  0.51984856  -0.01417338  0.83593612  1
  In  In69  1  0.33955452  0.85110499  0.48882881  1
  In  In70  1  0.31357546  0.48735656  0.52595657  1
  In  In71  1  0.50629603  0.84272861  0.32481976  1
  Te  Te72  1  0.07384101  0.07695191  0.07578842  1
  Te  Te73  1  0.06470458  0.11423300  0.43827904  1
  Te  Te74  1  0.06282521  0.11652038  0.74852329  1
  Te  Te75  1  0.07926698  0.40352469  0.09433342  1
  Te  Te76  1  0.06243976  0.42453222  0.41675729  1
  Te  Te77  1  0.05176036  0.39635762  0.72315848  1
  Te  Te78  1  0.07034741  0.72600117  0.12349345  1
  Te  Te79  1  0.02563310  0.68633601  0.38927720  1
  Te  Te80  1  0.06809415  0.75982460  0.75926366  1
  Te  Te81  1  0.39368067  0.08498704  0.08070956  1
  Te  Te82  1  0.38783981  0.08688702  0.44781329  1
  Te  Te83  1  0.42381646  0.08110942  0.74882800  1
  Te  Te84  1  0.44097328  0.42743357  0.06506032  1
  Te  Te85  1  0.40380298  0.41745486  0.41403444  1
  Te  Te86  1  0.40227915  0.42009380  0.74296103  1
  Te  Te87  1  0.42255926  0.74578034  0.09530695  1
  Te  Te88  1  0.41575334  0.74455417  0.40827707  1
  Te  Te89  1  0.41033995  0.74986775  0.73955965  1
  Te  Te90  1  0.76499176  0.09234485  0.07717978  1
  Te  Te91  1  0.74790198  0.07505280  0.42121593  1
  Te  Te92  1  0.73408691  0.07545182  0.71163054  1
  Te  Te93  1  0.75825124  0.42331415  0.07673373  1
  Te  Te94  1  0.77413907  0.44313290  0.40662956  1
  Te  Te95  1  0.74717917  0.41422756  0.76228091  1
  Te  Te96  1  0.78591257  0.72760381  0.10871262  1
  Te  Te97  1  0.76660770  0.76405532  0.40861344  1
  Te  Te98  1  0.78542171  0.76553446  0.74596559  1
  Te  Te99  1  0.12336601  0.22803175  0.23547050  1
  Te  Te100  1  0.12019189  0.22178028  0.55681305  1
  Te  Te101  1  0.06951216  0.24145122  0.91438543  1
  Te  Te102  1  0.09955537  0.59733973  0.21203993  1
  Te  Te103  1  0.08499965  0.57873962  0.57455890  1
  Te  Te104  1  0.04913657  0.55517882  0.90534991  1
  Te  Te105  1  0.07066204  0.93025438  0.23530290  1
  Te  Te106  1  0.08715515  0.92333198  0.57613915  1
  Te  Te107  1  0.09779339  0.90872197  0.92769099  1
  Te  Te108  1  0.41489051  0.23702722  0.28485038  1
  Te  Te109  1  0.39985694  0.24171221  0.57458308  1
  Te  Te110  1  0.41882726  0.24990399  0.90389832  1
  Te  Te111  1  0.40330498  0.59684504  0.24427755  1
  Te  Te112  1  0.43151057  0.58241451  0.57565522  1
  Te  Te113  1  0.42068972  0.59090134  0.92064054  1
  Te  Te114  1  0.39269809  0.90351486  0.24262975  1
  Te  Te115  1  0.43982069  0.90937150  0.59083753  1
  Te  Te116  1  0.41079016  0.92370280  0.92330715  1
  Te  Te117  1  0.74168141  0.25183623  0.25371416  1
  Te  Te118  1  0.77445143  0.22736798  0.58723780  1
  Te  Te119  1  0.77621871  0.23594076  0.91644366  1
  Te  Te120  1  0.78666548  0.58819394  0.26492634  1
  Te  Te121  1  0.75529836  0.58453988  0.58857383  1
  Te  Te122  1  0.74119273  0.57634887  0.91882201  1
  Te  Te123  1  0.76216562  0.89516890  0.24884801  1
  Te  Te124  1  0.72981587  0.89238184  0.59556652  1
  Te  Te125  1  0.75202294  0.93734589  0.92081869  1
  Te  Te126  1  0.22867631  0.26537295  0.11119883  1
  Te  Te127  1  0.20080627  0.22435301  0.42998360  1
  Te  Te128  1  0.23092450  0.25758043  0.76266863  1
  Te  Te129  1  0.25094354  0.57998762  0.07505285  1
  Te  Te130  1  0.25405229  0.58834933  0.42057159  1
  Te  Te131  1  0.20945887  0.60440249  0.77497867  1
  Te  Te132  1  0.26511364  0.88382032  0.09563813  1
  Te  Te133  1  0.22471686  0.90304006  0.40386271  1
  Te  Te134  1  0.25947175  0.92307988  0.75247308  1
  Te  Te135  1  0.58127001  0.25658651  0.08946664  1
  Te  Te136  1  0.59409576  0.23056407  0.42637309  1
  Te  Te137  1  0.61086808  0.22503825  0.77747424  1
  Te  Te138  1  0.58655995  0.59400892  0.09957853  1
  Te  Te139  1  0.58496473  0.58016546  0.42520223  1
  Te  Te140  1  0.62464299  0.60765967  0.74055787  1
  Te  Te141  1  0.60247942  0.93874631  0.07752871  1
  Te  Te142  1  0.59663474  0.90723005  0.42710057  1
  Te  Te143  1  0.63154724  0.96258108  0.72309850  1
  Te  Te144  1  0.92017096  0.22918686  0.08695505  1
  Te  Te145  1  0.92286090  0.26521578  0.40961233  1
  Te  Te146  1  0.94131050  0.21636311  0.74694024  1
  Te  Te147  1  0.89399340  0.59345195  0.07164688  1
  Te  Te148  1  0.93769106  0.56850016  0.42284550  1
  Te  Te149  1  0.92029619  0.57876373  0.75312266  1
  Te  Te150  1  0.92259310  0.90337563  0.07882397  1
  Te  Te151  1  0.90049376  0.92475492  0.41765445  1
  Te  Te152  1  0.91596839  0.90943776  0.75182764  1
  Te  Te153  1  0.21697000  0.08853149  0.26942711  1
  Te  Te154  1  0.22069603  0.10711705  0.61553845  1
  Te  Te155  1  0.24460148  0.05683165  0.92763768  1
  Te  Te156  1  0.24161917  0.42004565  0.25877374  1
  Te  Te157  1  0.20170749  0.39371114  0.56368386  1
  Te  Te158  1  0.25953141  0.40566288  0.92557961  1
  Te  Te159  1  0.22253716  0.77425634  0.19526701  1
  Te  Te160  1  0.25986824  0.74670389  0.58060785  1
  Te  Te161  1  0.20786929  0.75956307  0.93087882  1
  Te  Te162  1  0.55947870  0.08067273  0.26158329  1
  Te  Te163  1  0.59881092  0.10003226  0.58105621  1
  Te  Te164  1  0.59788977  0.07841956  0.92011009  1
  Te  Te165  1  0.58749114  0.41045652  0.25319132  1
  Te  Te166  1  0.57425101  0.40242691  0.60053156  1
  Te  Te167  1  0.59138970  0.43251981  0.91128921  1
  Te  Te168  1  0.58118506  0.74074991  0.24027370  1
  Te  Te169  1  0.63560084  0.76423532  0.59364094  1
  Te  Te170  1  0.58176320  0.76498174  0.90929968  1
  Te  Te171  1  0.93269993  0.09538516  0.23823595  1
  Te  Te172  1  0.90929650  0.10615107  0.58041792  1
  Te  Te173  1  0.91095693  0.10600751  0.90267214  1
  Te  Te174  1  0.92849523  0.41572294  0.25493668  1
  Te  Te175  1  0.94004705  0.39663706  0.59427858  1
  Te  Te176  1  0.92038116  0.42759251  0.90109658  1
  Te  Te177  1  0.98925045  0.78112350  0.26073826  1
  Te  Te178  1  0.91907334  0.76608166  0.57498363  1
  Te  Te179  1  0.93403902  0.76432953  0.91410485  1
