# generated using pymatgen
data_In2Te3
_symmetry_space_group_name_H-M   'P 1'
_cell_length_a   19.05864177
_cell_length_b   19.05730584
_cell_length_c   19.02831232
_cell_angle_alpha   90.17662734
_cell_angle_beta   90.03840998
_cell_angle_gamma   90.08043685
_symmetry_Int_Tables_number   1
_chemical_formula_structural   In2Te3
_chemical_formula_sum   'In72 Te108'
_cell_volume   6911.16293042
_cell_formula_units_Z   36
loop_
 _symmetry_equiv_pos_site_id
 _symmetry_equiv_pos_as_xyz
  1  'x, y, z'
loop_
 _atom_site_type_symbol
 _atom_site_label
 _atom_site_symmetry_multiplicity
 _atom_site_fract_x
 _atom_site_fract_y
 _atom_site_fract_z
 _atom_site_occupancy
  In  In0  1  0.16264150  0.83706483  0.00199357  1
  In  In1  1  0.48278570  0.65271675  0.14967544  1
  In  In2  1  0.36334912  0.17309696  0.85268334  1
  In  In3  1  0.35089406  0.12459823  0.16102451  1
  In  In4  1  0.16701853  0.68160955  0.51171623  1
  In  In5  1  0.84622875  0.16113450  -0.02371871  1
  In  In6  1  0.66291566  0.66245568  0.33591764  1
  In  In7  1  -0.01258234  0.69396109  0.31468326  1
  In  In8  1  -0.03131838  0.84477313  0.15830363  1
  In  In9  1  0.01406900  0.83600008  0.83187887  1
  In  In10  1  0.32747661  0.82114945  0.82388912  1
  In  In11  1  0.00388125  0.00438755  0.34383921  1
  In  In12  1  0.82704618  0.31462544  0.52277817  1
  In  In13  1  0.14784582  0.34931863  0.82458054  1
  In  In14  1  0.67610184  -0.01902948  0.32004420  1
  In  In15  1  0.15894121  0.00476406  0.16159256  1
  In  In16  1  0.34543629  0.67815966  0.33005036  1
  In  In17  1  0.34402162  0.50230718  0.82286184  1
  In  In18  1  0.67952598  0.81983173  0.49128137  1
  In  In19  1  0.00997548  0.18397530  0.83554884  1
  In  In20  1  0.51357950  0.83409292  -0.00402928  1
  In  In21  1  0.17089637  0.16703459  0.65916702  1
  In  In22  1  0.00412757  0.01623928  0.67152458  1
  In  In23  1  0.81725462  0.82769839  -0.00069955  1
  In  In24  1  0.65473047  -0.00839931  0.01016015  1
  In  In25  1  -0.00828069  0.84159432  0.49776065  1
  In  In26  1  0.66177979  0.32938851  0.65003882  1
  In  In27  1  0.47169680  0.33391492  0.18876197  1
  In  In28  1  0.14966631  0.33321593  0.15138772  1
  In  In29  1  0.80304579  -0.01857449  0.15403424  1
  In  In30  1  0.31137980  0.30571413  0.32739548  1
  In  In31  1  0.63632177  0.50457174  0.15696417  1
  In  In32  1  0.83426313  0.48030627  0.32788580  1
  In  In33  1  0.30976197  0.48183706  0.14356551  1
  In  In34  1  0.83163857  0.18007510  0.68548840  1
  In  In35  1  0.65605670  0.31930528  -0.00298521  1
  In  In36  1  0.49678339  0.83524619  0.34023066  1
  In  In37  1  0.16130580  0.52706222  0.35536852  1
  In  In38  1  0.51514997  -0.00433851  0.84684475  1
  In  In39  1  0.33421402  0.33629007  0.67291810  1
  In  In40  1  0.35936219  0.49178620  0.53172022  1
  In  In41  1  0.34810575  0.65787569  0.67543491  1
  In  In42  1  0.49771589  0.50689277  0.35696008  1
  In  In43  1  0.66160243  0.16017779  0.82299125  1
  In  In44  1  0.31760025  0.84111584  0.18500536  1
  In  In45  1  0.33553506  0.83314549  0.49794198  1
  In  In46  1  0.51123571  0.31853298  0.49385095  1
  In  In47  1  0.84897934  0.16356045  0.34015030  1
  In  In48  1  -0.01580942  0.51409337  0.16946761  1
  In  In49  1  0.64536424  0.15389063  0.19056995  1
  In  In50  1  -0.00615356  0.49395848  0.49782685  1
  In  In51  1  0.84135738  0.34507511  0.15562159  1
  In  In52  1  0.83000511  0.50385687  0.66686590  1
  In  In53  1  0.33424787  -0.01310814  0.68362281  1
  In  In54  1  -0.00236047  0.66278268  0.67503532  1
  In  In55  1  0.35776509  0.31931861  -0.00425234  1
  In  In56  1  0.65775647  0.82975196  0.82542528  1
  In  In57  1  0.67755126  0.65502117  0.66482959  1
  In  In58  1  0.66827244  0.49113818  0.83402971  1
  In  In59  1  -0.00154260  0.66320745  -0.00080375  1
  In  In60  1  0.17559823  -0.00611825  0.48433215  1
  In  In61  1  0.84675750  0.00217536  0.50840884  1
  In  In62  1  0.85478790  0.48658467  -0.04518625  1
  In  In63  1  0.68088422  0.32597532  0.36000665  1
  In  In64  1  0.15540089  0.51189000  -0.01532405  1
  In  In65  1  0.84696236  0.82290421  0.65124010  1
  In  In66  1  -0.00714161  0.17513985  0.15834259  1
  In  In67  1  0.18919092  0.33606934  0.51656061  1
  In  In68  1  0.48486929  0.82636282  0.66959298  1
  In  In69  1  0.32619075  0.65979290  -0.02051034  1
  In  In70  1  0.19415339  0.16232686  0.00348966  1
  In  In71  1  0.48454148  0.13547010  0.49856702  1
  Te  Te72  1  0.07600014  0.08842384  0.06748637  1
  Te  Te73  1  0.08239791  0.09163355  0.42757572  1
  Te  Te74  1  0.10150672  0.08480035  0.76436349  1
  Te  Te75  1  0.06437314  0.42723753  0.07228993  1
  Te  Te76  1  0.09475474  0.41063172  0.42112257  1
  Te  Te77  1  0.04758705  0.45115082  0.79326143  1
  Te  Te78  1  0.07305193  0.75449091  0.09259432  1
  Te  Te79  1  0.08624106  0.75960288  0.41234016  1
  Te  Te80  1  0.08771239  0.76631963  0.72628459  1
  Te  Te81  1  0.45316443  0.11432032  0.05973136  1
  Te  Te82  1  0.37474222  0.12463487  0.40212407  1
  Te  Te83  1  0.43157499  0.07934217  0.75294851  1
  Te  Te84  1  0.43197622  0.42704503  0.07719562  1
  Te  Te85  1  0.39903287  0.40012301  0.41189170  1
  Te  Te86  1  0.43258666  0.41680467  0.74421965  1
  Te  Te87  1  0.39675112  0.75443905  0.08212808  1
  Te  Te88  1  0.43336506  0.73564142  0.43666175  1
  Te  Te89  1  0.43824568  0.73214833  0.77646137  1
  Te  Te90  1  0.74168601  0.10654240  0.08145992  1
  Te  Te91  1  0.75130300  0.07567874  0.41254867  1
  Te  Te92  1  0.75635632  0.07577967  0.75314780  1
  Te  Te93  1  0.73907810  0.42086068  0.07619292  1
  Te  Te94  1  0.75636239  0.42488870  0.44475851  1
  Te  Te95  1  0.75261534  0.40018247  0.74565096  1
  Te  Te96  1  0.75402647  0.77196693  0.11808289  1
  Te  Te97  1  0.76389324  0.75089571  0.39543246  1
  Te  Te98  1  0.76139529  0.74873251  0.75094437  1
  Te  Te99  1  0.09079173  0.23866902  0.24547427  1
  Te  Te100  1  0.09207648  0.27832154  0.61045709  1
  Te  Te101  1  0.09747441  0.25766147  0.93432722  1
  Te  Te102  1  0.08422731  0.59596797  0.24714473  1
  Te  Te103  1  0.08733702  0.57619014  0.58353872  1
  Te  Te104  1  0.07095359  0.58892018  0.89238435  1
  Te  Te105  1  0.07273763  0.91299382  0.24664008  1
  Te  Te106  1  0.08408720  0.92147884  0.58396781  1
  Te  Te107  1  0.07932679  0.92770627  0.92563876  1
  Te  Te108  1  0.42579090  0.22179027  0.27495100  1
  Te  Te109  1  0.41335611  0.24472987  0.58411670  1
  Te  Te110  1  0.45682198  0.28047120  0.89427677  1
  Te  Te111  1  0.40754649  0.55832641  0.24468980  1
  Te  Te112  1  0.45052890  0.57062508  0.61354943  1
  Te  Te113  1  0.42328267  0.56672002  0.92787723  1
  Te  Te114  1  0.39882030  0.92334096  0.27578818  1
  Te  Te115  1  0.42428135  0.92804285  0.57613773  1
  Te  Te116  1  0.41284759  0.91062926  0.91593526  1
  Te  Te117  1  0.75848565  0.25663843  0.24776232  1
  Te  Te118  1  0.72629207  0.20933636  0.57117259  1
  Te  Te119  1  0.75180132  0.25348363  0.90177707  1
  Te  Te120  1  0.74252993  0.56654670  0.24536000  1
  Te  Te121  1  0.76831106  0.59227343  0.56862674  1
  Te  Te122  1  0.75878266  0.58185052  0.90650598  1
  Te  Te123  1  0.73770681  0.87481958  0.23411752  1
  Te  Te124  1  0.74981013  0.91847995  0.58691282  1
  Te  Te125  1  0.74256614  0.92450985  0.90812150  1
  Te  Te126  1  0.27309857  0.25354132  0.10510381  1
  Te  Te127  1  0.25588510  0.22534630  0.43861031  1
  Te  Te128  1  0.25478327  0.24670005  0.76846922  1
  Te  Te129  1  0.23488897  0.59655177  0.08394937  1
  Te  Te130  1  0.26995600  0.58749918  0.44120178  1
  Te  Te131  1  0.24806842  0.58636932  0.75430026  1
  Te  Te132  1  0.25838872  0.92863979  0.07680004  1
  Te  Te133  1  0.25996192  0.90895703  0.39829696  1
  Te  Te134  1  0.23484646  0.90709047  0.75303747  1
  Te  Te135  1  0.56877763  0.25299380  0.10391000  1
  Te  Te136  1  0.58578915  0.22180593  0.40661608  1
  Te  Te137  1  0.57609415  0.23628686  0.72846560  1
  Te  Te138  1  0.59475942  0.60971384  0.06478883  1
  Te  Te139  1  0.59441112  0.57946314  0.43587007  1
  Te  Te140  1  0.58564390  0.57711805  0.74715997  1
  Te  Te141  1  0.57646972  0.91181904  0.10333847  1
  Te  Te142  1  0.58628459  0.92028959  0.42734474  1
  Te  Te143  1  0.58321022  0.92296349  0.73338124  1
  Te  Te144  1  0.92265823  0.26489283  0.05824769  1
  Te  Te145  1  0.92150432  0.25457296  0.42645029  1
  Te  Te146  1  0.91831596  0.27541690  0.76037407  1
  Te  Te147  1  0.89305401  0.57987252  0.07003723  1
  Te  Te148  1  0.92427187  0.58061345  0.39660574  1
  Te  Te149  1  0.90778850  0.58601396  0.76123462  1
  Te  Te150  1  0.90859489  0.93690346  0.05576726  1
  Te  Te151  1  0.89953469  0.91097841  0.40029417  1
  Te  Te152  1  0.91576097  0.91922802  0.74483773  1
  Te  Te153  1  0.23832856  0.09288040  0.24733463  1
  Te  Te154  1  0.25988302  0.07382640  0.58398209  1
  Te  Te155  1  0.28082210  0.07645064  0.92521842  1
  Te  Te156  1  0.23099310  0.42188544  0.25827850  1
  Te  Te157  1  0.24407644  0.44104151  0.61452166  1
  Te  Te158  1  0.25050041  0.40863127  0.92812018  1
  Te  Te159  1  0.23795412  0.74590778  0.26278869  1
  Te  Te160  1  0.25780299  0.75935470  0.60330682  1
  Te  Te161  1  0.22612398  0.74008952  0.90381379  1
  Te  Te162  1  0.56731265  0.04289240  0.24272351  1
  Te  Te163  1  0.59269049  0.13459556  0.60019239  1
  Te  Te164  1  0.56224148  0.09751315  0.94995381  1
  Te  Te165  1  0.58470405  0.40716362  0.26982345  1
  Te  Te166  1  0.58984222  0.42048961  0.56152228  1
  Te  Te167  1  0.57424795  0.40947405  0.91612057  1
  Te  Te168  1  0.56321002  0.73640315  0.24818437  1
  Te  Te169  1  0.58537557  0.75025949  0.58733431  1
  Te  Te170  1  0.60279896  0.74156643  0.92896512  1
  Te  Te171  1  0.90300971  0.06966255  0.23294205  1
  Te  Te172  1  0.92421309  0.10781819  0.58360980  1
  Te  Te173  1  0.92154541  0.07818061  0.88474979  1
  Te  Te174  1  0.94008836  0.39826626  0.25617544  1
  Te  Te175  1  0.92485585  0.40349367  0.59593872  1
  Te  Te176  1  0.92655023  0.39102455  0.86798293  1
  Te  Te177  1  0.88537509  0.73554730  0.21609983  1
  Te  Te178  1  0.91747717  0.72704492  0.55988631  1
  Te  Te179  1  0.91441024  0.75223207  0.91223338  1
