# generated using pymatgen
data_In2Te3
_symmetry_space_group_name_H-M   'P 1'
_cell_length_a   18.78688564
_cell_length_b   18.77739924
_cell_length_c   18.77673988
_cell_angle_alpha   90.02503814
_cell_angle_beta   89.99062572
_cell_angle_gamma   90.10227412
_symmetry_Int_Tables_number   1
_chemical_formula_structural   In2Te3
_chemical_formula_sum   'In72 Te108'
_cell_volume   6623.83769922
_cell_formula_units_Z   36
loop_
 _symmetry_equiv_pos_site_id
 _symmetry_equiv_pos_as_xyz
  1  'x, y, z'
loop_
 _atom_site_type_symbol
 _atom_site_label
 _atom_site_symmetry_multiplicity
 _atom_site_fract_x
 _atom_site_fract_y
 _atom_site_fract_z
 _atom_site_occupancy
  In  In0  1  0.49489630  0.83722467  -0.00932100  1
  In  In1  1  0.65720358  0.32633888  -0.00553801  1
  In  In2  1  0.14529479  0.64353472  0.87261140  1
  In  In3  1  0.65458242  0.16512658  0.51285663  1
  In  In4  1  0.82384281  0.67061064  0.48854010  1
  In  In5  1  0.51897001  0.50692103  0.67462140  1
  In  In6  1  0.81305088  0.01133073  0.82336653  1
  In  In7  1  0.82699172  0.31626309  0.14910267  1
  In  In8  1  0.50204272  0.67473048  0.49583408  1
  In  In9  1  0.33905358  0.18177988  0.48122930  1
  In  In10  1  0.50091751  0.32393567  0.84627552  1
  In  In11  1  0.66296880  0.84015972  0.14522523  1
  In  In12  1  0.18644527  0.64340588  0.51170225  1
  In  In13  1  0.17411039  0.19110328  0.66405723  1
  In  In14  1  0.65977682  -0.00804263  -0.01007741  1
  In  In15  1  0.33576465  0.01943625  0.33215287  1
  In  In16  1  0.66737694  0.15695630  0.83247282  1
  In  In17  1  0.18114874  0.84003120  0.33067981  1
  In  In18  1  0.33009615  0.82743857  0.17627132  1
  In  In19  1  0.66091358  0.48684296  0.48448974  1
  In  In20  1  0.65397698  -0.01757117  0.33524557  1
  In  In21  1  0.83519086  0.49977303  0.66647201  1
  In  In22  1  0.34920292  0.13991046  0.83051404  1
  In  In23  1  0.17556625  0.82778392  0.66190680  1
  In  In24  1  0.49308124  0.65208030  0.16815186  1
  In  In25  1  0.33816801  0.67244228  0.68374000  1
  In  In26  1  0.35090829  -0.01330871  0.66395039  1
  In  In27  1  0.34527757  0.32144053  0.63267054  1
  In  In28  1  -0.00833665  0.35680039  0.00793068  1
  In  In29  1  0.34555836  0.35360853  0.01048971  1
  In  In30  1  0.00607458  0.50520133  0.16381810  1
  In  In31  1  0.82797126  0.50294250  0.34520380  1
  In  In32  1  -0.00639699  0.65264420  0.65403846  1
  In  In33  1  -0.00439040  0.65756497  0.32092621  1
  In  In34  1  0.50548666  0.18385899  0.33584959  1
  In  In35  1  0.51149472  0.83674542  0.66363246  1
  In  In36  1  0.67932201  0.34587029  0.64945654  1
  In  In37  1  0.16651818  0.01651643  0.47209540  1
  In  In38  1  0.50447729  0.50465523  0.00706580  1
  In  In39  1  0.79767213  -0.01204127  0.53381645  1
  In  In40  1  0.36646884  0.14633372  0.15467441  1
  In  In41  1  0.00889961  0.32329902  0.33810021  1
  In  In42  1  0.00026275  0.84790565  0.83448384  1
  In  In43  1  0.64823631  0.82376337  0.82346540  1
  In  In44  1  0.51217180  0.65591862  0.82843942  1
  In  In45  1  -0.02122913  0.19013480  0.82721124  1
  In  In46  1  0.16604779  -0.00081213  0.17587857  1
  In  In47  1  0.51842603  -0.00656009  0.83474534  1
  In  In48  1  0.49858569  0.84126601  0.35401301  1
  In  In49  1  -0.02211964  0.01528004  0.67077435  1
  In  In50  1  0.84501049  0.17220211  0.32726845  1
  In  In51  1  -0.00112152  0.83356421  0.50180898  1
  In  In52  1  0.14811457  0.34046846  0.17986019  1
  In  In53  1  0.16946046  0.66013443  0.15267259  1
  In  In54  1  0.32242378  0.49538078  0.17774524  1
  In  In55  1  0.33028827  0.52252349  0.81574055  1
  In  In56  1  0.84084424  0.16549861  -0.00393694  1
  In  In57  1  0.34987427  0.46720801  0.48449743  1
  In  In58  1  0.17666107  0.81529391  0.00881927  1
  In  In59  1  0.82034031  0.68459878  0.83355177  1
  In  In60  1  0.15590837  0.15809119  0.02620480  1
  In  In61  1  0.16593724  0.34458011  0.49260184  1
  In  In62  1  -0.01516859  0.34075775  0.66869031  1
  In  In63  1  0.86745380  0.85160020  0.02611602  1
  In  In64  1  0.17372539  0.00461852  0.84659370  1
  In  In65  1  0.82858816  0.49428334  -0.01701627  1
  In  In66  1  0.82367847  0.64410719  0.16844454  1
  In  In67  1  0.66162539  0.17340025  0.16586882  1
  In  In68  1  0.83402907  0.82528678  0.33372439  1
  In  In69  1  0.66766344  0.66106961  0.34907193  1
  In  In70  1  0.15588158  0.35508658  0.82369916  1
  In  In71  1  0.00914371  0.01301281  0.32155161  1
  Te  Te72  1  0.06036992  0.05798888  0.08486701  1
  Te  Te73  1  0.07493141  0.11184135  0.41053821  1
  Te  Te74  1  0.09075612  0.09206876  0.75078950  1
  Te  Te75  1  0.10814612  0.44212436  0.06063320  1
  Te  Te76  1  0.08517028  0.43171064  0.40312405  1
  Te  Te77  1  0.06629632  0.43932390  0.74548716  1
  Te  Te78  1  0.07149486  0.75107130  0.09022436  1
  Te  Te79  1  0.08797879  0.74536619  0.41580872  1
  Te  Te80  1  0.07787715  0.74808391  0.74827583  1
  Te  Te81  1  0.44854207  0.07036693  0.06110036  1
  Te  Te82  1  0.43807352  0.07801932  0.42708813  1
  Te  Te83  1  0.44973089  0.09055658  0.72586471  1
  Te  Te84  1  0.44229984  0.41226801  0.11090139  1
  Te  Te85  1  0.41905623  0.37011353  0.38544189  1
  Te  Te86  1  0.41513812  0.41186924  0.75009184  1
  Te  Te87  1  0.40885470  0.74328981  0.07726468  1
  Te  Te88  1  0.40675113  0.73604892  0.40186646  1
  Te  Te89  1  0.42425072  0.76583123  0.76791627  1
  Te  Te90  1  0.74763039  0.07890624  0.08064635  1
  Te  Te91  1  0.74611618  0.07932994  0.41115451  1
  Te  Te92  1  0.75206312  0.10069147  0.72318162  1
  Te  Te93  1  0.73787654  0.42076514  0.08544113  1
  Te  Te94  1  0.77068827  0.39821059  0.43370516  1
  Te  Te95  1  0.74198631  0.42666142  0.75623463  1
  Te  Te96  1  0.76078112  0.74844987  0.07429336  1
  Te  Te97  1  0.72782149  0.77549065  0.43106448  1
  Te  Te98  1  0.74571573  0.76210379  0.72615646  1
  Te  Te99  1  0.06539974  0.23171347  0.23638185  1
  Te  Te100  1  0.07309318  0.24998530  0.57257148  1
  Te  Te101  1  0.09063246  0.24891904  0.91710375  1
  Te  Te102  1  0.10319287  0.56922923  0.26225114  1
  Te  Te103  1  0.07585356  0.56455818  0.56928485  1
  Te  Te104  1  0.06544714  0.54877489  0.95107537  1
  Te  Te105  1  0.07275550  0.89624576  0.24309540  1
  Te  Te106  1  0.08809279  0.92900488  0.58477036  1
  Te  Te107  1  0.08535957  0.92059122  0.93665114  1
  Te  Te108  1  0.40458837  0.25401194  0.25131347  1
  Te  Te109  1  0.44841542  0.23022872  0.57560017  1
  Te  Te110  1  0.41221007  0.23881791  0.93432253  1
  Te  Te111  1  0.41415621  0.57523360  0.26561117  1
  Te  Te112  1  0.41003767  0.57471717  0.58857849  1
  Te  Te113  1  0.41049665  0.59333174  0.92399274  1
  Te  Te114  1  0.42179757  0.92436182  0.24986988  1
  Te  Te115  1  0.42606832  0.90742094  0.56451521  1
  Te  Te116  1  0.41003880  0.92865569  0.91082206  1
  Te  Te117  1  0.73884694  0.26408819  0.26128354  1
  Te  Te118  1  0.76222601  0.24367639  0.57950798  1
  Te  Te119  1  0.76075174  0.25735173  0.90573946  1
  Te  Te120  1  0.72403410  0.55959835  0.24841296  1
  Te  Te121  1  0.73747519  0.58254852  0.57648789  1
  Te  Te122  1  0.73896899  0.59299366  0.91732888  1
  Te  Te123  1  0.75498076  0.91747147  0.23994585  1
  Te  Te124  1  0.73383019  0.88748979  0.61978420  1
  Te  Te125  1  0.75517352  0.89769822  0.91746597  1
  Te  Te126  1  0.25236621  0.25883649  0.09030362  1
  Te  Te127  1  0.24995480  0.26480921  0.39753029  1
  Te  Te128  1  0.26899294  0.25514735  0.76538092  1
  Te  Te129  1  0.26525813  0.58218571  0.07210696  1
  Te  Te130  1  0.26886011  0.56939113  0.41426322  1
  Te  Te131  1  0.22003789  0.59455283  0.74140092  1
  Te  Te132  1  0.25969400  0.92368202  0.08241810  1
  Te  Te133  1  0.27095539  0.91595338  0.42693465  1
  Te  Te134  1  0.25851127  0.91041492  0.76079499  1
  Te  Te135  1  0.56868819  0.26411898  0.09497497  1
  Te  Te136  1  0.60070116  0.26997589  0.41593627  1
  Te  Te137  1  0.59042991  0.25738195  0.74584322  1
  Te  Te138  1  0.59814117  0.58636991  0.08835477  1
  Te  Te139  1  0.55889558  0.56574114  0.40079683  1
  Te  Te140  1  0.61736093  0.58424711  0.75263463  1
  Te  Te141  1  0.55625908  0.93778391  0.09194590  1
  Te  Te142  1  0.57950725  0.92211680  0.44908723  1
  Te  Te143  1  0.61523444  0.94130411  0.72651081  1
  Te  Te144  1  0.94156821  0.23665180  0.08873556  1
  Te  Te145  1  0.89962045  0.27053619  0.42495928  1
  Te  Te146  1  0.88769607  0.23922713  0.72315321  1
  Te  Te147  1  0.92336248  0.58768565  0.06634050  1
  Te  Te148  1  0.92992120  0.57681662  0.43215258  1
  Te  Te149  1  0.91693952  0.58499660  0.76686177  1
  Te  Te150  1  0.92535941  0.96314222  0.10224613  1
  Te  Te151  1  0.91212954  0.92692800  0.41925894  1
  Te  Te152  1  0.89672474  0.90892923  0.74146991  1
  Te  Te153  1  0.24459207  0.10635023  0.24985737  1
  Te  Te154  1  0.25553774  0.08763168  0.58621101  1
  Te  Te155  1  0.26183395  0.08209097  0.94331114  1
  Te  Te156  1  0.24633924  0.40400130  0.27022289  1
  Te  Te157  1  0.24501214  0.42627914  0.59579416  1
  Te  Te158  1  0.25578058  0.42995777  0.91312426  1
  Te  Te159  1  0.25708698  0.72742827  0.26328195  1
  Te  Te160  1  0.27352391  0.75652774  0.57196457  1
  Te  Te161  1  0.24905500  0.74363168  0.90189148  1
  Te  Te162  1  0.57390814  0.07799300  0.24752266  1
  Te  Te163  1  0.54925630  0.10498041  0.59765184  1
  Te  Te164  1  0.56620740  0.10283039  0.93794504  1
  Te  Te165  1  0.55277390  0.38905563  0.32563593  1
  Te  Te166  1  0.56118024  0.40654428  0.56951667  1
  Te  Te167  1  0.59108813  0.43164285  0.90402667  1
  Te  Te168  1  0.59142295  0.75678313  0.25221095  1
  Te  Te169  1  0.59131789  0.72944904  0.59917603  1
  Te  Te170  1  0.59285739  0.73542649  0.93429933  1
  Te  Te171  1  0.90231424  0.07068474  0.23225788  1
  Te  Te172  1  0.90840037  0.08200764  0.56080131  1
  Te  Te173  1  0.92496273  0.07201053  0.90839018  1
  Te  Te174  1  0.90752531  0.41705287  0.23930415  1
  Te  Te175  1  0.90950697  0.41918780  0.56670935  1
  Te  Te176  1  0.91013341  0.40479662  0.89633432  1
  Te  Te177  1  0.91721615  0.75052700  0.22997769  1
  Te  Te178  1  0.90241083  0.75662806  0.58941427  1
  Te  Te179  1  0.92688229  0.75096298  0.92561701  1
