# generated using pymatgen
data_In2Te3
_symmetry_space_group_name_H-M   'P 1'
_cell_length_a   18.96069500
_cell_length_b   18.98780655
_cell_length_c   18.97514161
_cell_angle_alpha   89.93620049
_cell_angle_beta   90.17041464
_cell_angle_gamma   90.17513165
_symmetry_Int_Tables_number   1
_chemical_formula_structural   In2Te3
_chemical_formula_sum   'In72 Te108'
_cell_volume   6831.40230280
_cell_formula_units_Z   36
loop_
 _symmetry_equiv_pos_site_id
 _symmetry_equiv_pos_as_xyz
  1  'x, y, z'
loop_
 _atom_site_type_symbol
 _atom_site_label
 _atom_site_symmetry_multiplicity
 _atom_site_fract_x
 _atom_site_fract_y
 _atom_site_fract_z
 _atom_site_occupancy
  In  In0  1  0.63758677  0.88635360  0.80903287  1
  In  In1  1  0.79898280  0.04748701  0.85748916  1
  In  In2  1  0.15765809  0.17556123  0.29986119  1
  In  In3  1  0.82265831  0.18224440  0.32592661  1
  In  In4  1  0.37259810  0.49652919  0.83341779  1
  In  In5  1  0.18510687  0.81573287  0.33607705  1
  In  In6  1  0.32599341  0.18417066  0.16204026  1
  In  In7  1  0.82645928  0.29521758  0.80121071  1
  In  In8  1  0.15878720  0.81251084  -0.00062273  1
  In  In9  1  0.38855185  0.51623741  0.51164994  1
  In  In10  1  0.82005303  0.64393162  0.16894236  1
  In  In11  1  -0.00856324  0.60725349  0.30748474  1
  In  In12  1  0.18506595  0.32614463  0.49370746  1
  In  In13  1  0.00276136  0.31808792  -0.02099344  1
  In  In14  1  0.66241857  0.31744761  0.66188066  1
  In  In15  1  0.83701338  0.01333125  0.52746375  1
  In  In16  1  0.67783882  0.17782301  0.49619222  1
  In  In17  1  0.32277614  0.83334275  0.50785023  1
  In  In18  1  0.17505764  0.85803093  0.65707038  1
  In  In19  1  0.64986265  0.68031121  -0.00754675  1
  In  In20  1  0.62252705  0.65248079  0.36917874  1
  In  In21  1  0.16704045  0.30716906  0.82317676  1
  In  In22  1  0.38437366  0.80711932  0.13048914  1
  In  In23  1  0.48627726  0.16744670  0.67770736  1
  In  In24  1  0.83936896  0.64052050  0.84036436  1
  In  In25  1  0.16891286  0.66936588  0.49229659  1
  In  In26  1  0.16282657  -0.01629751  0.16177002  1
  In  In27  1  0.63825812  0.47134621  0.87249154  1
  In  In28  1  -0.01436132  0.02460153  0.35587150  1
  In  In29  1  0.83252144  0.45131393  0.31120583  1
  In  In30  1  0.02777726  0.66590819  0.67175891  1
  In  In31  1  0.84324940  0.84792921  0.68572131  1
  In  In32  1  -0.01746629  0.00702552  0.00352268  1
  In  In33  1  0.15307408  0.32280355  0.14673269  1
  In  In34  1  0.83308252  0.85970550  0.31161026  1
  In  In35  1  0.04899212  0.47651813  0.84010127  1
  In  In36  1  0.81796403  0.68403343  0.51352358  1
  In  In37  1  0.16803074  -0.02058738  0.51561060  1
  In  In38  1  0.35321284  0.30462325  -0.00170691  1
  In  In39  1  0.51308833  0.02170990  0.13810847  1
  In  In40  1  0.32488359  -0.00133193  -0.03382494  1
  In  In41  1  0.35958528  0.68196504  0.32158924  1
  In  In42  1  0.20026120  0.49890937  -0.00560219  1
  In  In43  1  -0.01985297  0.48395444  0.51385434  1
  In  In44  1  0.79954064  0.82982041  -0.00342761  1
  In  In45  1  0.21515169  0.66020467  0.82313426  1
  In  In46  1  0.34485366  0.35037940  0.67135642  1
  In  In47  1  0.65338846  0.17178347  0.84853034  1
  In  In48  1  0.66643749  0.33272851  0.32560843  1
  In  In49  1  0.04542116  0.84474402  0.50924481  1
  In  In50  1  -0.01717773  0.17614863  0.16960460  1
  In  In51  1  -0.00368095  0.63687259  0.01859690  1
  In  In52  1  -0.00669742  0.85000991  0.16432405  1
  In  In53  1  0.65574269  0.82134643  0.50913534  1
  In  In54  1  0.68177338  0.66714895  0.67327679  1
  In  In55  1  -0.01306331  0.84695704  0.84478866  1
  In  In56  1  0.50980728  0.84260624  0.32446946  1
  In  In57  1  0.33668825  0.52158889  0.16481901  1
  In  In58  1  0.81731860  0.48511177  0.64934781  1
  In  In59  1  0.65986422  0.50449560  0.15804319  1
  In  In60  1  0.70754488  0.03099864  0.15010090  1
  In  In61  1  0.49255963  0.02183621  0.50542645  1
  In  In62  1  0.51250636  0.34242457  0.49502543  1
  In  In63  1  0.82925652  0.45623484  0.01690100  1
  In  In64  1  0.50908978  0.31790100  0.15778017  1
  In  In65  1  -0.00841140  0.15706972  0.52064246  1
  In  In66  1  0.37171603  0.84406785  0.83329233  1
  In  In67  1  0.49235499  0.66916099  0.83522237  1
  In  In68  1  0.35980025  0.01114789  0.69681330  1
  In  In69  1  0.18272564  0.48310443  0.33206257  1
  In  In70  1  0.18010137  0.15589281  0.67996121  1
  In  In71  1  0.33624143  0.15922633  0.46232269  1
  Te  Te72  1  0.07918138  0.08679296  0.09071747  1
  Te  Te73  1  0.10566335  0.09091611  0.42236264  1
  Te  Te74  1  0.10991154  0.08724409  0.78974553  1
  Te  Te75  1  0.08532560  0.42365478  0.05685842  1
  Te  Te76  1  0.08352876  0.41452582  0.42359299  1
  Te  Te77  1  0.10219798  0.40100409  0.72932492  1
  Te  Te78  1  0.07527735  0.73862402  0.10242801  1
  Te  Te79  1  0.07078708  0.73647842  0.39808050  1
  Te  Te80  1  0.08923457  0.77392723  0.75863992  1
  Te  Te81  1  0.39537598  0.09077281  0.06588510  1
  Te  Te82  1  0.42907344  0.07788346  0.38591583  1
  Te  Te83  1  0.45161122  0.07772833  0.79564618  1
  Te  Te84  1  0.41290410  0.41440337  0.08337641  1
  Te  Te85  1  0.41698899  0.41542228  0.40950388  1
  Te  Te86  1  0.45286501  0.44017988  0.72084322  1
  Te  Te87  1  0.45213706  0.69956930  0.05802642  1
  Te  Te88  1  0.42870214  0.76252448  0.42858859  1
  Te  Te89  1  0.40576349  0.73833494  0.73860577  1
  Te  Te90  1  0.70248586  0.14372331  0.04557946  1
  Te  Te91  1  0.75598746  0.07518231  0.41670426  1
  Te  Te92  1  0.71756040  0.09146089  0.74364935  1
  Te  Te93  1  0.73013142  0.38647539  0.10157880  1
  Te  Te94  1  0.75237545  0.40414152  0.42309371  1
  Te  Te95  1  0.73883141  0.42337172  0.76510546  1
  Te  Te96  1  0.73036000  0.74701331  0.10424027  1
  Te  Te97  1  0.74377631  0.75608257  0.40230697  1
  Te  Te98  1  0.76172864  0.75435499  0.77448448  1
  Te  Te99  1  0.05003435  0.28027462  0.26231145  1
  Te  Te100  1  0.09850916  0.24405575  0.58769205  1
  Te  Te101  1  0.06315619  0.21956611  0.88472053  1
  Te  Te102  1  0.11283865  0.57284838  0.23781891  1
  Te  Te103  1  0.09353360  0.56973182  0.57713470  1
  Te  Te104  1  0.08783047  0.60916684  0.90014934  1
  Te  Te105  1  0.07589412  0.91939128  0.27336731  1
  Te  Te106  1  0.05746615  0.95058591  0.61682847  1
  Te  Te107  1  0.08639065  0.92486131  0.92857500  1
  Te  Te108  1  0.42614958  0.24062843  0.25170037  1
  Te  Te109  1  0.40938998  0.24650254  0.57020310  1
  Te  Te110  1  0.45274038  0.28073150  0.89265808  1
  Te  Te111  1  0.44300629  0.59123004  0.24251000  1
  Te  Te112  1  0.47534179  0.61642299  0.57718397  1
  Te  Te113  1  0.41341106  0.59481463  0.93892693  1
  Te  Te114  1  0.42832534  0.91860914  0.22150799  1
  Te  Te115  1  0.41813951  0.91764997  0.58970882  1
  Te  Te116  1  0.43972506  0.91052221  0.94476645  1
  Te  Te117  1  0.75833029  0.27124882  0.22586198  1
  Te  Te118  1  0.76429090  0.27505764  0.56572394  1
  Te  Te119  1  0.73902263  0.27360325  0.91528605  1
  Te  Te120  1  0.73891857  0.57403357  0.27538556  1
  Te  Te121  1  0.72741794  0.57342025  0.56258918  1
  Te  Te122  1  0.75744765  0.57571729  0.94930036  1
  Te  Te123  1  0.71089145  0.91552023  0.25139553  1
  Te  Te124  1  0.74216420  0.91628323  0.59649610  1
  Te  Te125  1  0.71808637  0.93739409  0.92729877  1
  Te  Te126  1  0.22846575  0.23473772  0.05185898  1
  Te  Te127  1  0.25780038  0.25896925  0.37945193  1
  Te  Te128  1  0.28456206  0.23906290  0.75489129  1
  Te  Te129  1  0.24846843  0.60479156  0.08099735  1
  Te  Te130  1  0.26448239  0.59319839  0.40528386  1
  Te  Te131  1  0.26736675  0.55221274  0.74390723  1
  Te  Te132  1  0.25629096  0.90270444  0.07653157  1
  Te  Te133  1  0.26212610  0.92558136  0.40523241  1
  Te  Te134  1  0.25504577  0.92524205  0.76551906  1
  Te  Te135  1  0.56498934  0.21718098  0.06017589  1
  Te  Te136  1  0.57556139  0.23868415  0.40400323  1
  Te  Te137  1  0.55953805  0.26943216  0.76394862  1
  Te  Te138  1  0.56724755  0.58313892  0.06968075  1
  Te  Te139  1  0.52537025  0.56474923  0.44334212  1
  Te  Te140  1  0.60471598  0.58329771  0.77798688  1
  Te  Te141  1  0.61453751  0.91689857  0.11191350  1
  Te  Te142  1  0.58544048  0.92651747  0.42691613  1
  Te  Te143  1  0.52255807  0.94851780  0.74309576  1
  Te  Te144  1  0.90572683  0.24343953  0.06290099  1
  Te  Te145  1  0.91814734  0.23695724  0.42325795  1
  Te  Te146  1  0.92772457  0.21708565  0.73646287  1
  Te  Te147  1  0.91583592  0.54469855  0.10712034  1
  Te  Te148  1  0.90735444  0.58855980  0.42995424  1
  Te  Te149  1  0.91614638  0.57843819  0.72731681  1
  Te  Te150  1  0.88606732  0.92047818  0.08536132  1
  Te  Te151  1  0.91414110  0.91081597  0.43144850  1
  Te  Te152  1  0.89789031  0.94978223  0.78302792  1
  Te  Te153  1  0.25258875  0.07316274  0.24364283  1
  Te  Te154  1  0.27028487  0.07542666  0.58048723  1
  Te  Te155  1  0.23743533  0.07589114  0.87725195  1
  Te  Te156  1  0.25414226  0.40291075  0.22471303  1
  Te  Te157  1  0.26930997  0.42815867  0.56557348  1
  Te  Te158  1  0.26729071  0.40072975  0.90426591  1
  Te  Te159  1  0.26938696  0.75986412  0.22728363  1
  Te  Te160  1  0.25083816  0.73753783  0.60038574  1
  Te  Te161  1  0.27352991  0.75575381  0.91988399  1
  Te  Te162  1  0.60288214  0.11627308  0.21114202  1
  Te  Te163  1  0.59102617  0.09777204  0.59228108  1
  Te  Te164  1  0.58597457  0.09628173  0.96040103  1
  Te  Te165  1  0.57104777  0.42408619  0.25188110  1
  Te  Te166  1  0.57359106  0.42229195  0.60532259  1
  Te  Te167  1  0.53522300  0.39699239  0.94629781  1
  Te  Te168  1  0.56490962  0.72343688  0.25476270  1
  Te  Te169  1  0.57522070  0.75072192  0.61218465  1
  Te  Te170  1  0.57986490  0.77752553  0.90062615  1
  Te  Te171  1  0.89943173  0.07223585  0.24301517  1
  Te  Te172  1  0.89895160  0.10751067  0.62826850  1
  Te  Te173  1  0.89628800  0.11391217  0.94870867  1
  Te  Te174  1  0.94599294  0.39664231  0.24447568  1
  Te  Te175  1  0.92057260  0.38950338  0.60887301  1
  Te  Te176  1  0.92097641  0.42258408  0.89584086  1
  Te  Te177  1  0.91076995  0.74365170  0.24698325  1
  Te  Te178  1  0.92745030  0.75721569  0.59192873  1
  Te  Te179  1  0.91671883  0.74809634  0.93985725  1
