# generated using pymatgen
data_In2Te3
_symmetry_space_group_name_H-M   'P 1'
_cell_length_a   18.79008383
_cell_length_b   18.80085482
_cell_length_c   18.80053067
_cell_angle_alpha   89.86980327
_cell_angle_beta   90.09126266
_cell_angle_gamma   90.06168718
_symmetry_Int_Tables_number   1
_chemical_formula_structural   In2Te3
_chemical_formula_sum   'In72 Te108'
_cell_volume   6641.62726886
_cell_formula_units_Z   36
loop_
 _symmetry_equiv_pos_site_id
 _symmetry_equiv_pos_as_xyz
  1  'x, y, z'
loop_
 _atom_site_type_symbol
 _atom_site_label
 _atom_site_symmetry_multiplicity
 _atom_site_fract_x
 _atom_site_fract_y
 _atom_site_fract_z
 _atom_site_occupancy
  In  In0  1  0.34052764  0.65893183  0.02110880  1
  In  In1  1  0.65577231  0.33539091  0.67288600  1
  In  In2  1  0.17101951  0.81094958  0.65883005  1
  In  In3  1  0.16007375  0.67208251  0.83684257  1
  In  In4  1  0.34030747  0.83287665  0.82345563  1
  In  In5  1  0.00341099  0.00595921  0.00148606  1
  In  In6  1  0.16334881  0.16902229  0.67786950  1
  In  In7  1  -0.00228818  0.65909513  -0.00371335  1
  In  In8  1  0.65830487  0.67861738  0.32512899  1
  In  In9  1  0.48269951  0.83360989  0.00487914  1
  In  In10  1  -0.00383150  0.19591223  0.16647602  1
  In  In11  1  0.64114457  0.14317450  0.48080768  1
  In  In12  1  0.48929112  0.82892637  0.64328111  1
  In  In13  1  0.67524687  0.47494561  0.13792482  1
  In  In14  1  0.67983451  0.82135721  0.84133904  1
  In  In15  1  0.17273642  0.14576553  0.02147931  1
  In  In16  1  0.86278752  -0.00713328  0.84685952  1
  In  In17  1  0.84770839  0.32474539  0.48447121  1
  In  In18  1  0.52050582  0.29208126  0.13609222  1
  In  In19  1  0.65046184  0.00455763  0.63490459  1
  In  In20  1  0.68022019  0.50223885  0.47261220  1
  In  In21  1  0.31801777  0.31228427  0.02128465  1
  In  In22  1  0.17842577  0.66474373  0.18881780  1
  In  In23  1  0.01435538  0.81109560  0.50053888  1
  In  In24  1  0.64112709  0.00071043  0.34196990  1
  In  In25  1  0.30721539  0.50039683  0.17913652  1
  In  In26  1  0.18538077  0.33704762  0.47426435  1
  In  In27  1  0.15608389  0.50261846  0.34131959  1
  In  In28  1  0.17869863  -0.01787629  0.46528910  1
  In  In29  1  -0.00076470  0.00852950  0.67970640  1
  In  In30  1  0.85312565  0.68165134  0.20030559  1
  In  In31  1  0.52048576  0.33079419  0.84007694  1
  In  In32  1  0.84450441  0.32409165  0.85584155  1
  In  In33  1  0.84507954  0.66904497  0.48797544  1
  In  In34  1  0.83592548  0.46444926  0.00703014  1
  In  In35  1  0.00290539  0.18234952  0.86161612  1
  In  In36  1  0.65021324  0.16354737  0.84465785  1
  In  In37  1  0.32240632  0.50600006  0.51638257  1
  In  In38  1  0.32949359  0.15947263  0.85766060  1
  In  In39  1  0.85336164  0.50676222  0.33572579  1
  In  In40  1  0.17510269  0.87358826  0.02033090  1
  In  In41  1  0.32925864  0.48780609  0.82925667  1
  In  In42  1  0.31395701  0.68981304  0.64139503  1
  In  In43  1  0.00538364  0.34038719  0.66177927  1
  In  In44  1  0.84852692  0.64704053  0.83555935  1
  In  In45  1  0.50648355  0.00224613  0.83927604  1
  In  In46  1  0.49222682  0.32067993  0.50176458  1
  In  In47  1  0.83969518  0.84156439  0.32454628  1
  In  In48  1  0.14247515  0.51818470  0.63108327  1
  In  In49  1  0.00375299  0.46502116  0.14973798  1
  In  In50  1  0.32695816  -0.01693426  0.67031200  1
  In  In51  1  0.66670271  0.66858209  -0.00031726  1
  In  In52  1  0.48750824  0.47415126  -0.01704469  1
  In  In53  1  0.80964424  0.14722822  0.66539074  1
  In  In54  1  0.50263938  0.15696213  0.33507514  1
  In  In55  1  0.33322181  0.34450192  0.31026520  1
  In  In56  1  0.80023800  -0.00663863  0.48200519  1
  In  In57  1  0.34618781  0.15951147  0.48705116  1
  In  In58  1  0.51554380  0.49926746  0.30714269  1
  In  In59  1  0.49319235  0.68896529  0.16500630  1
  In  In60  1  0.14803615  0.31673445  0.84912721  1
  In  In61  1  0.48951263  0.52081580  0.67573295  1
  In  In62  1  0.84695962  0.49771339  0.68108377  1
  In  In63  1  -0.00185331  0.15891072  0.46238126  1
  In  In64  1  0.00441706  0.84508161  0.17001901  1
  In  In65  1  0.64701764  0.66210820  0.68035312  1
  In  In66  1  0.35514327  0.71429134  0.36425850  1
  In  In67  1  0.66386947  0.84904239  0.18936542  1
  In  In68  1  0.47044348  0.00150328  0.16986126  1
  In  In69  1  0.00781685  0.00460859  0.31335550  1
  In  In70  1  0.84771243  0.83486815  0.00238913  1
  In  In71  1  0.69426711  0.05223666  0.04143199  1
  Te  Te72  1  0.07844012  0.07072018  0.11526938  1
  Te  Te73  1  0.11161408  0.09479778  0.38346385  1
  Te  Te74  1  0.08717846  0.08403906  0.77973551  1
  Te  Te75  1  0.08828406  0.40372915  0.04805511  1
  Te  Te76  1  0.07053371  0.41099545  0.42027571  1
  Te  Te77  1  0.09673530  0.42205988  0.74929801  1
  Te  Te78  1  0.08998527  0.75188499  0.08224040  1
  Te  Te79  1  0.12955309  0.73437911  0.44476405  1
  Te  Te80  1  0.07066791  0.73067777  0.73310943  1
  Te  Te81  1  0.37871435  0.08504153  0.08617246  1
  Te  Te82  1  0.40607265  0.05762522  0.39577198  1
  Te  Te83  1  0.41081895  0.08192846  0.75039045  1
  Te  Te84  1  0.41320096  0.41678417  0.10341870  1
  Te  Te85  1  0.41524538  0.42723539  0.41086640  1
  Te  Te86  1  0.42204292  0.40213970  0.74456919  1
  Te  Te87  1  0.38398326  0.77831844  0.10761396  1
  Te  Te88  1  0.45496630  0.79905114  0.43813215  1
  Te  Te89  1  0.42136988  0.73417334  0.74404535  1
  Te  Te90  1  0.78947914  0.13962785  0.12726246  1
  Te  Te91  1  0.76987535  0.11827400  0.40000895  1
  Te  Te92  1  0.73832536  0.06247847  0.76891401  1
  Te  Te93  1  0.78461353  0.37217633  0.11892893  1
  Te  Te94  1  0.75095087  0.39924706  0.38922765  1
  Te  Te95  1  0.75170485  0.41041998  0.76267491  1
  Te  Te96  1  0.74908450  0.75316558  0.09990545  1
  Te  Te97  1  0.74609421  0.76306332  0.41629787  1
  Te  Te98  1  0.76319936  0.73916465  0.74660674  1
  Te  Te99  1  0.11054834  0.26889617  0.22899855  1
  Te  Te100  1  0.08211940  0.24372270  0.57011301  1
  Te  Te101  1  0.06947125  0.26663990  0.97402965  1
  Te  Te102  1  0.06682880  0.57722957  0.24140278  1
  Te  Te103  1  0.08278653  0.61882057  0.54099961  1
  Te  Te104  1  0.08416446  0.57181864  0.91568701  1
  Te  Te105  1  0.10475939  0.90109491  0.26595411  1
  Te  Te106  1  0.08843610  0.92941307  0.58146200  1
  Te  Te107  1  0.07187963  0.90462315  0.91896445  1
  Te  Te108  1  0.41733908  0.23947170  0.23734851  1
  Te  Te109  1  0.39692623  0.25235006  0.58885021  1
  Te  Te110  1  0.42629040  0.24934386  0.93437084  1
  Te  Te111  1  0.40474992  0.59628717  0.25272457  1
  Te  Te112  1  0.42304543  0.60759341  0.56939762  1
  Te  Te113  1  0.41627570  0.58644568  0.90918800  1
  Te  Te114  1  0.40450086  0.93845116  0.28824295  1
  Te  Te115  1  0.38914287  0.90480535  0.56014773  1
  Te  Te116  1  0.39927217  0.93207846  0.92356097  1
  Te  Te117  1  0.72817855  0.17873926  0.26017414  1
  Te  Te118  1  0.74163166  0.25162727  0.57657117  1
  Te  Te119  1  0.73269223  0.25445564  0.93329583  1
  Te  Te120  1  0.73856617  0.57798233  0.24307035  1
  Te  Te121  1  0.75326493  0.57666793  0.58398005  1
  Te  Te122  1  0.75175597  0.56943469  0.92463428  1
  Te  Te123  1  0.75950740  0.94717374  0.25099307  1
  Te  Te124  1  0.75104918  0.90801174  0.59065794  1
  Te  Te125  1  0.74249271  0.92453917  0.93522211  1
  Te  Te126  1  0.23275999  0.24107388  0.12545039  1
  Te  Te127  1  0.25717609  0.23537270  0.38762321  1
  Te  Te128  1  0.25689399  0.25556634  0.76130452  1
  Te  Te129  1  0.22575166  0.57393245  0.07341354  1
  Te  Te130  1  0.26590769  0.58846632  0.40279802  1
  Te  Te131  1  0.25122018  0.58224339  0.73558437  1
  Te  Te132  1  0.26682784  0.95199499  0.10692748  1
  Te  Te133  1  0.26049909  0.91882697  0.35783391  1
  Te  Te134  1  0.22652434  0.91238929  0.76008954  1
  Te  Te135  1  0.63007442  0.24022562  0.05315001  1
  Te  Te136  1  0.59014463  0.26469757  0.40205388  1
  Te  Te137  1  0.56849038  0.22643494  0.73274816  1
  Te  Te138  1  0.57035903  0.58365553  0.08705843  1
  Te  Te139  1  0.57028720  0.59284935  0.41588706  1
  Te  Te140  1  0.58875170  0.56543318  0.77449422  1
  Te  Te141  1  0.58028930  0.92157673  0.08399138  1
  Te  Te142  1  0.57582196  0.89959976  0.42511773  1
  Te  Te143  1  0.58250244  0.90359849  0.75157045  1
  Te  Te144  1  0.89210248  0.26251338  0.08090330  1
  Te  Te145  1  0.93914364  0.26833483  0.38122500  1
  Te  Te146  1  0.91355472  0.23719502  0.73862821  1
  Te  Te147  1  0.89879679  0.58604670  0.08953326  1
  Te  Te148  1  0.94741894  0.58535783  0.42007086  1
  Te  Te149  1  0.94796149  0.58561031  0.74384527  1
  Te  Te150  1  0.90305278  0.93450642  0.10142675  1
  Te  Te151  1  0.92703976  0.92658552  0.42547881  1
  Te  Te152  1  0.90708874  0.90780504  0.73666263  1
  Te  Te153  1  0.27240422  0.08066825  0.19252237  1
  Te  Te154  1  0.24049076  0.08236828  0.57720550  1
  Te  Te155  1  0.23263114  0.06377131  0.91449280  1
  Te  Te156  1  0.20476471  0.39706899  0.23294653  1
  Te  Te157  1  0.24368453  0.40527821  0.59778783  1
  Te  Te158  1  0.24470844  0.41214143  0.93013746  1
  Te  Te159  1  0.25546440  0.76881071  0.26409366  1
  Te  Te160  1  0.25129556  0.77703725  0.53378899  1
  Te  Te161  1  0.25497373  0.75404520  0.92743340  1
  Te  Te162  1  0.58951557  0.09016730  0.22592403  1
  Te  Te163  1  0.54263719  0.07809859  0.56879833  1
  Te  Te164  1  0.57009861  0.08605351  0.94884218  1
  Te  Te165  1  0.59220451  0.39087193  0.23643149  1
  Te  Te166  1  0.58205697  0.43041710  0.57539287  1
  Te  Te167  1  0.60803074  0.40455558  0.93573902  1
  Te  Te168  1  0.55531513  0.77954249  0.26981385  1
  Te  Te169  1  0.59659384  0.75278426  0.57565580  1
  Te  Te170  1  0.56652123  0.74477190  0.91296030  1
  Te  Te171  1  0.91249607  0.10084965  0.25063141  1
  Te  Te172  1  0.91561325  0.08631144  0.57363861  1
  Te  Te173  1  0.89905125  0.10410468  0.94250615  1
  Te  Te174  1  0.91543466  0.40056591  0.25026152  1
  Te  Te175  1  0.92403907  0.42906652  0.56758319  1
  Te  Te176  1  0.93722949  0.42701267  0.90647484  1
  Te  Te177  1  0.95640835  0.75098296  0.28530493  1
  Te  Te178  1  0.91464381  0.75133540  0.59003146  1
  Te  Te179  1  0.93081072  0.76118092  0.90140797  1
