# generated using pymatgen
data_In2Te3
_symmetry_space_group_name_H-M   'P 1'
_cell_length_a   18.89492714
_cell_length_b   18.93304457
_cell_length_c   18.92590382
_cell_angle_alpha   89.98056584
_cell_angle_beta   89.93698719
_cell_angle_gamma   90.01938411
_symmetry_Int_Tables_number   1
_chemical_formula_structural   In2Te3
_chemical_formula_sum   'In72 Te108'
_cell_volume   6770.51952853
_cell_formula_units_Z   36
loop_
 _symmetry_equiv_pos_site_id
 _symmetry_equiv_pos_as_xyz
  1  'x, y, z'
loop_
 _atom_site_type_symbol
 _atom_site_label
 _atom_site_symmetry_multiplicity
 _atom_site_fract_x
 _atom_site_fract_y
 _atom_site_fract_z
 _atom_site_occupancy
  In  In0  1  0.84517853  0.01641337  0.82958237  1
  In  In1  1  0.85840798  0.02530790  0.53944958  1
  In  In2  1  0.00926395  0.50457717  0.17296676  1
  In  In3  1  -0.00216503  0.64017924  0.01674371  1
  In  In4  1  0.49753910  0.17336655  0.66286709  1
  In  In5  1  0.67574733  0.67439828  0.67556264  1
  In  In6  1  0.67568691  0.12998234  0.15056680  1
  In  In7  1  0.82925511  0.31736499  0.54669016  1
  In  In8  1  0.82245978  0.80023292  0.31814593  1
  In  In9  1  0.17168285  0.34072674  0.16698213  1
  In  In10  1  0.83226770  0.18333958  0.33396230  1
  In  In11  1  0.00687676  -0.01444202  0.33589087  1
  In  In12  1  0.85971204  0.49190146  0.67195897  1
  In  In13  1  0.47836577  -0.00300816  0.16328368  1
  In  In14  1  0.86385238  0.32905463  0.83301805  1
  In  In15  1  0.66792898  0.00425952  0.00049254  1
  In  In16  1  0.01710178  0.64145115  0.65349706  1
  In  In17  1  0.33544535  0.81954825  0.17203854  1
  In  In18  1  0.34786170  0.34199349  -0.00623885  1
  In  In19  1  0.85345722  0.51047348  0.34368711  1
  In  In20  1  0.16042593  0.50479516  0.00127503  1
  In  In21  1  0.34540332  -0.00499717  0.65736791  1
  In  In22  1  0.65880656  0.31802714  0.35651876  1
  In  In23  1  0.67964115  0.50680438  0.17982613  1
  In  In24  1  0.17404389  0.65326632  0.18163241  1
  In  In25  1  0.30223497  0.35939682  0.63626370  1
  In  In26  1  0.33604640  0.50479408  0.82551212  1
  In  In27  1  0.48189136  -0.01630727  0.48143844  1
  In  In28  1  0.33694014  -0.01998952  0.32636783  1
  In  In29  1  0.30188317  0.15921936  0.84659363  1
  In  In30  1  0.49967472  0.33300841  0.48781579  1
  In  In31  1  0.14679053  0.17637515  0.67460431  1
  In  In32  1  0.83583662  0.32675577  0.13625155  1
  In  In33  1  0.50638567  0.31109357  0.82069000  1
  In  In34  1  0.32266852  0.83409958  0.81018947  1
  In  In35  1  0.50174721  0.32250947  0.15476747  1
  In  In36  1  0.15946327  0.16893926  0.34545302  1
  In  In37  1  0.50497443  0.66642799  0.84800055  1
  In  In38  1  -0.00249429  0.01382219  -0.00868964  1
  In  In39  1  0.68716510  0.32046190  -0.00378245  1
  In  In40  1  0.67065327  0.00352462  0.67863728  1
  In  In41  1  0.48662609  0.16731348  0.33235413  1
  In  In42  1  0.18036888  0.84168786  0.01276428  1
  In  In43  1  0.16389693  0.83985287  0.64865135  1
  In  In44  1  0.82994413  0.66738515  0.49012603  1
  In  In45  1  0.02481389  0.34438300  0.64050011  1
  In  In46  1  0.11750903  0.32331690  0.83148610  1
  In  In47  1  0.15263580  0.67623388  0.85929653  1
  In  In48  1  0.81396385  0.82755989  0.67438016  1
  In  In49  1  -0.01409043  0.17603606  0.13742308  1
  In  In50  1  0.16743475  0.01036111  0.49525141  1
  In  In51  1  0.01064787  0.34767502  0.36008643  1
  In  In52  1  0.50810598  0.50029137  0.02834096  1
  In  In53  1  0.49728234  0.65768655  0.49804486  1
  In  In54  1  0.68240081  -0.00324052  0.36770522  1
  In  In55  1  0.28930921  0.66976939  0.63829888  1
  In  In56  1  0.64508886  0.49766215  0.49185972  1
  In  In57  1  0.83301435  -0.00068563  0.14825214  1
  In  In58  1  0.15657910  -0.03372009  0.18225624  1
  In  In59  1  0.83171914  0.83841701  0.01861138  1
  In  In60  1  0.33644077  0.17132854  0.15928092  1
  In  In61  1  0.47439157  0.51036167  0.32436239  1
  In  In62  1  0.52071279  -0.00531046  0.83777320  1
  In  In63  1  0.26360222  0.37264161  0.35989943  1
  In  In64  1  0.67624550  0.65423757  0.00704531  1
  In  In65  1  0.49077489  0.83831263  0.00140632  1
  In  In66  1  0.68605079  0.49669737  0.85338120  1
  In  In67  1  0.51145322  0.49388991  0.63903064  1
  In  In68  1  0.49159065  0.84659024  0.66618973  1
  In  In69  1  -0.00690890  0.85014144  0.84752803  1
  In  In70  1  0.31329406  0.64631204  0.35757165  1
  In  In71  1  0.00287018  0.82293925  0.47503879  1
  Te  Te72  1  0.09137179  0.07648121  0.09648827  1
  Te  Te73  1  0.05691635  0.09475697  0.42929529  1
  Te  Te74  1  0.04633618  0.08209831  0.72593958  1
  Te  Te75  1  0.07065004  0.40483494  0.07260910  1
  Te  Te76  1  0.12593294  0.43636943  0.38383045  1
  Te  Te77  1  0.07178739  0.43310271  0.74838877  1
  Te  Te78  1  0.09417391  0.73932977  0.08163656  1
  Te  Te79  1  0.05115089  0.70722667  0.39786126  1
  Te  Te80  1  0.08050104  0.75698543  0.75098998  1
  Te  Te81  1  0.42399101  0.09482554  0.06976934  1
  Te  Te82  1  0.39066154  0.08842348  0.41937727  1
  Te  Te83  1  0.41368191  0.08523250  0.75929209  1
  Te  Te84  1  0.40107030  0.42684676  0.10811360  1
  Te  Te85  1  0.39961147  0.42370384  0.42230063  1
  Te  Te86  1  0.42089864  0.41033418  0.73940039  1
  Te  Te87  1  0.41769927  0.73940966  0.08058527  1
  Te  Te88  1  0.41400745  0.74071801  0.41169518  1
  Te  Te89  1  0.41437622  0.73186654  0.74171941  1
  Te  Te90  1  0.78347185  0.10037530  0.04903683  1
  Te  Te91  1  0.76414540  0.09986645  0.44183917  1
  Te  Te92  1  0.77053046  0.10374248  0.72930068  1
  Te  Te93  1  0.75524680  0.43579558  0.06840588  1
  Te  Te94  1  0.75795698  0.41390979  0.41991331  1
  Te  Te95  1  0.75706614  0.41281512  0.75058134  1
  Te  Te96  1  0.73555800  0.75891173  0.10026500  1
  Te  Te97  1  0.72787789  0.75139544  0.42514311  1
  Te  Te98  1  0.76177633  0.73515353  0.77650825  1
  Te  Te99  1  0.07015574  0.25035473  0.24916847  1
  Te  Te100  1  0.11772065  0.26357885  0.55614794  1
  Te  Te101  1  0.09191182  0.20470194  0.91344207  1
  Te  Te102  1  0.06582965  0.60072257  0.27194271  1
  Te  Te103  1  0.12316062  0.58925727  0.56347879  1
  Te  Te104  1  0.06084259  0.56273189  0.90183391  1
  Te  Te105  1  0.06486530  0.87161937  0.25692457  1
  Te  Te106  1  0.06535791  0.92518360  0.57178725  1
  Te  Te107  1  0.10428867  0.92832553  0.91357530  1
  Te  Te108  1  0.40109651  0.26802227  0.25848848  1
  Te  Te109  1  0.40314032  0.25810579  0.57919443  1
  Te  Te110  1  0.41845982  0.23244507  0.91611082  1
  Te  Te111  1  0.40740159  0.61337045  0.24646253  1
  Te  Te112  1  0.39973851  0.57549023  0.58128385  1
  Te  Te113  1  0.41509493  0.57778854  0.93234873  1
  Te  Te114  1  0.43973923  0.88856677  0.26205881  1
  Te  Te115  1  0.39084491  0.88878255  0.56089619  1
  Te  Te116  1  0.40559448  0.92171486  0.90511506  1
  Te  Te117  1  0.73444133  0.25155829  0.23546666  1
  Te  Te118  1  0.75603494  0.21075984  0.61563299  1
  Te  Te119  1  0.75619029  0.24483633  0.89292690  1
  Te  Te120  1  0.77553246  0.59976875  0.25216677  1
  Te  Te121  1  0.74433279  0.57180572  0.58300727  1
  Te  Te122  1  0.77629418  0.58961159  0.91923171  1
  Te  Te123  1  0.75179237  0.92864513  0.25118194  1
  Te  Te124  1  0.74924276  0.92313403  0.57598298  1
  Te  Te125  1  0.76003129  0.92021584  0.91279467  1
  Te  Te126  1  0.24665942  0.25380301  0.06835904  1
  Te  Te127  1  0.24046965  0.24923631  0.44003705  1
  Te  Te128  1  0.25241053  0.26791440  0.75109806  1
  Te  Te129  1  0.25276629  0.59079748  0.07354044  1
  Te  Te130  1  0.23097777  0.55984205  0.44931418  1
  Te  Te131  1  0.23354210  0.59297985  0.75761168  1
  Te  Te132  1  0.27304263  0.93366275  0.09007359  1
  Te  Te133  1  0.22661041  0.91582701  0.39913726  1
  Te  Te134  1  0.23374349  0.93727846  0.74397134  1
  Te  Te135  1  0.58781070  0.23079876  0.07288640  1
  Te  Te136  1  0.58566544  0.21536799  0.43911279  1
  Te  Te137  1  0.60472345  0.24049507  0.73846388  1
  Te  Te138  1  0.57868205  0.60070124  0.11541447  1
  Te  Te139  1  0.58740162  0.59035189  0.38966200  1
  Te  Te140  1  0.58054462  0.56934024  0.75360779  1
  Te  Te141  1  0.58646068  0.91564646  0.09268670  1
  Te  Te142  1  0.58498333  0.90016079  0.41894468  1
  Te  Te143  1  0.60176778  0.89362611  0.75953520  1
  Te  Te144  1  0.92447958  0.26385587  0.03141697  1
  Te  Te145  1  0.91752177  0.25467179  0.43768289  1
  Te  Te146  1  0.93033513  0.25496863  0.71887580  1
  Te  Te147  1  0.90153314  0.58657773  0.11399716  1
  Te  Te148  1  0.94624249  0.59395378  0.42780857  1
  Te  Te149  1  0.91461443  0.60099020  0.75108780  1
  Te  Te150  1  0.94339811  0.91162153  0.09181020  1
  Te  Te151  1  0.89962963  0.92479746  0.42576807  1
  Te  Te152  1  0.91834793  0.91995856  0.73680252  1
  Te  Te153  1  0.24424276  0.08563553  0.24917960  1
  Te  Te154  1  0.25022045  0.09192525  0.59248057  1
  Te  Te155  1  0.19606079  0.09532037  0.92491586  1
  Te  Te156  1  0.23722868  0.45210005  0.23761701  1
  Te  Te157  1  0.21612173  0.46163102  0.57367490  1
  Te  Te158  1  0.24446813  0.41054381  0.90485258  1
  Te  Te159  1  0.24079662  0.75584016  0.27057387  1
  Te  Te160  1  0.22721769  0.76046735  0.54228295  1
  Te  Te161  1  0.26704277  0.75100428  0.92490185  1
  Te  Te162  1  0.58196913  0.07376184  0.26059322  1
  Te  Te163  1  0.56441302  0.06046192  0.58618019  1
  Te  Te164  1  0.60369188  0.09434993  0.90413694  1
  Te  Te165  1  0.58409116  0.40950431  0.25732910  1
  Te  Te166  1  0.60372178  0.38587773  0.58692967  1
  Te  Te167  1  0.57175866  0.41040538  0.92374240  1
  Te  Te168  1  0.69746681  0.73858284  0.25261669  1
  Te  Te169  1  0.58124972  0.75157732  0.58596801  1
  Te  Te170  1  0.59562998  0.75754587  0.92387094  1
  Te  Te171  1  0.91787203  0.08849924  0.25083366  1
  Te  Te172  1  0.93751963  0.12353945  0.62555990  1
  Te  Te173  1  0.95782577  0.10464512  0.87815078  1
  Te  Te174  1  0.91017759  0.39769421  0.24881187  1
  Te  Te175  1  0.93295018  0.43254093  0.55511876  1
  Te  Te176  1  0.92881143  0.39434261  0.94675065  1
  Te  Te177  1  0.93858562  0.78277477  0.23248719  1
  Te  Te178  1  0.91866343  0.74883431  0.58873962  1
  Te  Te179  1  0.92437808  0.75048444  0.93531285  1
