# generated using pymatgen
data_In2Te3
_symmetry_space_group_name_H-M   'P 1'
_cell_length_a   19.01025782
_cell_length_b   19.00632149
_cell_length_c   18.98840150
_cell_angle_alpha   89.70261844
_cell_angle_beta   89.92265261
_cell_angle_gamma   90.02858649
_symmetry_Int_Tables_number   1
_chemical_formula_structural   In2Te3
_chemical_formula_sum   'In72 Te108'
_cell_volume   6860.69611326
_cell_formula_units_Z   36
loop_
 _symmetry_equiv_pos_site_id
 _symmetry_equiv_pos_as_xyz
  1  'x, y, z'
loop_
 _atom_site_type_symbol
 _atom_site_label
 _atom_site_symmetry_multiplicity
 _atom_site_fract_x
 _atom_site_fract_y
 _atom_site_fract_z
 _atom_site_occupancy
  In  In0  1  0.16996557  0.17549377  0.32759336  1
  In  In1  1  0.16024179  -0.01113611  0.51171392  1
  In  In2  1  0.16508545  0.15669812  -0.00223215  1
  In  In3  1  0.85353236  0.33580949  0.79124719  1
  In  In4  1  0.16219574  0.01255183  0.18498404  1
  In  In5  1  0.49378397  0.16734220  0.66097629  1
  In  In6  1  0.13781629  0.14475521  0.62729694  1
  In  In7  1  0.68073723  0.14101446  0.18423309  1
  In  In8  1  0.04230192  0.81825404  0.80328689  1
  In  In9  1  0.30657019  0.30144572  0.61272653  1
  In  In10  1  -0.00744295  0.35289540  0.00742174  1
  In  In11  1  0.73614929  0.86343890  0.49774520  1
  In  In12  1  0.00683864  0.14851322  0.18251571  1
  In  In13  1  0.84874065  0.68621187  0.53096542  1
  In  In14  1  0.49369799  0.83820049  0.66484437  1
  In  In15  1  0.49774263  0.01678329  0.48330814  1
  In  In16  1  0.02985049  0.50516038  0.16729553  1
  In  In17  1  -0.03203681  0.85559543  0.14089407  1
  In  In18  1  0.18629889  0.35212835  0.82945233  1
  In  In19  1  0.50861177  0.68753459  0.17644496  1
  In  In20  1  -0.00483453  0.33873920  0.35524429  1
  In  In21  1  0.50004205  0.64674343  0.47689354  1
  In  In22  1  0.02008741  0.33653392  0.65021534  1
  In  In23  1  0.65626385  0.31805528  0.33663586  1
  In  In24  1  0.84370863  0.51399440  0.67408049  1
  In  In25  1  0.67232510  0.66979617  0.67192572  1
  In  In26  1  0.00725030  0.49633707  0.49978559  1
  In  In27  1  0.03171112  0.16043094  0.80804983  1
  In  In28  1  0.85482113  0.33768812  0.16723287  1
  In  In29  1  0.51668031  0.37633857  0.82333467  1
  In  In30  1  0.53542946  0.85325498  -0.00790687  1
  In  In31  1  0.65198530  0.68045505  0.00923070  1
  In  In32  1  0.79525517  0.49526212  0.34606660  1
  In  In33  1  0.65946028  0.50412300  0.85288557  1
  In  In34  1  -0.01852573  -0.02180355  0.36705722  1
  In  In35  1  0.49363607  0.02498460  0.17715305  1
  In  In36  1  0.67625779  0.29367083  0.02357160  1
  In  In37  1  -0.02065815  0.00014327  0.63525483  1
  In  In38  1  0.52564589  0.01478193  0.82601355  1
  In  In39  1  0.33017157  0.80731553  0.18325890  1
  In  In40  1  0.84328020  0.14617187  0.36324602  1
  In  In41  1  0.33021569  0.32082346  0.01447343  1
  In  In42  1  0.81536398  0.49428711  -0.01353726  1
  In  In43  1  0.33039117  0.33548378  0.35374783  1
  In  In44  1  0.67846030  0.15123432  0.84445675  1
  In  In45  1  0.83893322  0.65546281  0.17681493  1
  In  In46  1  0.31460597  0.82674346  0.50974817  1
  In  In47  1  -0.01008198  0.67337247  0.33243127  1
  In  In48  1  0.35763375  0.49800039  0.80909984  1
  In  In49  1  0.15147585  0.82665076  0.01288310  1
  In  In50  1  0.15599121  0.82636544  0.35694327  1
  In  In51  1  0.69757859  0.83183722  0.82695211  1
  In  In52  1  0.51231314  0.84547249  0.33694048  1
  In  In53  1  0.18074006  0.52877177  0.62477023  1
  In  In54  1  0.00766824  0.67574385  -0.00412035  1
  In  In55  1  0.51700869  0.48596394  0.65470614  1
  In  In56  1  0.83764096  -0.01034256  0.83460194  1
  In  In57  1  0.65970748  0.16930367  0.49211936  1
  In  In58  1  0.82036234  0.14241697  -0.00825552  1
  In  In59  1  0.70342768  0.85387969  0.18854682  1
  In  In60  1  0.31364962  0.67372982  0.65959095  1
  In  In61  1  0.32432907  0.49470345  0.18726272  1
  In  In62  1  0.47353456  0.49939749  0.02439801  1
  In  In63  1  0.01135628  0.55728124  0.81151647  1
  In  In64  1  0.34690172  -0.00980512  0.00062369  1
  In  In65  1  0.25144165  0.83276909  0.76910993  1
  In  In66  1  0.30828381  0.62913623  0.37084065  1
  In  In67  1  0.64647387  0.31715431  0.64423178  1
  In  In68  1  0.50255941  0.17611322  -0.00251394  1
  In  In69  1  0.32455443  0.66495342  -0.00933818  1
  In  In70  1  0.31846406  0.16238768  0.83701941  1
  In  In71  1  0.50206470  0.47904514  0.33321525  1
  Te  Te72  1  0.07138462  0.06407641  0.07470287  1
  Te  Te73  1  0.08434505  0.07777359  0.41123817  1
  Te  Te74  1  0.10911012  0.04744246  0.74396402  1
  Te  Te75  1  0.10235315  0.41817145  0.07515602  1
  Te  Te76  1  0.09715760  0.43650077  0.39982686  1
  Te  Te77  1  0.08149817  0.42868809  0.75199222  1
  Te  Te78  1  0.07283932  0.74497741  0.11307227  1
  Te  Te79  1  0.06091072  0.74811160  0.43870478  1
  Te  Te80  1  0.07644757  0.72361331  0.69194776  1
  Te  Te81  1  0.40054552  0.10362518  0.08413845  1
  Te  Te82  1  0.42543441  0.12113279  0.40644148  1
  Te  Te83  1  0.40849675  0.07719223  0.74938439  1
  Te  Te84  1  0.41496241  0.39401032  0.11593112  1
  Te  Te85  1  0.40439597  0.43502577  0.43455234  1
  Te  Te86  1  0.40664909  0.38686075  0.71862078  1
  Te  Te87  1  0.42774002  0.76421812  0.07120284  1
  Te  Te88  1  0.40786370  0.75256340  0.41151125  1
  Te  Te89  1  0.39113515  0.76665520  0.74997373  1
  Te  Te90  1  0.77446083  0.05442154  0.10264270  1
  Te  Te91  1  0.71854839  0.06763812  0.39583297  1
  Te  Te92  1  0.75787059  0.07874656  0.74730036  1
  Te  Te93  1  0.74577703  0.41095474  0.09247130  1
  Te  Te94  1  0.75245623  0.38204856  0.42645658  1
  Te  Te95  1  0.73467240  0.42226182  0.74799266  1
  Te  Te96  1  0.75870660  0.75143722  0.08694248  1
  Te  Te97  1  0.75031163  0.73304282  0.43364031  1
  Te  Te98  1  0.76650072  0.77580530  0.71022764  1
  Te  Te99  1  0.07307829  0.26543286  0.24550583  1
  Te  Te100  1  0.10513108  0.26707952  0.55075611  1
  Te  Te101  1  0.08396401  0.26311517  0.90881225  1
  Te  Te102  1  0.09065551  0.58169890  0.27610633  1
  Te  Te103  1  0.04689008  0.59414359  0.60748514  1
  Te  Te104  1  0.10134415  0.59721760  0.91674938  1
  Te  Te105  1  0.07301877  0.91049763  0.25474103  1
  Te  Te106  1  0.04701185  0.89531078  0.55049636  1
  Te  Te107  1  0.05455672  0.90036635  0.92964651  1
  Te  Te108  1  0.42538012  0.23308686  0.29837635  1
  Te  Te109  1  0.42955042  0.24749691  0.55642704  1
  Te  Te110  1  0.41747988  0.25861179  0.90292841  1
  Te  Te111  1  0.41324599  0.60222775  0.25742490  1
  Te  Te112  1  0.42493476  0.59006787  0.59534944  1
  Te  Te113  1  0.42910640  0.58817878  0.91056010  1
  Te  Te114  1  0.41129447  0.91673340  0.24996814  1
  Te  Te115  1  0.41032602  0.92423016  0.57366131  1
  Te  Te116  1  0.43283060  0.91809968  0.90136029  1
  Te  Te117  1  0.77701572  0.24152746  0.25372564  1
  Te  Te118  1  0.74637438  0.22318524  0.59836106  1
  Te  Te119  1  0.77055517  0.26855127  0.90620374  1
  Te  Te120  1  0.73341919  0.58025090  0.24447333  1
  Te  Te121  1  0.74622756  0.57740746  0.57866437  1
  Te  Te122  1  0.75017314  0.60995934  0.91362702  1
  Te  Te123  1  0.75055259  0.93730337  0.30193221  1
  Te  Te124  1  0.82463571  0.96991805  0.56330077  1
  Te  Te125  1  0.75985645  0.91192841  0.93484053  1
  Te  Te126  1  0.23141884  0.24556779  0.09165079  1
  Te  Te127  1  0.23147924  0.25565030  0.43552861  1
  Te  Te128  1  0.23228142  0.24001431  0.73835958  1
  Te  Te129  1  0.25745394  0.58570234  0.09184088  1
  Te  Te130  1  0.23514551  0.59709063  0.49429493  1
  Te  Te131  1  0.24411546  0.58054091  0.75704409  1
  Te  Te132  1  0.25299172  0.91208528  0.09771824  1
  Te  Te133  1  0.25676249  0.92449114  0.40878211  1
  Te  Te134  1  0.21696731  0.94923688  0.68509490  1
  Te  Te135  1  0.57553357  0.23312200  0.11843977  1
  Te  Te136  1  0.54955424  0.23013379  0.40016818  1
  Te  Te137  1  0.58321932  0.24389226  0.77092058  1
  Te  Te138  1  0.57984773  0.57961625  0.09737049  1
  Te  Te139  1  0.59663550  0.56952592  0.40109009  1
  Te  Te140  1  0.57614808  0.58331028  0.75476634  1
  Te  Te141  1  0.59114620  0.92489244  0.10999301  1
  Te  Te142  1  0.59108603  0.90065695  0.45145227  1
  Te  Te143  1  0.59906727  0.91633730  0.73940385  1
  Te  Te144  1  0.91823592  0.23269523  0.07642917  1
  Te  Te145  1  0.92496075  0.24095654  0.44193518  1
  Te  Te146  1  0.93215477  0.22924471  0.71735895  1
  Te  Te147  1  0.91527093  0.56997825  0.07260394  1
  Te  Te148  1  0.90295149  0.58258047  0.42230007  1
  Te  Te149  1  0.88882480  0.61915667  0.76457616  1
  Te  Te150  1  0.86891334  0.93371033  0.06600860  1
  Te  Te151  1  0.85900657  0.89664543  0.40632489  1
  Te  Te152  1  0.93071228  0.91069055  0.74677021  1
  Te  Te153  1  0.26345073  0.09459418  0.24878098  1
  Te  Te154  1  0.25882816  0.07956040  0.57493059  1
  Te  Te155  1  0.24143470  0.05546215  0.91295418  1
  Te  Te156  1  0.23603313  0.42827013  0.28500355  1
  Te  Te157  1  0.27349563  0.43467506  0.55518065  1
  Te  Te158  1  0.27618598  0.42821776  0.92181065  1
  Te  Te159  1  0.23890378  0.72896923  0.27487592  1
  Te  Te160  1  0.20982405  0.76065976  0.59456266  1
  Te  Te161  1  0.24647145  0.76821156  0.91165920  1
  Te  Te162  1  0.59554520  0.06291306  0.27832166  1
  Te  Te163  1  0.58836075  0.07396578  0.59091423  1
  Te  Te164  1  0.59907344  0.07212012  0.94636512  1
  Te  Te165  1  0.58528725  0.40236737  0.24080754  1
  Te  Te166  1  0.59079600  0.41408374  0.55142953  1
  Te  Te167  1  0.58582613  0.40670079  0.95540781  1
  Te  Te168  1  0.60967482  0.75586878  0.26454303  1
  Te  Te169  1  0.56731907  0.73517996  0.58356964  1
  Te  Te170  1  0.58580031  0.75164780  0.89349843  1
  Te  Te171  1  0.91188495  0.06051248  0.25761742  1
  Te  Te172  1  0.91905472  0.07990027  0.52463242  1
  Te  Te173  1  0.92984560  0.09351182  0.90066563  1
  Te  Te174  1  0.91834053  0.43910959  0.25730864  1
  Te  Te175  1  0.90864728  0.41278437  0.58121131  1
  Te  Te176  1  0.91891364  0.42796656  0.89592448  1
  Te  Te177  1  0.90404239  0.76956584  0.25037670  1
  Te  Te178  1  0.95434502  0.77404240  0.58687961  1
  Te  Te179  1  0.94249052  0.77761370  0.91063504  1
