# generated using pymatgen
data_In2Te3
_symmetry_space_group_name_H-M   'P 1'
_cell_length_a   19.03582111
_cell_length_b   19.06328599
_cell_length_c   19.01810594
_cell_angle_alpha   89.94750227
_cell_angle_beta   90.10577018
_cell_angle_gamma   89.94173632
_symmetry_Int_Tables_number   1
_chemical_formula_structural   In2Te3
_chemical_formula_sum   'In72 Te108'
_cell_volume   6901.37287772
_cell_formula_units_Z   36
loop_
 _symmetry_equiv_pos_site_id
 _symmetry_equiv_pos_as_xyz
  1  'x, y, z'
loop_
 _atom_site_type_symbol
 _atom_site_label
 _atom_site_symmetry_multiplicity
 _atom_site_fract_x
 _atom_site_fract_y
 _atom_site_fract_z
 _atom_site_occupancy
  In  In0  1  0.84649373  -0.00179827  0.16996227  1
  In  In1  1  0.33093277  0.66217246  0.00556942  1
  In  In2  1  0.18841796  0.48279498  0.66068876  1
  In  In3  1  0.15028816  0.49880306  0.34333281  1
  In  In4  1  0.18795675  -0.00066061  0.16490728  1
  In  In5  1  0.02232993  0.02012610  0.67746817  1
  In  In6  1  0.84040704  0.16230066  -0.00837749  1
  In  In7  1  0.33452884  0.17595779  0.82162600  1
  In  In8  1  0.15873508  0.84209267  -0.04210721  1
  In  In9  1  0.48843323  0.82188073  0.64530906  1
  In  In10  1  0.83044441  0.66683185  0.84086079  1
  In  In11  1  0.65374234  0.17368356  0.84048007  1
  In  In12  1  0.17923739  0.32481728  0.84244954  1
  In  In13  1  -0.01027939  0.85233988  0.51398832  1
  In  In14  1  -0.00247821  0.82061778  0.15451585  1
  In  In15  1  0.18157931  0.84532936  0.33271770  1
  In  In16  1  0.34435199  0.48695333  0.16570863  1
  In  In17  1  0.47248131  0.00548374  0.16178565  1
  In  In18  1  0.51780459  0.66509060  0.14288194  1
  In  In19  1  0.32611753  0.65818462  0.33712797  1
  In  In20  1  0.00897762  0.47401976  0.51920558  1
  In  In21  1  0.48043121  0.83523651  0.01059958  1
  In  In22  1  0.66301893  0.82924829  0.84586719  1
  In  In23  1  0.68468642  0.50343967  0.51222222  1
  In  In24  1  0.34077045  -0.00585182  -0.00984759  1
  In  In25  1  0.50389635  0.16587610  0.31728589  1
  In  In26  1  0.67718341  -0.00899695  0.34819538  1
  In  In27  1  -0.02893309  0.49081636  0.84746630  1
  In  In28  1  0.84693932  0.33270159  0.17441173  1
  In  In29  1  0.49479180  0.64676437  0.49832232  1
  In  In30  1  0.82563746  0.85462871  -0.01368013  1
  In  In31  1  0.35503757  0.30815383  -0.01630986  1
  In  In32  1  0.50257159  0.16659383  0.66519148  1
  In  In33  1  -0.00423711  0.32703320  0.67347933  1
  In  In34  1  0.67532237  0.17522210  0.49256521  1
  In  In35  1  -0.03602587  0.50873777  0.15791692  1
  In  In36  1  0.00411188  0.17731229  0.81765631  1
  In  In37  1  0.64049410  0.85337865  0.16934938  1
  In  In38  1  0.02538454  0.17061262  0.16387133  1
  In  In39  1  0.80821211  0.48436709  -0.00780862  1
  In  In40  1  0.34069003  0.49157682  0.81358120  1
  In  In41  1  0.68485265  0.18585458  0.16744546  1
  In  In42  1  0.33078415  0.31268500  0.36484048  1
  In  In43  1  0.53585181  0.48871016  -0.06936805  1
  In  In44  1  0.86775729  0.03370415  0.50676567  1
  In  In45  1  0.67088708  0.02484346  0.66500395  1
  In  In46  1  0.32133048  0.68962871  0.66519360  1
  In  In47  1  -0.00126404  0.65062636  0.33408248  1
  In  In48  1  0.15110920  0.51993099  -0.01139488  1
  In  In49  1  0.84410602  -0.00316739  0.82426923  1
  In  In50  1  0.84687244  0.31551528  0.49895307  1
  In  In51  1  0.00522795  0.70330821  -0.03073867  1
  In  In52  1  0.82556445  0.66100343  0.52732922  1
  In  In53  1  0.50852216  0.33758513  0.17637874  1
  In  In54  1  0.51455643  0.32258489  0.50079759  1
  In  In55  1  0.30912997  0.84267998  0.49337042  1
  In  In56  1  0.82205317  0.83120696  0.64645735  1
  In  In57  1  0.01462976  0.02015446  0.35021399  1
  In  In58  1  0.53324289  0.48666589  0.33248089  1
  In  In59  1  0.67819870  0.65353894  0.00230762  1
  In  In60  1  0.55976093  0.44806040  0.73766380  1
  In  In61  1  0.30471615  -0.02458969  0.67254496  1
  In  In62  1  0.33186671  0.01580166  0.31983996  1
  In  In63  1  0.65840209  0.81668790  0.49663855  1
  In  In64  1  0.33423222  0.46896417  0.54647532  1
  In  In65  1  0.15776683  0.66114946  0.50762547  1
  In  In66  1  0.15211332  0.35305844  0.15286523  1
  In  In67  1  0.82527680  0.50029787  0.32301513  1
  In  In68  1  0.83814166  0.65656842  0.16071923  1
  In  In69  1  0.16551619  0.16776330  -0.00734828  1
  In  In70  1  0.32494714  0.14214746  0.51192886  1
  In  In71  1  0.51531516  -0.00115142  0.83918868  1
  Te  Te72  1  0.08819472  0.06665075  0.07285352  1
  Te  Te73  1  0.05652497  0.11555137  0.45463873  1
  Te  Te74  1  0.11558495  0.12158746  0.73693208  1
  Te  Te75  1  0.05607010  0.43052656  0.06483706  1
  Te  Te76  1  0.10196702  0.39570967  0.43640560  1
  Te  Te77  1  0.08725942  0.41879623  0.76146013  1
  Te  Te78  1  0.09995439  0.74771954  0.07512379  1
  Te  Te79  1  0.08080074  0.75212213  0.41253127  1
  Te  Te80  1  0.12486917  0.79822131  0.81145039  1
  Te  Te81  1  0.39354573  0.09599930  0.07999126  1
  Te  Te82  1  0.42839515  0.08243695  0.41540030  1
  Te  Te83  1  0.41725329  0.06582230  0.74110970  1
  Te  Te84  1  0.42783593  0.41405294  0.06443239  1
  Te  Te85  1  0.42354369  0.42553979  0.41904958  1
  Te  Te86  1  0.42313807  0.38846367  0.74970226  1
  Te  Te87  1  0.40003001  0.75177508  0.10635952  1
  Te  Te88  1  0.40867442  0.74812087  0.42583417  1
  Te  Te89  1  0.41780427  0.75557830  0.75303397  1
  Te  Te90  1  0.75375386  0.07786992  0.08205163  1
  Te  Te91  1  0.77064983  0.09559981  0.40730925  1
  Te  Te92  1  0.76118185  0.10227589  0.75560988  1
  Te  Te93  1  0.74934691  0.42592372  0.11293516  1
  Te  Te94  1  0.75335019  0.40873702  0.41801101  1
  Te  Te95  1  0.68677708  0.38181115  0.77950986  1
  Te  Te96  1  0.75199667  0.76280737  0.08006262  1
  Te  Te97  1  0.76644156  0.74870829  0.42794159  1
  Te  Te98  1  0.74162624  0.74964954  0.74695068  1
  Te  Te99  1  0.08965789  0.26767792  0.25198077  1
  Te  Te100  1  0.03109002  0.22198012  0.57188958  1
  Te  Te101  1  0.07149170  0.26417214  0.92666751  1
  Te  Te102  1  0.08053237  0.57647865  0.23277169  1
  Te  Te103  1  0.08026153  0.57700156  0.60450811  1
  Te  Te104  1  0.07506482  0.59882278  0.88593764  1
  Te  Te105  1  0.07505738  0.91710332  0.24529105  1
  Te  Te106  1  0.08978515  0.93416135  0.57892696  1
  Te  Te107  1  0.08726946  0.93825624  0.86808047  1
  Te  Te108  1  0.40298133  0.25236600  0.24660576  1
  Te  Te109  1  0.41017848  0.25124332  0.58061209  1
  Te  Te110  1  0.43919991  0.27123077  0.86813957  1
  Te  Te111  1  0.43044275  0.57723759  0.25225430  1
  Te  Te112  1  0.41323142  0.58170439  0.60759580  1
  Te  Te113  1  0.41480109  0.58348806  0.90831092  1
  Te  Te114  1  0.40522984  0.91189873  0.24963505  1
  Te  Te115  1  0.40788163  0.92580321  0.57227393  1
  Te  Te116  1  0.41277906  0.90225739  0.89312657  1
  Te  Te117  1  0.77498488  0.24345646  0.26498310  1
  Te  Te118  1  0.74052066  0.26484165  0.58824255  1
  Te  Te119  1  0.73275669  0.25364109  0.94184785  1
  Te  Te120  1  0.74067616  0.59033469  0.24522746  1
  Te  Te121  1  0.74743358  0.57980761  0.62027811  1
  Te  Te122  1  0.72860392  0.56497225  0.88841224  1
  Te  Te123  1  0.75749534  0.90615241  0.24953829  1
  Te  Te124  1  0.75476257  0.94234041  0.56863734  1
  Te  Te125  1  0.73093309  0.94617050  0.91258429  1
  Te  Te126  1  0.24796482  0.25945177  0.07975801  1
  Te  Te127  1  0.23839074  0.21209473  0.41519581  1
  Te  Te128  1  0.24445511  0.25312765  0.73396297  1
  Te  Te129  1  0.24481795  0.57581211  0.09515382  1
  Te  Te130  1  0.25611024  0.56881799  0.43967580  1
  Te  Te131  1  0.24457570  0.59008528  0.75157467  1
  Te  Te132  1  0.25030463  0.90367653  0.06939394  1
  Te  Te133  1  0.23234030  0.95184570  0.42340543  1
  Te  Te134  1  0.21299606  0.92156615  0.77536699  1
  Te  Te135  1  0.57187022  0.23754411  0.09141161  1
  Te  Te136  1  0.59567599  0.25943693  0.39204797  1
  Te  Te137  1  0.61423438  0.25166065  0.71581636  1
  Te  Te138  1  0.58293907  0.55632434  0.06478617  1
  Te  Te139  1  0.60617049  0.59015737  0.41390680  1
  Te  Te140  1  0.57449086  0.57406352  0.81167489  1
  Te  Te141  1  0.57543873  0.93741151  0.06499725  1
  Te  Te142  1  0.57921829  0.90562896  0.41386359  1
  Te  Te143  1  0.59247327  0.91289064  0.73154093  1
  Te  Te144  1  0.92812476  0.25012710  0.07826810  1
  Te  Te145  1  0.94902446  0.22842178  0.43617790  1
  Te  Te146  1  0.90188575  0.27584675  0.77608678  1
  Te  Te147  1  0.91088259  0.60107197  0.04056702  1
  Te  Te148  1  0.91990557  0.56768623  0.43140458  1
  Te  Te149  1  0.89713165  0.57219469  0.75146213  1
  Te  Te150  1  0.93176616  0.92472867  0.06702879  1
  Te  Te151  1  0.91293841  0.92371073  0.40735777  1
  Te  Te152  1  0.92015541  0.91344769  0.72653231  1
  Te  Te153  1  0.22967114  0.10230197  0.25854416  1
  Te  Te154  1  0.23054329  0.08903325  0.61382944  1
  Te  Te155  1  0.25056550  0.08193728  0.90376059  1
  Te  Te156  1  0.25588243  0.41473905  0.26467338  1
  Te  Te157  1  0.21977520  0.37780158  0.56190572  1
  Te  Te158  1  0.25635323  0.42412421  0.93025372  1
  Te  Te159  1  0.23780743  0.73771446  0.25354364  1
  Te  Te160  1  0.21771612  0.77195186  0.59139374  1
  Te  Te161  1  0.25531555  0.73911888  0.90496169  1
  Te  Te162  1  0.59519202  0.07014160  0.24537299  1
  Te  Te163  1  0.57682919  0.08366190  0.56235962  1
  Te  Te164  1  0.55328934  0.10916687  0.92500943  1
  Te  Te165  1  0.61740142  0.41618503  0.23661924  1
  Te  Te166  1  0.57210336  0.43247169  0.58362205  1
  Te  Te167  1  0.62554000  0.37069367  0.91902432  1
  Te  Te168  1  0.58491475  0.74344395  0.24512673  1
  Te  Te169  1  0.58803732  0.72244863  0.59157567  1
  Te  Te170  1  0.57625178  0.74532353  0.93447094  1
  Te  Te171  1  0.92690928  0.09532597  0.25224229  1
  Te  Te172  1  0.91788523  0.11357954  0.61995669  1
  Te  Te173  1  0.93660545  0.07745142  0.91144767  1
  Te  Te174  1  0.93794120  0.41461073  0.27139093  1
  Te  Te175  1  0.89698038  0.41825324  0.60195849  1
  Te  Te176  1  0.88271900  0.38962419  0.90761779  1
  Te  Te177  1  0.91270440  0.74735402  0.25586612  1
  Te  Te178  1  0.93577802  0.74123894  0.59917837  1
  Te  Te179  1  0.91271304  0.78645721  0.88400809  1
