# generated using pymatgen
data_In2Te3
_symmetry_space_group_name_H-M   'P 1'
_cell_length_a   18.77716440
_cell_length_b   18.77979675
_cell_length_c   18.77215095
_cell_angle_alpha   90.09385927
_cell_angle_beta   89.96905456
_cell_angle_gamma   90.01384199
_symmetry_Int_Tables_number   1
_chemical_formula_structural   In2Te3
_chemical_formula_sum   'In72 Te108'
_cell_volume   6619.63853679
_cell_formula_units_Z   36
loop_
 _symmetry_equiv_pos_site_id
 _symmetry_equiv_pos_as_xyz
  1  'x, y, z'
loop_
 _atom_site_type_symbol
 _atom_site_label
 _atom_site_symmetry_multiplicity
 _atom_site_fract_x
 _atom_site_fract_y
 _atom_site_fract_z
 _atom_site_occupancy
  In  In0  1  -0.02364200  0.16293704  0.48748550  1
  In  In1  1  0.83361093  -0.00726528  0.16587267  1
  In  In2  1  0.49032980  0.16736324  0.33247848  1
  In  In3  1  0.35190670  0.19116846  0.84600922  1
  In  In4  1  0.14072487  0.83824503  0.01224181  1
  In  In5  1  0.67094187  0.83336095  0.86379513  1
  In  In6  1  0.15572865  0.00202013  0.17233097  1
  In  In7  1  0.67975201  0.83425100  0.46490814  1
  In  In8  1  0.87359229  0.33782176  0.17677140  1
  In  In9  1  0.65581394  0.50958363  0.47402425  1
  In  In10  1  0.67383003  0.00539087  0.34365769  1
  In  In11  1  0.48727073  0.65993338  0.47133373  1
  In  In12  1  0.18616436  -0.01448920  0.48153116  1
  In  In13  1  0.35500379  0.16758534  0.16716987  1
  In  In14  1  0.51140402  0.32978007  0.48567469  1
  In  In15  1  0.35841562  -0.00732772  0.66023674  1
  In  In16  1  0.31494722  0.33244846  0.31634202  1
  In  In17  1  0.32958827  0.66515854  0.32862532  1
  In  In18  1  0.32610252  0.02090659  0.02264872  1
  In  In19  1  0.17071157  0.67762248  0.48250886  1
  In  In20  1  0.50088006  0.47460040  0.67514479  1
  In  In21  1  0.68827527  0.54339741  0.17468379  1
  In  In22  1  -0.01176356  0.50000396  0.83880300  1
  In  In23  1  0.00742547  0.51098051  0.46951639  1
  In  In24  1  -0.00766398  0.82185718  0.50463977  1
  In  In25  1  0.66660743  -0.00263365  0.01502486  1
  In  In26  1  0.16015542  0.66590383  0.17910513  1
  In  In27  1  0.67081975  0.66204967  0.66440177  1
  In  In28  1  0.34951606  0.67195477  0.01681203  1
  In  In29  1  0.82274059  0.33219978  0.85488068  1
  In  In30  1  0.35394645  0.19497211  0.49644714  1
  In  In31  1  0.31878529  0.53401893  0.49285872  1
  In  In32  1  0.16303841  0.15653003  0.67821640  1
  In  In33  1  0.37225114  0.34003055  0.64812712  1
  In  In34  1  0.16136688  0.16097176  0.03466481  1
  In  In35  1  0.00775271  0.34027181  0.66880181  1
  In  In36  1  0.15854868  0.48993226  0.01001859  1
  In  In37  1  0.14801742  0.66496641  0.82246737  1
  In  In38  1  -0.00603790  0.66391761  0.31651142  1
  In  In39  1  0.65522367  0.34286350  0.31888452  1
  In  In40  1  0.80679485  0.00590577  0.50926387  1
  In  In41  1  0.69022085  0.48986405  0.84591532  1
  In  In42  1  0.50799545  0.68481810  0.86203015  1
  In  In43  1  0.52236088  0.00455705  0.86394819  1
  In  In44  1  0.14492347  -0.01266719  0.85660470  1
  In  In45  1  0.15209400  0.35630972  0.47319207  1
  In  In46  1  0.66996862  0.32396080  0.00463678  1
  In  In47  1  0.86904298  0.85560683  0.67731803  1
  In  In48  1  0.66703059  0.17250712  0.16852210  1
  In  In49  1  0.83002465  0.16295083  0.67227749  1
  In  In50  1  0.83946324  0.65828029  0.84606051  1
  In  In51  1  0.18535123  0.32822095  0.86078805  1
  In  In52  1  0.85984806  0.51384606  0.04094074  1
  In  In53  1  0.34555230  -0.01750439  0.29542840  1
  In  In54  1  0.49383863  0.82653349  0.01111947  1
  In  In55  1  0.83049055  0.81773021  0.03236344  1
  In  In56  1  0.00616055  -0.00199782  0.31707710  1
  In  In57  1  -0.00851266  0.16239926  0.16132829  1
  In  In58  1  0.15123078  0.34126432  0.17557973  1
  In  In59  1  0.29137518  0.66663964  0.66779760  1
  In  In60  1  0.32243941  0.82650114  0.82415228  1
  In  In61  1  0.51590784  0.66912719  0.18145146  1
  In  In62  1  0.65665312  0.02671778  0.66356359  1
  In  In63  1  0.50777911  0.49779444  0.32848794  1
  In  In64  1  0.17636163  0.53140775  0.66153865  1
  In  In65  1  0.49271125  0.84696480  0.64458741  1
  In  In66  1  0.16016929  0.80903770  0.64872816  1
  In  In67  1  0.82289940  0.31926672  0.49455148  1
  In  In68  1  0.00152083  0.14825964  0.86400498  1
  In  In69  1  0.52384698  0.31200025  0.82721493  1
  In  In70  1  0.82318948  0.49537397  0.67980508  1
  In  In71  1  0.84322353  0.82816653  0.31773168  1
  Te  Te72  1  0.05726702  0.05732958  0.06780334  1
  Te  Te73  1  0.08700845  0.08243322  0.41474518  1
  Te  Te74  1  0.06571710  0.06671389  0.74826740  1
  Te  Te75  1  0.05665550  0.41263557  0.08575526  1
  Te  Te76  1  0.04666491  0.39953387  0.37553783  1
  Te  Te77  1  0.09851895  0.42198299  0.76162232  1
  Te  Te78  1  0.06460888  0.72758458  0.07945104  1
  Te  Te79  1  0.08117438  0.76403678  0.39563205  1
  Te  Te80  1  0.06281821  0.75763892  0.74630990  1
  Te  Te81  1  0.44225469  0.09745446  0.06909356  1
  Te  Te82  1  0.40028658  0.07673755  0.41227019  1
  Te  Te83  1  0.42438455  0.07781276  0.77047660  1
  Te  Te84  1  0.37646171  0.36703057  0.04901339  1
  Te  Te85  1  0.40750718  0.42165672  0.42549644  1
  Te  Te86  1  0.40863912  0.41211973  0.77700598  1
  Te  Te87  1  0.40685634  0.76534316  0.12394448  1
  Te  Te88  1  0.43414246  0.75880743  0.37758688  1
  Te  Te89  1  0.42026526  0.74153148  0.74413874  1
  Te  Te90  1  0.76566976  0.09708355  0.07843074  1
  Te  Te91  1  0.75202163  0.10760950  0.41863904  1
  Te  Te92  1  0.75042303  0.07727790  0.76456435  1
  Te  Te93  1  0.75554007  0.41501202  0.09691421  1
  Te  Te94  1  0.75720983  0.42282943  0.39929542  1
  Te  Te95  1  0.73596283  0.38725867  0.74113084  1
  Te  Te96  1  0.71719773  0.74647874  0.10019868  1
  Te  Te97  1  0.76654363  0.72901211  0.40261371  1
  Te  Te98  1  0.75104034  0.75300136  0.75869943  1
  Te  Te99  1  0.09382997  0.22583978  0.24789474  1
  Te  Te100  1  0.08708820  0.24755535  0.57597091  1
  Te  Te101  1  0.08071020  0.25427244  0.94222047  1
  Te  Te102  1  0.05859073  0.55740230  0.22804556  1
  Te  Te103  1  0.07424846  0.60279570  0.57583287  1
  Te  Te104  1  0.07046243  0.58982560  0.92989615  1
  Te  Te105  1  0.06930688  0.89603392  0.23153946  1
  Te  Te106  1  0.08460137  0.92138456  0.57756965  1
  Te  Te107  1  0.04638167  0.88701429  0.90618584  1
  Te  Te108  1  0.43559529  0.27802499  0.24350887  1
  Te  Te109  1  0.46553319  0.21765026  0.61032481  1
  Te  Te110  1  0.43854949  0.26056496  0.94637015  1
  Te  Te111  1  0.40806063  0.56892946  0.24006618  1
  Te  Te112  1  0.42212697  0.58205250  0.59612927  1
  Te  Te113  1  0.43388104  0.58154682  0.93569820  1
  Te  Te114  1  0.44355426  0.91636741  0.20675556  1
  Te  Te115  1  0.40897005  0.91481589  0.54467229  1
  Te  Te116  1  0.40118869  0.91638080  0.91861970  1
  Te  Te117  1  0.76219750  0.25729157  0.25210168  1
  Te  Te118  1  0.73833793  0.24075783  0.58586604  1
  Te  Te119  1  0.73030584  0.22813330  0.90545226  1
  Te  Te120  1  0.76428463  0.60220425  0.28632309  1
  Te  Te121  1  0.75576121  0.57889342  0.57045422  1
  Te  Te122  1  0.75617715  0.58173182  0.94739552  1
  Te  Te123  1  0.73292311  0.90530045  0.24256926  1
  Te  Te124  1  0.73764754  0.90283325  0.59827494  1
  Te  Te125  1  0.77103667  0.92601207  0.92705764  1
  Te  Te126  1  0.26675236  0.26488358  0.08229056  1
  Te  Te127  1  0.23613699  0.24332820  0.41108733  1
  Te  Te128  1  0.25868347  0.26027325  0.73706754  1
  Te  Te129  1  0.25390812  0.57975407  0.09220797  1
  Te  Te130  1  0.21547399  0.56627575  0.38907448  1
  Te  Te131  1  0.26338275  0.57056858  0.78276958  1
  Te  Te132  1  0.25077569  0.90987744  0.09217166  1
  Te  Te133  1  0.24860037  0.90043075  0.37655021  1
  Te  Te134  1  0.23867762  0.92280784  0.74270407  1
  Te  Te135  1  0.57102925  0.25581985  0.09244245  1
  Te  Te136  1  0.60236950  0.23365180  0.41434229  1
  Te  Te137  1  0.57451606  0.22441605  0.72015618  1
  Te  Te138  1  0.56983010  0.56677336  0.08673672  1
  Te  Te139  1  0.59864914  0.61155548  0.37553412  1
  Te  Te140  1  0.58829211  0.57841704  0.76244968  1
  Te  Te141  1  0.56036472  0.92983561  0.09961691  1
  Te  Te142  1  0.57321157  0.91939809  0.41219170  1
  Te  Te143  1  0.57787897  0.90265841  0.76131818  1
  Te  Te144  1  0.90546132  0.24006718  0.06908416  1
  Te  Te145  1  0.92355258  0.26716583  0.39784318  1
  Te  Te146  1  0.92975204  0.25340698  0.76533455  1
  Te  Te147  1  0.93262572  0.62734900  0.10290701  1
  Te  Te148  1  0.89749696  0.58970484  0.40495434  1
  Te  Te149  1  0.92594740  0.59301890  0.73595197  1
  Te  Te150  1  0.93233908  0.90203435  0.10331866  1
  Te  Te151  1  0.90859820  0.92679257  0.42215492  1
  Te  Te152  1  0.91570741  0.94503564  0.78448028  1
  Te  Te153  1  0.24906058  0.09435001  0.25009598  1
  Te  Te154  1  0.26185929  0.09203319  0.58062829  1
  Te  Te155  1  0.24003461  0.09786907  0.90963395  1
  Te  Te156  1  0.24365748  0.43713324  0.24320563  1
  Te  Te157  1  0.24905293  0.41680479  0.57887903  1
  Te  Te158  1  0.27468747  0.42006220  0.93879106  1
  Te  Te159  1  0.24138994  0.76363083  0.25893338  1
  Te  Te160  1  0.27404119  0.76516286  0.55436712  1
  Te  Te161  1  0.24209107  0.74652852  0.92533309  1
  Te  Te162  1  0.57726452  0.07688367  0.24677580  1
  Te  Te163  1  0.55968743  0.09325425  0.57952090  1
  Te  Te164  1  0.61022981  0.10565161  0.92604411  1
  Te  Te165  1  0.58288957  0.42767502  0.21676464  1
  Te  Te166  1  0.60074011  0.41064796  0.57872030  1
  Te  Te167  1  0.58116239  0.42134381  0.92508833  1
  Te  Te168  1  0.62683592  0.75831991  0.22433387  1
  Te  Te169  1  0.58379865  0.74346554  0.56904437  1
  Te  Te170  1  0.61239855  0.73603572  0.96559268  1
  Te  Te171  1  0.89897065  0.09059820  0.26299520  1
  Te  Te172  1  0.92020649  0.06809795  0.59194623  1
  Te  Te173  1  0.89704616  0.05097046  0.90056442  1
  Te  Te174  1  0.94289989  0.45315837  0.24142908  1
  Te  Te175  1  0.92027870  0.42316285  0.57712733  1
  Te  Te176  1  0.92018801  0.41052703  0.94021033  1
  Te  Te177  1  0.90298179  0.73465908  0.21480734  1
  Te  Te178  1  0.89470326  0.74548235  0.58378331  1
  Te  Te179  1  0.91693360  0.75383632  0.92754507  1
