# generated using pymatgen
data_In2Te3
_symmetry_space_group_name_H-M   'P 1'
_cell_length_a   18.78851695
_cell_length_b   18.79233600
_cell_length_c   18.78878447
_cell_angle_alpha   89.94345331
_cell_angle_beta   90.03186821
_cell_angle_gamma   89.96084700
_symmetry_Int_Tables_number   1
_chemical_formula_structural   In2Te3
_chemical_formula_sum   'In72 Te108'
_cell_volume   6633.94053199
_cell_formula_units_Z   36
loop_
 _symmetry_equiv_pos_site_id
 _symmetry_equiv_pos_as_xyz
  1  'x, y, z'
loop_
 _atom_site_type_symbol
 _atom_site_label
 _atom_site_symmetry_multiplicity
 _atom_site_fract_x
 _atom_site_fract_y
 _atom_site_fract_z
 _atom_site_occupancy
  In  In0  1  0.14166951  0.32466830  0.18364145  1
  In  In1  1  0.02525870  0.82593625  0.49491220  1
  In  In2  1  0.67062222  0.01616936  0.00800225  1
  In  In3  1  0.00069120  0.50750838  0.83892569  1
  In  In4  1  0.17930409  0.81761731  0.65297254  1
  In  In5  1  0.82700447  0.32027300  0.85120320  1
  In  In6  1  -0.00884333  0.00684080  0.65882554  1
  In  In7  1  0.02787135  0.50614797  0.46075582  1
  In  In8  1  0.33785566  0.16159539  0.80459388  1
  In  In9  1  0.86259490  0.66405908  0.50060669  1
  In  In10  1  0.48261980  0.65339548  0.48650644  1
  In  In11  1  0.03564251  0.50689630  0.18565211  1
  In  In12  1  0.15777119  0.66120879  0.83714589  1
  In  In13  1  0.49289472  -0.00939184  0.49810561  1
  In  In14  1  0.82315666  0.51403654  0.00746743  1
  In  In15  1  0.51211208  0.18096378  0.00822333  1
  In  In16  1  0.67155604  0.47032128  0.49208682  1
  In  In17  1  -0.01305723  0.84224563  0.83649185  1
  In  In18  1  0.31973364  0.66690786  0.64991014  1
  In  In19  1  0.66712362  0.50944835  0.17828902  1
  In  In20  1  0.66457799  0.67239405  0.00738267  1
  In  In21  1  0.68029837  0.82473984  0.83478523  1
  In  In22  1  -0.01652490  -0.00376339  -0.00159812  1
  In  In23  1  0.66495225  0.18299992  0.84242656  1
  In  In24  1  0.32980428  0.32141488  0.32652895  1
  In  In25  1  0.32788609  0.35355228  0.01505545  1
  In  In26  1  0.49182633  0.64710267  0.84635956  1
  In  In27  1  0.50103454  0.82368629  0.35605217  1
  In  In28  1  0.31373826  0.02823399  0.63576353  1
  In  In29  1  0.67857164  0.65591620  0.33532559  1
  In  In30  1  0.49491432  0.84876414  0.65565394  1
  In  In31  1  0.33081684  0.64433380  0.01203273  1
  In  In32  1  0.30841628  0.51306903  0.47211130  1
  In  In33  1  0.14005420  -0.01280925  0.82762566  1
  In  In34  1  0.17079486  0.17307454  0.33560457  1
  In  In35  1  0.67142494  0.66922914  0.68913095  1
  In  In36  1  0.85784421  0.80822561  0.30018523  1
  In  In37  1  0.83930189  0.82577201  0.02372522  1
  In  In38  1  0.67277560  0.14801768  0.48957230  1
  In  In39  1  0.68165016  0.34410096  0.31869156  1
  In  In40  1  0.67994323  0.17682301  0.15476664  1
  In  In41  1  0.49737291  0.34241479  0.82899417  1
  In  In42  1  0.17736999  0.34062699  0.84323209  1
  In  In43  1  0.51079011  0.00960724  0.15933576  1
  In  In44  1  0.33289882  0.82674093  0.85466260  1
  In  In45  1  0.66166710  0.85191731  0.49987744  1
  In  In46  1  0.17169521  0.80798493  0.32665234  1
  In  In47  1  0.64954903  0.49600723  0.84973361  1
  In  In48  1  0.86007580  0.34666157  0.17011859  1
  In  In49  1  0.33175962  0.33993233  0.65841703  1
  In  In50  1  0.17073624  0.17853096  -0.00609163  1
  In  In51  1  0.00193821  0.16065549  0.83834640  1
  In  In52  1  0.32278238  0.50268941  0.18457221  1
  In  In53  1  0.34212147  -0.00900775  0.00481284  1
  In  In54  1  0.83498425  0.00186556  0.50152206  1
  In  In55  1  0.66463369  0.31429712  0.65993922  1
  In  In56  1  0.49038245  0.17485216  0.32069454  1
  In  In57  1  0.47709467  0.33129374  0.50228817  1
  In  In58  1  0.17496627  -0.00329255  0.19365730  1
  In  In59  1  0.01165769  0.67749359  0.02631309  1
  In  In60  1  0.32105021  0.00036455  0.34751297  1
  In  In61  1  0.67885243  0.85175051  0.16897437  1
  In  In62  1  -0.00843564  0.63775858  0.64586643  1
  In  In63  1  0.17903436  0.49808528  0.66559836  1
  In  In64  1  0.32913875  0.81965389  0.17645356  1
  In  In65  1  0.00932060  0.00893878  0.32686047  1
  In  In66  1  0.02910885  0.30228605  0.62926657  1
  In  In67  1  0.48359278  0.65406946  0.16425412  1
  In  In68  1  0.67201231  0.01302813  0.66209887  1
  In  In69  1  0.84151235  0.48808694  0.65009544  1
  In  In70  1  0.00243131  0.17437606  0.17188738  1
  In  In71  1  0.82628934  0.17187350  0.65165998  1
  Te  Te72  1  0.09611848  0.07935346  0.08521151  1
  Te  Te73  1  0.09572483  0.07891042  0.42720545  1
  Te  Te74  1  0.09196335  0.09751488  0.73331034  1
  Te  Te75  1  0.07965836  0.41075757  0.08234761  1
  Te  Te76  1  0.08313170  0.39502269  0.37691970  1
  Te  Te77  1  0.07281695  0.41542574  0.73944385  1
  Te  Te78  1  0.07366576  0.76272338  0.12929728  1
  Te  Te79  1  0.06199900  0.72468318  0.38992389  1
  Te  Te80  1  0.07426343  0.74773366  0.74287521  1
  Te  Te81  1  0.40939302  0.09892656  0.08911799  1
  Te  Te82  1  0.41018121  0.09711104  0.42516140  1
  Te  Te83  1  0.41502327  0.05452971  0.73915089  1
  Te  Te84  1  0.42084969  0.42256900  0.10664944  1
  Te  Te85  1  0.41409432  0.42649203  0.40174460  1
  Te  Te86  1  0.40070165  0.42664277  0.75676639  1
  Te  Te87  1  0.41988248  0.75667631  0.07115700  1
  Te  Te88  1  0.39150277  0.74903730  0.41987791  1
  Te  Te89  1  0.41829939  0.74722203  0.74384714  1
  Te  Te90  1  0.77293610  0.07845435  0.09285774  1
  Te  Te91  1  0.76990381  0.08630175  0.39829431  1
  Te  Te92  1  0.75807400  0.09098682  0.76093899  1
  Te  Te93  1  0.74622017  0.41279133  0.08842000  1
  Te  Te94  1  0.78478679  0.42537742  0.39964308  1
  Te  Te95  1  0.74610628  0.41343938  0.74656400  1
  Te  Te96  1  0.75539829  0.73132971  0.11242914  1
  Te  Te97  1  0.75632632  0.75839515  0.42182624  1
  Te  Te98  1  0.77467239  0.75716041  0.74296096  1
  Te  Te99  1  0.04776963  0.26025005  0.30018713  1
  Te  Te100  1  0.11493681  0.22851994  0.53411867  1
  Te  Te101  1  0.06932671  0.26814194  0.92394958  1
  Te  Te102  1  0.09645500  0.60173633  0.28679158  1
  Te  Te103  1  0.10749288  0.58992678  0.56361772  1
  Te  Te104  1  0.09049029  0.57361771  0.94159106  1
  Te  Te105  1  0.06986313  0.89748715  0.24320096  1
  Te  Te106  1  0.09762922  0.92751986  0.58304464  1
  Te  Te107  1  0.08615812  0.89760525  0.93884594  1
  Te  Te108  1  0.42824440  0.27019399  0.22614213  1
  Te  Te109  1  0.41440163  0.23490644  0.59414642  1
  Te  Te110  1  0.39790318  0.24649955  0.91709762  1
  Te  Te111  1  0.40553028  0.59198732  0.27227244  1
  Te  Te112  1  0.40802251  0.56250775  0.58278175  1
  Te  Te113  1  0.41526558  0.55387844  0.92996553  1
  Te  Te114  1  0.42239746  0.92076864  0.25126119  1
  Te  Te115  1  0.38613854  0.90701934  0.56681007  1
  Te  Te116  1  0.42975742  0.92352073  0.90820018  1
  Te  Te117  1  0.77678901  0.24633629  0.25348194  1
  Te  Te118  1  0.76515228  0.27141583  0.54703588  1
  Te  Te119  1  0.74527925  0.24655279  0.94850627  1
  Te  Te120  1  0.77419399  0.57248489  0.26081194  1
  Te  Te121  1  0.74399082  0.58583654  0.57352492  1
  Te  Te122  1  0.74940693  0.59779429  0.90401220  1
  Te  Te123  1  0.76814916  0.91994394  0.26318339  1
  Te  Te124  1  0.76300791  0.90814891  0.59876573  1
  Te  Te125  1  0.75795593  0.91566884  0.92832554  1
  Te  Te126  1  0.24827200  0.25306464  0.10061757  1
  Te  Te127  1  0.26170901  0.24235155  0.43560517  1
  Te  Te128  1  0.23237007  0.24890640  0.73686149  1
  Te  Te129  1  0.23013045  0.59072056  0.10712365  1
  Te  Te130  1  0.22301570  0.58623701  0.37619554  1
  Te  Te131  1  0.26311969  0.57973221  0.76359074  1
  Te  Te132  1  0.24271967  0.90932148  0.08759855  1
  Te  Te133  1  0.22111679  0.91618622  0.41552535  1
  Te  Te134  1  0.25148675  0.91190055  0.75147377  1
  Te  Te135  1  0.57454528  0.27067718  0.10726158  1
  Te  Te136  1  0.58890837  0.25753769  0.41700675  1
  Te  Te137  1  0.56333516  0.23570723  0.74090407  1
  Te  Te138  1  0.57229002  0.57100336  0.07169128  1
  Te  Te139  1  0.58146955  0.56505087  0.40994791  1
  Te  Te140  1  0.56992208  0.56816937  0.74038466  1
  Te  Te141  1  0.57829714  0.90770372  0.06897643  1
  Te  Te142  1  0.59433729  0.93951297  0.39564505  1
  Te  Te143  1  0.58966130  0.91929783  0.75068397  1
  Te  Te144  1  0.92418932  0.25299060  0.07479846  1
  Te  Te145  1  0.87482170  0.30960281  0.44801464  1
  Te  Te146  1  0.91645950  0.26226118  0.73804237  1
  Te  Te147  1  0.92177615  0.57802440  0.10327093  1
  Te  Te148  1  0.91263676  0.57581181  0.39408316  1
  Te  Te149  1  0.89890087  0.58473887  0.75571890  1
  Te  Te150  1  0.90453623  0.93093012  0.10518733  1
  Te  Te151  1  0.92137567  0.90553189  0.41341433  1
  Te  Te152  1  0.90922024  0.94510973  0.76503488  1
  Te  Te153  1  0.27184497  0.10213218  0.24392495  1
  Te  Te154  1  0.22297449  0.11666650  0.56025693  1
  Te  Te155  1  0.24436715  0.07630736  0.90692736  1
  Te  Te156  1  0.22099858  0.41768967  0.27778496  1
  Te  Te157  1  0.23545925  0.40825060  0.55710530  1
  Te  Te158  1  0.24680340  0.43994751  0.92554171  1
  Te  Te159  1  0.25153759  0.71008226  0.24271199  1
  Te  Te160  1  0.24590145  0.74073391  0.54505966  1
  Te  Te161  1  0.23513314  0.74636568  0.93690411  1
  Te  Te162  1  0.59790501  0.08948851  0.25390023  1
  Te  Te163  1  0.56826082  0.09264916  0.58530638  1
  Te  Te164  1  0.57184074  0.08132785  0.90992282  1
  Te  Te165  1  0.57428267  0.42415686  0.25686851  1
  Te  Te166  1  0.57092846  0.41468557  0.59268491  1
  Te  Te167  1  0.59315383  0.38858754  0.93213135  1
  Te  Te168  1  0.58243054  0.74975331  0.24905216  1
  Te  Te169  1  0.58038905  0.74474722  0.57674342  1
  Te  Te170  1  0.57223286  0.75462021  0.91839742  1
  Te  Te171  1  0.91144246  0.09863485  0.26229780  1
  Te  Te172  1  0.92999862  0.10805492  0.56023335  1
  Te  Te173  1  0.90198339  0.09212462  0.92067526  1
  Te  Te174  1  0.95106444  0.41246314  0.27174784  1
  Te  Te175  1  0.94403358  0.41627194  0.56395270  1
  Te  Te176  1  0.91401355  0.41916042  0.92865597  1
  Te  Te177  1  0.94452550  0.72974939  0.20706464  1
  Te  Te178  1  0.92549626  0.76635282  0.59542566  1
  Te  Te179  1  0.91557344  0.73847460  0.92267695  1
