# generated using pymatgen
data_In2Te3
_symmetry_space_group_name_H-M   'P 1'
_cell_length_a   18.96193279
_cell_length_b   18.94373061
_cell_length_c   18.96653535
_cell_angle_alpha   90.02612319
_cell_angle_beta   89.77509569
_cell_angle_gamma   89.93951662
_symmetry_Int_Tables_number   1
_chemical_formula_structural   In2Te3
_chemical_formula_sum   'In72 Te108'
_cell_volume   6812.90735269
_cell_formula_units_Z   36
loop_
 _symmetry_equiv_pos_site_id
 _symmetry_equiv_pos_as_xyz
  1  'x, y, z'
loop_
 _atom_site_type_symbol
 _atom_site_label
 _atom_site_symmetry_multiplicity
 _atom_site_fract_x
 _atom_site_fract_y
 _atom_site_fract_z
 _atom_site_occupancy
  In  In0  1  0.01613648  0.50999146  0.16601873  1
  In  In1  1  0.34561430  -0.01870946  0.00382664  1
  In  In2  1  0.66470533  0.01961129  0.00264360  1
  In  In3  1  0.16282275  0.32032465  0.85187016  1
  In  In4  1  0.36220563  0.32674139  0.66446440  1
  In  In5  1  0.80105204  0.49278707  -0.01263200  1
  In  In6  1  0.13106266  0.13293330  0.01412607  1
  In  In7  1  0.32707690  0.49395304  0.52244655  1
  In  In8  1  0.19526262  0.82420313  0.67812208  1
  In  In9  1  0.50097989  0.17696750  -0.01645426  1
  In  In10  1  -0.02998706  0.85337891  0.42979215  1
  In  In11  1  0.03769887  0.83182744  0.22985130  1
  In  In12  1  0.84952898  0.49441899  0.34803544  1
  In  In13  1  0.15492273  -0.00596903  0.85277659  1
  In  In14  1  0.31037496  0.33584135  0.32166399  1
  In  In15  1  0.33559689  0.01135442  0.68174640  1
  In  In16  1  0.51075806  0.84356459  -0.02301769  1
  In  In17  1  -0.01247854  0.51249570  0.82701824  1
  In  In18  1  0.50479714  0.48815900  0.64783235  1
  In  In19  1  -0.04155983  0.16235836  0.80560513  1
  In  In20  1  0.84170291  0.65227494  0.51085700  1
  In  In21  1  0.66105928  0.66032168  0.35939920  1
  In  In22  1  0.32580907  0.66922884  0.32653932  1
  In  In23  1  0.15671472  0.51730971  0.66366636  1
  In  In24  1  0.33020394  0.67139751  0.65814120  1
  In  In25  1  0.83160758  0.32821696  0.50345078  1
  In  In26  1  0.66323882  0.47179306  0.81339916  1
  In  In27  1  0.16874537  0.16144148  0.33049285  1
  In  In28  1  0.65690076  0.67152431  -0.01596199  1
  In  In29  1  0.49907548  -0.00010643  0.49969004  1
  In  In30  1  0.64506318  0.33019860  -0.03169111  1
  In  In31  1  0.33437255  0.34455454  0.00201316  1
  In  In32  1  -0.00785758  0.33003889  0.02260224  1
  In  In33  1  0.22077986  0.55464630  -0.01258014  1
  In  In34  1  0.84964953  0.83128019  -0.00834741  1
  In  In35  1  0.00166357  0.82214196  0.80636595  1
  In  In36  1  0.82081076  0.17842341  0.64949747  1
  In  In37  1  0.66106543  0.51518819  0.17740334  1
  In  In38  1  0.16779609  -0.01985728  0.48858921  1
  In  In39  1  0.82039772  0.16398620  0.00350585  1
  In  In40  1  0.16122110  0.17344564  0.65123837  1
  In  In41  1  0.67792467  0.85261598  0.15221343  1
  In  In42  1  0.79950907  -0.00305846  0.84102566  1
  In  In43  1  0.68509292  0.01453213  0.33917097  1
  In  In44  1  0.50556042  0.33372352  0.13643310  1
  In  In45  1  0.67942593  0.85368073  0.51201581  1
  In  In46  1  0.50805544  0.67283670  0.14908619  1
  In  In47  1  0.86491769  0.00478094  0.21434982  1
  In  In48  1  0.50997630  0.51087181  0.34763737  1
  In  In49  1  0.67289317  0.66927954  0.66760070  1
  In  In50  1  0.31590241  0.17686962  0.16528904  1
  In  In51  1  0.00881772  0.33065638  0.63739871  1
  In  In52  1  0.32402611  0.85770820  0.17608883  1
  In  In53  1  0.83187481  0.30745276  0.16589979  1
  In  In54  1  0.50523936  0.81319603  0.68501808  1
  In  In55  1  0.00907840  -0.00535277  0.02872877  1
  In  In56  1  0.16396713  0.33661612  0.47259660  1
  In  In57  1  0.83219232  0.80533986  0.65979036  1
  In  In58  1  -0.01875728  0.00854846  0.64031567  1
  In  In59  1  0.36254413  0.15013364  0.82960206  1
  In  In60  1  0.71029999  0.32132103  0.33954980  1
  In  In61  1  0.87270874  0.68374907  0.18065925  1
  In  In62  1  0.15077005  0.49667458  0.33525463  1
  In  In63  1  0.50683414  0.14517334  0.33609016  1
  In  In64  1  0.51139289  0.32803578  0.50697343  1
  In  In65  1  0.00213274  0.65696001  0.65566315  1
  In  In66  1  0.15708587  0.33976486  0.17748525  1
  In  In67  1  0.33602576  0.81625865  0.49539666  1
  In  In68  1  0.00516077  0.67471390  -0.00531741  1
  In  In69  1  0.48103256  0.83616116  0.31062030  1
  In  In70  1  0.21411235  0.75627230  0.02937682  1
  In  In71  1  0.64558777  -0.00118487  0.66423113  1
  Te  Te72  1  0.08094697  0.06696417  0.13836186  1
  Te  Te73  1  0.07750051  0.05991511  0.39908001  1
  Te  Te74  1  0.08261937  0.08194588  0.75152764  1
  Te  Te75  1  0.09763457  0.43025690  0.06529531  1
  Te  Te76  1  0.05935496  0.39024180  0.38459684  1
  Te  Te77  1  0.08142237  0.40691186  0.75527048  1
  Te  Te78  1  0.07619043  0.75200498  0.10060370  1
  Te  Te79  1  0.08306290  0.78173671  0.36651125  1
  Te  Te80  1  0.10354398  0.72630928  0.74963614  1
  Te  Te81  1  0.41228255  0.09640396  0.07709339  1
  Te  Te82  1  0.40622598  0.06328936  0.40538941  1
  Te  Te83  1  0.44496406  0.10406890  0.71766867  1
  Te  Te84  1  0.40708962  0.43203356  0.09308207  1
  Te  Te85  1  0.40601811  0.41250271  0.41915957  1
  Te  Te86  1  0.40072755  0.44255160  0.74403768  1
  Te  Te87  1  0.42599231  0.78208308  0.08921112  1
  Te  Te88  1  0.43411924  0.73405896  0.41163973  1
  Te  Te89  1  0.39929130  0.74644283  0.76697977  1
  Te  Te90  1  0.77258339  0.05861198  0.10018942  1
  Te  Te91  1  0.77515019  0.08390883  0.43393925  1
  Te  Te92  1  0.73901854  0.09682503  0.74804105  1
  Te  Te93  1  0.73700300  0.40854129  0.09619136  1
  Te  Te94  1  0.73836362  0.43748290  0.43212918  1
  Te  Te95  1  0.76711525  0.37421060  0.77818866  1
  Te  Te96  1  0.75888897  0.73585135  0.08326286  1
  Te  Te97  1  0.75848750  0.75082373  0.43074131  1
  Te  Te98  1  0.73502459  0.76619391  0.75990233  1
  Te  Te99  1  0.07493032  0.26190894  0.27097783  1
  Te  Te100  1  0.07261693  0.23054140  0.54324198  1
  Te  Te101  1  0.05443720  0.23200941  0.91358867  1
  Te  Te102  1  0.08100235  0.60069200  0.25857974  1
  Te  Te103  1  0.06995043  0.56813166  0.55827020  1
  Te  Te104  1  0.09199958  0.58794219  0.90619136  1
  Te  Te105  1  0.06516839  0.97260609  0.27011343  1
  Te  Te106  1  0.09470023  0.91536316  0.60485697  1
  Te  Te107  1  0.06665946  0.89452050  0.92325289  1
  Te  Te108  1  0.41776445  0.25787830  0.24537455  1
  Te  Te109  1  0.42511182  0.22961579  0.57667675  1
  Te  Te110  1  0.42000591  0.27247220  0.89875525  1
  Te  Te111  1  0.42731790  0.58746380  0.24678199  1
  Te  Te112  1  0.42730765  0.59489586  0.56954027  1
  Te  Te113  1  0.35411775  0.62465548  0.96830820  1
  Te  Te114  1  0.41140867  0.95031725  0.25130863  1
  Te  Te115  1  0.41053440  0.90491135  0.59383769  1
  Te  Te116  1  0.43573276  0.94170649  0.89591908  1
  Te  Te117  1  0.73538725  0.21975686  0.23542104  1
  Te  Te118  1  0.72121330  0.26234635  0.57907453  1
  Te  Te119  1  0.77266842  0.26438534  0.90083562  1
  Te  Te120  1  0.76413469  0.59378672  0.25576544  1
  Te  Te121  1  0.77249169  0.57220936  0.61394966  1
  Te  Te122  1  0.74201728  0.58745210  0.89000813  1
  Te  Te123  1  0.76212747  0.90312829  0.26524387  1
  Te  Te124  1  0.77019207  0.93109361  0.60205306  1
  Te  Te125  1  0.72868578  0.89740073  0.92993690  1
  Te  Te126  1  0.22455849  0.25140439  0.06687273  1
  Te  Te127  1  0.26585588  0.23542176  0.42472929  1
  Te  Te128  1  0.25059664  0.23927562  0.75555794  1
  Te  Te129  1  0.25724561  0.63585733  0.10576854  1
  Te  Te130  1  0.24937216  0.57609602  0.42057845  1
  Te  Te131  1  0.26778677  0.56695476  0.74375712  1
  Te  Te132  1  0.23139801  0.90914629  0.06784880  1
  Te  Te133  1  0.26048963  0.90279845  0.40227057  1
  Te  Te134  1  0.26183125  0.91743992  0.77748957  1
  Te  Te135  1  0.60112951  0.23127135  0.08217428  1
  Te  Te136  1  0.59247619  0.24618489  0.40819393  1
  Te  Te137  1  0.62385018  0.23616694  0.85017110  1
  Te  Te138  1  0.57598150  0.56693429  0.06389514  1
  Te  Te139  1  0.60145345  0.56214211  0.45028790  1
  Te  Te140  1  0.57691149  0.58045347  0.74378464  1
  Te  Te141  1  0.57177967  0.93590211  0.08891670  1
  Te  Te142  1  0.58490567  0.90593482  0.40429102  1
  Te  Te143  1  0.57925802  0.91275262  0.76247206  1
  Te  Te144  1  0.93134996  0.21479089  0.09866853  1
  Te  Te145  1  0.84997325  0.25351570  0.37363089  1
  Te  Te146  1  0.90118475  0.28582426  0.73725387  1
  Te  Te147  1  0.90910762  0.57911104  0.06808055  1
  Te  Te148  1  0.93808093  0.58497516  0.42208025  1
  Te  Te149  1  0.89916079  0.57959726  0.73012376  1
  Te  Te150  1  0.91551988  0.90236157  0.10569297  1
  Te  Te151  1  0.87820796  0.96767110  0.42450573  1
  Te  Te152  1  0.91100072  0.93151988  0.75295863  1
  Te  Te153  1  0.25108485  0.07345385  0.24485369  1
  Te  Te154  1  0.25057881  0.07758999  0.57560421  1
  Te  Te155  1  0.24875531  0.09304610  0.92246529  1
  Te  Te156  1  0.25269813  0.44270184  0.23241623  1
  Te  Te157  1  0.23478784  0.39326602  0.59406304  1
  Te  Te158  1  0.25440536  0.42743345  0.90362558  1
  Te  Te159  1  0.24296754  0.78240773  0.27658237  1
  Te  Te160  1  0.22732971  0.73306952  0.56097762  1
  Te  Te161  1  0.29301690  0.74472081  0.90383334  1
  Te  Te162  1  0.59145650  0.07064510  0.24219935  1
  Te  Te163  1  0.59662684  0.08953039  0.56060769  1
  Te  Te164  1  0.58732517  0.09026383  0.89551422  1
  Te  Te165  1  0.58054228  0.41288083  0.25498942  1
  Te  Te166  1  0.60105666  0.38027473  0.61285858  1
  Te  Te167  1  0.56192376  0.43833056  0.91499366  1
  Te  Te168  1  0.60103156  0.74838776  0.24460873  1
  Te  Te169  1  0.58590428  0.75092629  0.57273520  1
  Te  Te170  1  0.54601714  0.72080107  0.90366972  1
  Te  Te171  1  0.89070718  0.11144300  0.31665303  1
  Te  Te172  1  0.92210324  0.11577391  0.56112711  1
  Te  Te173  1  0.91455603  0.06449346  0.92358381  1
  Te  Te174  1  0.91418391  0.41913438  0.23231207  1
  Te  Te175  1  0.92047301  0.42430781  0.56939768  1
  Te  Te176  1  0.91693968  0.41717171  0.92364156  1
  Te  Te177  1  0.91618847  0.76583374  0.29657261  1
  Te  Te178  1  0.94534636  0.77314995  0.56399159  1
  Te  Te179  1  0.90991287  0.73474948  0.89155633  1
