# generated using pymatgen
data_In2Te3
_symmetry_space_group_name_H-M   'P 1'
_cell_length_a   18.98560309
_cell_length_b   18.99179900
_cell_length_c   19.00421305
_cell_angle_alpha   90.15646020
_cell_angle_beta   90.05945742
_cell_angle_gamma   89.91624133
_symmetry_Int_Tables_number   1
_chemical_formula_structural   In2Te3
_chemical_formula_sum   'In72 Te108'
_cell_volume   6852.32696782
_cell_formula_units_Z   36
loop_
 _symmetry_equiv_pos_site_id
 _symmetry_equiv_pos_as_xyz
  1  'x, y, z'
loop_
 _atom_site_type_symbol
 _atom_site_label
 _atom_site_symmetry_multiplicity
 _atom_site_fract_x
 _atom_site_fract_y
 _atom_site_fract_z
 _atom_site_occupancy
  In  In0  1  0.00081436  0.14100849  0.50261704  1
  In  In1  1  0.17923056  0.50966687  0.68110205  1
  In  In2  1  0.34554715  0.49907889  0.84671428  1
  In  In3  1  0.17259538  0.00878133  0.82344053  1
  In  In4  1  0.51387402  0.83611532  0.00865785  1
  In  In5  1  0.52363810  -0.02712474  0.46356849  1
  In  In6  1  -0.02437398  0.54007773  0.18691630  1
  In  In7  1  -0.00643449  0.66595601  0.01003897  1
  In  In8  1  0.83605150  0.53344489  0.34078168  1
  In  In9  1  0.14904262  0.15858960  -0.00281944  1
  In  In10  1  0.66205335  0.35311425  0.65283056  1
  In  In11  1  0.83305430  0.16791687  0.34594711  1
  In  In12  1  0.78829340  0.66338381  0.86012834  1
  In  In13  1  0.49224204  0.15620482  -0.00997720  1
  In  In14  1  0.81346211  0.35953271  0.81327247  1
  In  In15  1  0.83057068  -0.02279294  0.18419405  1
  In  In16  1  -0.00259031  0.48231332  0.82268036  1
  In  In17  1  -0.03021198  -0.02205055  0.00622135  1
  In  In18  1  0.50526952  0.17529708  0.32742017  1
  In  In19  1  0.52034297  0.79379542  0.65847668  1
  In  In20  1  0.65721655  0.16611988  0.15064918  1
  In  In21  1  0.17421496  0.16027444  0.65834120  1
  In  In22  1  0.21711504  0.35141584  0.52254054  1
  In  In23  1  0.31830784  -0.01187305  0.32966979  1
  In  In24  1  0.13433581  -0.04958568  0.20351269  1
  In  In25  1  0.64992479  -0.00102871  -0.00150098  1
  In  In26  1  0.34058990  0.81877001  0.18693281  1
  In  In27  1  0.83254262  0.35430013  0.49932312  1
  In  In28  1  0.53436325  0.34442684  0.84639715  1
  In  In29  1  0.68426120  0.83472486  0.82010732  1
  In  In30  1  0.00841444  0.82776740  0.82592915  1
  In  In31  1  0.52205134  0.64374815  0.82124467  1
  In  In32  1  0.00298613  0.48755309  0.50359090  1
  In  In33  1  0.82088822  0.82521912  0.66723282  1
  In  In34  1  0.66291139  0.51785051  0.18287028  1
  In  In35  1  0.17784416  0.33619848  0.16811425  1
  In  In36  1  0.79512877  0.79757335  0.02547841  1
  In  In37  1  0.66583623  0.15340213  0.51200341  1
  In  In38  1  0.33986241  0.82889532  0.48268698  1
  In  In39  1  -0.01594867  0.16071311  0.14699357  1
  In  In40  1  0.31831890  0.17461134  0.83923930  1
  In  In41  1  0.84077111  0.80714119  0.34753038  1
  In  In42  1  0.65594534  0.36913776  0.04047594  1
  In  In43  1  0.02396083  0.35762611  0.33681509  1
  In  In44  1  0.34308852  0.51600972  0.17331509  1
  In  In45  1  0.01377818  0.33185426  -0.02029187  1
  In  In46  1  -0.01945453  0.31122889  0.65307691  1
  In  In47  1  0.16308253  0.16258936  0.35071550  1
  In  In48  1  0.46813447  0.36295524  0.46476421  1
  In  In49  1  0.19459648  0.69173673  0.41320542  1
  In  In50  1  0.34169506  -0.00358860  0.66238070  1
  In  In51  1  0.35857472  0.14880367  0.17268215  1
  In  In52  1  0.65476134  0.33666141  0.30681139  1
  In  In53  1  0.33603405  0.36601416  0.01783472  1
  In  In54  1  0.18477234  0.82583046  0.64137640  1
  In  In55  1  0.51498765  0.66675719  0.18733933  1
  In  In56  1  0.65960617  0.52428163  0.51324492  1
  In  In57  1  0.18888306  0.82092650  0.01026986  1
  In  In58  1  0.48699656  -0.01959031  0.82576566  1
  In  In59  1  0.47523545  0.64421435  0.48955686  1
  In  In60  1  0.68937668  0.18899711  0.80447724  1
  In  In61  1  0.32275574  0.15974935  0.50883801  1
  In  In62  1  0.66589339  0.68109313  0.34386947  1
  In  In63  1  0.82604057  0.02463483  0.83026690  1
  In  In64  1  0.18074574  0.66640161  0.86817901  1
  In  In65  1  0.82939099  -0.02683861  0.48991526  1
  In  In66  1  -0.01771797  0.65718076  0.67159682  1
  In  In67  1  0.18401128  0.49113227  0.02991475  1
  In  In68  1  0.16269568  0.66140964  0.19710031  1
  In  In69  1  0.82849050  0.17332761  -0.02263976  1
  In  In70  1  0.34683060  0.36195260  0.66021496  1
  In  In71  1  0.00907775  -0.02377554  0.63384668  1
  Te  Te72  1  0.07558325  0.05264218  0.09122542  1
  Te  Te73  1  0.08567739  0.05993315  0.41743592  1
  Te  Te74  1  0.07259996  0.07675966  0.73232583  1
  Te  Te75  1  0.06970741  0.42257132  0.10107701  1
  Te  Te76  1  0.12100847  0.42696108  0.42822132  1
  Te  Te77  1  0.08264372  0.40340164  0.72687809  1
  Te  Te78  1  0.08612022  0.74951901  0.09487940  1
  Te  Te79  1  0.04589456  0.68340511  0.39041454  1
  Te  Te80  1  0.10198874  0.73934926  0.74885130  1
  Te  Te81  1  0.43934887  0.06124038  0.08733347  1
  Te  Te82  1  0.41197733  0.08004344  0.41475645  1
  Te  Te83  1  0.41355172  0.09399753  0.75251357  1
  Te  Te84  1  0.43094371  0.46894067  0.06226204  1
  Te  Te85  1  0.37195365  0.44852950  0.39445457  1
  Te  Te86  1  0.44524643  0.42839171  0.75603464  1
  Te  Te87  1  0.42658425  0.74039402  0.08821969  1
  Te  Te88  1  0.42717324  0.75050373  0.39146052  1
  Te  Te89  1  0.43114574  0.74359546  0.76066810  1
  Te  Te90  1  0.76704369  0.07530240  0.07595035  1
  Te  Te91  1  0.74019439  0.07018689  0.41008525  1
  Te  Te92  1  0.73819390  0.07534650  0.72645464  1
  Te  Te93  1  0.76171028  0.42893834  0.11875830  1
  Te  Te94  1  0.73901601  0.42992550  0.40886309  1
  Te  Te95  1  0.72330756  0.45416969  0.74402956  1
  Te  Te96  1  0.68703036  0.74877878  0.11132674  1
  Te  Te97  1  0.74058015  0.75895970  0.44778476  1
  Te  Te98  1  0.72108227  0.70824764  0.72166023  1
  Te  Te99  1  0.07333769  0.24446180  0.24424127  1
  Te  Te100  1  0.09788526  0.25126868  0.56313325  1
  Te  Te101  1  0.09165652  0.24440145  0.89368793  1
  Te  Te102  1  0.08772794  0.56240566  0.28097449  1
  Te  Te103  1  0.08676238  0.58553742  0.58871035  1
  Te  Te104  1  0.07905016  0.56704392  0.92550287  1
  Te  Te105  1  0.03106074  0.88122132  0.27943027  1
  Te  Te106  1  0.07488260  0.87079509  0.55417870  1
  Te  Te107  1  0.08803313  0.91598133  0.92066505  1
  Te  Te108  1  0.42098955  0.25978154  0.24243162  1
  Te  Te109  1  0.41671984  0.25994473  0.57103470  1
  Te  Te110  1  0.41268271  0.26985252  0.91432577  1
  Te  Te111  1  0.39804859  0.61595996  0.27297563  1
  Te  Te112  1  0.41970142  0.56658360  0.60015173  1
  Te  Te113  1  0.43946306  0.57778547  0.92807906  1
  Te  Te114  1  0.41998742  0.92678452  0.24555760  1
  Te  Te115  1  0.43064045  0.90738230  0.57827492  1
  Te  Te116  1  0.41900708  0.92677058  0.94092366  1
  Te  Te117  1  0.75546292  0.24426675  0.24128904  1
  Te  Te118  1  0.75659942  0.25477416  0.58335006  1
  Te  Te119  1  0.72362115  0.26928879  0.92833625  1
  Te  Te120  1  0.76243375  0.62080650  0.24365563  1
  Te  Te121  1  0.74414352  0.59461730  0.60945001  1
  Te  Te122  1  0.70828135  0.57358382  0.94185552  1
  Te  Te123  1  0.74339060  0.90028226  0.27639133  1
  Te  Te124  1  0.73475506  0.89079315  0.56824358  1
  Te  Te125  1  0.76243681  0.91845469  0.92296318  1
  Te  Te126  1  0.25096583  0.24603048  0.07067666  1
  Te  Te127  1  0.26425389  0.25685934  0.40834938  1
  Te  Te128  1  0.25450648  0.26294925  0.73425600  1
  Te  Te129  1  0.25451784  0.60872943  0.08697338  1
  Te  Te130  1  0.29197722  0.58156806  0.38435728  1
  Te  Te131  1  0.26801125  0.59931107  0.76251534  1
  Te  Te132  1  0.24758530  0.91780037  0.10842111  1
  Te  Te133  1  0.23326107  0.90670957  0.41651340  1
  Te  Te134  1  0.25827444  0.90756241  0.75114093  1
  Te  Te135  1  0.55976390  0.25949632  0.08265102  1
  Te  Te136  1  0.58974199  0.26356557  0.42842203  1
  Te  Te137  1  0.57595324  0.25348875  0.72979976  1
  Te  Te138  1  0.61057265  0.61833428  0.07508743  1
  Te  Te139  1  0.57802604  0.57042870  0.39663430  1
  Te  Te140  1  0.61934129  0.58952445  0.71904181  1
  Te  Te141  1  0.61427497  0.89922112  0.10161439  1
  Te  Te142  1  0.61539801  0.90340304  0.37254111  1
  Te  Te143  1  0.58751035  0.91354360  0.73599167  1
  Te  Te144  1  0.90901186  0.26352553  0.06987358  1
  Te  Te145  1  0.92904491  0.26231252  0.42152722  1
  Te  Te146  1  0.89722069  0.25225730  0.75799855  1
  Te  Te147  1  0.89132257  0.58790126  0.07859190  1
  Te  Te148  1  0.91028814  0.59210070  0.45299477  1
  Te  Te149  1  0.90185625  0.59195097  0.78013676  1
  Te  Te150  1  0.90747378  0.87731755  0.09903753  1
  Te  Te151  1  0.93397817  0.91511922  0.40211647  1
  Te  Te152  1  0.91473863  0.92138253  0.75239707  1
  Te  Te153  1  0.23557210  0.08760591  0.23856942  1
  Te  Te154  1  0.23482678  0.05286338  0.57073374  1
  Te  Te155  1  0.25779178  0.07215119  0.93179538  1
  Te  Te156  1  0.26947182  0.41374571  0.25259115  1
  Te  Te157  1  0.29453674  0.48201691  0.57398736  1
  Te  Te158  1  0.23706571  0.41321113  0.91183629  1
  Te  Te159  1  0.23195148  0.76503194  0.28036785  1
  Te  Te160  1  0.25447900  0.72429167  0.55359774  1
  Te  Te161  1  0.28146156  0.75976111  0.91618955  1
  Te  Te162  1  0.59048036  0.08468887  0.25051570  1
  Te  Te163  1  0.56406153  0.06641429  0.56841505  1
  Te  Te164  1  0.59330354  0.09267681  0.89529414  1
  Te  Te165  1  0.56221207  0.42917265  0.24436391  1
  Te  Te166  1  0.55716197  0.42863721  0.57145325  1
  Te  Te167  1  0.61381959  0.44874115  0.91998580  1
  Te  Te168  1  0.55567491  0.77246451  0.29262629  1
  Te  Te169  1  0.58161510  0.73607282  0.53951822  1
  Te  Te170  1  0.59035393  0.75648982  0.90390364  1
  Te  Te171  1  0.91862632  0.07900049  0.25602861  1
  Te  Te172  1  0.89957307  0.07104110  0.58646775  1
  Te  Te173  1  0.93701507  0.09110760  0.91086132  1
  Te  Te174  1  0.90915333  0.42137238  0.26487274  1
  Te  Te175  1  0.90316407  0.43264552  0.60629041  1
  Te  Te176  1  0.90059497  0.42043284  0.92110278  1
  Te  Te177  1  0.95734930  0.74092073  0.27668806  1
  Te  Te178  1  0.93246377  0.76845985  0.58908697  1
  Te  Te179  1  0.90793743  0.75648522  0.91344129  1
