# generated using pymatgen
data_In2Te3
_symmetry_space_group_name_H-M   'P 1'
_cell_length_a   18.83021392
_cell_length_b   18.80737302
_cell_length_c   18.81154923
_cell_angle_alpha   90.03107604
_cell_angle_beta   89.97446615
_cell_angle_gamma   90.02062182
_symmetry_Int_Tables_number   1
_chemical_formula_structural   In2Te3
_chemical_formula_sum   'In72 Te108'
_cell_volume   6662.04896900
_cell_formula_units_Z   36
loop_
 _symmetry_equiv_pos_site_id
 _symmetry_equiv_pos_as_xyz
  1  'x, y, z'
loop_
 _atom_site_type_symbol
 _atom_site_label
 _atom_site_symmetry_multiplicity
 _atom_site_fract_x
 _atom_site_fract_y
 _atom_site_fract_z
 _atom_site_occupancy
  In  In0  1  0.82773729  0.68852281  0.84631938  1
  In  In1  1  -0.01114311  0.01297518  0.33004296  1
  In  In2  1  0.51929195  0.84669738  0.68324892  1
  In  In3  1  0.69340439  0.01760728  -0.00803306  1
  In  In4  1  -0.04227827  0.47941238  0.49920695  1
  In  In5  1  0.50662135  0.33956105  0.83735083  1
  In  In6  1  0.82115346  0.49373097  0.00019753  1
  In  In7  1  0.68049343  0.85391276  0.53464784  1
  In  In8  1  0.15883254  0.02120758  0.14282344  1
  In  In9  1  0.83196566  0.68840255  0.18891206  1
  In  In10  1  0.31940806  0.68669489  0.00680263  1
  In  In11  1  0.15461482  0.17193172  0.67736536  1
  In  In12  1  0.83865475  0.47909149  0.34669123  1
  In  In13  1  -0.02189701  0.02835783  -0.01912179  1
  In  In14  1  -0.05908461  0.00581059  0.70123701  1
  In  In15  1  0.00893546  0.49990719  0.82013152  1
  In  In16  1  0.49458786  0.67681958  0.14147151  1
  In  In17  1  0.52356247  0.49667829  0.67370376  1
  In  In18  1  0.82595095  0.48951349  0.66590563  1
  In  In19  1  0.51765298  0.14459644  -0.00118454  1
  In  In20  1  0.32999705  0.35681661  -0.00995604  1
  In  In21  1  0.01819516  0.67720307  0.66127646  1
  In  In22  1  0.50026426  0.67571251  0.47714630  1
  In  In23  1  0.83473085  0.32917757  0.51699948  1
  In  In24  1  -0.00068813  0.86367009  0.50372779  1
  In  In25  1  0.52593057  0.28783346  0.49215267  1
  In  In26  1  0.67170488  0.67058426  0.34480452  1
  In  In27  1  0.83481466  0.31143307  0.81911715  1
  In  In28  1  -0.00860968  0.63869620  -0.01605956  1
  In  In29  1  0.34190919  0.53201915  0.16543036  1
  In  In30  1  0.15710199  0.32059329  0.51210642  1
  In  In31  1  0.16483158  0.66555540  0.51065037  1
  In  In32  1  0.68102693  0.65575553  0.69203030  1
  In  In33  1  0.83301008  0.15908126  0.32439864  1
  In  In34  1  0.49807693  0.14940231  0.67056832  1
  In  In35  1  -0.03322025  0.28117280  -0.00142821  1
  In  In36  1  0.68216209  0.46182639  0.15005308  1
  In  In37  1  0.68067957  0.86217348  0.16389084  1
  In  In38  1  0.52306879  -0.00148976  0.17268030  1
  In  In39  1  0.32035980  0.34094325  0.34865225  1
  In  In40  1  0.16039436  0.84193758  0.67813416  1
  In  In41  1  0.35419771  -0.02301830  -0.01148250  1
  In  In42  1  0.33725895  0.16769396  0.48948440  1
  In  In43  1  0.83566824  0.84000197  0.00213446  1
  In  In44  1  0.31383388  0.51046773  0.49585925  1
  In  In45  1  0.31960302  0.16222436  0.82402942  1
  In  In46  1  0.68647892  0.30666333  0.67337663  1
  In  In47  1  0.83168421  0.67221853  0.50466765  1
  In  In48  1  0.31594762  0.17536674  0.18437366  1
  In  In49  1  0.00795950  0.32222736  0.32122150  1
  In  In50  1  0.15058626  -0.01029407  0.48569144  1
  In  In51  1  0.67205685  0.16512382  0.17494565  1
  In  In52  1  0.18244283  0.82648047  0.33282221  1
  In  In53  1  0.16574132  0.85401851  -0.02125221  1
  In  In54  1  0.16552072  0.50847528  0.31252187  1
  In  In55  1  0.48759716  0.83795888  0.32715289  1
  In  In56  1  0.51424576  0.30386657  0.16940036  1
  In  In57  1  0.17606477  0.66671127  0.16100200  1
  In  In58  1  0.68617521  -0.00135895  0.32724589  1
  In  In59  1  0.49431573  0.01325612  0.49798228  1
  In  In60  1  0.14160903  0.31668344  0.14899109  1
  In  In61  1  0.32554778  0.51016782  0.83783327  1
  In  In62  1  0.01778132  0.48368442  0.16949011  1
  In  In63  1  0.16382507  0.01417046  0.81415373  1
  In  In64  1  0.63114997  0.68859141  -0.02945156  1
  In  In65  1  0.50453451  0.48749780  -0.01797382  1
  In  In66  1  0.16218709  0.47164148  0.68314959  1
  In  In67  1  0.50268040  0.49893371  0.30910563  1
  In  In68  1  -0.00531476  0.82882781  0.16417653  1
  In  In69  1  0.70020248  0.02825130  0.67771598  1
  In  In70  1  0.34311790  -0.00750460  0.66587971  1
  In  In71  1  0.34197180  0.68774181  0.66719907  1
  Te  Te72  1  0.08362464  0.11335708  0.04983827  1
  Te  Te73  1  0.06255321  0.09354042  0.43167538  1
  Te  Te74  1  0.06283030  0.12813197  0.79285570  1
  Te  Te75  1  0.06239357  0.40028824  0.05161816  1
  Te  Te76  1  0.08670763  0.42567782  0.41346605  1
  Te  Te77  1  0.07244822  0.38110359  0.75730618  1
  Te  Te78  1  0.08183345  0.74733660  0.06944346  1
  Te  Te79  1  0.07842486  0.75896364  0.42514316  1
  Te  Te80  1  0.08628826  0.75095356  0.76819668  1
  Te  Te81  1  0.41293030  0.08615383  0.09324770  1
  Te  Te82  1  0.40151467  0.07038615  0.39941521  1
  Te  Te83  1  0.42449132  0.06333009  0.77348298  1
  Te  Te84  1  0.42808411  0.41420476  0.10307234  1
  Te  Te85  1  0.42288345  0.42712634  0.42155499  1
  Te  Te86  1  0.41407785  0.42026135  0.74871327  1
  Te  Te87  1  0.42224423  0.78146532  0.06532289  1
  Te  Te88  1  0.39800453  0.76141319  0.41758182  1
  Te  Te89  1  0.43404165  0.75280791  0.76369573  1
  Te  Te90  1  0.77480732  0.09695844  0.09034899  1
  Te  Te91  1  0.77489243  0.06605804  0.42701089  1
  Te  Te92  1  0.77373734  0.11733484  0.77785554  1
  Te  Te93  1  0.77566598  0.37506157  0.07650029  1
  Te  Te94  1  0.74332679  0.41543312  0.43817431  1
  Te  Te95  1  0.73714991  0.41953283  0.76583063  1
  Te  Te96  1  0.74242611  0.73904175  0.07292955  1
  Te  Te97  1  0.75370406  0.77319765  0.42044626  1
  Te  Te98  1  0.75177729  0.77381108  0.75006843  1
  Te  Te99  1  0.08366888  0.21964722  0.24396145  1
  Te  Te100  1  0.06324493  0.22416116  0.57192060  1
  Te  Te101  1  0.07677546  0.21597793  0.92420151  1
  Te  Te102  1  0.06640502  0.60530955  0.24975890  1
  Te  Te103  1  0.07506070  0.55996105  0.57993971  1
  Te  Te104  1  0.09949238  0.57933876  0.90496158  1
  Te  Te105  1  0.08571008  0.92265061  0.24698657  1
  Te  Te106  1  0.06482026  0.94898058  0.62048104  1
  Te  Te107  1  0.06364750  0.93213136  0.89556540  1
  Te  Te108  1  0.41696349  0.24800850  0.27332532  1
  Te  Te109  1  0.41531147  0.25069266  0.59149068  1
  Te  Te110  1  0.41744351  0.24446939  0.92496412  1
  Te  Te111  1  0.42021643  0.61805963  0.26244814  1
  Te  Te112  1  0.41994970  0.58190103  0.58289817  1
  Te  Te113  1  0.41797055  0.59550122  0.92472681  1
  Te  Te114  1  0.41227989  0.92971626  0.24080206  1
  Te  Te115  1  0.42442843  0.90174818  0.57587075  1
  Te  Te116  1  0.43414899  0.87003139  0.92466989  1
  Te  Te117  1  0.72737469  0.25649541  0.28146765  1
  Te  Te118  1  0.75662828  0.21657159  0.57680659  1
  Te  Te119  1  0.76211397  0.21279066  0.90517894  1
  Te  Te120  1  0.74705986  0.57274666  0.25002737  1
  Te  Te121  1  0.73834659  0.57388095  0.57431162  1
  Te  Te122  1  0.73558288  0.58943396  0.91647685  1
  Te  Te123  1  0.78506211  0.93109536  0.23949314  1
  Te  Te124  1  0.78744630  0.93855425  0.59444118  1
  Te  Te125  1  0.76129092  0.91914027  0.89840753  1
  Te  Te126  1  0.25094893  0.24902216  0.06739596  1
  Te  Te127  1  0.22717344  0.23570047  0.40590033  1
  Te  Te128  1  0.24467089  0.26508423  0.75156440  1
  Te  Te129  1  0.23602947  0.56444184  0.06448596  1
  Te  Te130  1  0.24920689  0.60490678  0.39629702  1
  Te  Te131  1  0.24438614  0.59100371  0.73532136  1
  Te  Te132  1  0.25316763  0.91400845  0.08739173  1
  Te  Te133  1  0.25988229  0.91926561  0.41907681  1
  Te  Te134  1  0.26542339  0.90946581  0.76706921  1
  Te  Te135  1  0.60683467  0.25059672  0.06112868  1
  Te  Te136  1  0.59920748  0.21535384  0.38929852  1
  Te  Te137  1  0.58657348  0.23270321  0.76267342  1
  Te  Te138  1  0.59046196  0.57132930  0.08734619  1
  Te  Te139  1  0.58866233  0.56598682  0.41821626  1
  Te  Te140  1  0.57947433  0.58778697  0.77426429  1
  Te  Te141  1  0.58916928  0.92091431  0.06057225  1
  Te  Te142  1  0.59074501  0.90837684  0.41972389  1
  Te  Te143  1  0.59989513  0.94823257  0.75622672  1
  Te  Te144  1  0.89718212  0.20894183  0.10722075  1
  Te  Te145  1  0.92058421  0.24723427  0.41848999  1
  Te  Te146  1  0.90949658  0.20942209  0.73491684  1
  Te  Te147  1  0.90673105  0.57962125  0.09783743  1
  Te  Te148  1  0.92080121  0.59502791  0.40655619  1
  Te  Te149  1  0.90610224  0.59572211  0.74290006  1
  Te  Te150  1  0.91646587  0.93631048  0.08821741  1
  Te  Te151  1  0.89905745  0.95060310  0.43413577  1
  Te  Te152  1  0.86097028  0.90873139  0.77682569  1
  Te  Te153  1  0.23059611  0.08039752  0.25776820  1
  Te  Te154  1  0.24868494  0.08175535  0.58751243  1
  Te  Te155  1  0.25135384  0.07196055  0.92606389  1
  Te  Te156  1  0.25046594  0.41149607  0.23085942  1
  Te  Te157  1  0.26100732  0.40184811  0.58866683  1
  Te  Te158  1  0.23331162  0.40600829  0.89148623  1
  Te  Te159  1  0.26664696  0.75691819  0.23261953  1
  Te  Te160  1  0.25125914  0.77153929  0.57749322  1
  Te  Te161  1  0.24011119  0.75291261  0.90174628  1
  Te  Te162  1  0.57592523  0.09773529  0.28172870  1
  Te  Te163  1  0.59939979  0.09060408  0.57346147  1
  Te  Te164  1  0.58540396  0.06056771  0.89785599  1
  Te  Te165  1  0.60128452  0.39426472  0.26108140  1
  Te  Te166  1  0.59212589  0.39218238  0.58587464  1
  Te  Te167  1  0.60889860  0.40290510  0.92348113  1
  Te  Te168  1  0.59593578  0.75376844  0.23962253  1
  Te  Te169  1  0.59004995  0.73750982  0.58508198  1
  Te  Te170  1  0.56338419  0.78704241  0.88575127  1
  Te  Te171  1  0.94053448  0.11400602  0.22560364  1
  Te  Te172  1  0.90201038  0.11710622  0.61264249  1
  Te  Te173  1  0.87321340  0.10064590  0.89891097  1
  Te  Te174  1  0.90823093  0.39947591  0.23564055  1
  Te  Te175  1  0.93204984  0.39056236  0.62008360  1
  Te  Te176  1  0.91344040  0.41311275  0.90663118  1
  Te  Te177  1  0.91055418  0.77706779  0.27485824  1
  Te  Te178  1  0.91698632  0.76560566  0.59069055  1
  Te  Te179  1  0.93898165  0.76498124  0.91647780  1
