# generated using pymatgen
data_In2Te3
_symmetry_space_group_name_H-M   'P 1'
_cell_length_a   18.85025883
_cell_length_b   18.82831394
_cell_length_c   18.85779416
_cell_angle_alpha   90.04533306
_cell_angle_beta   90.05199054
_cell_angle_gamma   90.02368023
_symmetry_Int_Tables_number   1
_chemical_formula_structural   In2Te3
_chemical_formula_sum   'In72 Te108'
_cell_volume   6692.97631136
_cell_formula_units_Z   36
loop_
 _symmetry_equiv_pos_site_id
 _symmetry_equiv_pos_as_xyz
  1  'x, y, z'
loop_
 _atom_site_type_symbol
 _atom_site_label
 _atom_site_symmetry_multiplicity
 _atom_site_fract_x
 _atom_site_fract_y
 _atom_site_fract_z
 _atom_site_occupancy
  In  In0  1  0.66923059  0.65962931  0.65056076  1
  In  In1  1  0.17447875  0.49101446  -0.01242001  1
  In  In2  1  0.31446856  0.48056866  0.16513959  1
  In  In3  1  0.34085523  0.16804403  0.16296077  1
  In  In4  1  0.33191965  0.49634247  0.50917506  1
  In  In5  1  0.16864476  0.64727743  0.83509907  1
  In  In6  1  0.12583809  0.81621266  0.36714362  1
  In  In7  1  0.49524054  0.18406888  0.66634994  1
  In  In8  1  0.52157960  0.18593425  0.34026338  1
  In  In9  1  0.81172047  0.00339215  0.15996087  1
  In  In10  1  0.84940969  -0.00325758  0.49340136  1
  In  In11  1  -0.01050897  0.00901474  0.32477125  1
  In  In12  1  0.13255089  0.20160730  0.37251957  1
  In  In13  1  0.16758206  0.16143435  0.00125752  1
  In  In14  1  0.82302399  0.18251747  0.68261761  1
  In  In15  1  0.31216385  0.02912994  0.63594170  1
  In  In16  1  0.16177018  0.65291331  0.16652371  1
  In  In17  1  0.32610189  0.01585465  0.33617087  1
  In  In18  1  0.00459098  0.33338760  0.01768076  1
  In  In19  1  0.51832435  0.82775892  -0.00883060  1
  In  In20  1  0.51662125  0.05043011  0.16778099  1
  In  In21  1  0.13416537  0.49528733  0.65405070  1
  In  In22  1  0.50225807  0.49564198  -0.00247227  1
  In  In23  1  0.67034978  0.49294256  0.49061215  1
  In  In24  1  0.51880350  0.31509034  0.16158884  1
  In  In25  1  0.84883254  0.16403965  0.01512048  1
  In  In26  1  0.81153363  0.80695338  0.64038338  1
  In  In27  1  0.16981196  0.82644631  0.02429190  1
  In  In28  1  0.51656616  0.68615783  0.16312055  1
  In  In29  1  0.50140743  0.50848476  0.35768031  1
  In  In30  1  0.84946916  0.65890793  0.49904142  1
  In  In31  1  -0.03576570  0.80756625  0.20323180  1
  In  In32  1  0.81928326  0.81390480  0.01403305  1
  In  In33  1  0.34359802  0.48164473  0.84928555  1
  In  In34  1  0.16032147  0.01098038  0.16263583  1
  In  In35  1  -0.02712074  0.18495406  0.82008942  1
  In  In36  1  0.33206283  0.64736807  0.32929964  1
  In  In37  1  0.68765455  0.49676666  0.19208367  1
  In  In38  1  0.69388132  0.82193787  0.18663463  1
  In  In39  1  -0.02560848  0.82716812  0.82248326  1
  In  In40  1  0.33321832  0.83303556  0.82714273  1
  In  In41  1  0.03746005  -0.00794536  0.02667929  1
  In  In42  1  0.14672918  0.01959574  0.82637425  1
  In  In43  1  0.66548422  0.82590180  0.49703017  1
  In  In44  1  0.82520458  0.02306030  0.83070670  1
  In  In45  1  0.52553610  0.49664929  0.63792414  1
  In  In46  1  0.13867819  0.46629451  0.36660160  1
  In  In47  1  0.52096170  -0.00669577  0.82690970  1
  In  In48  1  0.64954146  0.82284402  0.82579810  1
  In  In49  1  0.34070484  0.19664564  0.82791766  1
  In  In50  1  0.32180764  0.82528553  0.48868907  1
  In  In51  1  0.51028914  0.82962537  0.32694310  1
  In  In52  1  0.02331324  0.49226910  0.82602108  1
  In  In53  1  -0.03573043  0.48483719  0.19830993  1
  In  In54  1  0.67838373  0.17991321  0.50141243  1
  In  In55  1  0.50809821  0.34307000  0.84022057  1
  In  In56  1  0.83810817  0.62063210  0.85002880  1
  In  In57  1  0.82071095  0.19379420  0.32701929  1
  In  In58  1  0.67013264  0.18064355  0.83610610  1
  In  In59  1  0.00631122  0.01716300  0.64587974  1
  In  In60  1  0.16215381  0.32287634  0.19310255  1
  In  In61  1  0.33497486  0.68087802  0.67282630  1
  In  In62  1  0.82882059  0.48618378  0.03172294  1
  In  In63  1  -0.02262675  0.65740773  0.65561102  1
  In  In64  1  0.52687406  0.64565585  0.82585438  1
  In  In65  1  0.15797402  0.83607610  0.64241070  1
  In  In66  1  0.82294575  0.35263067  0.80904011  1
  In  In67  1  0.32393228  0.83929964  0.16660728  1
  In  In68  1  0.85702641  0.36104000  0.50227075  1
  In  In69  1  0.32529614  0.32135464  0.64840073  1
  In  In70  1  0.66351596  0.01097896  0.00432143  1
  In  In71  1  0.49061259  -0.00894079  0.49954098  1
  Te  Te72  1  0.06633620  0.11821430  0.10686924  1
  Te  Te73  1  0.07741953  0.07201268  0.42664918  1
  Te  Te74  1  0.08332470  0.11730395  0.73025127  1
  Te  Te75  1  0.08832359  0.43272902  0.10072633  1
  Te  Te76  1  0.02311358  0.38856010  0.42828088  1
  Te  Te77  1  0.10422995  0.39206917  0.75533731  1
  Te  Te78  1  0.06423870  0.74782712  0.09734046  1
  Te  Te79  1  0.04546774  0.70750789  0.42502920  1
  Te  Te80  1  0.08288470  0.73772853  0.74553073  1
  Te  Te81  1  0.41539031  0.08245875  0.06920960  1
  Te  Te82  1  0.41882540  0.09960469  0.42048866  1
  Te  Te83  1  0.41274734  0.07628459  0.74418221  1
  Te  Te84  1  0.41490298  0.40315772  0.08176466  1
  Te  Te85  1  0.41337077  0.41024769  0.42171952  1
  Te  Te86  1  0.42103637  0.42348370  0.73163812  1
  Te  Te87  1  0.41147559  0.75414214  0.07560954  1
  Te  Te88  1  0.42194587  0.73916444  0.41286671  1
  Te  Te89  1  0.44151633  0.75313728  0.75504760  1
  Te  Te90  1  0.72151071  0.12043582  0.09836059  1
  Te  Te91  1  0.75381466  0.08358152  0.41043076  1
  Te  Te92  1  0.72231520  0.07836528  0.73576495  1
  Te  Te93  1  0.74086089  0.38610398  0.10197874  1
  Te  Te94  1  0.77575860  0.43692178  0.39855439  1
  Te  Te95  1  0.73064647  0.43472732  0.73292210  1
  Te  Te96  1  0.75507916  0.71389611  0.10297474  1
  Te  Te97  1  0.76704864  0.75202826  0.41745352  1
  Te  Te98  1  0.76461762  0.73447554  0.76375978  1
  Te  Te99  1  0.04932404  0.27111197  0.27061041  1
  Te  Te100  1  0.12153250  0.21902485  0.52761570  1
  Te  Te101  1  0.07636005  0.24792629  0.91363750  1
  Te  Te102  1  0.08306778  0.56488366  0.25987664  1
  Te  Te103  1  0.06444535  0.58475903  0.55442925  1
  Te  Te104  1  0.06997084  0.58992573  0.93440986  1
  Te  Te105  1  0.08543645  0.90548039  0.24261260  1
  Te  Te106  1  0.08746099  0.93215626  0.55551806  1
  Te  Te107  1  0.08422420  0.89639855  0.90670202  1
  Te  Te108  1  0.41324788  0.25945903  0.25956574  1
  Te  Te109  1  0.43082433  0.26564802  0.56087899  1
  Te  Te110  1  0.42373772  0.26148937  0.92908642  1
  Te  Te111  1  0.42054796  0.57797222  0.22685953  1
  Te  Te112  1  0.42439400  0.59622515  0.58107220  1
  Te  Te113  1  0.41533888  0.59647099  0.91784726  1
  Te  Te114  1  0.41961202  0.92735810  0.24910090  1
  Te  Te115  1  0.39857660  0.90912607  0.58972138  1
  Te  Te116  1  0.42175977  0.91949154  0.91686018  1
  Te  Te117  1  0.76107408  0.29210014  0.23053505  1
  Te  Te118  1  0.75567227  0.27958271  0.58766579  1
  Te  Te119  1  0.77206024  0.25634936  0.91721213  1
  Te  Te120  1  0.79292091  0.60075967  0.22455394  1
  Te  Te121  1  0.76730280  0.56419103  0.58682896  1
  Te  Te122  1  0.73868217  0.55544374  0.93532736  1
  Te  Te123  1  0.77631013  0.91174077  0.27106005  1
  Te  Te124  1  0.74496861  0.92831105  0.58311198  1
  Te  Te125  1  0.75125194  0.91525278  0.91346277  1
  Te  Te126  1  0.24872573  0.26135914  0.08361792  1
  Te  Te127  1  0.25295631  0.25039885  0.44595759  1
  Te  Te128  1  0.23621945  0.24214811  0.73580398  1
  Te  Te129  1  0.26026819  0.58792188  0.07092755  1
  Te  Te130  1  0.23549790  0.57783713  0.41995802  1
  Te  Te131  1  0.25577296  0.56709479  0.73945052  1
  Te  Te132  1  0.26024005  0.94050153  0.07141618  1
  Te  Te133  1  0.23397583  0.92155675  0.41159705  1
  Te  Te134  1  0.23863321  0.92067979  0.74269618  1
  Te  Te135  1  0.59457184  0.21330364  0.08938435  1
  Te  Te136  1  0.61309025  0.27977482  0.41200192  1
  Te  Te137  1  0.59753109  0.27180957  0.73894480  1
  Te  Te138  1  0.59116638  0.57245275  0.09639378  1
  Te  Te139  1  0.59523109  0.60071525  0.42209074  1
  Te  Te140  1  0.62065672  0.54443223  0.75460613  1
  Te  Te141  1  0.59453497  0.90916022  0.09785483  1
  Te  Te142  1  0.59329076  0.92877597  0.40613360  1
  Te  Te143  1  0.58738638  0.90972816  0.72630345  1
  Te  Te144  1  0.90696066  0.26611819  0.10532105  1
  Te  Te145  1  0.91816369  0.24625528  0.42808000  1
  Te  Te146  1  0.93034270  0.28890267  0.71812827  1
  Te  Te147  1  0.91515235  0.58706170  0.10140588  1
  Te  Te148  1  0.93815181  0.59547850  0.39558704  1
  Te  Te149  1  0.91149306  0.54779854  0.73782515  1
  Te  Te150  1  0.91545095  0.91314231  0.08294738  1
  Te  Te151  1  0.90827586  0.90429920  0.39304360  1
  Te  Te152  1  0.90970733  0.93545439  0.73673232  1
  Te  Te153  1  0.23208266  0.10696323  0.25811107  1
  Te  Te154  1  0.25105284  0.13047928  0.54930929  1
  Te  Te155  1  0.25674591  0.08431071  0.90625248  1
  Te  Te156  1  0.25405813  0.40578570  0.28281346  1
  Te  Te157  1  0.22255323  0.40713330  0.56801100  1
  Te  Te158  1  0.24924860  0.38928194  0.91236403  1
  Te  Te159  1  0.24091198  0.75326249  0.26149723  1
  Te  Te160  1  0.23399037  0.72783195  0.56756398  1
  Te  Te161  1  0.24940214  0.74558342  0.91950815  1
  Te  Te162  1  0.61019950  0.08751455  0.27192611  1
  Te  Te163  1  0.57824066  0.09011911  0.57736584  1
  Te  Te164  1  0.57193202  0.10146601  0.92136394  1
  Te  Te165  1  0.57899980  0.41616347  0.26253102  1
  Te  Te166  1  0.57722071  0.39052544  0.54713998  1
  Te  Te167  1  0.60349362  0.41351773  0.92873863  1
  Te  Te168  1  0.61070177  0.72748294  0.27566583  1
  Te  Te169  1  0.57440798  0.74957423  0.58522191  1
  Te  Te170  1  0.61025790  0.72189004  0.93211068  1
  Te  Te171  1  0.90483831  0.09687580  0.23554421  1
  Te  Te172  1  0.90894947  0.11116015  0.57756781  1
  Te  Te173  1  0.93816330  0.07012717  0.92299708  1
  Te  Te174  1  0.86609129  0.40109463  0.27484602  1
  Te  Te175  1  0.96833338  0.44934650  0.55592471  1
  Te  Te176  1  0.92204152  0.41717482  0.91902966  1
  Te  Te177  1  0.88947853  0.70749103  0.28658236  1
  Te  Te178  1  0.93917133  0.77726531  0.56984446  1
  Te  Te179  1  0.91545927  0.73403181  0.92637060  1
