# generated using pymatgen
data_In2Te3
_symmetry_space_group_name_H-M   'P 1'
_cell_length_a   19.04320887
_cell_length_b   19.00374654
_cell_length_c   19.05843258
_cell_angle_alpha   90.30520778
_cell_angle_beta   89.98456444
_cell_angle_gamma   89.76628554
_symmetry_Int_Tables_number   1
_chemical_formula_structural   In2Te3
_chemical_formula_sum   'In72 Te108'
_cell_volume   6896.94475651
_cell_formula_units_Z   36
loop_
 _symmetry_equiv_pos_site_id
 _symmetry_equiv_pos_as_xyz
  1  'x, y, z'
loop_
 _atom_site_type_symbol
 _atom_site_label
 _atom_site_symmetry_multiplicity
 _atom_site_fract_x
 _atom_site_fract_y
 _atom_site_fract_z
 _atom_site_occupancy
  In  In0  1  0.67326596  0.51430087  0.15711891  1
  In  In1  1  0.49813774  0.37175883  0.17388450  1
  In  In2  1  0.49551089  0.18297907  0.00110727  1
  In  In3  1  0.70818043  -0.04442002  0.76611042  1
  In  In4  1  0.49515637  0.66152695  0.83568226  1
  In  In5  1  0.84598424  0.69323072  0.13640750  1
  In  In6  1  0.65397218  0.85032267  0.16762445  1
  In  In7  1  0.64307686  0.18259589  0.53286537  1
  In  In8  1  0.50676038  0.02769589  0.17663551  1
  In  In9  1  0.81301606  0.32816472  0.50367386  1
  In  In10  1  0.15267497  0.31605464  0.80680844  1
  In  In11  1  0.36071652  0.22019837  0.15421330  1
  In  In12  1  -0.01368189  0.16871833  0.84199777  1
  In  In13  1  0.32117146  0.49197428  0.83340148  1
  In  In14  1  0.02688093  0.51345740  0.48306656  1
  In  In15  1  0.05159385  0.80615326  0.16708489  1
  In  In16  1  0.82908891  0.49745859  0.63835236  1
  In  In17  1  0.83301624  0.83535288  -0.09915385  1
  In  In18  1  0.83816155  0.66661381  0.50946793  1
  In  In19  1  0.67913165  0.02124776  0.32402070  1
  In  In20  1  0.48155391  0.11917849  0.68172212  1
  In  In21  1  0.16476073  -0.02184092  0.15846211  1
  In  In22  1  0.67454102  0.18542911  0.15758444  1
  In  In23  1  0.81196652  0.79928179  0.70210350  1
  In  In24  1  0.32080048  0.78625002  0.49385458  1
  In  In25  1  0.82439905  0.49957880  0.34343254  1
  In  In26  1  -0.03482709  -0.02249313  0.67145169  1
  In  In27  1  0.17297569  -0.02488508  0.47081991  1
  In  In28  1  0.48632718  0.00292944  0.48716742  1
  In  In29  1  -0.01324984  0.30528286  0.66171278  1
  In  In30  1  0.66968415  0.68205301  0.00630404  1
  In  In31  1  0.13966758  0.33598692  0.48720436  1
  In  In32  1  0.02281062  0.64502677  0.02086357  1
  In  In33  1  0.45350096  0.82090863  0.01923734  1
  In  In34  1  0.23398338  0.41208595  0.15902733  1
  In  In35  1  0.35945268  0.34315572  0.67472239  1
  In  In36  1  -0.01874979  0.35000222  0.34120508  1
  In  In37  1  0.31390546  0.52266989  0.47730443  1
  In  In38  1  0.81756417  0.49183401  -0.03636656  1
  In  In39  1  0.87497468  0.82809811  0.32008200  1
  In  In40  1  -0.01597514  0.49829919  0.82726378  1
  In  In41  1  0.25496852  0.72520529  0.14793638  1
  In  In42  1  0.30934133  0.16796120  0.49268043  1
  In  In43  1  0.17214351  0.68436644  0.82967656  1
  In  In44  1  0.16576735  0.19345251  0.31205634  1
  In  In45  1  0.66186354  0.81740054  0.52213119  1
  In  In46  1  -0.00150156  0.69907430  0.70756612  1
  In  In47  1  0.80840971  0.19416090  0.35349144  1
  In  In48  1  0.51370182  0.81094284  0.34916899  1
  In  In49  1  0.48920480  0.35214802  0.51190699  1
  In  In50  1  0.66329394  0.66652489  0.34279343  1
  In  In51  1  0.01036807  0.14339364  0.15636071  1
  In  In52  1  0.65224593  0.15619496  0.84845961  1
  In  In53  1  -0.01004852  0.01360606  0.32011601  1
  In  In54  1  0.19698262  0.12875973  0.68301863  1
  In  In55  1  0.32191288  0.68696438  0.65138031  1
  In  In56  1  0.49534370  0.67044626  0.50948106  1
  In  In57  1  0.00734232  -0.00652879  -0.01035361  1
  In  In58  1  0.84460555  0.00291855  0.13430891  1
  In  In59  1  0.49688537  0.86452685  0.68413276  1
  In  In60  1  0.16065985  0.50763221  0.62191179  1
  In  In61  1  0.01354734  0.82505357  0.47498889  1
  In  In62  1  0.65458453  0.33489442  0.71274236  1
  In  In63  1  -0.00138979  0.13287483  0.52936428  1
  In  In64  1  0.33825845  -0.00195614  0.32628531  1
  In  In65  1  0.23871320  0.85257431  -0.02057381  1
  In  In66  1  0.84768326  0.33199538  0.15698550  1
  In  In67  1  0.31878119  0.34057115  -0.00990851  1
  In  In68  1  0.18295480  0.00037676  0.82741336  1
  In  In69  1  0.81091932  0.16309810  -0.00316826  1
  In  In70  1  0.51309508  0.51059837  0.69532853  1
  In  In71  1  0.44492279  0.56831806  0.12307942  1
  Te  Te72  1  0.11039412  0.07969896  0.06115765  1
  Te  Te73  1  0.09317447  0.09556397  0.40740325  1
  Te  Te74  1  0.06986865  0.07229621  0.74585157  1
  Te  Te75  1  0.10095637  0.45066164  0.10211026  1
  Te  Te76  1  0.10377506  0.43519693  0.37755765  1
  Te  Te77  1  0.07663683  0.42129104  0.71998432  1
  Te  Te78  1  0.13004278  0.75072674  0.05132712  1
  Te  Te79  1  0.10425419  0.72987364  0.40610714  1
  Te  Te80  1  0.11064433  0.78563045  0.74282736  1
  Te  Te81  1  0.40059198  0.09132551  0.09187565  1
  Te  Te82  1  0.41444133  0.10423525  0.40159100  1
  Te  Te83  1  0.37483998  0.04635093  0.75894603  1
  Te  Te84  1  0.42121087  0.43093019  0.05889165  1
  Te  Te85  1  0.42587803  0.44777146  0.41805314  1
  Te  Te86  1  0.43968036  0.41180971  0.78358897  1
  Te  Te87  1  0.40365752  0.71547013  0.11747171  1
  Te  Te88  1  0.40910109  0.71224452  0.39204858  1
  Te  Te89  1  0.41071177  0.75655874  0.75019815  1
  Te  Te90  1  0.72232180  0.06668188  0.07456351  1
  Te  Te91  1  0.74074780  0.09454148  0.44051533  1
  Te  Te92  1  0.75204954  0.09470264  0.76022286  1
  Te  Te93  1  0.74927855  0.41198921  0.07444579  1
  Te  Te94  1  0.73385617  0.41753877  0.42108690  1
  Te  Te95  1  0.76789290  0.42971757  0.75582659  1
  Te  Te96  1  0.75489709  0.79349287  0.06946080  1
  Te  Te97  1  0.76373606  0.76693284  0.41094581  1
  Te  Te98  1  0.72865805  0.72226328  0.79308439  1
  Te  Te99  1  0.05729629  0.26410704  0.23724862  1
  Te  Te100  1  0.10692722  0.22908921  0.59133698  1
  Te  Te101  1  0.10595340  0.22152420  0.90640529  1
  Te  Te102  1  0.11151522  0.58712957  0.17182181  1
  Te  Te103  1  0.05806500  0.61242751  0.59257260  1
  Te  Te104  1  0.08935339  0.57965753  0.90044611  1
  Te  Te105  1  0.09001207  0.91106406  0.27120589  1
  Te  Te106  1  0.07292560  0.92645321  0.57160631  1
  Te  Te107  1  0.10653873  0.90744978  0.91718853  1
  Te  Te108  1  0.41335963  0.29497099  0.26540689  1
  Te  Te109  1  0.41483668  0.22641640  0.58497165  1
  Te  Te110  1  0.39665347  0.24448325  0.91198777  1
  Te  Te111  1  0.45175864  0.55062622  0.27074481  1
  Te  Te112  1  0.40925025  0.56985704  0.59444846  1
  Te  Te113  1  0.38829788  0.59514958  0.91665877  1
  Te  Te114  1  0.44626036  0.91564084  0.26012644  1
  Te  Te115  1  0.41747263  0.89120690  0.55711504  1
  Te  Te116  1  0.37005168  0.91092440  0.93322740  1
  Te  Te117  1  0.74112119  0.28349453  0.25354892  1
  Te  Te118  1  0.74815250  0.25530777  0.61386919  1
  Te  Te119  1  0.72910886  0.26362164  0.92366602  1
  Te  Te120  1  0.76360864  0.61060391  0.24037623  1
  Te  Te121  1  0.73376145  0.59369861  0.57975289  1
  Te  Te122  1  0.76557936  0.62235559  0.90663976  1
  Te  Te123  1  0.76770454  0.91898174  0.24993702  1
  Te  Te124  1  0.73840404  0.90103842  0.61840301  1
  Te  Te125  1  0.71347113  0.91688045  0.90894314  1
  Te  Te126  1  0.23369743  0.26992471  0.09590893  1
  Te  Te127  1  0.25310133  0.27623627  0.40231605  1
  Te  Te128  1  0.27336339  0.24267557  0.74927500  1
  Te  Te129  1  0.23078455  0.55113305  0.08780730  1
  Te  Te130  1  0.21416590  0.62189280  0.43467759  1
  Te  Te131  1  0.24203112  0.57521628  0.73154493  1
  Te  Te132  1  0.27197425  0.87915239  0.13030343  1
  Te  Te133  1  0.26273944  0.88544051  0.38983638  1
  Te  Te134  1  0.29039341  0.92066988  0.76196017  1
  Te  Te135  1  0.58156912  0.27607202  0.08341225  1
  Te  Te136  1  0.58184866  0.26846045  0.43380416  1
  Te  Te137  1  0.55227564  0.22637661  0.75560653  1
  Te  Te138  1  0.58264209  0.56720202  0.04906647  1
  Te  Te139  1  0.60554563  0.59021024  0.45233349  1
  Te  Te140  1  0.60893594  0.58843506  0.77565357  1
  Te  Te141  1  0.55533149  0.92115918  0.07991853  1
  Te  Te142  1  0.60196090  0.91857093  0.41397395  1
  Te  Te143  1  0.56201229  0.93827293  0.79410966  1
  Te  Te144  1  0.92374152  0.23407187  0.06890169  1
  Te  Te145  1  0.93297247  0.23744403  0.43183796  1
  Te  Te146  1  0.90541245  0.27306504  0.77657750  1
  Te  Te147  1  0.90053836  0.57124844  0.06812278  1
  Te  Te148  1  0.92353941  0.59466821  0.40739018  1
  Te  Te149  1  0.90209320  0.58954403  0.73962162  1
  Te  Te150  1  0.95223481  0.90552031  0.09904587  1
  Te  Te151  1  0.91375426  0.93437981  0.42238107  1
  Te  Te152  1  0.91080148  0.88985067  0.77755267  1
  Te  Te153  1  0.24135772  0.08149163  0.24455683  1
  Te  Te154  1  0.26211921  0.04762425  0.57048324  1
  Te  Te155  1  0.30238636  0.05851174  0.89611311  1
  Te  Te156  1  0.30664207  0.51954064  0.23609166  1
  Te  Te157  1  0.25614955  0.39756759  0.57531868  1
  Te  Te158  1  0.21591249  0.41398071  0.90609247  1
  Te  Te159  1  0.19955617  0.69444770  0.28348416  1
  Te  Te160  1  0.21623760  0.77343393  0.59690583  1
  Te  Te161  1  0.28415179  0.71939788  0.91926121  1
  Te  Te162  1  0.58521601  0.12263059  0.26424491  1
  Te  Te163  1  0.58319626  0.05458330  0.59047874  1
  Te  Te164  1  0.55303428  0.07429144  0.91958628  1
  Te  Te165  1  0.58728604  0.45557048  0.26146221  1
  Te  Te166  1  0.58917024  0.41978644  0.60215951  1
  Te  Te167  1  0.65772560  0.38517283  0.85541351  1
  Te  Te168  1  0.58272413  0.73582659  0.23458360  1
  Te  Te169  1  0.57232041  0.74620287  0.61652112  1
  Te  Te170  1  0.56090268  0.75858279  0.93241890  1
  Te  Te171  1  0.88712674  0.10486907  0.24761701  1
  Te  Te172  1  0.89023716  0.09039083  0.61522619  1
  Te  Te173  1  0.89997425  0.06868001  0.91583319  1
  Te  Te174  1  0.91752390  0.44071159  0.23886493  1
  Te  Te175  1  0.93360856  0.41469049  0.56033827  1
  Te  Te176  1  0.92837423  0.40310350  0.92149281  1
  Te  Te177  1  0.95145680  0.72244081  0.24300734  1
  Te  Te178  1  0.91705870  0.77022342  0.58576802  1
  Te  Te179  1  0.93424360  0.73793039  0.93398162  1
