# generated using pymatgen
data_In2Te3
_symmetry_space_group_name_H-M   'P 1'
_cell_length_a   18.80640798
_cell_length_b   18.81349172
_cell_length_c   18.80752086
_cell_angle_alpha   89.95409611
_cell_angle_beta   90.00242979
_cell_angle_gamma   89.99030911
_symmetry_Int_Tables_number   1
_chemical_formula_structural   In2Te3
_chemical_formula_sum   'In72 Te108'
_cell_volume   6654.36572207
_cell_formula_units_Z   36
loop_
 _symmetry_equiv_pos_site_id
 _symmetry_equiv_pos_as_xyz
  1  'x, y, z'
loop_
 _atom_site_type_symbol
 _atom_site_label
 _atom_site_symmetry_multiplicity
 _atom_site_fract_x
 _atom_site_fract_y
 _atom_site_fract_z
 _atom_site_occupancy
  In  In0  1  0.00469330  0.84256013  0.47382599  1
  In  In1  1  -0.00731059  0.17889062  0.82349444  1
  In  In2  1  0.82770840  0.85886238  0.32151918  1
  In  In3  1  0.67038384  0.49359237  0.15280585  1
  In  In4  1  0.19694071  0.03166654  0.84980016  1
  In  In5  1  -0.01764101  0.00738528  0.32648276  1
  In  In6  1  0.36326287  0.45863809  0.81358132  1
  In  In7  1  0.15394486  -0.01146679  0.49460740  1
  In  In8  1  0.49768733  0.84672163  0.66831397  1
  In  In9  1  0.65973969  0.84988154  0.15586641  1
  In  In10  1  0.35400065  0.87516547  0.86124885  1
  In  In11  1  -0.00671969  0.15237584  0.17433949  1
  In  In12  1  0.34961539  0.32969418  0.33559086  1
  In  In13  1  0.36046680  0.03057859  0.67654671  1
  In  In14  1  -0.04289691  0.31861753  0.34716199  1
  In  In15  1  0.33063961  0.66988851  0.01654409  1
  In  In16  1  0.49559734  0.85572500  0.32413029  1
  In  In17  1  0.84120612  0.64856202  0.15864866  1
  In  In18  1  0.36105573  0.19259309  0.52906169  1
  In  In19  1  0.16817153  0.17922648  0.67117353  1
  In  In20  1  -0.01344370  0.86897004  0.82503671  1
  In  In21  1  0.66570194  0.86451277  0.50028222  1
  In  In22  1  0.66362458  0.16466563  0.48685741  1
  In  In23  1  -0.00682391  0.52044232  0.83683231  1
  In  In24  1  0.16828185  -0.01821062  0.15920744  1
  In  In25  1  0.35937707  0.64555615  0.67153126  1
  In  In26  1  0.00529747  0.65859971  0.02420655  1
  In  In27  1  0.48913695  0.50260938  0.34386399  1
  In  In28  1  0.01939938  0.67633357  0.34432999  1
  In  In29  1  0.81445909  0.17200108  -0.00064995  1
  In  In30  1  0.17671506  0.34272114  0.51264185  1
  In  In31  1  0.52578958  0.67332097  0.84148418  1
  In  In32  1  0.36487059  0.32012669  -0.02419589  1
  In  In33  1  0.34532384  0.01705988  0.34414025  1
  In  In34  1  -0.00216364  0.48717350  0.49136625  1
  In  In35  1  0.64122471  0.04240616  -0.00043314  1
  In  In36  1  0.17641398  0.83415522  0.65063860  1
  In  In37  1  -0.01457538  0.33479307  0.68056138  1
  In  In38  1  0.16889886  0.48200850  0.64863200  1
  In  In39  1  0.80213030  0.30529514  0.49784847  1
  In  In40  1  0.33665884  0.65349743  0.33183217  1
  In  In41  1  0.52407238  0.30377435  0.17163413  1
  In  In42  1  0.36044813  0.17583334  0.13130742  1
  In  In43  1  0.82517478  0.84969055  0.65027214  1
  In  In44  1  0.16255263  0.14809451  0.32874013  1
  In  In45  1  0.34263914  0.85449674  0.16849841  1
  In  In46  1  0.82455079  0.64756540  0.84351087  1
  In  In47  1  0.17387830  0.66423365  0.16343121  1
  In  In48  1  0.63669347  0.29911892  0.00540537  1
  In  In49  1  0.67586097  0.64482393  0.65946207  1
  In  In50  1  0.81184284  0.30620845  0.18806058  1
  In  In51  1  0.17080544  0.67193508  0.83326034  1
  In  In52  1  0.00554485  0.84455647  0.15284194  1
  In  In53  1  0.48975235  0.49472138  0.00562071  1
  In  In54  1  0.49413642  0.64983596  0.50364999  1
  In  In55  1  0.65511988  0.66523666  -0.02514835  1
  In  In56  1  0.00011234  -0.01106615  0.00469387  1
  In  In57  1  0.82056221  0.65152524  0.52313257  1
  In  In58  1  0.78347280  0.01744074  0.83237038  1
  In  In59  1  0.20333965  0.31739885  0.83031641  1
  In  In60  1  0.18161983  0.33914556  0.16165503  1
  In  In61  1  0.17060963  0.52380095  0.32823844  1
  In  In62  1  0.32610816  0.84431472  0.52159121  1
  In  In63  1  0.02339138  0.33842185  -0.01249923  1
  In  In64  1  0.62975624  0.02531180  0.67339278  1
  In  In65  1  0.81916523  0.46082290  0.34662569  1
  In  In66  1  0.66645520  0.48342896  0.80713304  1
  In  In67  1  0.65163838  0.82990888  0.84792250  1
  In  In68  1  0.64961637  0.67787883  0.34213215  1
  In  In69  1  -0.00022559  0.63765801  0.67790363  1
  In  In70  1  0.86818834  0.83626224  0.01742367  1
  In  In71  1  0.83081052  0.32104690  0.80029407  1
  Te  Te72  1  0.09172296  0.08716628  0.07710339  1
  Te  Te73  1  0.06096227  0.10153500  0.43449018  1
  Te  Te74  1  0.08722260  0.07790914  0.75329866  1
  Te  Te75  1  0.09038359  0.42593891  0.08441166  1
  Te  Te76  1  0.08809411  0.40476627  0.39998819  1
  Te  Te77  1  0.08778440  0.41298355  0.76402442  1
  Te  Te78  1  0.10340914  0.76526038  0.06898598  1
  Te  Te79  1  0.11170973  0.75227028  0.42910162  1
  Te  Te80  1  0.07567892  0.75754642  0.74873292  1
  Te  Te81  1  0.39524996  0.06282741  0.04107205  1
  Te  Te82  1  0.42756404  0.10444066  0.42913067  1
  Te  Te83  1  0.44178091  0.11418836  0.76648769  1
  Te  Te84  1  0.42239101  0.39523441  0.09807537  1
  Te  Te85  1  0.43237224  0.40012512  0.43723170  1
  Te  Te86  1  0.46954562  0.38478151  0.74304526  1
  Te  Te87  1  0.42349405  0.75677802  0.09052074  1
  Te  Te88  1  0.42371202  0.76159989  0.42631143  1
  Te  Te89  1  0.41180672  0.75933044  0.76070735  1
  Te  Te90  1  0.73749463  0.09613495  0.10140885  1
  Te  Te91  1  0.71705780  0.05932182  0.39211207  1
  Te  Te92  1  0.72383076  0.11813596  0.74312876  1
  Te  Te93  1  0.74545187  0.38602945  0.07633685  1
  Te  Te94  1  0.71135415  0.40100385  0.42670064  1
  Te  Te95  1  0.72062184  0.37870935  0.71557909  1
  Te  Te96  1  0.75142162  0.74340447  0.07562596  1
  Te  Te97  1  0.75498576  0.75650892  0.42343207  1
  Te  Te98  1  0.75072330  0.75250707  0.75073843  1
  Te  Te99  1  0.08036015  0.25286968  0.25430594  1
  Te  Te100  1  0.07147403  0.25458948  0.58028377  1
  Te  Te101  1  0.10366396  0.23308435  0.91235171  1
  Te  Te102  1  0.06394095  0.58162918  0.23426450  1
  Te  Te103  1  0.08925600  0.58409473  0.56540616  1
  Te  Te104  1  0.09847517  0.57914844  0.93033932  1
  Te  Te105  1  0.08408880  0.91086693  0.26656443  1
  Te  Te106  1  0.05995607  0.92372385  0.60202548  1
  Te  Te107  1  0.09973950  0.92167978  0.91049673  1
  Te  Te108  1  0.42608334  0.22163032  0.26162918  1
  Te  Te109  1  0.48847451  0.26365125  0.58052536  1
  Te  Te110  1  0.47236593  0.23329608  0.91815348  1
  Te  Te111  1  0.42597048  0.58409201  0.23859224  1
  Te  Te112  1  0.42051359  0.54472770  0.58038547  1
  Te  Te113  1  0.41527955  0.58303866  0.90094883  1
  Te  Te114  1  0.43588959  0.96316649  0.23360974  1
  Te  Te115  1  0.43066095  0.94196451  0.57121228  1
  Te  Te116  1  0.44766490  0.95479299  0.93968808  1
  Te  Te117  1  0.71287377  0.26059843  0.28815516  1
  Te  Te118  1  0.71009358  0.25097982  0.60375659  1
  Te  Te119  1  0.73478447  0.24836323  0.89639507  1
  Te  Te120  1  0.74677487  0.58347975  0.26073185  1
  Te  Te121  1  0.74157187  0.54058376  0.57887166  1
  Te  Te122  1  0.74296504  0.55012505  0.92558610  1
  Te  Te123  1  0.71939915  0.93878027  0.26053568  1
  Te  Te124  1  0.74378793  0.96206396  0.58680036  1
  Te  Te125  1  0.75610347  0.90490555  0.93282819  1
  Te  Te126  1  0.24900989  0.24893978  0.05961917  1
  Te  Te127  1  0.24921018  0.23682157  0.41897823  1
  Te  Te128  1  0.28764957  0.24077914  0.73637993  1
  Te  Te129  1  0.25786724  0.56694205  0.09201766  1
  Te  Te130  1  0.26704439  0.56717554  0.42982289  1
  Te  Te131  1  0.25066857  0.56945085  0.75222079  1
  Te  Te132  1  0.26102268  0.92074279  0.06286933  1
  Te  Te133  1  0.25295602  0.91260801  0.40446079  1
  Te  Te134  1  0.26297799  0.92260288  0.74035722  1
  Te  Te135  1  0.59386891  0.18983097  0.10115436  1
  Te  Te136  1  0.59148167  0.26003589  0.39094587  1
  Te  Te137  1  0.53394782  0.24061224  0.77159652  1
  Te  Te138  1  0.57673712  0.59280585  0.08561751  1
  Te  Te139  1  0.60169943  0.56866950  0.43469014  1
  Te  Te140  1  0.56473592  0.57305735  0.73395812  1
  Te  Te141  1  0.56779884  0.93885670  0.07909462  1
  Te  Te142  1  0.58016591  0.94443732  0.41034985  1
  Te  Te143  1  0.56325642  0.93107453  0.77609845  1
  Te  Te144  1  0.92171728  0.25238292  0.07845564  1
  Te  Te145  1  0.88887509  0.21090403  0.42096857  1
  Te  Te146  1  0.89935447  0.21091550  0.70881203  1
  Te  Te147  1  0.90293462  0.55940577  0.05980421  1
  Te  Te148  1  0.91150592  0.58507492  0.41008984  1
  Te  Te149  1  0.88399228  0.55698245  0.73433133  1
  Te  Te150  1  0.89910713  0.94836918  0.11475723  1
  Te  Te151  1  0.88973051  0.93928410  0.43874116  1
  Te  Te152  1  0.89279515  0.95381670  0.74184750  1
  Te  Te153  1  0.25770426  0.08908975  0.22737809  1
  Te  Te154  1  0.24829915  0.08128989  0.57358978  1
  Te  Te155  1  0.29748854  0.10353640  0.92576561  1
  Te  Te156  1  0.26579764  0.42698943  0.25347842  1
  Te  Te157  1  0.27724639  0.38702336  0.61251907  1
  Te  Te158  1  0.26212724  0.42219918  0.92283848  1
  Te  Te159  1  0.25558385  0.75576255  0.25268808  1
  Te  Te160  1  0.25748546  0.72322507  0.58532743  1
  Te  Te161  1  0.26076524  0.76274468  0.91483369  1
  Te  Te162  1  0.61859145  0.13311085  0.30327083  1
  Te  Te163  1  0.55132739  0.10678347  0.57428690  1
  Te  Te164  1  0.57319928  0.11585497  0.88981215  1
  Te  Te165  1  0.58415311  0.41973260  0.25168750  1
  Te  Te166  1  0.52840462  0.40733541  0.59292577  1
  Te  Te167  1  0.58304936  0.41461388  0.91769644  1
  Te  Te168  1  0.57000057  0.75291450  0.23836458  1
  Te  Te169  1  0.58880494  0.75511027  0.58600886  1
  Te  Te170  1  0.55076609  0.77682246  0.95061180  1
  Te  Te171  1  0.88950714  0.11071652  0.27303547  1
  Te  Te172  1  0.96572282  0.03997232  0.54106172  1
  Te  Te173  1  0.91153882  0.07929755  0.91640780  1
  Te  Te174  1  0.91249562  0.41453087  0.23620068  1
  Te  Te175  1  0.90336227  0.40347903  0.57223881  1
  Te  Te176  1  0.91509038  0.40347747  0.89953277  1
  Te  Te177  1  0.91431309  0.75410111  0.24689513  1
  Te  Te178  1  0.92336496  0.74819352  0.58584898  1
  Te  Te179  1  0.92712513  0.74386167  0.90513329  1
