# generated using pymatgen
data_Ca108Mn108O277
_symmetry_space_group_name_H-M   'P 1'
_cell_length_a   16.02252444
_cell_length_b   22.29943191
_cell_length_c   16.38544273
_cell_angle_alpha   90.00157133
_cell_angle_beta   89.99551544
_cell_angle_gamma   90.00240802
_symmetry_Int_Tables_number   1
_chemical_formula_structural   Ca108Mn108O277
_chemical_formula_sum   'Ca108 Mn108 O277'
_cell_volume   5854.40712257
_cell_formula_units_Z   1
loop_
 _symmetry_equiv_pos_site_id
 _symmetry_equiv_pos_as_xyz
  1  'x, y, z'
loop_
 _atom_type_symbol
 _atom_type_oxidation_number
  Ca2+  2.0
  Mn3.34+  3.34
  O2-  -2.0
loop_
 _atom_site_type_symbol
 _atom_site_label
 _atom_site_symmetry_multiplicity
 _atom_site_fract_x
 _atom_site_fract_y
 _atom_site_fract_z
 _atom_site_occupancy
  Ca2+  Ca0  1  0.05817871  0.24057599  0.23643188  1
  Ca2+  Ca1  1  0.07208408  0.25000741  0.57888075  1
  Ca2+  Ca2  1  0.08055820  0.23706090  0.93963701  1
  Ca2+  Ca3  1  0.08644337  0.75465329  0.25559487  1
  Ca2+  Ca4  1  0.09897714  0.75688940  0.57891392  1
  Ca2+  Ca5  1  0.09330278  0.76160933  0.91663122  1
  Ca2+  Ca6  1  0.43695897  0.24658872  0.27379804  1
  Ca2+  Ca7  1  0.40956398  0.24663047  0.56694644  1
  Ca2+  Ca8  1  0.41362483  0.25201935  0.91223263  1
  Ca2+  Ca9  1  0.42050963  0.75931320  0.25036239  1
  Ca2+  Ca10  1  0.42471531  0.74438100  0.58806282  1
  Ca2+  Ca11  1  0.41530123  0.75300714  0.91767826  1
  Ca2+  Ca12  1  0.75085704  0.23882506  0.25607844  1
  Ca2+  Ca13  1  0.77263463  0.23930997  0.58354847  1
  Ca2+  Ca14  1  0.76076196  0.24827059  0.90399527  1
  Ca2+  Ca15  1  0.73843845  0.74841085  0.24156968  1
  Ca2+  Ca16  1  0.71684762  0.74547671  0.58949259  1
  Ca2+  Ca17  1  0.73637518  0.75216495  0.92110393  1
  Ca2+  Ca18  1  0.22050166  0.24075142  0.07458646  1
  Ca2+  Ca19  1  0.26675374  0.25210509  0.42580433  1
  Ca2+  Ca20  1  0.26551790  0.23194745  0.74959155  1
  Ca2+  Ca21  1  0.25881555  0.76577319  0.07552719  1
  Ca2+  Ca22  1  0.25671359  0.75783668  0.42328919  1
  Ca2+  Ca23  1  0.26266994  0.76556621  0.74977113  1
  Ca2+  Ca24  1  0.59110475  0.25073030  0.10844239  1
  Ca2+  Ca25  1  0.57504971  0.24230546  0.39881411  1
  Ca2+  Ca26  1  0.60205694  0.25007066  0.74836653  1
  Ca2+  Ca27  1  0.57638114  0.76139233  0.08485385  1
  Ca2+  Ca28  1  0.56524208  0.74267172  0.42929538  1
  Ca2+  Ca29  1  0.56684019  0.74697759  0.73893475  1
  Ca2+  Ca30  1  0.92640958  0.24452563  0.09762694  1
  Ca2+  Ca31  1  0.90919186  0.24080992  0.41121795  1
  Ca2+  Ca32  1  0.90117449  0.23572808  0.74736169  1
  Ca2+  Ca33  1  0.91142779  0.76393725  0.08050209  1
  Ca2+  Ca34  1  0.92651958  0.75387065  0.41094330  1
  Ca2+  Ca35  1  0.92300988  0.77115736  0.75934160  1
  Ca2+  Ca36  1  0.59253858  0.59221917  0.08665447  1
  Ca2+  Ca37  1  0.37176002  0.10809603  0.88479165  1
  Ca2+  Ca38  1  0.91073497  0.10439684  0.41623682  1
  Ca2+  Ca39  1  0.59056069  0.09240248  0.10061336  1
  Ca2+  Ca40  1  0.06662987  0.09536053  0.57510165  1
  Ca2+  Ca41  1  0.40912752  0.09952422  0.58916424  1
  Ca2+  Ca42  1  0.42901783  0.58333704  0.27056300  1
  Ca2+  Ca43  1  0.87930311  0.58580773  0.73830113  1
  Ca2+  Ca44  1  0.25691190  0.10049691  0.42320975  1
  Ca2+  Ca45  1  0.57779388  0.09224618  0.10076406  1
  Ca2+  Ca46  1  0.09105696  0.58665392  0.95286571  1
  Ca2+  Ca47  1  0.58127747  0.09722297  0.39432854  1
  Ca2+  Ca48  1  0.76571117  0.10109028  0.89923631  1
  Ca2+  Ca49  1  0.43095108  0.59916672  0.57870404  1
  Ca2+  Ca50  1  0.06613559  0.09584422  0.24888280  1
  Ca2+  Ca51  1  0.92362641  0.60026414  0.09384339  1
  Ca2+  Ca52  1  0.20221174  0.08666592  0.07976981  1
  Ca2+  Ca53  1  0.43963354  0.58252512  0.27255789  1
  Ca2+  Ca54  1  0.57982476  0.59157639  0.08582624  1
  Ca2+  Ca55  1  0.43346950  0.09645842  0.26454020  1
  Ca2+  Ca56  1  0.73210232  0.58484261  0.91771460  1
  Ca2+  Ca57  1  0.42174501  0.59795898  0.90823868  1
  Ca2+  Ca58  1  0.28156106  0.58421211  0.73586647  1
  Ca2+  Ca59  1  0.95449826  0.09980588  0.09303949  1
  Ca2+  Ca60  1  0.07719667  0.09365169  0.57768494  1
  Ca2+  Ca61  1  0.07869828  0.58887010  0.25957238  1
  Ca2+  Ca62  1  0.23684622  0.59731473  0.42375533  1
  Ca2+  Ca63  1  0.75887143  0.10264315  0.25573928  1
  Ca2+  Ca64  1  0.09754164  0.60003917  0.56417944  1
  Ca2+  Ca65  1  0.57959776  0.59640808  0.73796068  1
  Ca2+  Ca66  1  0.09835469  0.09282123  0.93205343  1
  Ca2+  Ca67  1  0.10251558  0.58614217  0.95490269  1
  Ca2+  Ca68  1  0.57495233  0.08841719  0.73613139  1
  Ca2+  Ca69  1  0.94590275  0.10153928  0.08759876  1
  Ca2+  Ca70  1  0.93753260  0.59124041  0.40717115  1
  Ca2+  Ca71  1  0.95049300  0.59251242  0.40913565  1
  Ca2+  Ca72  1  0.74274959  0.40135890  0.58395399  1
  Ca2+  Ca73  1  0.08537906  0.39996302  0.24270106  1
  Ca2+  Ca74  1  0.92774172  0.40142521  0.08595137  1
  Ca2+  Ca75  1  0.90672034  0.40489497  0.41816664  1
  Ca2+  Ca76  1  0.41170884  0.90959268  0.58628650  1
  Ca2+  Ca77  1  0.74832670  0.40690328  0.91007922  1
  Ca2+  Ca78  1  0.41225147  0.91936165  0.93988379  1
  Ca2+  Ca79  1  0.08235006  0.90992520  0.58731067  1
  Ca2+  Ca80  1  0.74385484  0.40990842  0.26225053  1
  Ca2+  Ca81  1  0.24126329  0.39304530  0.08995006  1
  Ca2+  Ca82  1  0.75691493  0.89655074  0.25406763  1
  Ca2+  Ca83  1  0.10882706  0.92643981  0.23724613  1
  Ca2+  Ca84  1  0.73712339  0.40656965  0.90956273  1
  Ca2+  Ca85  1  0.40187145  0.91946771  0.94186410  1
  Ca2+  Ca86  1  0.57067145  0.41322525  0.40784463  1
  Ca2+  Ca87  1  0.74884991  0.90551184  0.58105568  1
  Ca2+  Ca88  1  0.08859133  0.91788005  0.93686329  1
  Ca2+  Ca89  1  0.08884605  0.39880612  0.92588433  1
  Ca2+  Ca90  1  0.41072232  0.40534576  0.57332663  1
  Ca2+  Ca91  1  0.57980792  0.91145567  0.74236842  1
  Ca2+  Ca92  1  0.41675365  0.40366986  0.91558182  1
  Ca2+  Ca93  1  0.90634504  0.39964232  0.74828071  1
  Ca2+  Ca94  1  0.58154133  0.40874413  0.08961671  1
  Ca2+  Ca95  1  0.58441230  0.41037585  0.74453833  1
  Ca2+  Ca96  1  0.76134647  0.90121270  0.91164587  1
  Ca2+  Ca97  1  0.58782436  0.90605825  0.41548783  1
  Ca2+  Ca98  1  0.26500318  0.40494056  0.73887436  1
  Ca2+  Ca99  1  0.74853963  0.90172486  0.91119155  1
  Ca2+  Ca100  1  0.57011906  0.40840358  0.09022915  1
  Ca2+  Ca101  1  0.92207537  0.90797553  0.40632493  1
  Ca2+  Ca102  1  0.42307423  0.90992812  0.58615433  1
  Ca2+  Ca103  1  0.38240152  0.92076107  0.22328669  1
  Ca2+  Ca104  1  0.09240688  0.40532518  0.57274476  1
  Ca2+  Ca105  1  0.91865062  0.40468953  0.41800139  1
  Ca2+  Ca106  1  0.27668315  0.40846525  0.74151139  1
  Ca2+  Ca107  1  0.60019551  0.90677370  0.41650525  1
  Mn3.34+  Mn108  1  0.08304277  0.33177938  0.08700990  1
  Mn3.34+  Mn109  1  0.09013027  0.34019485  0.41248094  1
  Mn3.34+  Mn110  1  0.08264080  0.33020776  0.75040371  1
  Mn3.34+  Mn111  1  0.08445112  0.84123805  0.08967286  1
  Mn3.34+  Mn112  1  0.08791878  0.83859814  0.41728140  1
  Mn3.34+  Mn113  1  0.08590820  0.84171664  0.75193432  1
  Mn3.34+  Mn114  1  0.41079844  0.32983613  0.08756425  1
  Mn3.34+  Mn115  1  0.41587496  0.33707738  0.41543245  1
  Mn3.34+  Mn116  1  0.42296083  0.32973898  0.75002043  1
  Mn3.34+  Mn117  1  0.41648249  0.83853389  0.08623826  1
  Mn3.34+  Mn118  1  0.41174367  0.83261710  0.41332198  1
  Mn3.34+  Mn119  1  0.41494393  0.83785210  0.75691877  1
  Mn3.34+  Mn120  1  0.75177833  0.33381952  0.08594541  1
  Mn3.34+  Mn121  1  0.74626759  0.33358968  0.42231944  1
  Mn3.34+  Mn122  1  0.75030908  0.33280449  0.74642048  1
  Mn3.34+  Mn123  1  0.74989272  0.83121366  0.08693033  1
  Mn3.34+  Mn124  1  0.75576695  0.82598319  0.41952304  1
  Mn3.34+  Mn125  1  0.75119561  0.82881186  0.74640449  1
  Mn3.34+  Mn126  1  0.25114807  0.32654331  0.25292513  1
  Mn3.34+  Mn127  1  0.24754009  0.33084317  0.57739404  1
  Mn3.34+  Mn128  1  0.25072461  0.32326273  0.91248356  1
  Mn3.34+  Mn129  1  0.24846909  0.83754244  0.24887207  1
  Mn3.34+  Mn130  1  0.25024285  0.83572201  0.58337295  1
  Mn3.34+  Mn131  1  0.24724172  0.83732370  0.91546058  1
  Mn3.34+  Mn132  1  0.58249408  0.33437068  0.25391973  1
  Mn3.34+  Mn133  1  0.58254475  0.32828184  0.58033344  1
  Mn3.34+  Mn134  1  0.58007729  0.33147906  0.91548674  1
  Mn3.34+  Mn135  1  0.58077772  0.83352647  0.24689840  1
  Mn3.34+  Mn136  1  0.58211202  0.83473098  0.58226121  1
  Mn3.34+  Mn137  1  0.58154986  0.83343392  0.91476543  1
  Mn3.34+  Mn138  1  0.91287059  0.32919819  0.24913877  1
  Mn3.34+  Mn139  1  0.91984706  0.32698544  0.58350265  1
  Mn3.34+  Mn140  1  0.92049542  0.32769820  0.91719695  1
  Mn3.34+  Mn141  1  0.92194817  0.82937751  0.24581167  1
  Mn3.34+  Mn142  1  0.91619016  0.83226960  0.58098888  1
  Mn3.34+  Mn143  1  0.92405559  0.83938303  0.92004451  1
  Mn3.34+  Mn144  1  0.91658181  0.16482915  0.91442958  1
  Mn3.34+  Mn145  1  0.08322525  0.16930016  0.41841889  1
  Mn3.34+  Mn146  1  0.08329360  0.66384062  0.75039298  1
  Mn3.34+  Mn147  1  0.40555785  0.16133031  0.08502989  1
  Mn3.34+  Mn148  1  0.59465309  0.15873648  0.58112330  1
  Mn3.34+  Mn149  1  0.25454749  0.67161485  0.91892673  1
  Mn3.34+  Mn150  1  0.41776210  0.66336242  0.42408510  1
  Mn3.34+  Mn151  1  0.91429902  0.67715438  0.24687936  1
  Mn3.34+  Mn152  1  0.41512438  0.16677700  0.08325771  1
  Mn3.34+  Mn153  1  0.08289284  0.66788384  0.09255176  1
  Mn3.34+  Mn154  1  0.57852099  0.16799289  0.91213239  1
  Mn3.34+  Mn155  1  0.25378395  0.66988403  0.24668658  1
  Mn3.34+  Mn156  1  0.08006818  0.16536332  0.75565406  1
  Mn3.34+  Mn157  1  0.25355119  0.16636343  0.25084006  1
  Mn3.34+  Mn158  1  0.74439843  0.65386176  0.41349165  1
  Mn3.34+  Mn159  1  0.09066684  0.16138342  0.75820258  1
  Mn3.34+  Mn160  1  0.24422596  0.16075369  0.25116972  1
  Mn3.34+  Mn161  1  0.90290231  0.66740849  0.91381215  1
  Mn3.34+  Mn162  1  0.58354976  0.67012657  0.25101068  1
  Mn3.34+  Mn163  1  0.09426882  0.66883956  0.75016762  1
  Mn3.34+  Mn164  1  0.74047356  0.64863677  0.42300356  1
  Mn3.34+  Mn165  1  0.91411315  0.67159445  0.91635279  1
  Mn3.34+  Mn166  1  0.24364503  0.66485389  0.24464559  1
  Mn3.34+  Mn167  1  0.74899195  0.66765641  0.08815240  1
  Mn3.34+  Mn168  1  0.58822650  0.16261335  0.91008314  1
  Mn3.34+  Mn169  1  0.91436238  0.68295781  0.58436035  1
  Mn3.34+  Mn170  1  0.58319092  0.16503325  0.57748230  1
  Mn3.34+  Mn171  1  0.75101343  0.16889361  0.41768189  1
  Mn3.34+  Mn172  1  0.41609668  0.66601053  0.75077396  1
  Mn3.34+  Mn173  1  0.90441716  0.67762832  0.58260380  1
  Mn3.34+  Mn174  1  0.25371964  0.66964430  0.57965960  1
  Mn3.34+  Mn175  1  0.25357962  0.16772969  0.58435489  1
  Mn3.34+  Mn176  1  0.58236932  0.66895707  0.91328028  1
  Mn3.34+  Mn177  1  0.41477278  0.66691492  0.08236693  1
  Mn3.34+  Mn178  1  0.75322722  0.16883215  0.08272822  1
  Mn3.34+  Mn179  1  0.74171309  0.66401427  0.75377955  1
  Mn3.34+  Mn180  1  0.91469966  0.50041432  0.24420397  1
  Mn3.34+  Mn181  1  0.90721018  0.50169108  0.58099822  1
  Mn3.34+  Mn182  1  0.74786327  0.00683203  0.73992030  1
  Mn3.34+  Mn183  1  0.40882267  0.49900158  0.08878723  1
  Mn3.34+  Mn184  1  0.92282689  0.50264953  0.90969267  1
  Mn3.34+  Mn185  1  0.76061627  -0.00047229  0.08368721  1
  Mn3.34+  Mn186  1  0.25410141  0.49981933  0.25538573  1
  Mn3.34+  Mn187  1  0.39330899  -0.00349044  0.40512750  1
  Mn3.34+  Mn188  1  0.75017851  -0.00621618  0.08441129  1
  Mn3.34+  Mn189  1  0.91204374  0.49796548  0.90698766  1
  Mn3.34+  Mn190  1  0.25649196  0.49958402  0.58170482  1
  Mn3.34+  Mn191  1  0.07486258  0.49662349  0.74820910  1
  Mn3.34+  Mn192  1  0.89813264  0.50383598  0.24636834  1
  Mn3.34+  Mn193  1  0.59780079  0.50176460  0.27215757  1
  Mn3.34+  Mn194  1  0.08958012  0.50263572  0.74873397  1
  Mn3.34+  Mn195  1  0.59254338  0.50724669  0.58166956  1
  Mn3.34+  Mn196  1  0.41414455  -0.00044000  0.73766473  1
  Mn3.34+  Mn197  1  0.58090995  0.00044775  0.91802833  1
  Mn3.34+  Mn198  1  0.09147689  -0.00121893  0.39884839  1
  Mn3.34+  Mn199  1  0.25373772  0.49710802  0.91589578  1
  Mn3.34+  Mn200  1  0.76260550  0.00309891  0.74322096  1
  Mn3.34+  Mn201  1  0.08129427  -0.00029778  0.74260700  1
  Mn3.34+  Mn202  1  0.75478665  0.50179331  0.08740588  1
  Mn3.34+  Mn203  1  0.24867802  0.00022824  0.58780944  1
  Mn3.34+  Mn204  1  0.24445794  0.49543532  0.25979290  1
  Mn3.34+  Mn205  1  0.26330838  0.50229063  0.91227817  1
  Mn3.34+  Mn206  1  0.75166797  0.00444304  0.42125169  1
  Mn3.34+  Mn207  1  0.57184965  0.50181635  0.91738818  1
  Mn3.34+  Mn208  1  0.91226344  -0.00474553  0.25523387  1
  Mn3.34+  Mn209  1  0.89521218  0.50583394  0.58331694  1
  Mn3.34+  Mn210  1  0.40660983  0.00035931  0.41197027  1
  Mn3.34+  Mn211  1  0.24673414  0.00171746  0.92724208  1
  Mn3.34+  Mn212  1  0.92190595  0.00296149  0.91722400  1
  Mn3.34+  Mn213  1  0.58096640  0.50029114  0.58016632  1
  Mn3.34+  Mn214  1  0.91410680  -0.00224735  0.58078515  1
  Mn3.34+  Mn215  1  0.58785848  -0.00519639  0.25569621  1
  O2-  O216  1  0.00215249  0.15558852  -0.01006750  1
  O2-  O217  1  0.00540358  0.16666124  0.33904379  1
  O2-  O218  1  0.00561223  0.15138190  0.67379838  1
  O2-  O219  1  0.00100057  0.65886843  0.00221964  1
  O2-  O220  1  -0.00571973  0.67010829  0.33042160  1
  O2-  O221  1  -0.00328870  0.65392269  0.66467577  1
  O2-  O222  1  0.32718085  0.16029547  0.00529738  1
  O2-  O223  1  0.33269209  0.16069451  0.33091479  1
  O2-  O224  1  0.33665359  0.16941764  0.65818271  1
  O2-  O225  1  0.34089913  0.65680772  -0.00757310  1
  O2-  O226  1  0.33173085  0.64717289  0.33181018  1
  O2-  O227  1  0.34001437  0.65513981  0.65994939  1
  O2-  O228  1  0.66589988  0.14435740  -0.00421601  1
  O2-  O229  1  0.66975602  0.16086779  0.33718691  1
  O2-  O230  1  0.66561708  0.17144656  0.66151935  1
  O2-  O231  1  0.66552727  0.65150840  -0.00141892  1
  O2-  O232  1  0.67076551  0.67437735  0.32934046  1
  O2-  O233  1  0.66247383  0.67674840  0.68306450  1
  O2-  O234  1  0.16864588  0.16607445  -0.00035068  1
  O2-  O235  1  0.17326004  0.17403758  0.34026315  1
  O2-  O236  1  0.16341074  0.14957688  0.66654616  1
  O2-  O237  1  0.16251698  0.66644563  0.00383525  1
  O2-  O238  1  0.16331166  0.66030234  0.32629130  1
  O2-  O239  1  0.17412880  0.64877783  0.66766435  1
  O2-  O240  1  0.50150890  0.14322667  -0.00604749  1
  O2-  O241  1  0.50100168  0.16410744  0.33273388  1
  O2-  O242  1  0.50711459  0.17334046  0.66252626  1
  O2-  O243  1  0.50472609  0.64779624  0.00151627  1
  O2-  O244  1  0.49878986  0.65801719  0.33386351  1
  O2-  O245  1  0.49635946  0.66126226  0.67542038  1
  O2-  O246  1  0.84068746  0.14677353  0.00493169  1
  O2-  O247  1  0.82882996  0.16153235  0.33714674  1
  O2-  O248  1  0.83593472  0.16866247  0.66332600  1
  O2-  O249  1  0.82991981  0.64612616  0.00352061  1
  O2-  O250  1  0.83503989  0.67381687  0.33767538  1
  O2-  O251  1  0.82552650  0.67146496  0.66793345  1
  O2-  O252  1  0.00065771  0.34448408  0.00133133  1
  O2-  O253  1  -0.00150619  0.34338112  0.33209846  1
  O2-  O254  1  0.00348003  0.35080169  0.66237125  1
  O2-  O255  1  0.00766690  0.83014655  0.00492069  1
  O2-  O256  1  0.00081322  0.82197222  0.33500502  1
  O2-  O257  1  -0.00123510  0.83332495  0.66137026  1
  O2-  O258  1  0.33468251  0.33524272  -0.00557457  1
  O2-  O259  1  0.33247224  0.32080419  0.33146177  1
  O2-  O260  1  0.33782721  0.33814613  0.66567902  1
  O2-  O261  1  0.33442070  0.84043177  -0.00132913  1
  O2-  O262  1  0.34000681  0.84696666  0.32574211  1
  O2-  O263  1  0.33660062  0.84771786  0.66857044  1
  O2-  O264  1  0.66267552  0.35550750  0.00111402  1
  O2-  O265  1  0.66433054  0.34922988  0.33763614  1
  O2-  O266  1  0.65982979  0.34215292  0.67099755  1
  O2-  O267  1  0.67165013  0.84515495  -0.00556833  1
  O2-  O268  1  0.67215624  0.83519188  0.33659648  1
  O2-  O269  1  0.66802629  0.84413160  0.66428963  1
  O2-  O270  1  0.16854271  0.33253795  -0.00030229  1
  O2-  O271  1  0.16117795  0.30802057  0.33081596  1
  O2-  O272  1  0.17042432  0.35065812  0.66980884  1
  O2-  O273  1  0.16173118  0.83311016  0.00115338  1
  O2-  O274  1  0.16283748  0.82846781  0.33046506  1
  O2-  O275  1  0.16185799  0.84322884  0.65888690  1
  O2-  O276  1  0.50056461  0.35024749  -0.00030796  1
  O2-  O277  1  0.50224215  0.33918588  0.33502450  1
  O2-  O278  1  0.50259376  0.32005642  0.66699304  1
  O2-  O279  1  0.49418797  0.84464038  -0.00890655  1
  O2-  O280  1  0.50552140  0.84717354  0.34035262  1
  O2-  O281  1  0.49765844  0.85009780  0.66687253  1
  O2-  O282  1  0.82868417  0.35302279  -0.00292527  1
  O2-  O283  1  0.83286783  0.34769329  0.33308676  1
  O2-  O284  1  0.83129598  0.34696714  0.66117682  1
  O2-  O285  1  0.83085346  0.84225864  -0.00095644  1
  O2-  O286  1  0.83693866  0.82181149  0.33355947  1
  O2-  O287  1  0.82972938  0.80927798  0.66222920  1
  O2-  O288  1  -0.00298617  0.16988037  0.16579550  1
  O2-  O289  1  0.00717082  0.17556818  0.50004709  1
  O2-  O290  1  0.00052258  0.18398112  0.83595039  1
  O2-  O291  1  -0.00183130  0.69152464  0.16487179  1
  O2-  O292  1  -0.00458015  0.68766080  0.50096134  1
  O2-  O293  1  -0.00091238  0.67806830  0.83283407  1
  O2-  O294  1  0.33270098  0.19289262  0.17405569  1
  O2-  O295  1  0.32543245  0.17466469  0.50196569  1
  O2-  O296  1  0.33926646  0.19419830  0.84238454  1
  O2-  O297  1  0.33820045  0.67453990  0.17277441  1
  O2-  O298  1  0.32925809  0.68228033  0.49564756  1
  O2-  O299  1  0.32619772  0.67644081  0.82972403  1
  O2-  O300  1  0.66493298  0.17177843  0.15465560  1
  O2-  O301  1  0.66578821  0.18623714  0.49934148  1
  O2-  O302  1  0.66963026  0.18239446  0.83666654  1
  O2-  O303  1  0.65686609  0.67901487  0.15832515  1
  O2-  O304  1  0.66526222  0.68499165  0.49203504  1
  O2-  O305  1  0.66934349  0.68493926  0.83881907  1
  O2-  O306  1  0.16424561  0.18105540  0.17670043  1
  O2-  O307  1  0.16171387  0.17517190  0.50547452  1
  O2-  O308  1  0.16375173  0.18296473  0.83546450  1
  O2-  O309  1  0.16656445  0.69163042  0.16447284  1
  O2-  O310  1  0.17103225  0.67939515  0.50372243  1
  O2-  O311  1  0.15913202  0.67568223  0.84903066  1
  O2-  O312  1  0.50006909  0.17358116  0.15913244  1
  O2-  O313  1  0.50598045  0.18208317  0.50608246  1
  O2-  O314  1  0.50345084  0.18350054  0.83054394  1
  O2-  O315  1  0.50035731  0.67060575  0.16649641  1
  O2-  O316  1  0.48940000  0.67663759  0.50303007  1
  O2-  O317  1  0.49554627  0.68148986  0.83810287  1
  O2-  O318  1  0.83060399  0.17373252  0.15890876  1
  O2-  O319  1  0.83501985  0.17775474  0.49233486  1
  O2-  O320  1  0.83411363  0.17810272  0.84236818  1
  O2-  O321  1  0.83534050  0.68608947  0.16265825  1
  O2-  O322  1  0.82692447  0.69379340  0.49516631  1
  O2-  O323  1  0.83132944  0.69093680  0.82304029  1
  O2-  O324  1  -0.00188599  0.32542390  0.16825794  1
  O2-  O325  1  -0.00388614  0.31575810  0.49400703  1
  O2-  O326  1  -0.00100512  0.32331321  0.83276239  1
  O2-  O327  1  0.00394305  0.81306222  0.16626244  1
  O2-  O328  1  0.00320745  0.81534374  0.49872109  1
  O2-  O329  1  0.00658850  0.82615912  0.83991296  1
  O2-  O330  1  0.32388839  0.31489961  0.15848308  1
  O2-  O331  1  0.33521930  0.32482623  0.50382468  1
  O2-  O332  1  0.33203892  0.31567509  0.82554574  1
  O2-  O333  1  0.33540527  0.82438602  0.16742025  1
  O2-  O334  1  0.34290561  0.82380750  0.50885082  1
  O2-  O335  1  0.34094350  0.82716499  0.84315795  1
  O2-  O336  1  0.66266987  0.33156428  0.16282290  1
  O2-  O337  1  0.67211354  0.31920091  0.50761665  1
  O2-  O338  1  0.67184674  0.32305057  0.84168232  1
  O2-  O339  1  0.66740022  0.82019121  0.16951100  1
  O2-  O340  1  0.66418693  0.82226923  0.49623370  1
  O2-  O341  1  0.66993409  0.82197341  0.83315402  1
  O2-  O342  1  0.16464378  0.31731922  0.16888719  1
  O2-  O343  1  0.16071569  0.32117408  0.50161912  1
  O2-  O344  1  0.16862854  0.32113455  0.83162599  1
  O2-  O345  1  0.16472154  0.81671763  0.16627450  1
  O2-  O346  1  0.16956939  0.82057919  0.49806200  1
  O2-  O347  1  0.16994936  0.82364927  0.83306981  1
  O2-  O348  1  0.50611547  0.32903106  0.16019154  1
  O2-  O349  1  0.50116092  0.31949173  0.50255488  1
  O2-  O350  1  0.50182698  0.31496044  0.83332540  1
  O2-  O351  1  0.49644816  0.82824210  0.16966061  1
  O2-  O352  1  0.49960736  0.82864241  0.49830959  1
  O2-  O353  1  0.50547271  0.82522251  0.82859975  1
  O2-  O354  1  0.83592233  0.32489961  0.16161854  1
  O2-  O355  1  0.84026854  0.32107956  0.49567261  1
  O2-  O356  1  0.83153917  0.32870827  0.83747174  1
  O2-  O357  1  0.83113361  0.81449211  0.17375690  1
  O2-  O358  1  0.83510495  0.81100533  0.50043280  1
  O2-  O359  1  0.82631401  0.82180153  0.83698824  1
  O2-  O360  1  0.07261722  0.06754299  0.11976600  1
  O2-  O361  1  0.09557068  0.07526626  0.44293475  1
  O2-  O362  1  0.08422140  0.07878991  0.78934281  1
  O2-  O363  1  0.07063623  0.58543475  0.10767842  1
  O2-  O364  1  0.06969448  0.57282098  0.44750667  1
  O2-  O365  1  0.08148007  0.57817799  0.80016709  1
  O2-  O366  1  0.42948142  0.08088048  0.11554325  1
  O2-  O367  1  0.41184888  0.07663497  0.45094042  1
  O2-  O368  1  0.43476150  0.07310015  0.76839908  1
  O2-  O369  1  0.42729733  0.57778385  0.12542371  1
  O2-  O370  1  0.40658886  0.58415601  0.43940442  1
  O2-  O371  1  0.41846848  0.58373407  0.77419175  1
  O2-  O372  1  0.73657923  0.07942044  0.11568105  1
  O2-  O373  1  0.74763600  0.08375656  0.43760253  1
  O2-  O374  1  0.73131337  0.08278521  0.76981108  1
  O2-  O375  1  0.73537655  0.58427446  0.11140535  1
  O2-  O376  1  0.79902745  0.57689739  0.44375030  1
  O2-  O377  1  0.74779486  0.58467326  0.78153362  1
  O2-  O378  1  0.25082093  0.08402572  0.21025715  1
  O2-  O379  1  0.24445032  0.08049305  0.55720195  1
  O2-  O380  1  0.23854088  0.06987856  0.88289876  1
  O2-  O381  1  0.23788017  0.58050286  0.21223148  1
  O2-  O382  1  0.25337066  0.58193989  0.55782034  1
  O2-  O383  1  0.24028059  0.58418560  0.89493689  1
  O2-  O384  1  0.58074307  0.07449386  0.22993499  1
  O2-  O385  1  0.56961577  0.07957793  0.56458160  1
  O2-  O386  1  0.58759844  0.07875812  0.87519676  1
  O2-  O387  1  0.57610712  0.57525775  0.22033651  1
  O2-  O388  1  0.58432408  0.58448949  0.58030736  1
  O2-  O389  1  0.58368460  0.58463634  0.88228569  1
  O2-  O390  1  0.90462859  0.06981603  0.21517450  1
  O2-  O391  1  0.93939640  0.06999477  0.54030389  1
  O2-  O392  1  0.91267745  0.08140188  0.88807055  1
  O2-  O393  1  0.91846322  0.58718825  0.22769421  1
  O2-  O394  1  0.91839138  0.58808347  0.55135619  1
  O2-  O395  1  0.90464230  0.58275665  0.87367816  1
  O2-  O396  1  0.08829298  0.41501150  0.10551296  1
  O2-  O397  1  0.05414633  0.41911989  0.44305301  1
  O2-  O398  1  0.08613759  0.41744542  0.78287729  1
  O2-  O399  1  0.07941684  0.91754404  0.10231524  1
  O2-  O400  1  0.06544720  0.92653073  0.44667452  1
  O2-  O401  1  0.08324450  0.92298699  0.78412196  1
  O2-  O402  1  0.41674368  0.41575045  0.10152925  1
  O2-  O403  1  0.43388976  0.41725409  0.44480554  1
  O2-  O404  1  0.40799819  0.41701440  0.78151534  1
  O2-  O405  1  0.41197234  0.91973753  0.08761282  1
  O2-  O406  1  0.42572682  0.91982948  0.44915979  1
  O2-  O407  1  0.41936666  0.92645993  0.79392246  1
  O2-  O408  1  0.74396855  0.41975241  0.11550769  1
  O2-  O409  1  0.76782899  0.41471562  0.45170313  1
  O2-  O410  1  0.74623817  0.41810076  0.77942421  1
  O2-  O411  1  0.76087334  0.91467518  0.11707771  1
  O2-  O412  1  0.74221199  0.92003721  0.44346717  1
  O2-  O413  1  0.75726558  0.92237316  0.77692789  1
  O2-  O414  1  0.23600674  0.41507309  0.22749013  1
  O2-  O415  1  0.25162974  0.41692886  0.56985145  1
  O2-  O416  1  0.25663640  0.41570654  0.88341343  1
  O2-  O417  1  0.24299153  0.91589381  0.22857070  1
  O2-  O418  1  0.26436356  0.91984213  0.55936603  1
  O2-  O419  1  0.25501610  0.92379222  0.89896868  1
  O2-  O420  1  0.58817388  0.42697541  0.22287989  1
  O2-  O421  1  0.58873648  0.42143408  0.55398689  1
  O2-  O422  1  0.58322052  0.41830820  0.88209260  1
  O2-  O423  1  0.60253596  0.91490208  0.24650598  1
  O2-  O424  1  0.58060343  0.92042042  0.54885208  1
  O2-  O425  1  0.60257769  0.92047134  0.88711655  1
  O2-  O426  1  0.92067476  0.41810648  0.22176073  1
  O2-  O427  1  0.91901047  0.41887525  0.55521094  1
  O2-  O428  1  0.92134355  0.41545364  0.89269217  1
  O2-  O429  1  0.91537174  0.91451458  0.24735763  1
  O2-  O430  1  0.90473046  0.91868535  0.54553268  1
  O2-  O431  1  0.90113157  0.92176625  0.89417971  1
  O2-  O432  1  0.00905729  0.00676296  -0.01998044  1
  O2-  O433  1  -0.00268448  0.00758030  0.33483771  1
  O2-  O434  1  0.00452647  -0.00063773  0.64850046  1
  O2-  O435  1  -0.00088732  0.51802855  -0.00792915  1
  O2-  O436  1  -0.00639301  0.51411313  0.32812085  1
  O2-  O437  1  0.00234377  0.51048702  0.65726461  1
  O2-  O438  1  0.34034255  0.00786796  -0.02300679  1
  O2-  O439  1  0.33673750  0.01350743  0.31546182  1
  O2-  O440  1  0.35516230  0.00247346  0.63588493  1
  O2-  O441  1  0.35888169  0.50295322  -0.02072176  1
  O2-  O442  1  0.34696848  0.51428620  0.31771049  1
  O2-  O443  1  0.31679163  0.49226103  0.68063634  1
  O2-  O444  1  0.65535892  0.00816978  0.01253852  1
  O2-  O445  1  0.65491842  -0.00304061  0.35575173  1
  O2-  O446  1  0.65016953  -0.00209655  0.68888180  1
  O2-  O447  1  0.67074747  0.49852056  -0.00648776  1
  O2-  O448  1  0.67395376  0.48519055  0.33854690  1
  O2-  O449  1  0.66212047  0.49368960  0.66488678  1
  O2-  O450  1  0.16692681  0.00246604  -0.00499935  1
  O2-  O451  1  0.15959308  0.00870221  0.31986204  1
  O2-  O452  1  0.14837864  0.00231912  0.63968624  1
  O2-  O453  1  0.15397239  0.49537946  -0.02553860  1
  O2-  O454  1  0.14928754  0.50772996  0.31531855  1
  O2-  O455  1  0.15782860  0.50231817  0.65468337  1
  O2-  O456  1  0.49386810  -0.00078446  -0.02093263  1
  O2-  O457  1  0.50028387  0.00060904  0.33682897  1
  O2-  O458  1  0.49659617  -0.01953611  0.67319425  1
  O2-  O459  1  0.51908016  0.50092150  0.03400213  1
  O2-  O460  1  0.50504841  0.50360016  0.32645767  1
  O2-  O461  1  0.49495320  0.49427655  0.64684564  1
  O2-  O462  1  0.81820242  0.00046305  -0.02034024  1
  O2-  O463  1  0.82750636  -0.00358372  0.33436780  1
  O2-  O464  1  0.81961855  -0.01179083  0.64583107  1
  O2-  O465  1  0.82797524  0.49754286  -0.01138633  1
  O2-  O466  1  0.84417236  0.48260463  0.34354532  1
  O2-  O467  1  0.84489076  0.49506888  0.68474198  1
  O2-  O468  1  0.74582766  0.74856896  0.05877485  1
  O2-  O469  1  0.75012173  0.25315363  0.39331037  1
  O2-  O470  1  0.41311272  0.75051778  0.39291412  1
  O2-  O471  1  0.91728244  0.75404882  0.93631200  1
  O2-  O472  1  0.25153435  0.75098632  0.60938188  1
  O2-  O473  1  0.74401223  0.25100074  0.05520735  1
  O2-  O474  1  0.08548397  0.75360167  0.73520523  1
  O2-  O475  1  0.26410734  0.75116444  0.27254518  1
  O2-  O476  1  0.57174038  0.75266362  0.26530543  1
  O2-  O477  1  0.41912816  0.25389980  0.41090669  1
  O2-  O478  1  0.08332748  0.24767157  0.72029593  1
  O2-  O479  1  0.25414896  0.75203467  0.93344970  1
  O2-  O480  1  0.57315653  0.75616756  0.59919693  1
  O2-  O481  1  0.07372749  0.25270678  0.07336065  1
  O2-  O482  1  0.43110283  0.24702884  0.05740398  1
  O2-  O483  1  0.91317642  0.24855826  0.94624053  1
  O2-  O484  1  0.75525682  0.25401886  0.73409140  1
  O2-  O485  1  0.58113621  0.74985680  0.94420944  1
  O2-  O486  1  0.91923050  0.25082955  0.60985051  1
  O2-  O487  1  0.90864449  0.25268226  0.26371883  1
  O2-  O488  1  0.23989037  0.25080190  0.60231906  1
  O2-  O489  1  0.58844817  0.25578191  0.25874046  1
  O2-  O490  1  0.58593585  0.24962423  0.95264437  1
  O2-  O491  1  0.42007868  0.75049145  0.06587651  1
  O2-  O492  1  0.41302222  0.75380950  0.73336029  1
