# generated using pymatgen
data_Ca108Mn108O277
_symmetry_space_group_name_H-M   'P 1'
_cell_length_a   16.02778259
_cell_length_b   22.30474651
_cell_length_c   16.38803045
_cell_angle_alpha   90.00433281
_cell_angle_beta   90.00457695
_cell_angle_gamma   89.99904807
_symmetry_Int_Tables_number   1
_chemical_formula_structural   Ca108Mn108O277
_chemical_formula_sum   'Ca108 Mn108 O277'
_cell_volume   5858.64919582
_cell_formula_units_Z   1
loop_
 _symmetry_equiv_pos_site_id
 _symmetry_equiv_pos_as_xyz
  1  'x, y, z'
loop_
 _atom_type_symbol
 _atom_type_oxidation_number
  Ca2+  2.0
  Mn3.34+  3.34
  O2-  -2.0
loop_
 _atom_site_type_symbol
 _atom_site_label
 _atom_site_symmetry_multiplicity
 _atom_site_fract_x
 _atom_site_fract_y
 _atom_site_fract_z
 _atom_site_occupancy
  Ca2+  Ca0  1  0.07387613  0.23947539  0.26667123  1
  Ca2+  Ca1  1  0.07162079  0.24664182  0.57383490  1
  Ca2+  Ca2  1  0.07113191  0.24208912  0.90497237  1
  Ca2+  Ca3  1  0.07973122  0.77249958  0.24915568  1
  Ca2+  Ca4  1  0.09617426  0.76515365  0.58578330  1
  Ca2+  Ca5  1  0.09420971  0.75913823  0.91786055  1
  Ca2+  Ca6  1  0.42220737  0.25112394  0.23696277  1
  Ca2+  Ca7  1  0.44341064  0.25123956  0.59000879  1
  Ca2+  Ca8  1  0.41644127  0.25451887  0.92026629  1
  Ca2+  Ca9  1  0.44813889  0.74748030  0.24478735  1
  Ca2+  Ca10  1  0.40763265  0.73751822  0.58727249  1
  Ca2+  Ca11  1  0.40395504  0.75010252  0.91823908  1
  Ca2+  Ca12  1  0.75871926  0.23424802  0.25874465  1
  Ca2+  Ca13  1  0.73772954  0.25361631  0.57560962  1
  Ca2+  Ca14  1  0.77195400  0.23649808  0.91606666  1
  Ca2+  Ca15  1  0.73172602  0.74285407  0.26446474  1
  Ca2+  Ca16  1  0.73787082  0.74948976  0.56743318  1
  Ca2+  Ca17  1  0.75450412  0.75104724  0.91938107  1
  Ca2+  Ca18  1  0.25707599  0.25872555  0.08198084  1
  Ca2+  Ca19  1  0.21668295  0.23670265  0.40647481  1
  Ca2+  Ca20  1  0.24441094  0.25250682  0.76155860  1
  Ca2+  Ca21  1  0.26171060  0.75573932  0.07820740  1
  Ca2+  Ca22  1  0.25055254  0.75937463  0.43202139  1
  Ca2+  Ca23  1  0.25399153  0.75245729  0.74017652  1
  Ca2+  Ca24  1  0.57245097  0.24362897  0.08196345  1
  Ca2+  Ca25  1  0.59912372  0.24695584  0.42961862  1
  Ca2+  Ca26  1  0.58903434  0.24625159  0.73549759  1
  Ca2+  Ca27  1  0.58997832  0.75852273  0.10612235  1
  Ca2+  Ca28  1  0.59852314  0.75561785  0.40700470  1
  Ca2+  Ca29  1  0.58190804  0.74659854  0.73473619  1
  Ca2+  Ca30  1  0.91589622  0.24948621  0.07415782  1
  Ca2+  Ca31  1  0.92511717  0.24378841  0.41757276  1
  Ca2+  Ca32  1  0.92603351  0.25560753  0.75389334  1
  Ca2+  Ca33  1  0.90342724  0.75565874  0.09316907  1
  Ca2+  Ca34  1  0.88886710  0.75446131  0.41005088  1
  Ca2+  Ca35  1  0.90382630  0.75666148  0.74719961  1
  Ca2+  Ca36  1  0.23627713  0.08873306  0.75235758  1
  Ca2+  Ca37  1  0.86852231  0.60712340  0.42264528  1
  Ca2+  Ca38  1  0.42559796  0.08125542  0.24210832  1
  Ca2+  Ca39  1  0.08685532  0.08635617  0.56281994  1
  Ca2+  Ca40  1  0.07022615  0.08024918  0.27960718  1
  Ca2+  Ca41  1  0.60117122  0.60673231  0.41978897  1
  Ca2+  Ca42  1  0.26756359  0.61272086  0.44199957  1
  Ca2+  Ca43  1  0.88389086  0.09954176  0.10388838  1
  Ca2+  Ca44  1  0.60934261  0.08126155  0.07257666  1
  Ca2+  Ca45  1  0.73256569  0.10752801  0.58548551  1
  Ca2+  Ca46  1  0.42777230  0.08876200  0.92781049  1
  Ca2+  Ca47  1  0.58974280  0.09121957  0.41602029  1
  Ca2+  Ca48  1  0.89417136  0.09913355  0.10302510  1
  Ca2+  Ca49  1  0.59168158  0.60012370  0.09371021  1
  Ca2+  Ca50  1  0.09997938  0.59387948  0.59118130  1
  Ca2+  Ca51  1  0.07621699  0.08442165  0.28566212  1
  Ca2+  Ca52  1  0.57892913  0.60052465  0.09371470  1
  Ca2+  Ca53  1  0.89750891  0.59309344  0.06741190  1
  Ca2+  Ca54  1  0.91447216  0.11019585  0.76757125  1
  Ca2+  Ca55  1  0.41315588  0.08133459  0.24200424  1
  Ca2+  Ca56  1  0.89718448  0.58352247  0.75318371  1
  Ca2+  Ca57  1  0.92513358  0.08972847  0.40102777  1
  Ca2+  Ca58  1  0.41730912  0.08936333  0.92883741  1
  Ca2+  Ca59  1  0.91477151  0.09004799  0.40003712  1
  Ca2+  Ca60  1  0.72451331  0.10479889  0.57991504  1
  Ca2+  Ca61  1  0.29748817  0.60858429  0.74688878  1
  Ca2+  Ca62  1  0.44755123  0.60165791  0.25114480  1
  Ca2+  Ca63  1  0.26293764  0.08201796  0.07466989  1
  Ca2+  Ca64  1  0.73569053  0.59599801  0.59217775  1
  Ca2+  Ca65  1  0.73384005  0.60422623  0.25244870  1
  Ca2+  Ca66  1  0.60857463  0.61125561  0.41591072  1
  Ca2+  Ca67  1  0.09101274  0.57980945  0.24976620  1
  Ca2+  Ca68  1  0.26943449  0.58306143  0.05852690  1
  Ca2+  Ca69  1  0.07785342  0.08915945  0.55919237  1
  Ca2+  Ca70  1  0.07792845  0.58009427  0.25063609  1
  Ca2+  Ca71  1  0.88546522  0.58657251  0.75569543  1
  Ca2+  Ca72  1  0.08223987  0.40886895  0.91781085  1
  Ca2+  Ca73  1  0.42774736  0.91120860  0.25007517  1
  Ca2+  Ca74  1  0.72888258  0.91358381  0.94704667  1
  Ca2+  Ca75  1  0.75162036  0.90761927  0.24377857  1
  Ca2+  Ca76  1  0.24019376  0.91570311  0.73558960  1
  Ca2+  Ca77  1  0.74892342  0.40292767  0.91120113  1
  Ca2+  Ca78  1  0.92023527  0.92094775  0.40712407  1
  Ca2+  Ca79  1  0.74012238  0.91299455  0.94666184  1
  Ca2+  Ca80  1  0.58873601  0.39909757  0.42006189  1
  Ca2+  Ca81  1  0.24353107  0.39479825  0.41522344  1
  Ca2+  Ca82  1  0.58083505  0.89766458  0.75027351  1
  Ca2+  Ca83  1  0.23067868  0.92703146  0.42328641  1
  Ca2+  Ca84  1  0.05704716  0.93014448  0.27138030  1
  Ca2+  Ca85  1  0.08400848  0.39955066  0.58447107  1
  Ca2+  Ca86  1  0.24338356  0.92499893  0.42202069  1
  Ca2+  Ca87  1  0.74299035  0.40481357  0.58570131  1
  Ca2+  Ca88  1  0.08792514  0.39700768  0.25353924  1
  Ca2+  Ca89  1  0.25903655  0.40180250  0.75023938  1
  Ca2+  Ca90  1  0.58907006  0.40642443  0.08367045  1
  Ca2+  Ca91  1  0.41251533  0.40055797  0.25080022  1
  Ca2+  Ca92  1  0.90847681  0.90999934  0.09565372  1
  Ca2+  Ca93  1  0.26394657  0.91328812  0.08533907  1
  Ca2+  Ca94  1  0.92305590  0.90331406  0.73646356  1
  Ca2+  Ca95  1  0.40467574  0.90813177  0.57569979  1
  Ca2+  Ca96  1  0.42131048  0.91542293  0.93769324  1
  Ca2+  Ca97  1  0.09340513  0.40949692  0.91743179  1
  Ca2+  Ca98  1  0.41211252  0.41107375  0.92210391  1
  Ca2+  Ca99  1  0.25438245  0.90943778  0.08329757  1
  Ca2+  Ca100  1  0.91454938  0.40661445  0.07642439  1
  Ca2+  Ca101  1  0.57752639  0.40656021  0.08381898  1
  Ca2+  Ca102  1  0.90053921  0.40717053  0.74671628  1
  Ca2+  Ca103  1  0.41491065  0.90550022  0.57295191  1
  Ca2+  Ca104  1  0.25619962  0.39413913  0.41471291  1
  Ca2+  Ca105  1  0.75021010  0.39205778  0.25260147  1
  Ca2+  Ca106  1  0.59258828  0.41037584  0.74290366  1
  Ca2+  Ca107  1  0.08525184  0.90597835  0.91535131  1
  Mn3.34+  Mn108  1  0.08340178  0.33344328  0.08707387  1
  Mn3.34+  Mn109  1  0.07504867  0.32932909  0.41901855  1
  Mn3.34+  Mn110  1  0.08404687  0.33277299  0.74798406  1
  Mn3.34+  Mn111  1  0.08087021  0.83864783  0.08659182  1
  Mn3.34+  Mn112  1  0.07859200  0.83943739  0.42057011  1
  Mn3.34+  Mn113  1  0.08195822  0.83612848  0.74694047  1
  Mn3.34+  Mn114  1  0.41404498  0.33411739  0.08201190  1
  Mn3.34+  Mn115  1  0.41905196  0.32509303  0.41779562  1
  Mn3.34+  Mn116  1  0.41889682  0.33776036  0.74958784  1
  Mn3.34+  Mn117  1  0.42313242  0.83707623  0.08739845  1
  Mn3.34+  Mn118  1  0.41863521  0.84008690  0.41603104  1
  Mn3.34+  Mn119  1  0.41631504  0.83324967  0.75447897  1
  Mn3.34+  Mn120  1  0.75054558  0.32840499  0.08449078  1
  Mn3.34+  Mn121  1  0.75749435  0.33107521  0.41748465  1
  Mn3.34+  Mn122  1  0.74843901  0.33655409  0.75405983  1
  Mn3.34+  Mn123  1  0.74669056  0.83408808  0.09033786  1
  Mn3.34+  Mn124  1  0.74798907  0.83855329  0.41995264  1
  Mn3.34+  Mn125  1  0.74815753  0.83074065  0.74818778  1
  Mn3.34+  Mn126  1  0.24918705  0.32693059  0.24562493  1
  Mn3.34+  Mn127  1  0.25618655  0.32491777  0.58374917  1
  Mn3.34+  Mn128  1  0.25075745  0.33284030  0.91846887  1
  Mn3.34+  Mn129  1  0.24936681  0.83585625  0.25231646  1
  Mn3.34+  Mn130  1  0.24773765  0.83482479  0.58443730  1
  Mn3.34+  Mn131  1  0.25157998  0.83566970  0.90992482  1
  Mn3.34+  Mn132  1  0.58442192  0.32706729  0.25208747  1
  Mn3.34+  Mn133  1  0.58131294  0.33461668  0.58240599  1
  Mn3.34+  Mn134  1  0.58366590  0.32969597  0.90974169  1
  Mn3.34+  Mn135  1  0.58717060  0.83808997  0.25459785  1
  Mn3.34+  Mn136  1  0.58502337  0.83308775  0.57713927  1
  Mn3.34+  Mn137  1  0.57895943  0.83029128  0.91451623  1
  Mn3.34+  Mn138  1  0.91582673  0.32590849  0.24539830  1
  Mn3.34+  Mn139  1  0.91328567  0.32838593  0.58374522  1
  Mn3.34+  Mn140  1  0.91564807  0.33019684  0.91545028  1
  Mn3.34+  Mn141  1  0.91388527  0.83832590  0.25169166  1
  Mn3.34+  Mn142  1  0.91490229  0.83627833  0.57640008  1
  Mn3.34+  Mn143  1  0.91794592  0.83330918  0.91327224  1
  Mn3.34+  Mn144  1  0.57558533  0.66817804  0.58933378  1
  Mn3.34+  Mn145  1  0.58957362  0.16533439  0.24713193  1
  Mn3.34+  Mn146  1  0.41834092  0.16425301  0.08688916  1
  Mn3.34+  Mn147  1  0.07953907  0.16790320  0.07964889  1
  Mn3.34+  Mn148  1  0.24859143  0.16776312  0.91276213  1
  Mn3.34+  Mn149  1  0.08314767  0.67193045  0.42003833  1
  Mn3.34+  Mn150  1  0.57329427  0.66049881  0.90192386  1
  Mn3.34+  Mn151  1  0.09257796  0.16090749  0.08141835  1
  Mn3.34+  Mn152  1  0.25703101  0.66769174  0.91248848  1
  Mn3.34+  Mn153  1  0.07765750  0.66999647  0.75725601  1
  Mn3.34+  Mn154  1  0.41774395  0.66979541  0.07867430  1
  Mn3.34+  Mn155  1  0.08141873  0.16574949  0.75208163  1
  Mn3.34+  Mn156  1  0.08760022  0.66212821  0.07835502  1
  Mn3.34+  Mn157  1  0.07850306  0.66837108  0.07678627  1
  Mn3.34+  Mn158  1  0.25991647  0.66960598  0.25004554  1
  Mn3.34+  Mn159  1  0.58977080  0.17049092  0.91224038  1
  Mn3.34+  Mn160  1  0.74813039  0.16734214  0.75561900  1
  Mn3.34+  Mn161  1  0.25636366  0.16306966  0.58290120  1
  Mn3.34+  Mn162  1  0.41958295  0.15461952  0.42477074  1
  Mn3.34+  Mn163  1  0.42335392  0.67291299  0.42024176  1
  Mn3.34+  Mn164  1  0.40660456  0.16009308  0.42124282  1
  Mn3.34+  Mn165  1  0.26452355  0.15598917  0.58089681  1
  Mn3.34+  Mn166  1  0.24963434  0.16580198  0.24602936  1
  Mn3.34+  Mn167  1  0.75105714  0.16630979  0.41427643  1
  Mn3.34+  Mn168  1  0.91394996  0.67269152  0.58433025  1
  Mn3.34+  Mn169  1  0.74405216  0.16824297  0.08688589  1
  Mn3.34+  Mn170  1  0.58271977  0.66540049  0.90605192  1
  Mn3.34+  Mn171  1  0.42002294  0.16868242  0.75537902  1
  Mn3.34+  Mn172  1  0.91511855  0.67109306  0.24632528  1
  Mn3.34+  Mn173  1  0.74173544  0.66735812  0.75078516  1
  Mn3.34+  Mn174  1  0.91612940  0.16406509  0.58406175  1
  Mn3.34+  Mn175  1  0.75027015  0.67071581  0.08088572  1
  Mn3.34+  Mn176  1  0.08795567  0.66294616  0.76022684  1
  Mn3.34+  Mn177  1  0.91149266  0.66756245  0.91242878  1
  Mn3.34+  Mn178  1  0.25030772  0.66308718  0.24979326  1
  Mn3.34+  Mn179  1  0.07093098  0.66657241  0.42241678  1
  Mn3.34+  Mn180  1  0.42349254  0.49751296  0.42709505  1
  Mn3.34+  Mn181  1  0.75036616  0.49844152  0.08569812  1
  Mn3.34+  Mn182  1  0.07958094  0.00337599  0.74204572  1
  Mn3.34+  Mn183  1  0.90014596  0.49673742  0.24732392  1
  Mn3.34+  Mn184  1  0.74960746  0.49664525  0.41920760  1
  Mn3.34+  Mn185  1  0.59038639  0.00019761  0.25514795  1
  Mn3.34+  Mn186  1  0.24664357  0.00195699  0.91999825  1
  Mn3.34+  Mn187  1  0.08270144  0.49987860  0.41754562  1
  Mn3.34+  Mn188  1  0.91146152  0.49815007  0.92297029  1
  Mn3.34+  Mn189  1  0.73793805  0.00315686  0.75373185  1
  Mn3.34+  Mn190  1  0.75154138  -0.00279554  0.75251481  1
  Mn3.34+  Mn191  1  0.25432334  0.49645318  0.24641367  1
  Mn3.34+  Mn192  1  0.25050382  0.00239837  0.25236859  1
  Mn3.34+  Mn193  1  0.91186900  0.50003768  0.24796956  1
  Mn3.34+  Mn194  1  0.92648618  0.00334374  0.91142453  1
  Mn3.34+  Mn195  1  0.74945095  -0.00150377  0.41028326  1
  Mn3.34+  Mn196  1  0.58529531  0.49540004  0.91908281  1
  Mn3.34+  Mn197  1  0.91784664  0.50079664  0.57536070  1
  Mn3.34+  Mn198  1  0.41652899  0.00455230  0.74258489  1
  Mn3.34+  Mn199  1  0.58697772  0.49518545  0.25691564  1
  Mn3.34+  Mn200  1  0.91379587  -0.00233601  0.58482725  1
  Mn3.34+  Mn201  1  0.07780296  0.00220068  0.08567709  1
  Mn3.34+  Mn202  1  0.43112264  -0.00015905  0.74370346  1
  Mn3.34+  Mn203  1  0.91311949  0.00683459  0.91976981  1
  Mn3.34+  Mn204  1  0.25857300  0.50044290  0.58810803  1
  Mn3.34+  Mn205  1  0.08779950  0.50179009  0.74920358  1
  Mn3.34+  Mn206  1  0.40953407  0.50392131  0.42670758  1
  Mn3.34+  Mn207  1  0.58482931  0.50119893  0.59403355  1
  Mn3.34+  Mn208  1  0.41441432  0.49839331  0.08035281  1
  Mn3.34+  Mn209  1  0.90678913  0.49672160  0.57768782  1
  Mn3.34+  Mn210  1  0.27100322  0.49686724  0.58895582  1
  Mn3.34+  Mn211  1  0.42817184  0.50270394  0.74700613  1
  Mn3.34+  Mn212  1  0.25474919  0.50407204  0.91092136  1
  Mn3.34+  Mn213  1  0.58745566  0.00433992  0.91531836  1
  Mn3.34+  Mn214  1  0.58688016  -0.00645961  0.57521962  1
  Mn3.34+  Mn215  1  0.09031750  0.49369142  0.07380652  1
  O2-  O216  1  -0.00832126  0.14352100  0.01729473  1
  O2-  O217  1  -0.00414475  0.15761755  0.32906487  1
  O2-  O218  1  0.00641668  0.14536788  0.65967446  1
  O2-  O219  1  -0.00498159  0.66403326  -0.00366282  1
  O2-  O220  1  0.00303488  0.64603890  0.33270497  1
  O2-  O221  1  -0.00280082  0.65584583  0.66946598  1
  O2-  O222  1  0.33664825  0.15282076  -0.00030132  1
  O2-  O223  1  0.33396904  0.15646847  0.33712983  1
  O2-  O224  1  0.33364100  0.17722903  0.67206855  1
  O2-  O225  1  0.33505438  0.66078086  -0.00120413  1
  O2-  O226  1  0.34552545  0.65991008  0.32925128  1
  O2-  O227  1  0.34168840  0.68671882  0.68149391  1
  O2-  O228  1  0.66439092  0.16831363  0.00269957  1
  O2-  O229  1  0.66615927  0.15593231  0.33469936  1
  O2-  O230  1  0.67971841  0.17775847  0.66614517  1
  O2-  O231  1  0.66027015  0.66512227  -0.00362557  1
  O2-  O232  1  0.67104687  0.66216223  0.33518799  1
  O2-  O233  1  0.66101690  0.65783420  0.67001041  1
  O2-  O234  1  0.16668943  0.14458327  -0.00211864  1
  O2-  O235  1  0.16366602  0.15528925  0.31801043  1
  O2-  O236  1  0.17154378  0.15932324  0.66720895  1
  O2-  O237  1  0.17359754  0.64903676  0.00472391  1
  O2-  O238  1  0.16808982  0.63748797  0.33591683  1
  O2-  O239  1  0.16864418  0.64864640  0.68227868  1
  O2-  O240  1  0.50354082  0.14907812  0.00924006  1
  O2-  O241  1  0.49377153  0.15497811  0.32954259  1
  O2-  O242  1  0.49497886  0.18548645  0.68010432  1
  O2-  O243  1  0.50364416  0.66269870  -0.00316773  1
  O2-  O244  1  0.50512245  0.66327067  0.34071598  1
  O2-  O245  1  0.49476066  0.67490707  0.66391922  1
  O2-  O246  1  0.82743212  0.17393739  0.01437954  1
  O2-  O247  1  0.83899341  0.16512134  0.34294560  1
  O2-  O248  1  0.83000841  0.14785565  0.66401661  1
  O2-  O249  1  0.83526587  0.67204251  -0.00128944  1
  O2-  O250  1  0.83374816  0.66200768  0.31959843  1
  O2-  O251  1  0.83574595  0.65751168  0.67114781  1
  O2-  O252  1  0.00002784  0.35077405  -0.00266208  1
  O2-  O253  1  0.00216878  0.33408697  0.32594312  1
  O2-  O254  1  -0.00392176  0.34857074  0.67106084  1
  O2-  O255  1  0.00207199  0.83651346  -0.00394832  1
  O2-  O256  1  0.00035431  0.84825773  0.33207035  1
  O2-  O257  1  -0.00501115  0.82628713  0.66465560  1
  O2-  O258  1  0.33746933  0.34201295  -0.00474513  1
  O2-  O259  1  0.33496812  0.33227795  0.33423714  1
  O2-  O260  1  0.33517380  0.31289968  0.66870620  1
  O2-  O261  1  0.33036333  0.84734471  0.00070983  1
  O2-  O262  1  0.32599433  0.84214199  0.34039953  1
  O2-  O263  1  0.33405905  0.84713754  0.66844618  1
  O2-  O264  1  0.66554988  0.34540196  0.00122824  1
  O2-  O265  1  0.66509166  0.34187853  0.33506635  1
  O2-  O266  1  0.66777465  0.34011029  0.66775610  1
  O2-  O267  1  0.66457815  0.83300952  0.00068401  1
  O2-  O268  1  0.67277228  0.84696276  0.33029611  1
  O2-  O269  1  0.66152249  0.84475786  0.67118887  1
  O2-  O270  1  0.16451822  0.35074728  0.00049828  1
  O2-  O271  1  0.16785327  0.33606949  0.33820430  1
  O2-  O272  1  0.17256866  0.34377921  0.66695761  1
  O2-  O273  1  0.16936087  0.85535236  0.00306122  1
  O2-  O274  1  0.16499788  0.85548163  0.33102084  1
  O2-  O275  1  0.16610738  0.84812096  0.66685826  1
  O2-  O276  1  0.50236145  0.35123104  -0.00281471  1
  O2-  O277  1  0.49676222  0.34393217  0.33009800  1
  O2-  O278  1  0.50484915  0.33639185  0.67115068  1
  O2-  O279  1  0.49330316  0.83281238  -0.00832980  1
  O2-  O280  1  0.49445650  0.83128636  0.33065095  1
  O2-  O281  1  0.49235215  0.83908285  0.66550421  1
  O2-  O282  1  0.83182879  0.33930488  -0.00039437  1
  O2-  O283  1  0.83163227  0.32359458  0.32587676  1
  O2-  O284  1  0.82871653  0.33279433  0.66860733  1
  O2-  O285  1  0.83246256  0.83913602  -0.00314563  1
  O2-  O286  1  0.83622836  0.84636551  0.33639262  1
  O2-  O287  1  0.83882960  0.83746262  0.67210820  1
  O2-  O288  1  0.00443872  0.18353629  0.16216492  1
  O2-  O289  1  -0.00213914  0.16880430  0.50726655  1
  O2-  O290  1  -0.00047658  0.17931928  0.82162742  1
  O2-  O291  1  0.00439949  0.67982775  0.16556949  1
  O2-  O292  1  0.00057514  0.69309278  0.51078596  1
  O2-  O293  1  -0.00403894  0.69091609  0.83360671  1
  O2-  O294  1  0.33928634  0.17800923  0.17132268  1
  O2-  O295  1  0.33609608  0.19380932  0.49868253  1
  O2-  O296  1  0.33351309  0.18862439  0.83592178  1
  O2-  O297  1  0.33480643  0.67254117  0.16065560  1
  O2-  O298  1  0.33607101  0.69180904  0.48522693  1
  O2-  O299  1  0.32612687  0.68705593  0.83310927  1
  O2-  O300  1  0.66175406  0.18766742  0.16320194  1
  O2-  O301  1  0.67027991  0.17080788  0.49645584  1
  O2-  O302  1  0.66793931  0.19124315  0.83260688  1
  O2-  O303  1  0.66667578  0.67203909  0.15684516  1
  O2-  O304  1  0.66377397  0.67061668  0.50833572  1
  O2-  O305  1  0.66544351  0.69031783  0.83561993  1
  O2-  O306  1  0.17489911  0.18444301  0.15310950  1
  O2-  O307  1  0.16818102  0.17828932  0.51030666  1
  O2-  O308  1  0.16944791  0.17894281  0.82794976  1
  O2-  O309  1  0.15743870  0.67300319  0.17417897  1
  O2-  O310  1  0.16242329  0.67979102  0.49958373  1
  O2-  O311  1  0.16280729  0.68153894  0.84389433  1
  O2-  O312  1  0.49551013  0.17566600  0.17198006  1
  O2-  O313  1  0.49936932  0.18270637  0.48955940  1
  O2-  O314  1  0.49030086  0.17798456  0.84818486  1
  O2-  O315  1  0.50276577  0.67472916  0.15619867  1
  O2-  O316  1  0.51008537  0.68422018  0.49407497  1
  O2-  O317  1  0.49888540  0.69908124  0.83736629  1
  O2-  O318  1  0.83061012  0.18196399  0.16208910  1
  O2-  O319  1  0.82901369  0.17604695  0.50713334  1
  O2-  O320  1  0.83605586  0.19285440  0.81253641  1
  O2-  O321  1  0.83742216  0.67213325  0.15849320  1
  O2-  O322  1  0.83610226  0.68520674  0.50787027  1
  O2-  O323  1  0.83522592  0.68413622  0.82860287  1
  O2-  O324  1  -0.00316920  0.31179591  0.16337654  1
  O2-  O325  1  0.00260397  0.32566299  0.50884128  1
  O2-  O326  1  0.00378172  0.32852259  0.83775538  1
  O2-  O327  1  -0.00611109  0.82265381  0.16164250  1
  O2-  O328  1  -0.00262555  0.81395550  0.49564234  1
  O2-  O329  1  -0.00115982  0.81806011  0.83125343  1
  O2-  O330  1  0.33718284  0.32212185  0.17102349  1
  O2-  O331  1  0.32646723  0.31072235  0.48976814  1
  O2-  O332  1  0.33090695  0.32323212  0.82971066  1
  O2-  O333  1  0.33080683  0.82418747  0.16743148  1
  O2-  O334  1  0.33854805  0.82174155  0.50645050  1
  O2-  O335  1  0.33265792  0.81529342  0.83072944  1
  O2-  O336  1  0.66299258  0.31892091  0.16207837  1
  O2-  O337  1  0.66929173  0.32975642  0.50102362  1
  O2-  O338  1  0.66984326  0.31435218  0.83370887  1
  O2-  O339  1  0.67281787  0.82719782  0.17414046  1
  O2-  O340  1  0.66244983  0.82436143  0.49624764  1
  O2-  O341  1  0.67113885  0.82058293  0.84148246  1
  O2-  O342  1  0.16226587  0.31912804  0.17241533  1
  O2-  O343  1  0.16817758  0.31855921  0.50180489  1
  O2-  O344  1  0.16303957  0.32289692  0.83703413  1
  O2-  O345  1  0.17428532  0.83086678  0.15995725  1
  O2-  O346  1  0.17189299  0.82912292  0.49322659  1
  O2-  O347  1  0.16181472  0.82901958  0.83707715  1
  O2-  O348  1  0.50479322  0.32337890  0.16172598  1
  O2-  O349  1  0.50582925  0.31990350  0.49225461  1
  O2-  O350  1  0.49742183  0.31824539  0.83365844  1
  O2-  O351  1  0.50010805  0.82815537  0.17092599  1
  O2-  O352  1  0.49228960  0.82077842  0.50251990  1
  O2-  O353  1  0.50604744  0.81456680  0.82505194  1
  O2-  O354  1  0.83005899  0.30707098  0.16507452  1
  O2-  O355  1  0.83375336  0.31382398  0.50303793  1
  O2-  O356  1  0.83412658  0.31967865  0.83150838  1
  O2-  O357  1  0.83299172  0.82500347  0.16831071  1
  O2-  O358  1  0.83163119  0.81829796  0.50248995  1
  O2-  O359  1  0.83356340  0.81699512  0.83573585  1
  O2-  O360  1  0.10086403  0.08335641  0.12674921  1
  O2-  O361  1  0.05567619  0.07278676  0.43644439  1
  O2-  O362  1  0.08785094  0.08142004  0.77805847  1
  O2-  O363  1  0.07584720  0.57711351  0.11451512  1
  O2-  O364  1  0.07821860  0.58448166  0.45451134  1
  O2-  O365  1  0.05533971  0.58264531  0.78053329  1
  O2-  O366  1  0.41076662  0.07941654  0.10835402  1
  O2-  O367  1  0.43571318  0.07568342  0.42888670  1
  O2-  O368  1  0.40504031  0.08127351  0.78812739  1
  O2-  O369  1  0.43221820  0.58165760  0.10513263  1
  O2-  O370  1  0.41696969  0.58408562  0.44664560  1
  O2-  O371  1  0.42132216  0.57099227  0.79088014  1
  O2-  O372  1  0.75126208  0.08672698  0.10712548  1
  O2-  O373  1  0.75855683  0.07937152  0.44871378  1
  O2-  O374  1  0.75405403  0.08250526  0.77967184  1
  O2-  O375  1  0.73987948  0.58265420  0.10091490  1
  O2-  O376  1  0.74130575  0.57366705  0.45758006  1
  O2-  O377  1  0.75497978  0.58728610  0.77015097  1
  O2-  O378  1  0.26635792  0.08146901  0.21831880  1
  O2-  O379  1  0.22372990  0.07606826  0.56415609  1
  O2-  O380  1  0.26781929  0.08252548  0.88671578  1
  O2-  O381  1  0.23700951  0.57592131  0.20288511  1
  O2-  O382  1  0.24289417  0.58063746  0.56211619  1
  O2-  O383  1  0.25582580  0.58405744  0.88424686  1
  O2-  O384  1  0.57199769  0.07950002  0.21326205  1
  O2-  O385  1  0.60614075  0.07133856  0.54754041  1
  O2-  O386  1  0.57234236  0.08528323  0.89510706  1
  O2-  O387  1  0.58373706  0.57458718  0.22152575  1
  O2-  O388  1  0.57899036  0.57959897  0.55540797  1
  O2-  O389  1  0.58642929  0.57760021  0.90540611  1
  O2-  O390  1  0.95714566  0.06449293  0.20296928  1
  O2-  O391  1  0.91209872  0.07790257  0.54727719  1
  O2-  O392  1  0.89704454  0.08467793  0.89993078  1
  O2-  O393  1  0.93389964  0.57969924  0.20928697  1
  O2-  O394  1  0.91808495  0.58314585  0.55017514  1
  O2-  O395  1  0.91244396  0.57852970  0.88888741  1
  O2-  O396  1  0.06664836  0.41802898  0.12358982  1
  O2-  O397  1  0.10693443  0.41681872  0.44240473  1
  O2-  O398  1  0.08831887  0.41888270  0.78069096  1
  O2-  O399  1  0.07142290  0.92046830  0.12088512  1
  O2-  O400  1  0.08947302  0.91977006  0.43577794  1
  O2-  O401  1  0.06751918  0.92329770  0.77580707  1
  O2-  O402  1  0.43236135  0.41958895  0.11865974  1
  O2-  O403  1  0.39720367  0.41621331  0.43798513  1
  O2-  O404  1  0.41501171  0.42628451  0.78669972  1
  O2-  O405  1  0.40110355  0.91964347  0.10510971  1
  O2-  O406  1  0.38579735  0.92608935  0.44308416  1
  O2-  O407  1  0.43163501  0.92322972  0.79651359  1
  O2-  O408  1  0.74664699  0.41874345  0.11943931  1
  O2-  O409  1  0.74980658  0.41561895  0.43638467  1
  O2-  O410  1  0.74807533  0.41672941  0.77350502  1
  O2-  O411  1  0.75729458  0.91558596  0.08885235  1
  O2-  O412  1  0.76405776  0.92248623  0.43857687  1
  O2-  O413  1  0.74954456  0.91825057  0.79224435  1
  O2-  O414  1  0.25325230  0.41254686  0.25579765  1
  O2-  O415  1  0.25687696  0.41627780  0.54839535  1
  O2-  O416  1  0.24303267  0.42153303  0.88250588  1
  O2-  O417  1  0.25431770  0.92209119  0.22226506  1
  O2-  O418  1  0.26473619  0.91994318  0.55390390  1
  O2-  O419  1  0.25225049  0.92186586  0.88263105  1
  O2-  O420  1  0.59009960  0.41457855  0.22367120  1
  O2-  O421  1  0.58521956  0.42229604  0.55679327  1
  O2-  O422  1  0.59234988  0.41596157  0.88193995  1
  O2-  O423  1  0.59167819  0.92227922  0.22933365  1
  O2-  O424  1  0.55540619  0.91465461  0.56383800  1
  O2-  O425  1  0.59813227  0.92212581  0.88874697  1
  O2-  O426  1  0.89819268  0.41489408  0.21810041  1
  O2-  O427  1  0.90205626  0.41373761  0.56851317  1
  O2-  O428  1  0.90632023  0.41874884  0.88592567  1
  O2-  O429  1  0.90894649  0.91880408  0.23045083  1
  O2-  O430  1  0.92276938  0.91950308  0.55479907  1
  O2-  O431  1  0.91748733  0.92365036  0.88087554  1
  O2-  O432  1  0.01482076  -0.00923118  -0.01655550  1
  O2-  O433  1  -0.00533805  0.00904859  0.33625336  1
  O2-  O434  1  0.01330249  0.01277659  0.64923183  1
  O2-  O435  1  0.00546722  0.48121591  -0.01095720  1
  O2-  O436  1  0.00454530  0.50451294  0.31952155  1
  O2-  O437  1  0.00662541  0.50116127  0.65343005  1
  O2-  O438  1  0.33645948  0.00456672  -0.01449006  1
  O2-  O439  1  0.33864774  0.00014467  0.31095929  1
  O2-  O440  1  0.33522319  -0.02122453  0.67124684  1
  O2-  O441  1  0.33162116  0.49896054  -0.00112749  1
  O2-  O442  1  0.32634160  0.50459462  0.34233803  1
  O2-  O443  1  0.32559099  0.49810175  0.69346213  1
  O2-  O444  1  0.67314147  0.00091800  -0.01474157  1
  O2-  O445  1  0.66067616  0.01157720  0.34304705  1
  O2-  O446  1  0.66595892  -0.00496304  0.66303137  1
  O2-  O447  1  0.65953491  0.48503989  0.01505663  1
  O2-  O448  1  0.65862096  0.51033013  0.34771936  1
  O2-  O449  1  0.68850639  0.49705542  0.62743331  1
  O2-  O450  1  0.18589570  -0.00971553  0.02775574  1
  O2-  O451  1  0.16182320  -0.00136371  0.32045461  1
  O2-  O452  1  0.17690446  0.00318207  0.69727462  1
  O2-  O453  1  0.16250432  0.49523364  -0.02041125  1
  O2-  O454  1  0.15728695  0.50765906  0.31526493  1
  O2-  O455  1  0.16243908  0.49269201  0.65475368  1
  O2-  O456  1  0.48645194  0.00211833  -0.03709038  1
  O2-  O457  1  0.48419159  0.00085762  0.28915844  1
  O2-  O458  1  0.49557900  0.00239155  0.64767681  1
  O2-  O459  1  0.50827522  0.48450146  0.01004333  1
  O2-  O460  1  0.49302636  0.49727235  0.33104648  1
  O2-  O461  1  0.52008150  0.48889141  0.68626326  1
  O2-  O462  1  0.84214888  -0.00265344  0.00284529  1
  O2-  O463  1  0.84821920  0.00527206  0.36432313  1
  O2-  O464  1  0.84182452  -0.00187096  0.67864694  1
  O2-  O465  1  0.84981697  0.49811149  0.02559506  1
  O2-  O466  1  0.82829712  0.51931436  0.33466196  1
  O2-  O467  1  0.85057768  0.50568239  0.68229507  1
  O2-  O468  1  0.57012713  0.25142600  0.94397099  1
  O2-  O469  1  0.10042103  0.75219976  0.06510360  1
  O2-  O470  1  0.07398234  0.25028688  0.40722936  1
  O2-  O471  1  0.74139434  0.24849952  0.40386517  1
  O2-  O472  1  0.24242449  0.75278899  0.94267247  1
  O2-  O473  1  0.41107358  0.75203190  0.06894809  1
  O2-  O474  1  0.09944380  0.74945968  0.72804817  1
  O2-  O475  1  0.92684599  0.25289850  0.93497517  1
  O2-  O476  1  0.58948438  0.25606910  0.58951804  1
  O2-  O477  1  0.74902873  0.75162252  0.06966110  1
  O2-  O478  1  0.74594985  0.75864640  0.40078822  1
  O2-  O479  1  0.58874952  0.75710817  0.25890087  1
  O2-  O480  1  0.92791183  0.75193431  0.27046264  1
  O2-  O481  1  0.59312528  0.75194584  0.59853498  1
  O2-  O482  1  0.74615172  0.75049030  0.72222971  1
  O2-  O483  1  0.24155004  0.75598985  0.60033064  1
  O2-  O484  1  0.23108212  0.75263941  0.27327401  1
  O2-  O485  1  0.41817604  0.24806653  0.06344568  1
  O2-  O486  1  0.08795511  0.24713517  0.04587619  1
  O2-  O487  1  0.24808444  0.24657629  0.27056443  1
  O2-  O488  1  0.09222370  0.75058772  0.38498883  1
  O2-  O489  1  0.92533496  0.24589064  0.60912562  1
  O2-  O490  1  0.24344272  0.24903721  0.94359690  1
  O2-  O491  1  0.08171357  0.25014197  0.72337306  1
  O2-  O492  1  0.57462887  0.24746102  0.27790072  1
