# generated using pymatgen
data_Ca108Mn108O277
_symmetry_space_group_name_H-M   'P 1'
_cell_length_a   16.02667379
_cell_length_b   22.30543823
_cell_length_c   16.38867465
_cell_angle_alpha   90.01147861
_cell_angle_beta   89.99990865
_cell_angle_gamma   90.00128223
_symmetry_Int_Tables_number   1
_chemical_formula_structural   Ca108Mn108O277
_chemical_formula_sum   'Ca108 Mn108 O277'
_cell_volume   5858.65578320
_cell_formula_units_Z   1
loop_
 _symmetry_equiv_pos_site_id
 _symmetry_equiv_pos_as_xyz
  1  'x, y, z'
loop_
 _atom_type_symbol
 _atom_type_oxidation_number
  Ca2+  2.0
  Mn3.34+  3.34
  O2-  -2.0
loop_
 _atom_site_type_symbol
 _atom_site_label
 _atom_site_symmetry_multiplicity
 _atom_site_fract_x
 _atom_site_fract_y
 _atom_site_fract_z
 _atom_site_occupancy
  Ca2+  Ca0  1  0.09306365  0.26141660  0.25965854  1
  Ca2+  Ca1  1  0.06545846  0.24646008  0.59883607  1
  Ca2+  Ca2  1  0.07300561  0.24890315  0.89464186  1
  Ca2+  Ca3  1  0.07387957  0.75319755  0.23368154  1
  Ca2+  Ca4  1  0.07229662  0.75428549  0.58871683  1
  Ca2+  Ca5  1  0.07149417  0.74843278  0.92521436  1
  Ca2+  Ca6  1  0.40302046  0.25534366  0.24224707  1
  Ca2+  Ca7  1  0.43501430  0.24558202  0.60669652  1
  Ca2+  Ca8  1  0.41488628  0.25000341  0.89988114  1
  Ca2+  Ca9  1  0.41851704  0.75226999  0.24190249  1
  Ca2+  Ca10  1  0.39012332  0.74907561  0.59004558  1
  Ca2+  Ca11  1  0.42847943  0.74779804  0.91877723  1
  Ca2+  Ca12  1  0.75351224  0.24324179  0.26334322  1
  Ca2+  Ca13  1  0.74900865  0.23360949  0.59730696  1
  Ca2+  Ca14  1  0.77129028  0.24287256  0.90291134  1
  Ca2+  Ca15  1  0.75746338  0.75823299  0.25339696  1
  Ca2+  Ca16  1  0.77460815  0.74786286  0.59022788  1
  Ca2+  Ca17  1  0.75324730  0.74124663  0.88778395  1
  Ca2+  Ca18  1  0.25599463  0.26074707  0.08481659  1
  Ca2+  Ca19  1  0.23976214  0.25541900  0.40713339  1
  Ca2+  Ca20  1  0.25186650  0.25573951  0.75498070  1
  Ca2+  Ca21  1  0.22494356  0.74471680  0.07815022  1
  Ca2+  Ca22  1  0.23672804  0.75434925  0.44627766  1
  Ca2+  Ca23  1  0.23088924  0.74737452  0.73726056  1
  Ca2+  Ca24  1  0.57542827  0.25801075  0.07632990  1
  Ca2+  Ca25  1  0.61213832  0.24352365  0.43690433  1
  Ca2+  Ca26  1  0.59540014  0.24564029  0.73875100  1
  Ca2+  Ca27  1  0.58902887  0.75818165  0.07087217  1
  Ca2+  Ca28  1  0.59940060  0.75258569  0.41710008  1
  Ca2+  Ca29  1  0.60891446  0.74518957  0.75164186  1
  Ca2+  Ca30  1  0.91026985  0.24783650  0.06092064  1
  Ca2+  Ca31  1  0.90450915  0.24159846  0.43550904  1
  Ca2+  Ca32  1  0.91523084  0.24960802  0.75586616  1
  Ca2+  Ca33  1  0.92952476  0.75762799  0.08107802  1
  Ca2+  Ca34  1  0.91777250  0.76382508  0.42731923  1
  Ca2+  Ca35  1  0.91157239  0.74151849  0.73179367  1
  Ca2+  Ca36  1  0.05977110  0.11287293  0.89914445  1
  Ca2+  Ca37  1  0.40568190  0.09741476  0.92179264  1
  Ca2+  Ca38  1  0.42541632  0.58397132  0.59084128  1
  Ca2+  Ca39  1  0.09585368  0.59420611  0.91447798  1
  Ca2+  Ca40  1  0.75558522  0.60897353  0.58993374  1
  Ca2+  Ca41  1  0.56625614  0.57785976  0.42193230  1
  Ca2+  Ca42  1  0.07495655  0.59261455  0.60116477  1
  Ca2+  Ca43  1  0.78065536  0.10794613  0.91511360  1
  Ca2+  Ca44  1  0.89181937  0.60577503  0.74611506  1
  Ca2+  Ca45  1  0.88853390  0.07386300  0.41314460  1
  Ca2+  Ca46  1  0.55973713  0.58149909  0.06384218  1
  Ca2+  Ca47  1  0.57426752  0.09441452  0.72582066  1
  Ca2+  Ca48  1  0.89876453  0.60715393  0.43447829  1
  Ca2+  Ca49  1  0.08628492  0.59370709  0.60119700  1
  Ca2+  Ca50  1  0.74199884  0.09457870  0.55938406  1
  Ca2+  Ca51  1  0.62916617  0.08758632  0.08252829  1
  Ca2+  Ca52  1  0.89189601  0.61304502  0.42791102  1
  Ca2+  Ca53  1  0.06557077  0.08993997  0.58575501  1
  Ca2+  Ca54  1  0.95127059  0.60114251  0.07975159  1
  Ca2+  Ca55  1  0.24709082  0.10823074  0.76366474  1
  Ca2+  Ca56  1  0.75197032  0.58934327  0.25551608  1
  Ca2+  Ca57  1  0.73981780  0.58752577  0.25355449  1
  Ca2+  Ca58  1  0.23800452  0.58605426  0.74345857  1
  Ca2+  Ca59  1  0.61076535  0.59497525  0.75276702  1
  Ca2+  Ca60  1  0.74699790  0.08151902  0.26722363  1
  Ca2+  Ca61  1  0.24135272  0.08805048  0.40008064  1
  Ca2+  Ca62  1  0.25631839  0.10627118  0.76781529  1
  Ca2+  Ca63  1  0.57824115  0.58050926  0.42081415  1
  Ca2+  Ca64  1  0.24135150  0.59682034  0.07723830  1
  Ca2+  Ca65  1  0.09315171  0.60857916  0.22953707  1
  Ca2+  Ca66  1  0.26527908  0.58633615  0.40997473  1
  Ca2+  Ca67  1  0.86183225  0.08981416  0.07523886  1
  Ca2+  Ca68  1  0.05556532  0.08805498  0.58375334  1
  Ca2+  Ca69  1  0.08786208  0.59752852  0.91932287  1
  Ca2+  Ca70  1  0.91096024  0.11306497  0.75308883  1
  Ca2+  Ca71  1  0.74765039  0.60401616  0.59531464  1
  Ca2+  Ca72  1  0.05324789  0.91398632  0.26207234  1
  Ca2+  Ca73  1  0.78499348  0.92080861  0.56564798  1
  Ca2+  Ca74  1  0.74669318  0.39762350  0.24403427  1
  Ca2+  Ca75  1  0.58821609  0.90910257  0.74218455  1
  Ca2+  Ca76  1  0.26610314  0.40403352  0.40857967  1
  Ca2+  Ca77  1  0.92378831  0.39414273  0.41809894  1
  Ca2+  Ca78  1  0.41619308  0.40409586  0.91893097  1
  Ca2+  Ca79  1  0.42850329  0.91601847  0.58339348  1
  Ca2+  Ca80  1  0.05839871  0.91024242  0.57904202  1
  Ca2+  Ca81  1  0.24553551  0.90466310  0.41679224  1
  Ca2+  Ca82  1  0.74679703  0.39465000  0.91004563  1
  Ca2+  Ca83  1  0.72053915  0.41413390  0.59933277  1
  Ca2+  Ca84  1  0.40520370  0.90851881  0.92114230  1
  Ca2+  Ca85  1  0.60085889  0.92442948  0.41522572  1
  Ca2+  Ca86  1  0.78929100  0.92996532  0.25488265  1
  Ca2+  Ca87  1  0.24757761  0.40470147  0.75566274  1
  Ca2+  Ca88  1  0.24751471  0.89814386  0.07845931  1
  Ca2+  Ca89  1  0.57977615  0.41383292  0.08050780  1
  Ca2+  Ca90  1  0.73092402  0.41316861  0.59815771  1
  Ca2+  Ca91  1  0.08809977  0.39922472  0.90839341  1
  Ca2+  Ca92  1  0.44403238  0.41600140  0.58391138  1
  Ca2+  Ca93  1  0.59692548  0.91634722  0.07931470  1
  Ca2+  Ca94  1  0.42571407  0.90648192  0.25099276  1
  Ca2+  Ca95  1  0.08229863  0.40497723  0.59376994  1
  Ca2+  Ca96  1  0.75808913  0.91557527  0.93411513  1
  Ca2+  Ca97  1  0.07114532  0.40610582  0.59423183  1
  Ca2+  Ca98  1  0.08574936  0.89678391  0.91774095  1
  Ca2+  Ca99  1  0.73412619  0.39745546  0.24392117  1
  Ca2+  Ca100  1  0.56568501  0.40494796  0.41642273  1
  Ca2+  Ca101  1  0.41598020  0.91364790  0.58380573  1
  Ca2+  Ca102  1  0.78060631  0.93352134  0.25733315  1
  Ca2+  Ca103  1  0.76851571  0.91663455  0.93515845  1
  Ca2+  Ca104  1  0.41290859  0.90730116  0.25235932  1
  Ca2+  Ca105  1  0.42656085  0.40955498  0.26062989  1
  Ca2+  Ca106  1  0.41774854  0.90823434  0.92147403  1
  Ca2+  Ca107  1  0.57680749  0.90845018  0.74165448  1
  Mn3.34+  Mn108  1  0.07912069  0.33405360  0.08390522  1
  Mn3.34+  Mn109  1  0.08339846  0.33248030  0.41873116  1
  Mn3.34+  Mn110  1  0.08312709  0.33382356  0.75293304  1
  Mn3.34+  Mn111  1  0.07975956  0.83223898  0.08549301  1
  Mn3.34+  Mn112  1  0.07990210  0.83821653  0.41755424  1
  Mn3.34+  Mn113  1  0.07850423  0.83048229  0.75122786  1
  Mn3.34+  Mn114  1  0.41543191  0.33540614  0.08412713  1
  Mn3.34+  Mn115  1  0.41664155  0.33256828  0.42170042  1
  Mn3.34+  Mn116  1  0.41919134  0.33495689  0.75071310  1
  Mn3.34+  Mn117  1  0.41380136  0.83018594  0.08557437  1
  Mn3.34+  Mn118  1  0.42081443  0.82943918  0.42078636  1
  Mn3.34+  Mn119  1  0.40986987  0.83322311  0.75175658  1
  Mn3.34+  Mn120  1  0.75001322  0.32706460  0.08150092  1
  Mn3.34+  Mn121  1  0.75254548  0.32665421  0.41967737  1
  Mn3.34+  Mn122  1  0.75010858  0.33094519  0.75274667  1
  Mn3.34+  Mn123  1  0.75451459  0.83783388  0.09016805  1
  Mn3.34+  Mn124  1  0.75221990  0.84009789  0.42289896  1
  Mn3.34+  Mn125  1  0.75833639  0.83543899  0.74902284  1
  Mn3.34+  Mn126  1  0.24595099  0.33466954  0.24459611  1
  Mn3.34+  Mn127  1  0.25607751  0.33097204  0.58178185  1
  Mn3.34+  Mn128  1  0.24983561  0.33546622  0.91943523  1
  Mn3.34+  Mn129  1  0.24606994  0.82940978  0.24926358  1
  Mn3.34+  Mn130  1  0.24336304  0.83682488  0.58926222  1
  Mn3.34+  Mn131  1  0.24687490  0.82678657  0.91142064  1
  Mn3.34+  Mn132  1  0.57906265  0.33189419  0.24833965  1
  Mn3.34+  Mn133  1  0.58120952  0.33102323  0.58344731  1
  Mn3.34+  Mn134  1  0.58277844  0.33620618  0.91247211  1
  Mn3.34+  Mn135  1  0.58916280  0.83448122  0.24867250  1
  Mn3.34+  Mn136  1  0.58768784  0.83429305  0.57465364  1
  Mn3.34+  Mn137  1  0.58632118  0.83326683  0.91376673  1
  Mn3.34+  Mn138  1  0.91988396  0.32801621  0.24344041  1
  Mn3.34+  Mn139  1  0.91081108  0.33122817  0.58661265  1
  Mn3.34+  Mn140  1  0.91837704  0.33044070  0.91581488  1
  Mn3.34+  Mn141  1  0.91778790  0.83254162  0.25182788  1
  Mn3.34+  Mn142  1  0.91770483  0.83663862  0.58401812  1
  Mn3.34+  Mn143  1  0.91746838  0.83228097  0.91569612  1
  Mn3.34+  Mn144  1  0.74680453  0.66086649  0.07490618  1
  Mn3.34+  Mn145  1  0.41023486  0.66523338  0.07885084  1
  Mn3.34+  Mn146  1  0.40767246  0.67619390  0.42090755  1
  Mn3.34+  Mn147  1  0.08203660  0.66586635  0.75444777  1
  Mn3.34+  Mn148  1  0.58205610  0.66534428  0.24026165  1
  Mn3.34+  Mn149  1  0.90815517  0.16142567  0.57804503  1
  Mn3.34+  Mn150  1  0.25503331  0.66926559  0.91456969  1
  Mn3.34+  Mn151  1  0.57575997  0.16553495  0.24766731  1
  Mn3.34+  Mn152  1  0.09095831  0.16396772  0.08898068  1
  Mn3.34+  Mn153  1  0.25047230  0.16971207  0.24732052  1
  Mn3.34+  Mn154  1  0.25676532  0.67305729  0.24360703  1
  Mn3.34+  Mn155  1  0.08184690  0.66680330  0.41566455  1
  Mn3.34+  Mn156  1  0.56773895  0.65871609  0.23969527  1
  Mn3.34+  Mn157  1  0.91773337  0.66829234  0.24551933  1
  Mn3.34+  Mn158  1  0.08253887  0.16737849  0.41495943  1
  Mn3.34+  Mn159  1  0.07799161  0.16713486  0.08440152  1
  Mn3.34+  Mn160  1  0.41502346  0.66919340  0.42176310  1
  Mn3.34+  Mn161  1  0.58998912  0.16436336  0.91523119  1
  Mn3.34+  Mn162  1  0.42034509  0.16596487  0.41603173  1
  Mn3.34+  Mn163  1  0.92580271  0.16100111  0.24764962  1
  Mn3.34+  Mn164  1  0.91434030  0.15536481  0.24507894  1
  Mn3.34+  Mn165  1  0.58468185  0.15955403  0.58266018  1
  Mn3.34+  Mn166  1  0.91626279  0.66850617  0.91008024  1
  Mn3.34+  Mn167  1  0.09243622  0.66197986  0.41773695  1
  Mn3.34+  Mn168  1  0.24923160  0.17122541  0.92235517  1
  Mn3.34+  Mn169  1  0.41080324  0.66477446  0.75394097  1
  Mn3.34+  Mn170  1  0.57935365  0.16819082  0.91421432  1
  Mn3.34+  Mn171  1  0.58353949  0.66373631  0.91355971  1
  Mn3.34+  Mn172  1  0.24866381  0.16699237  0.57921843  1
  Mn3.34+  Mn173  1  0.58175385  0.66825271  0.57917486  1
  Mn3.34+  Mn174  1  0.42122294  0.65990585  0.75509299  1
  Mn3.34+  Mn175  1  0.41137750  0.16830626  0.08596192  1
  Mn3.34+  Mn176  1  0.75908259  0.66811910  0.07250520  1
  Mn3.34+  Mn177  1  0.58518074  0.17096146  0.24632053  1
  Mn3.34+  Mn178  1  0.26120471  0.16179242  0.57792198  1
  Mn3.34+  Mn179  1  0.42883319  0.15972445  0.41965002  1
  Mn3.34+  Mn180  1  0.41556155  0.00377912  0.73956026  1
  Mn3.34+  Mn181  1  0.24197587  0.00000147  0.24420413  1
  Mn3.34+  Mn182  1  0.08996109  0.49238675  0.07311538  1
  Mn3.34+  Mn183  1  0.25602107  0.50189437  0.91693538  1
  Mn3.34+  Mn184  1  0.90658083  0.50235687  0.91122244  1
  Mn3.34+  Mn185  1  0.91669885  0.49726188  0.91251195  1
  Mn3.34+  Mn186  1  0.07455236  -0.00323021  0.74811903  1
  Mn3.34+  Mn187  1  0.93765265  0.49454809  0.23659129  1
  Mn3.34+  Mn188  1  0.91788072  0.49615106  0.59105465  1
  Mn3.34+  Mn189  1  0.07155882  0.00088201  0.40394275  1
  Mn3.34+  Mn190  1  0.40888791  0.49925864  0.08071968  1
  Mn3.34+  Mn191  1  0.93217684  0.49938385  0.24513673  1
  Mn3.34+  Mn192  1  0.74514189  0.49842332  0.74221461  1
  Mn3.34+  Mn193  1  0.24745297  -0.00243536  0.91722419  1
  Mn3.34+  Mn194  1  0.58321169  0.50016034  0.92245248  1
  Mn3.34+  Mn195  1  0.25460367  0.00601007  0.24531620  1
  Mn3.34+  Mn196  1  0.75003549  0.49513749  0.41735094  1
  Mn3.34+  Mn197  1  0.42193567  0.00084205  0.41489499  1
  Mn3.34+  Mn198  1  0.25575841  0.49902484  0.24419410  1
  Mn3.34+  Mn199  1  0.57883005  0.00091485  0.24868640  1
  Mn3.34+  Mn200  1  0.58279466  -0.00027260  0.92224967  1
  Mn3.34+  Mn201  1  0.08738224  0.49699009  0.41558697  1
  Mn3.34+  Mn202  1  0.76964728  0.00005799  0.73577540  1
  Mn3.34+  Mn203  1  0.25397130  0.50134907  0.58059534  1
  Mn3.34+  Mn204  1  0.73870842  0.49860417  0.41652297  1
  Mn3.34+  Mn205  1  0.91981085  -0.00065013  0.91692676  1
  Mn3.34+  Mn206  1  0.43151991  0.49653954  0.74410457  1
  Mn3.34+  Mn207  1  0.26459246  0.49671239  0.58145026  1
  Mn3.34+  Mn208  1  0.07572221  -0.00235576  0.08679378  1
  Mn3.34+  Mn209  1  0.25234998  -0.00052925  0.58013141  1
  Mn3.34+  Mn210  1  0.75602923  0.00672026  0.73668108  1
  Mn3.34+  Mn211  1  0.08471617  -0.00873895  0.74719622  1
  Mn3.34+  Mn212  1  0.41275902  0.00465258  0.07865769  1
  Mn3.34+  Mn213  1  0.25612402  0.50550165  0.25252051  1
  Mn3.34+  Mn214  1  0.08604497  0.00293732  0.08571488  1
  Mn3.34+  Mn215  1  0.74989968  0.49806664  0.07908010  1
  O2-  O216  1  -0.00525471  0.15188106  0.01774414  1
  O2-  O217  1  -0.00546484  0.17112299  0.33456132  1
  O2-  O218  1  -0.00287120  0.15690841  0.65807016  1
  O2-  O219  1  0.00740692  0.65464236  -0.01443646  1
  O2-  O220  1  0.00282151  0.64305032  0.33580452  1
  O2-  O221  1  0.00087860  0.65167979  0.67634439  1
  O2-  O222  1  0.33903312  0.17202505  -0.00372140  1
  O2-  O223  1  0.33793492  0.17068321  0.33465753  1
  O2-  O224  1  0.32896927  0.15817694  0.66785431  1
  O2-  O225  1  0.32982660  0.69127153  -0.00046277  1
  O2-  O226  1  0.33532155  0.68414632  0.33044275  1
  O2-  O227  1  0.33557076  0.64929324  0.67113338  1
  O2-  O228  1  0.66832855  0.16189886  -0.00593784  1
  O2-  O229  1  0.66470666  0.17092597  0.32550343  1
  O2-  O230  1  0.66283335  0.15802030  0.66488773  1
  O2-  O231  1  0.65908396  0.65120881  0.00415167  1
  O2-  O232  1  0.65723406  0.64541827  0.33004820  1
  O2-  O233  1  0.65922008  0.66629924  0.66040784  1
  O2-  O234  1  0.16197001  0.15853311  -0.00208303  1
  O2-  O235  1  0.17161717  0.16028271  0.33973011  1
  O2-  O236  1  0.16728269  0.13842617  0.65878612  1
  O2-  O237  1  0.17353412  0.65998189  -0.00572481  1
  O2-  O238  1  0.17627079  0.65590545  0.33645562  1
  O2-  O239  1  0.16295157  0.65419423  0.67497755  1
  O2-  O240  1  0.50706840  0.15513508  0.00124786  1
  O2-  O241  1  0.50278927  0.19343351  0.33024078  1
  O2-  O242  1  0.50473304  0.16732055  0.66521755  1
  O2-  O243  1  0.49723597  0.66964846  0.00187830  1
  O2-  O244  1  0.49993275  0.66100024  0.34248640  1
  O2-  O245  1  0.50024712  0.65538823  0.66511576  1
  O2-  O246  1  0.82664468  0.17425681  0.00440406  1
  O2-  O247  1  0.83576660  0.15938858  0.32653537  1
  O2-  O248  1  0.82969280  0.15189807  0.65285599  1
  O2-  O249  1  0.84187282  0.64638840  -0.00112661  1
  O2-  O250  1  0.82942976  0.65265716  0.32497943  1
  O2-  O251  1  0.82896903  0.66360244  0.66132115  1
  O2-  O252  1  0.00188411  0.34235146  -0.00404316  1
  O2-  O253  1  -0.00632346  0.32752789  0.33796423  1
  O2-  O254  1  -0.00017950  0.34072311  0.66585452  1
  O2-  O255  1  0.00268366  0.84456765  -0.00204795  1
  O2-  O256  1  0.00072934  0.83727845  0.33298585  1
  O2-  O257  1  0.00165395  0.84246455  0.66631865  1
  O2-  O258  1  0.33819280  0.33063799  -0.00521534  1
  O2-  O259  1  0.33873555  0.33337532  0.33375207  1
  O2-  O260  1  0.33423317  0.34817058  0.66583379  1
  O2-  O261  1  0.33282007  0.82971608  0.00058953  1
  O2-  O262  1  0.33850595  0.83263465  0.32958858  1
  O2-  O263  1  0.33904743  0.84658710  0.66044869  1
  O2-  O264  1  0.66149908  0.33794128  0.00617610  1
  O2-  O265  1  0.66457802  0.33551299  0.33404643  1
  O2-  O266  1  0.66147982  0.34239966  0.66910759  1
  O2-  O267  1  0.66938510  0.85144894  -0.00114267  1
  O2-  O268  1  0.66924863  0.83286107  0.34083910  1
  O2-  O269  1  0.66247835  0.84481460  0.66795184  1
  O2-  O270  1  0.16510108  0.33050729  -0.00418211  1
  O2-  O271  1  0.17023225  0.34478989  0.33957316  1
  O2-  O272  1  0.16856407  0.34698079  0.66462411  1
  O2-  O273  1  0.16751626  0.83622708  0.00053069  1
  O2-  O274  1  0.16757461  0.84409279  0.33321450  1
  O2-  O275  1  0.16021020  0.84840364  0.66499615  1
  O2-  O276  1  0.50069444  0.35031734  0.00426969  1
  O2-  O277  1  0.49725797  0.33087351  0.33272489  1
  O2-  O278  1  0.49573752  0.34191380  0.66022039  1
  O2-  O279  1  0.49700145  0.84233342  -0.00137723  1
  O2-  O280  1  0.50009216  0.84299142  0.33249907  1
  O2-  O281  1  0.49963562  0.84600495  0.66284383  1
  O2-  O282  1  0.82609933  0.32506132  -0.00541336  1
  O2-  O283  1  0.82939652  0.33547038  0.32754946  1
  O2-  O284  1  0.82181302  0.35004709  0.65716495  1
  O2-  O285  1  0.83502860  0.84757748  0.00699984  1
  O2-  O286  1  0.82837984  0.83731922  0.33261565  1
  O2-  O287  1  0.82818309  0.84589479  0.66002745  1
  O2-  O288  1  0.00511387  0.18606058  0.17456569  1
  O2-  O289  1  0.00658625  0.17762982  0.50275389  1
  O2-  O290  1  -0.00654743  0.18032516  0.82555724  1
  O2-  O291  1  -0.00213967  0.67689375  0.16930576  1
  O2-  O292  1  -0.00619665  0.67139131  0.49283932  1
  O2-  O293  1  0.00484255  0.68119021  0.83752409  1
  O2-  O294  1  0.33023220  0.18640916  0.16287753  1
  O2-  O295  1  0.33444730  0.19086600  0.49498768  1
  O2-  O296  1  0.32564027  0.17987051  0.83825867  1
  O2-  O297  1  0.33211152  0.69293662  0.15977734  1
  O2-  O298  1  0.32515263  0.68371482  0.49649721  1
  O2-  O299  1  0.33034814  0.68977822  0.83239697  1
  O2-  O300  1  0.65801065  0.18869189  0.16370459  1
  O2-  O301  1  0.66940120  0.17316901  0.50869374  1
  O2-  O302  1  0.66696640  0.17681408  0.83596608  1
  O2-  O303  1  0.67497337  0.68257366  0.16595903  1
  O2-  O304  1  0.65807093  0.68551993  0.50393796  1
  O2-  O305  1  0.65859650  0.67350308  0.83375215  1
  O2-  O306  1  0.16461734  0.18467763  0.16400811  1
  O2-  O307  1  0.16873666  0.17336599  0.50216257  1
  O2-  O308  1  0.17328375  0.17960160  0.83674273  1
  O2-  O309  1  0.16941214  0.68489259  0.17701309  1
  O2-  O310  1  0.15754366  0.67707424  0.50852092  1
  O2-  O311  1  0.16426431  0.68218178  0.83894798  1
  O2-  O312  1  0.49621988  0.18308140  0.16985181  1
  O2-  O313  1  0.50332571  0.18532774  0.49951542  1
  O2-  O314  1  0.50085617  0.16840714  0.83698710  1
  O2-  O315  1  0.49763013  0.68759690  0.15682677  1
  O2-  O316  1  0.49420834  0.69046121  0.50505870  1
  O2-  O317  1  0.49999198  0.68276697  0.83129690  1
  O2-  O318  1  0.84183810  0.19038223  0.17139851  1
  O2-  O319  1  0.83484785  0.16688265  0.49623666  1
  O2-  O320  1  0.84505889  0.17750522  0.83155081  1
  O2-  O321  1  0.82768029  0.67964690  0.16514271  1
  O2-  O322  1  0.82088966  0.66875861  0.49807113  1
  O2-  O323  1  0.84419726  0.68082241  0.82929593  1
  O2-  O324  1  -0.00109833  0.30824334  0.16602497  1
  O2-  O325  1  0.00262312  0.32166785  0.50840549  1
  O2-  O326  1  0.00503596  0.32878360  0.83586443  1
  O2-  O327  1  -0.00103335  0.82389059  0.17006164  1
  O2-  O328  1  0.00534286  0.82226856  0.50259464  1
  O2-  O329  1  -0.00006738  0.81710114  0.83845032  1
  O2-  O330  1  0.33384051  0.32294792  0.16624380  1
  O2-  O331  1  0.33029788  0.31169353  0.49450063  1
  O2-  O332  1  0.32904024  0.32264813  0.83317197  1
  O2-  O333  1  0.33248516  0.81526473  0.16905234  1
  O2-  O334  1  0.33484926  0.81835725  0.49703706  1
  O2-  O335  1  0.34072087  0.81653708  0.84444244  1
  O2-  O336  1  0.66820514  0.31208887  0.17293001  1
  O2-  O337  1  0.67587445  0.32907367  0.50734948  1
  O2-  O338  1  0.67058593  0.31800425  0.83974524  1
  O2-  O339  1  0.66451018  0.81995111  0.16338549  1
  O2-  O340  1  0.67308178  0.81193619  0.50243146  1
  O2-  O341  1  0.66224387  0.83111986  0.82526997  1
  O2-  O342  1  0.16502383  0.32011213  0.16456989  1
  O2-  O343  1  0.16364027  0.33146413  0.50695503  1
  O2-  O344  1  0.16880184  0.32044927  0.83378953  1
  O2-  O345  1  0.16841446  0.81689335  0.16560154  1
  O2-  O346  1  0.16599004  0.83155559  0.50017502  1
  O2-  O347  1  0.16245704  0.81115940  0.83655607  1
  O2-  O348  1  0.49861923  0.32015295  0.16952952  1
  O2-  O349  1  0.50292976  0.31724872  0.49697191  1
  O2-  O350  1  0.49281867  0.32958805  0.84159888  1
  O2-  O351  1  0.49447140  0.82020416  0.16650903  1
  O2-  O352  1  0.50072002  0.80610497  0.50143518  1
  O2-  O353  1  0.49978331  0.82723305  0.82969568  1
  O2-  O354  1  0.82486415  0.31367563  0.17169581  1
  O2-  O355  1  0.84050264  0.33107022  0.49499592  1
  O2-  O356  1  0.83270308  0.32340069  0.83312383  1
  O2-  O357  1  0.83051752  0.81994061  0.17393356  1
  O2-  O358  1  0.83193558  0.82078024  0.50046023  1
  O2-  O359  1  0.82179351  0.82784730  0.84781780  1
  O2-  O360  1  0.08411315  0.08211680  0.12561960  1
  O2-  O361  1  0.08693765  0.07838411  0.44569212  1
  O2-  O362  1  0.10285483  0.07493370  0.78301977  1
  O2-  O363  1  0.09385222  0.56970480  0.11076519  1
  O2-  O364  1  0.08670096  0.57821095  0.46192160  1
  O2-  O365  1  0.08769457  0.58257585  0.78112664  1
  O2-  O366  1  0.42747389  0.08434911  0.09483058  1
  O2-  O367  1  0.39286862  0.08013510  0.43766828  1
  O2-  O368  1  0.38092367  0.07089615  0.79185256  1
  O2-  O369  1  0.41363000  0.57861542  0.11048469  1
  O2-  O370  1  0.42904800  0.58454336  0.45219436  1
  O2-  O371  1  0.41724475  0.57732233  0.78293517  1
  O2-  O372  1  0.74542554  0.06723642  0.13077850  1
  O2-  O373  1  0.75339835  0.06125723  0.42756072  1
  O2-  O374  1  0.76397000  0.07550304  0.79146406  1
  O2-  O375  1  0.75776780  0.57876007  0.12143407  1
  O2-  O376  1  0.73002764  0.57892210  0.44876862  1
  O2-  O377  1  0.75098774  0.57575811  0.75911038  1
  O2-  O378  1  0.25352091  0.08638704  0.23723279  1
  O2-  O379  1  0.24914834  0.07813541  0.53788377  1
  O2-  O380  1  0.24746210  0.07915632  0.89766308  1
  O2-  O381  1  0.24735591  0.58482270  0.21471048  1
  O2-  O382  1  0.25818415  0.57868340  0.54145669  1
  O2-  O383  1  0.23847006  0.58121939  0.88235342  1
  O2-  O384  1  0.59303515  0.08241610  0.22465095  1
  O2-  O385  1  0.58861219  0.08074395  0.57877167  1
  O2-  O386  1  0.58186233  0.08046564  0.89596618  1
  O2-  O387  1  0.59965731  0.57943938  0.20735987  1
  O2-  O388  1  0.58627679  0.58601823  0.55455678  1
  O2-  O389  1  0.57501554  0.57979301  0.88965171  1
  O2-  O390  1  0.90747363  0.08007020  0.20725749  1
  O2-  O391  1  0.93053213  0.08072768  0.54714925  1
  O2-  O392  1  0.92961648  0.07163556  0.87782905  1
  O2-  O393  1  0.91165985  0.58051308  0.21190120  1
  O2-  O394  1  0.91719865  0.57429504  0.55739747  1
  O2-  O395  1  0.92692567  0.58221732  0.87714044  1
  O2-  O396  1  0.07656135  0.41611095  0.10311607  1
  O2-  O397  1  0.06993984  0.41719950  0.45261699  1
  O2-  O398  1  0.09838217  0.41755914  0.76385084  1
  O2-  O399  1  0.09644844  0.91828788  0.12512937  1
  O2-  O400  1  0.08799886  0.92358259  0.44011751  1
  O2-  O401  1  0.08238340  0.91312480  0.78564183  1
  O2-  O402  1  0.42417386  0.42168280  0.11993443  1
  O2-  O403  1  0.41338180  0.41218141  0.44132857  1
  O2-  O404  1  0.40416572  0.42270615  0.78190733  1
  O2-  O405  1  0.39967209  0.92334827  0.11757247  1
  O2-  O406  1  0.41638392  0.91930693  0.44909032  1
  O2-  O407  1  0.41901064  0.92545912  0.78994578  1
  O2-  O408  1  0.74148858  0.41729816  0.11190708  1
  O2-  O409  1  0.75860783  0.41349409  0.42370058  1
  O2-  O410  1  0.74540324  0.41933579  0.77049951  1
  O2-  O411  1  0.74562275  0.91880355  0.12019318  1
  O2-  O412  1  0.73976308  0.91921506  0.43656804  1
  O2-  O413  1  0.75143416  0.92590671  0.79067661  1
  O2-  O414  1  0.26802583  0.41741504  0.24144572  1
  O2-  O415  1  0.26097296  0.41645041  0.55067763  1
  O2-  O416  1  0.24981881  0.42200748  0.89277994  1
  O2-  O417  1  0.26630100  0.91919594  0.21574797  1
  O2-  O418  1  0.27219234  0.91957950  0.55053940  1
  O2-  O419  1  0.26384380  0.91545251  0.90092529  1
  O2-  O420  1  0.59786655  0.41596979  0.22438701  1
  O2-  O421  1  0.58981382  0.41580626  0.55488849  1
  O2-  O422  1  0.59369975  0.42004825  0.89765816  1
  O2-  O423  1  0.55888407  0.92255242  0.21029261  1
  O2-  O424  1  0.56285850  0.91809509  0.54560700  1
  O2-  O425  1  0.57054187  0.92274580  0.87865329  1
  O2-  O426  1  0.88750770  0.41754243  0.22956427  1
  O2-  O427  1  0.92796180  0.41689068  0.55959719  1
  O2-  O428  1  0.90722846  0.41556220  0.89967464  1
  O2-  O429  1  0.91670123  0.91487468  0.23427503  1
  O2-  O430  1  0.92146405  0.91490089  0.55701373  1
  O2-  O431  1  0.90731358  0.91839347  0.89510004  1
  O2-  O432  1  -0.00372905  0.00347598  0.00206323  1
  O2-  O433  1  -0.00724034  0.00071698  0.33544186  1
  O2-  O434  1  0.00874358  0.00755551  0.65345505  1
  O2-  O435  1  -0.00019081  0.51741800  -0.00465724  1
  O2-  O436  1  -0.00710037  0.50521489  0.34384367  1
  O2-  O437  1  0.02807659  0.49952625  0.61787301  1
  O2-  O438  1  0.35198346  -0.00311054  -0.02639539  1
  O2-  O439  1  0.33400132  -0.01765032  0.33389979  1
  O2-  O440  1  0.34685413  -0.00344902  0.64954967  1
  O2-  O441  1  0.32402428  0.50721433  0.00892975  1
  O2-  O442  1  0.33412581  0.50521544  0.33823240  1
  O2-  O443  1  0.32810455  0.50490607  0.67938039  1
  O2-  O444  1  0.66679868  -0.01721319  -0.00979473  1
  O2-  O445  1  0.67178970  -0.01769048  0.30161509  1
  O2-  O446  1  0.65100107  -0.00816350  0.69334971  1
  O2-  O447  1  0.65135897  0.50317724  0.02042226  1
  O2-  O448  1  0.69177630  0.50618703  0.31013485  1
  O2-  O449  1  0.67514686  0.50425036  0.65187139  1
  O2-  O450  1  0.16907209  -0.01571610  0.00529963  1
  O2-  O451  1  0.17210759  -0.00214152  0.34229340  1
  O2-  O452  1  0.16994699  0.00777035  0.66337709  1
  O2-  O453  1  0.15568457  0.51183192  -0.02153194  1
  O2-  O454  1  0.16763216  0.51470901  0.33001055  1
  O2-  O455  1  0.16772101  0.51747503  0.65594726  1
  O2-  O456  1  0.50177993  -0.02223589  0.00536397  1
  O2-  O457  1  0.49841500  -0.01979326  0.32897207  1
  O2-  O458  1  0.50005257  -0.02318181  0.67622137  1
  O2-  O459  1  0.49689225  0.49372692  0.00723827  1
  O2-  O460  1  0.54297144  0.49495978  0.37949835  1
  O2-  O461  1  0.48767724  0.50508105  0.65238587  1
  O2-  O462  1  0.81867996  0.00953615  -0.03512382  1
  O2-  O463  1  0.82715570  0.01035825  0.31962371  1
  O2-  O464  1  0.81811450  0.00502972  0.63492753  1
  O2-  O465  1  0.82956298  0.50456873  -0.00314679  1
  O2-  O466  1  0.84072789  0.52464288  0.33780354  1
  O2-  O467  1  0.82253586  0.49886781  0.64983520  1
  O2-  O468  1  0.08277837  0.25354440  0.73509798  1
  O2-  O469  1  0.24375847  0.75749097  0.60089778  1
  O2-  O470  1  0.75506224  0.25356905  0.73400601  1
  O2-  O471  1  0.42761376  0.25187711  0.06469624  1
  O2-  O472  1  0.07774232  0.24820348  0.05571965  1
  O2-  O473  1  0.09658883  0.25101921  0.40381237  1
  O2-  O474  1  0.75343040  0.75701353  0.73723370  1
  O2-  O475  1  0.41827494  0.25648762  0.74162181  1
  O2-  O476  1  0.24453814  0.25222786  0.26729466  1
  O2-  O477  1  0.41923789  0.74744153  0.72426965  1
  O2-  O478  1  0.23822172  0.24942269  0.61198743  1
  O2-  O479  1  0.58980428  0.25070300  0.59827861  1
  O2-  O480  1  0.07519879  0.75402122  0.06783498  1
  O2-  O481  1  0.56968954  0.25056924  0.93530284  1
  O2-  O482  1  0.91235836  0.74954289  0.94389138  1
  O2-  O483  1  0.90799928  0.24940653  0.59843057  1
  O2-  O484  1  0.91669423  0.74812572  0.27802937  1
  O2-  O485  1  0.92598178  0.25155013  0.92218627  1
  O2-  O486  1  0.75620356  0.24965854  0.40897241  1
  O2-  O487  1  0.08027028  0.74906711  0.72447163  1
  O2-  O488  1  0.58956100  0.75040493  0.93218785  1
  O2-  O489  1  0.08573411  0.75117291  0.39602620  1
  O2-  O490  1  0.74595074  0.75160713  0.05576909  1
  O2-  O491  1  0.58014501  0.74581771  0.27221736  1
  O2-  O492  1  0.92153990  0.75511325  0.59499114  1
