# generated using pymatgen
data_Ca108Mn108O277
_symmetry_space_group_name_H-M   'P 1'
_cell_length_a   16.02804228
_cell_length_b   22.30536886
_cell_length_c   16.38864783
_cell_angle_alpha   90.00460098
_cell_angle_beta   89.99794048
_cell_angle_gamma   89.99601938
_symmetry_Int_Tables_number   1
_chemical_formula_structural   Ca108Mn108O277
_chemical_formula_sum   'Ca108 Mn108 O277'
_cell_volume   5859.12831660
_cell_formula_units_Z   1
loop_
 _symmetry_equiv_pos_site_id
 _symmetry_equiv_pos_as_xyz
  1  'x, y, z'
loop_
 _atom_type_symbol
 _atom_type_oxidation_number
  Ca2+  2.0
  Mn3.34+  3.34
  O2-  -2.0
loop_
 _atom_site_type_symbol
 _atom_site_label
 _atom_site_symmetry_multiplicity
 _atom_site_fract_x
 _atom_site_fract_y
 _atom_site_fract_z
 _atom_site_occupancy
  Ca2+  Ca0  1  0.08060301  0.25091177  0.24773856  1
  Ca2+  Ca1  1  0.11251263  0.24611006  0.56813989  1
  Ca2+  Ca2  1  0.08490027  0.25121176  0.92845601  1
  Ca2+  Ca3  1  0.08532795  0.76288180  0.23707024  1
  Ca2+  Ca4  1  0.09450401  0.75818832  0.59063917  1
  Ca2+  Ca5  1  0.09794305  0.76596734  0.92043901  1
  Ca2+  Ca6  1  0.42046858  0.25319145  0.24827589  1
  Ca2+  Ca7  1  0.40923236  0.24924532  0.57186904  1
  Ca2+  Ca8  1  0.41691495  0.24630627  0.92288395  1
  Ca2+  Ca9  1  0.40466976  0.75013711  0.24111000  1
  Ca2+  Ca10  1  0.40603747  0.75329822  0.58943873  1
  Ca2+  Ca11  1  0.42310174  0.74475626  0.92077435  1
  Ca2+  Ca12  1  0.75124467  0.23504001  0.26493486  1
  Ca2+  Ca13  1  0.73400747  0.24535241  0.55280696  1
  Ca2+  Ca14  1  0.75611202  0.25885074  0.93148928  1
  Ca2+  Ca15  1  0.76244698  0.74237548  0.24777316  1
  Ca2+  Ca16  1  0.75405655  0.74991205  0.57826820  1
  Ca2+  Ca17  1  0.72900324  0.73053682  0.92493587  1
  Ca2+  Ca18  1  0.25202099  0.24725346  0.09062827  1
  Ca2+  Ca19  1  0.25492384  0.24754484  0.42566949  1
  Ca2+  Ca20  1  0.26018044  0.25519862  0.73568156  1
  Ca2+  Ca21  1  0.27996472  0.74069941  0.07558500  1
  Ca2+  Ca22  1  0.26525969  0.75704586  0.41199109  1
  Ca2+  Ca23  1  0.26429117  0.74386266  0.75165166  1
  Ca2+  Ca24  1  0.58093010  0.23670192  0.08322410  1
  Ca2+  Ca25  1  0.59428283  0.23280017  0.41054198  1
  Ca2+  Ca26  1  0.57171266  0.25265828  0.74063243  1
  Ca2+  Ca27  1  0.57619832  0.73326023  0.07009305  1
  Ca2+  Ca28  1  0.60028482  0.75279846  0.41699645  1
  Ca2+  Ca29  1  0.58148727  0.74748538  0.77189833  1
  Ca2+  Ca30  1  0.91698476  0.25330290  0.09316335  1
  Ca2+  Ca31  1  0.90068216  0.25314871  0.40277549  1
  Ca2+  Ca32  1  0.91395792  0.25872776  0.76057233  1
  Ca2+  Ca33  1  0.90216265  0.76497328  0.08383308  1
  Ca2+  Ca34  1  0.89062728  0.75803049  0.41003073  1
  Ca2+  Ca35  1  0.90128534  0.75465745  0.74769545  1
  Ca2+  Ca36  1  0.25514596  0.08702614  0.07451676  1
  Ca2+  Ca37  1  0.10787557  0.58334386  0.25963091  1
  Ca2+  Ca38  1  0.26556130  0.58319871  0.39928290  1
  Ca2+  Ca39  1  0.42207818  0.10067296  0.56973212  1
  Ca2+  Ca40  1  0.57160992  0.08636133  0.72487197  1
  Ca2+  Ca41  1  0.29244081  0.60173121  0.74925235  1
  Ca2+  Ca42  1  0.56676112  0.61136556  0.77527837  1
  Ca2+  Ca43  1  0.87713664  0.59624447  0.08804867  1
  Ca2+  Ca44  1  0.91618468  0.10116368  0.08860539  1
  Ca2+  Ca45  1  0.09601924  0.59345422  0.90690383  1
  Ca2+  Ca46  1  0.89532972  0.09490922  0.41080402  1
  Ca2+  Ca47  1  0.27610314  0.58257993  0.39729207  1
  Ca2+  Ca48  1  0.40311234  0.59502502  0.22423048  1
  Ca2+  Ca49  1  0.42929262  0.08868343  0.25627549  1
  Ca2+  Ca50  1  0.89685175  0.60458800  0.41982782  1
  Ca2+  Ca51  1  0.07363048  0.08136598  0.26817060  1
  Ca2+  Ca52  1  0.41876041  0.08900234  0.25658249  1
  Ca2+  Ca53  1  0.58035971  0.58041284  0.39851325  1
  Ca2+  Ca54  1  0.25224663  0.09929423  0.42134450  1
  Ca2+  Ca55  1  0.09862222  0.09546920  0.56452105  1
  Ca2+  Ca56  1  0.43411098  0.60480586  0.92609303  1
  Ca2+  Ca57  1  0.11174572  0.08062925  0.92950635  1
  Ca2+  Ca58  1  0.71369815  0.10261113  0.93146709  1
  Ca2+  Ca59  1  0.42847975  0.10740814  0.91735554  1
  Ca2+  Ca60  1  0.91025090  0.07163611  0.72254183  1
  Ca2+  Ca61  1  0.75370779  0.58953909  0.60227562  1
  Ca2+  Ca62  1  0.74113068  0.58987744  0.25378899  1
  Ca2+  Ca63  1  0.26604961  0.09922625  0.75012471  1
  Ca2+  Ca64  1  0.88939677  0.59553339  0.08514916  1
  Ca2+  Ca65  1  0.72594274  0.10168552  0.93569036  1
  Ca2+  Ca66  1  0.41286739  0.10286202  0.57362108  1
  Ca2+  Ca67  1  0.88592020  0.60677575  0.42185023  1
  Ca2+  Ca68  1  0.08408555  0.08195164  0.26960231  1
  Ca2+  Ca69  1  0.92433672  0.07182884  0.72258315  1
  Ca2+  Ca70  1  0.07677652  0.59367215  0.59441750  1
  Ca2+  Ca71  1  0.08976172  0.59391838  0.59352901  1
  Ca2+  Ca72  1  0.74636567  0.90010405  0.90802715  1
  Ca2+  Ca73  1  0.25381148  0.40878227  0.40944720  1
  Ca2+  Ca74  1  0.90966127  0.39925675  0.74414941  1
  Ca2+  Ca75  1  0.24141671  0.92038837  0.05336550  1
  Ca2+  Ca76  1  0.57179160  0.90627570  0.09051223  1
  Ca2+  Ca77  1  0.92764650  0.92046083  0.41936397  1
  Ca2+  Ca78  1  0.91600077  0.90807240  0.72932547  1
  Ca2+  Ca79  1  0.42145369  0.40793720  0.91071732  1
  Ca2+  Ca80  1  0.75422858  0.39877802  0.59622135  1
  Ca2+  Ca81  1  0.25444488  0.40497648  0.08876865  1
  Ca2+  Ca82  1  0.24800831  0.90557324  0.41341454  1
  Ca2+  Ca83  1  0.08217537  0.39929923  0.91081006  1
  Ca2+  Ca84  1  0.74960455  0.90633500  0.25753791  1
  Ca2+  Ca85  1  0.26100256  0.90035530  0.76778357  1
  Ca2+  Ca86  1  0.07501808  0.38948323  0.58427997  1
  Ca2+  Ca87  1  0.74445130  0.91375461  0.59048916  1
  Ca2+  Ca88  1  0.41112284  0.40584719  0.58631444  1
  Ca2+  Ca89  1  0.41516432  0.41840043  0.25725993  1
  Ca2+  Ca90  1  0.56702148  0.91972168  0.42978939  1
  Ca2+  Ca91  1  0.75956358  0.90883131  0.25354806  1
  Ca2+  Ca92  1  0.08263054  0.91378690  0.26167092  1
  Ca2+  Ca93  1  0.74642097  0.40049205  0.24596606  1
  Ca2+  Ca94  1  0.24836983  0.89925066  0.76797597  1
  Ca2+  Ca95  1  0.91087224  0.40310635  0.08455473  1
  Ca2+  Ca96  1  0.57842066  0.40385892  0.08881029  1
  Ca2+  Ca97  1  0.75891829  0.90069992  0.90711962  1
  Ca2+  Ca98  1  0.08904938  0.40093402  0.25017364  1
  Ca2+  Ca99  1  0.57887394  0.40726854  0.40967437  1
  Ca2+  Ca100  1  0.07144780  0.91592313  0.58791289  1
  Ca2+  Ca101  1  0.57453049  0.91612879  0.71786978  1
  Ca2+  Ca102  1  0.40531085  0.91391216  0.26725453  1
  Ca2+  Ca103  1  0.58976320  0.40386564  0.08823072  1
  Ca2+  Ca104  1  0.58430863  0.90541312  0.08922152  1
  Ca2+  Ca105  1  0.41651608  0.91335129  0.26784961  1
  Ca2+  Ca106  1  0.40888224  0.40888740  0.91071337  1
  Ca2+  Ca107  1  0.42379593  0.40529075  0.58660722  1
  Mn3.34+  Mn108  1  0.08492289  0.33105847  0.08415349  1
  Mn3.34+  Mn109  1  0.08017934  0.32875722  0.41521607  1
  Mn3.34+  Mn110  1  0.08552889  0.32603589  0.75149245  1
  Mn3.34+  Mn111  1  0.08213683  0.84088130  0.08020476  1
  Mn3.34+  Mn112  1  0.08056795  0.83867620  0.42090498  1
  Mn3.34+  Mn113  1  0.08215448  0.83120285  0.75164760  1
  Mn3.34+  Mn114  1  0.41428186  0.33276903  0.08623245  1
  Mn3.34+  Mn115  1  0.41832623  0.33104064  0.41264947  1
  Mn3.34+  Mn116  1  0.41822429  0.33365299  0.75341947  1
  Mn3.34+  Mn117  1  0.41509996  0.83299471  0.08271367  1
  Mn3.34+  Mn118  1  0.41987088  0.83444736  0.42275929  1
  Mn3.34+  Mn119  1  0.42127137  0.83236230  0.75115586  1
  Mn3.34+  Mn120  1  0.75180069  0.33182198  0.08391448  1
  Mn3.34+  Mn121  1  0.74996981  0.33208637  0.41650020  1
  Mn3.34+  Mn122  1  0.74269953  0.33521321  0.75719480  1
  Mn3.34+  Mn123  1  0.74915307  0.83190142  0.08329908  1
  Mn3.34+  Mn124  1  0.74755234  0.83593101  0.42274714  1
  Mn3.34+  Mn125  1  0.74636036  0.82964921  0.74668157  1
  Mn3.34+  Mn126  1  0.25058230  0.33657280  0.25047289  1
  Mn3.34+  Mn127  1  0.25056113  0.33139428  0.58158604  1
  Mn3.34+  Mn128  1  0.24911345  0.33019308  0.91274388  1
  Mn3.34+  Mn129  1  0.24683874  0.83304776  0.24578639  1
  Mn3.34+  Mn130  1  0.25011802  0.83074333  0.58014092  1
  Mn3.34+  Mn131  1  0.25391527  0.83372535  0.92210309  1
  Mn3.34+  Mn132  1  0.58334985  0.33419034  0.25070778  1
  Mn3.34+  Mn133  1  0.58519708  0.33034308  0.58169982  1
  Mn3.34+  Mn134  1  0.58991002  0.33463869  0.90628077  1
  Mn3.34+  Mn135  1  0.58397013  0.82923084  0.25219975  1
  Mn3.34+  Mn136  1  0.58010502  0.83734575  0.58105351  1
  Mn3.34+  Mn137  1  0.57685169  0.83270175  0.91251913  1
  Mn3.34+  Mn138  1  0.91648721  0.33543979  0.25163457  1
  Mn3.34+  Mn139  1  0.91534668  0.32386444  0.58146916  1
  Mn3.34+  Mn140  1  0.91511356  0.33528606  0.91741433  1
  Mn3.34+  Mn141  1  0.91976349  0.83490122  0.24853474  1
  Mn3.34+  Mn142  1  0.91867067  0.83522560  0.57647798  1
  Mn3.34+  Mn143  1  0.92316153  0.83228229  0.91556739  1
  Mn3.34+  Mn144  1  0.57649233  0.65963397  0.24164952  1
  Mn3.34+  Mn145  1  0.42051011  0.16732089  0.08314696  1
  Mn3.34+  Mn146  1  0.58073398  0.66806901  0.58318104  1
  Mn3.34+  Mn147  1  0.08687543  0.67392378  0.75337093  1
  Mn3.34+  Mn148  1  0.08591970  0.16609689  0.41528617  1
  Mn3.34+  Mn149  1  0.91390194  0.16746368  0.24926412  1
  Mn3.34+  Mn150  1  0.09000510  0.17560640  0.75356898  1
  Mn3.34+  Mn151  1  0.74738855  0.17001511  0.09135965  1
  Mn3.34+  Mn152  1  0.90894203  0.65969923  0.90566425  1
  Mn3.34+  Mn153  1  0.25473581  0.66734881  0.24752904  1
  Mn3.34+  Mn154  1  0.91143764  0.16765491  0.57442538  1
  Mn3.34+  Mn155  1  0.41926312  0.16919290  0.75398057  1
  Mn3.34+  Mn156  1  0.91639008  0.66830367  0.24486976  1
  Mn3.34+  Mn157  1  0.74185752  0.17706272  0.75149204  1
  Mn3.34+  Mn158  1  0.58923948  0.16687275  0.25042860  1
  Mn3.34+  Mn159  1  0.07558141  0.68343126  0.41646671  1
  Mn3.34+  Mn160  1  0.08550325  0.16486358  0.08585120  1
  Mn3.34+  Mn161  1  0.09558031  0.66424958  0.08567337  1
  Mn3.34+  Mn162  1  0.25581275  0.66719557  0.58175179  1
  Mn3.34+  Mn163  1  0.74466392  0.66514715  0.75195190  1
  Mn3.34+  Mn164  1  0.08722229  0.68267366  0.41519346  1
  Mn3.34+  Mn165  1  0.25701756  0.66774473  0.91267726  1
  Mn3.34+  Mn166  1  0.58693970  0.66602894  0.24899627  1
  Mn3.34+  Mn167  1  0.57106969  0.66270583  0.58319025  1
  Mn3.34+  Mn168  1  0.24999461  0.16955919  0.24751851  1
  Mn3.34+  Mn169  1  0.92133792  0.16912199  0.91760267  1
  Mn3.34+  Mn170  1  0.41823702  0.16490938  0.41370766  1
  Mn3.34+  Mn171  1  0.08470135  0.66909091  0.08392349  1
  Mn3.34+  Mn172  1  0.58632586  0.16330903  0.57400607  1
  Mn3.34+  Mn173  1  0.25321777  0.16718595  0.91729839  1
  Mn3.34+  Mn174  1  0.91993847  0.17396242  0.57642518  1
  Mn3.34+  Mn175  1  0.08063691  0.17002329  0.75511078  1
  Mn3.34+  Mn176  1  0.75133503  0.17138154  0.75207854  1
  Mn3.34+  Mn177  1  0.41812467  0.67127213  0.41780990  1
  Mn3.34+  Mn178  1  0.91514798  0.67304023  0.58750171  1
  Mn3.34+  Mn179  1  0.92010339  0.66594789  0.90817014  1
  Mn3.34+  Mn180  1  0.08307693  0.49697974  0.07652281  1
  Mn3.34+  Mn181  1  0.74605966  0.00286529  0.41424385  1
  Mn3.34+  Mn182  1  0.25538575  0.50258977  0.58487925  1
  Mn3.34+  Mn183  1  0.42248259  0.50185982  0.73975553  1
  Mn3.34+  Mn184  1  0.24892983  -0.00070708  0.58107637  1
  Mn3.34+  Mn185  1  0.91699101  0.49606791  0.58073818  1
  Mn3.34+  Mn186  1  0.07665141  0.50239700  0.75325079  1
  Mn3.34+  Mn187  1  0.75529678  0.49400185  0.41996846  1
  Mn3.34+  Mn188  1  0.75201250  0.50152082  0.74090211  1
  Mn3.34+  Mn189  1  0.75256866  0.00210101  0.08498049  1
  Mn3.34+  Mn190  1  0.58438598  0.49863218  0.58886703  1
  Mn3.34+  Mn191  1  0.09081907  0.49629928  0.75220412  1
  Mn3.34+  Mn192  1  0.41355783  0.50119128  0.06983720  1
  Mn3.34+  Mn193  1  0.42626356  0.50078940  0.41581806  1
  Mn3.34+  Mn194  1  0.74242121  0.00063686  0.74661083  1
  Mn3.34+  Mn195  1  0.25256994  0.49894136  0.90435988  1
  Mn3.34+  Mn196  1  0.92157241  0.00306436  0.91744434  1
  Mn3.34+  Mn197  1  0.09399877  0.00123908  0.75635552  1
  Mn3.34+  Mn198  1  0.90039675  0.49665443  0.91879167  1
  Mn3.34+  Mn199  1  0.59311811  0.00670445  0.25342818  1
  Mn3.34+  Mn200  1  0.41567261  0.00091169  0.75301199  1
  Mn3.34+  Mn201  1  0.06515897  0.49528131  0.42245601  1
  Mn3.34+  Mn202  1  0.91540745  0.50046472  0.25186601  1
  Mn3.34+  Mn203  1  0.56115285  -0.00459590  0.90877615  1
  Mn3.34+  Mn204  1  0.08546359  0.00058051  0.08379157  1
  Mn3.34+  Mn205  1  0.74497619  0.49907163  0.42198125  1
  Mn3.34+  Mn206  1  0.25812891  -0.00659156  0.58475769  1
  Mn3.34+  Mn207  1  0.91015194  0.00056186  0.24826805  1
  Mn3.34+  Mn208  1  0.93145369  -0.00292582  0.91970599  1
  Mn3.34+  Mn209  1  0.58987593  0.49681767  0.92143031  1
  Mn3.34+  Mn210  1  0.41288653  0.00088613  0.07852169  1
  Mn3.34+  Mn211  1  0.74551015  0.49702385  0.06876320  1
  Mn3.34+  Mn212  1  0.07897958  0.50138720  0.42614693  1
  Mn3.34+  Mn213  1  0.09418974  0.50210292  0.07663123  1
  Mn3.34+  Mn214  1  0.24719329  0.00107763  0.24791842  1
  Mn3.34+  Mn215  1  0.57234500  -0.00103793  0.90864159  1
  O2-  O216  1  0.00775688  0.14659670  -0.00300332  1
  O2-  O217  1  0.00005149  0.15459314  0.33115187  1
  O2-  O218  1  -0.00390107  0.17108620  0.67065196  1
  O2-  O219  1  -0.00265210  0.64046468  0.00569890  1
  O2-  O220  1  0.00024223  0.65151668  0.33297720  1
  O2-  O221  1  0.00912585  0.67839622  0.66200105  1
  O2-  O222  1  0.33534491  0.15224450  -0.00117986  1
  O2-  O223  1  0.33353560  0.14875706  0.32976638  1
  O2-  O224  1  0.34355170  0.15529758  0.66745747  1
  O2-  O225  1  0.33390285  0.66175384  -0.01051898  1
  O2-  O226  1  0.34154390  0.65650578  0.32851713  1
  O2-  O227  1  0.33629889  0.66905631  0.65713036  1
  O2-  O228  1  0.67027950  0.17479728  0.00468225  1
  O2-  O229  1  0.66359231  0.16335356  0.32690650  1
  O2-  O230  1  0.66091548  0.16255418  0.67119402  1
  O2-  O231  1  0.65607205  0.66282417  0.00224520  1
  O2-  O232  1  0.66120322  0.65979671  0.33090894  1
  O2-  O233  1  0.66080660  0.65855178  0.66394175  1
  O2-  O234  1  0.17131830  0.15316191  0.00378889  1
  O2-  O235  1  0.16565750  0.15040887  0.32833840  1
  O2-  O236  1  0.16462318  0.16008124  0.66946033  1
  O2-  O237  1  0.16396444  0.65312866  -0.00623860  1
  O2-  O238  1  0.17536391  0.65471930  0.34694488  1
  O2-  O239  1  0.17057139  0.65582258  0.66797897  1
  O2-  O240  1  0.49653810  0.16986976  0.00228752  1
  O2-  O241  1  0.49650727  0.15774963  0.32771225  1
  O2-  O242  1  0.49620118  0.16826280  0.66529029  1
  O2-  O243  1  0.50747464  0.67122714  -0.00946922  1
  O2-  O244  1  0.50606143  0.66192715  0.33445463  1
  O2-  O245  1  0.50349490  0.68352618  0.66937059  1
  O2-  O246  1  0.83359903  0.15026605  -0.01080603  1
  O2-  O247  1  0.83950247  0.16295301  0.32842452  1
  O2-  O248  1  0.83389559  0.17398263  0.66869593  1
  O2-  O249  1  0.82934639  0.65055698  -0.01135358  1
  O2-  O250  1  0.83237363  0.65590011  0.32253929  1
  O2-  O251  1  0.82806443  0.66800819  0.66015919  1
  O2-  O252  1  0.00206192  0.34946735  0.00123257  1
  O2-  O253  1  0.00478047  0.34056499  0.32801216  1
  O2-  O254  1  -0.00100063  0.31490117  0.66993883  1
  O2-  O255  1  -0.00140665  0.83239717  -0.00002223  1
  O2-  O256  1  0.00076520  0.84214224  0.33563334  1
  O2-  O257  1  -0.00057315  0.82475804  0.66289597  1
  O2-  O258  1  0.33752714  0.35171919  -0.00142022  1
  O2-  O259  1  0.33616348  0.35050324  0.33133770  1
  O2-  O260  1  0.33888477  0.33639218  0.66388987  1
  O2-  O261  1  0.32781561  0.84464638  0.00970326  1
  O2-  O262  1  0.33026399  0.84425478  0.33572897  1
  O2-  O263  1  0.32943083  0.83335558  0.67402655  1
  O2-  O264  1  0.66000315  0.33422003  0.00345207  1
  O2-  O265  1  0.66549814  0.35045436  0.33393230  1
  O2-  O266  1  0.66983677  0.33149938  0.66442989  1
  O2-  O267  1  0.66392003  0.85754737  -0.00188146  1
  O2-  O268  1  0.66575052  0.84992866  0.33553678  1
  O2-  O269  1  0.66401592  0.84212981  0.66501469  1
  O2-  O270  1  0.16775532  0.34813434  -0.00072717  1
  O2-  O271  1  0.16857447  0.34778233  0.33542301  1
  O2-  O272  1  0.16245312  0.32940064  0.66166103  1
  O2-  O273  1  0.16356792  0.84571715  -0.00447072  1
  O2-  O274  1  0.16350089  0.84278379  0.33330694  1
  O2-  O275  1  0.16349515  0.83876839  0.66275216  1
  O2-  O276  1  0.49894770  0.34565051  -0.00097941  1
  O2-  O277  1  0.49653608  0.34970600  0.32871215  1
  O2-  O278  1  0.49627304  0.33535689  0.66425073  1
  O2-  O279  1  0.50293401  0.85070937  0.00387850  1
  O2-  O280  1  0.49996664  0.84055425  0.33092534  1
  O2-  O281  1  0.50241312  0.81704734  0.66676597  1
  O2-  O282  1  0.83207066  0.34667781  0.00161685  1
  O2-  O283  1  0.83006320  0.34087119  0.33074482  1
  O2-  O284  1  0.83381814  0.31870088  0.66958291  1
  O2-  O285  1  0.83123045  0.85260450  -0.00012234  1
  O2-  O286  1  0.83547065  0.85292853  0.34241675  1
  O2-  O287  1  0.83391529  0.83882047  0.66159534  1
  O2-  O288  1  0.00300513  0.17613528  0.16621980  1
  O2-  O289  1  0.00646174  0.18481090  0.49922702  1
  O2-  O290  1  -0.00064673  0.19055274  0.83222937  1
  O2-  O291  1  0.00003774  0.68225507  0.16343611  1
  O2-  O292  1  -0.00645596  0.68699162  0.49943215  1
  O2-  O293  1  0.00477655  0.68649377  0.83698218  1
  O2-  O294  1  0.33480750  0.17380560  0.17092458  1
  O2-  O295  1  0.34169383  0.17428105  0.49459932  1
  O2-  O296  1  0.32920383  0.18418338  0.83002553  1
  O2-  O297  1  0.33117260  0.67664466  0.17171106  1
  O2-  O298  1  0.31801061  0.67129716  0.48387409  1
  O2-  O299  1  0.33242006  0.67971751  0.83242476  1
  O2-  O300  1  0.66819429  0.18442297  0.16867196  1
  O2-  O301  1  0.66153769  0.16993030  0.49969876  1
  O2-  O302  1  0.67397908  0.17905386  0.84343907  1
  O2-  O303  1  0.66586022  0.68594061  0.17574526  1
  O2-  O304  1  0.66021429  0.68727296  0.50818200  1
  O2-  O305  1  0.66473849  0.67626268  0.82572333  1
  O2-  O306  1  0.16722464  0.18196292  0.16916841  1
  O2-  O307  1  0.16819610  0.17126640  0.49007706  1
  O2-  O308  1  0.16612757  0.18613668  0.83883112  1
  O2-  O309  1  0.15718681  0.67725439  0.18462758  1
  O2-  O310  1  0.15374271  0.68171976  0.51208433  1
  O2-  O311  1  0.16576615  0.68794841  0.83108425  1
  O2-  O312  1  0.49308526  0.17828821  0.17046002  1
  O2-  O313  1  0.49494448  0.17778305  0.49977071  1
  O2-  O314  1  0.49434241  0.19150448  0.82929173  1
  O2-  O315  1  0.49660338  0.68319046  0.17609493  1
  O2-  O316  1  0.49631337  0.68887210  0.50332294  1
  O2-  O317  1  0.49198043  0.68239971  0.83756328  1
  O2-  O318  1  0.84189886  0.17561292  0.16004108  1
  O2-  O319  1  0.83730423  0.18381566  0.49221115  1
  O2-  O320  1  0.83407688  0.18803602  0.83136570  1
  O2-  O321  1  0.84121982  0.67694160  0.16256378  1
  O2-  O322  1  0.84124877  0.68069237  0.50046660  1
  O2-  O323  1  0.83138450  0.68208757  0.82271163  1
  O2-  O324  1  0.00035448  0.32407709  0.16447636  1
  O2-  O325  1  0.00538928  0.31105706  0.50573442  1
  O2-  O326  1  0.00481500  0.31468213  0.83706403  1
  O2-  O327  1  -0.00006804  0.82459486  0.16711266  1
  O2-  O328  1  -0.00109627  0.80678756  0.49669486  1
  O2-  O329  1  -0.00007992  0.81052803  0.82661529  1
  O2-  O330  1  0.33251064  0.32542348  0.16650690  1
  O2-  O331  1  0.33624533  0.32779347  0.49836485  1
  O2-  O332  1  0.33869143  0.31393325  0.83537583  1
  O2-  O333  1  0.34072836  0.82747550  0.17601819  1
  O2-  O334  1  0.33202832  0.82527045  0.49710566  1
  O2-  O335  1  0.33244490  0.81678362  0.83103194  1
  O2-  O336  1  0.66373150  0.32429663  0.16324565  1
  O2-  O337  1  0.66220654  0.32691228  0.49768234  1
  O2-  O338  1  0.66603284  0.29915614  0.83118877  1
  O2-  O339  1  0.66165333  0.82060170  0.16625060  1
  O2-  O340  1  0.66681797  0.81783245  0.50489848  1
  O2-  O341  1  0.67407586  0.82311839  0.84185997  1
  O2-  O342  1  0.16720314  0.31825107  0.16848489  1
  O2-  O343  1  0.16977761  0.32677553  0.49765919  1
  O2-  O344  1  0.16581362  0.31101479  0.83346326  1
  O2-  O345  1  0.16769154  0.82503936  0.16655768  1
  O2-  O346  1  0.16537262  0.81275994  0.49105079  1
  O2-  O347  1  0.17515803  0.81851418  0.82321428  1
  O2-  O348  1  0.50442074  0.32408112  0.15872892  1
  O2-  O349  1  0.49366871  0.32564330  0.50397740  1
  O2-  O350  1  0.49614903  0.31604940  0.83866690  1
  O2-  O351  1  0.50185329  0.82534132  0.16903093  1
  O2-  O352  1  0.50550607  0.81688699  0.49712063  1
  O2-  O353  1  0.49917197  0.81593927  0.83216437  1
  O2-  O354  1  0.83292084  0.32904781  0.16640569  1
  O2-  O355  1  0.83073737  0.31500816  0.50340163  1
  O2-  O356  1  0.83141028  0.31915955  0.83328865  1
  O2-  O357  1  0.82177739  0.82490099  0.17947392  1
  O2-  O358  1  0.83194674  0.82116461  0.50325062  1
  O2-  O359  1  0.83193094  0.82822666  0.83089308  1
  O2-  O360  1  0.08613434  0.07884467  0.12681184  1
  O2-  O361  1  0.07930073  0.08309136  0.42984208  1
  O2-  O362  1  0.06623910  0.08268278  0.78253261  1
  O2-  O363  1  0.08438625  0.57942344  0.12555334  1
  O2-  O364  1  0.06830177  0.58407146  0.45509833  1
  O2-  O365  1  0.08308358  0.58435866  0.77184295  1
  O2-  O366  1  0.41161084  0.07975871  0.11412211  1
  O2-  O367  1  0.41144791  0.08139104  0.43693746  1
  O2-  O368  1  0.42402535  0.07975640  0.78638697  1
  O2-  O369  1  0.41910191  0.57469037  0.09640437  1
  O2-  O370  1  0.41944982  0.58367210  0.43359089  1
  O2-  O371  1  0.42412122  0.57223068  0.78825337  1
  O2-  O372  1  0.75466572  0.08601605  0.08121316  1
  O2-  O373  1  0.77143895  0.06791612  0.46130482  1
  O2-  O374  1  0.76377760  0.08186594  0.78191633  1
  O2-  O375  1  0.75625015  0.56887424  0.12530011  1
  O2-  O376  1  0.75853851  0.57847770  0.46417551  1
  O2-  O377  1  0.72957126  0.58088595  0.75981754  1
  O2-  O378  1  0.24197775  0.08106375  0.21859643  1
  O2-  O379  1  0.26953533  0.07902790  0.55587434  1
  O2-  O380  1  0.24744971  0.08728957  0.88503952  1
  O2-  O381  1  0.25475902  0.58371627  0.25058571  1
  O2-  O382  1  0.22277147  0.57989422  0.53611980  1
  O2-  O383  1  0.24003580  0.58188876  0.87875116  1
  O2-  O384  1  0.56978639  0.08417455  0.22536772  1
  O2-  O385  1  0.55545266  0.08413413  0.57682598  1
  O2-  O386  1  0.58906745  0.07997697  0.87656975  1
  O2-  O387  1  0.58030838  0.58133998  0.23196891  1
  O2-  O388  1  0.58929559  0.57971885  0.54611353  1
  O2-  O389  1  0.56818002  0.56917393  0.89332925  1
  O2-  O390  1  0.93026307  0.08158610  0.22588303  1
  O2-  O391  1  0.94095465  0.08168529  0.58229670  1
  O2-  O392  1  0.91735177  0.07816651  0.86152246  1
  O2-  O393  1  0.92252357  0.58347213  0.21554239  1
  O2-  O394  1  0.93691703  0.57990536  0.55046700  1
  O2-  O395  1  0.92985308  0.57940045  0.88029898  1
  O2-  O396  1  0.09020436  0.41762297  0.11510043  1
  O2-  O397  1  0.07757466  0.41506861  0.44636793  1
  O2-  O398  1  0.07107238  0.41479069  0.76564093  1
  O2-  O399  1  0.09585174  0.92345589  0.11801128  1
  O2-  O400  1  0.07810324  0.91789855  0.44887170  1
  O2-  O401  1  0.11149484  0.91965639  0.76177689  1
  O2-  O402  1  0.42222310  0.42461001  0.11662699  1
  O2-  O403  1  0.42258081  0.42237585  0.45189408  1
  O2-  O404  1  0.41682022  0.42342656  0.77711550  1
  O2-  O405  1  0.43267743  0.92348650  0.12455975  1
  O2-  O406  1  0.42211149  0.91760110  0.41610483  1
  O2-  O407  1  0.40020658  0.91992207  0.76936939  1
  O2-  O408  1  0.73800786  0.41757149  0.10862896  1
  O2-  O409  1  0.75243418  0.41520945  0.45521896  1
  O2-  O410  1  0.77116208  0.42027517  0.75447778  1
  O2-  O411  1  0.72487453  0.92124760  0.12098280  1
  O2-  O412  1  0.74781028  0.92436950  0.45517968  1
  O2-  O413  1  0.74287277  0.91879087  0.77297481  1
  O2-  O414  1  0.24384484  0.41732860  0.22626929  1
  O2-  O415  1  0.26619218  0.41917538  0.55802579  1
  O2-  O416  1  0.26195335  0.41533569  0.88102253  1
  O2-  O417  1  0.26180911  0.91918362  0.23014949  1
  O2-  O418  1  0.23415604  0.91447187  0.55373382  1
  O2-  O419  1  0.25105053  0.91588667  0.89707937  1
  O2-  O420  1  0.58427922  0.41757546  0.22141890  1
  O2-  O421  1  0.57081570  0.41813219  0.55630746  1
  O2-  O422  1  0.56471145  0.42116143  0.88396424  1
  O2-  O423  1  0.58988041  0.92383688  0.22121823  1
  O2-  O424  1  0.59093267  0.91759677  0.56548951  1
  O2-  O425  1  0.58668658  0.91707954  0.86914831  1
  O2-  O426  1  0.91788594  0.41882587  0.22238568  1
  O2-  O427  1  0.92117499  0.41315854  0.59093335  1
  O2-  O428  1  0.93208778  0.41745683  0.87984231  1
  O2-  O429  1  0.89882249  0.91949124  0.22432391  1
  O2-  O430  1  0.93022985  0.91651596  0.56190094  1
  O2-  O431  1  0.91278544  0.92094554  0.87219825  1
  O2-  O432  1  0.00003998  0.02001446  0.00764536  1
  O2-  O433  1  0.00601424  -0.00386228  0.30673544  1
  O2-  O434  1  -0.00770317  -0.00900426  0.70478684  1
  O2-  O435  1  0.00753640  0.50615679  -0.01107607  1
  O2-  O436  1  0.01228807  0.51259954  0.32185957  1
  O2-  O437  1  0.00699071  0.50850461  0.65719358  1
  O2-  O438  1  0.32245250  0.00248043  0.02239967  1
  O2-  O439  1  0.34327010  0.00521656  0.30361997  1
  O2-  O440  1  0.31367127  0.00761628  0.68924153  1
  O2-  O441  1  0.33736693  0.48603860  -0.01091913  1
  O2-  O442  1  0.33035308  0.49465416  0.35817387  1
  O2-  O443  1  0.33114672  0.50390055  0.67487335  1
  O2-  O444  1  0.67119260  -0.00347686  -0.02052846  1
  O2-  O445  1  0.67680069  -0.01865435  0.32797466  1
  O2-  O446  1  0.65151032  0.00075177  0.69056650  1
  O2-  O447  1  0.64198186  0.48762879  0.02464553  1
  O2-  O448  1  0.66712078  0.50727849  0.33784981  1
  O2-  O449  1  0.68411630  0.49428712  0.64055590  1
  O2-  O450  1  0.16810854  0.00985826  0.01652564  1
  O2-  O451  1  0.15853829  -0.00026393  0.31306210  1
  O2-  O452  1  0.14773300  0.01215182  0.64373514  1
  O2-  O453  1  0.16872044  0.49260322  -0.01184341  1
  O2-  O454  1  0.17364046  0.51103049  0.35793620  1
  O2-  O455  1  0.16236160  0.51214054  0.65903969  1
  O2-  O456  1  0.51041771  -0.00803609  0.01543444  1
  O2-  O457  1  0.48860100  -0.00165556  0.29575308  1
  O2-  O458  1  0.49614781  0.00233062  0.68323068  1
  O2-  O459  1  0.49199513  0.48192813  -0.00659123  1
  O2-  O460  1  0.50373376  0.49544382  0.34455920  1
  O2-  O461  1  0.48300732  0.49018207  0.64391363  1
  O2-  O462  1  0.82509401  -0.00809799  -0.01773020  1
  O2-  O463  1  0.83972658  -0.00883088  0.34585749  1
  O2-  O464  1  0.83976056  -0.00704266  0.69079698  1
  O2-  O465  1  0.85841250  0.49955947  0.03974698  1
  O2-  O466  1  0.83843856  0.52396817  0.34228254  1
  O2-  O467  1  0.83497315  0.51154201  0.65667047  1
  O2-  O468  1  0.90367297  0.74502289  0.94229443  1
  O2-  O469  1  0.91834064  0.75034402  0.27240151  1
  O2-  O470  1  0.91714069  0.25219251  0.94901763  1
  O2-  O471  1  0.24507514  0.75047969  0.94253384  1
  O2-  O472  1  0.24803834  0.75122903  0.27250202  1
  O2-  O473  1  0.57522708  0.25166819  0.27056353  1
  O2-  O474  1  0.25262603  0.25051293  0.95064212  1
  O2-  O475  1  0.75357265  0.75505313  0.05940912  1
  O2-  O476  1  0.41996502  0.75516651  0.06600817  1
  O2-  O477  1  0.41002928  0.75142286  0.39211902  1
  O2-  O478  1  0.76640262  0.25120775  0.06907991  1
  O2-  O479  1  0.74078493  0.25435021  0.40068929  1
  O2-  O480  1  0.25009809  0.74967835  0.59892659  1
  O2-  O481  1  0.08107918  0.24883894  0.06273507  1
  O2-  O482  1  0.08990690  0.75196709  0.06601855  1
  O2-  O483  1  0.74643374  0.74966797  0.72627082  1
  O2-  O484  1  0.09597781  0.24898205  0.38928544  1
  O2-  O485  1  0.25628676  0.24965055  0.27703655  1
  O2-  O486  1  0.41169610  0.24963089  0.39135079  1
  O2-  O487  1  0.40458433  0.25131990  0.06579964  1
  O2-  O488  1  0.25665819  0.25226361  0.59012571  1
  O2-  O489  1  0.92074294  0.25089298  0.26360129  1
  O2-  O490  1  0.74828109  0.75887165  0.39036529  1
  O2-  O491  1  0.58778785  0.75632706  0.93633753  1
  O2-  O492  1  0.58357107  0.24902815  0.59329259  1
