# generated using pymatgen
data_Ca108Mn108O277
_symmetry_space_group_name_H-M   'P 1'
_cell_length_a   16.02913507
_cell_length_b   22.30834895
_cell_length_c   16.38909196
_cell_angle_alpha   89.99482661
_cell_angle_beta   90.00210190
_cell_angle_gamma   90.00177790
_symmetry_Int_Tables_number   1
_chemical_formula_structural   Ca108Mn108O277
_chemical_formula_sum   'Ca108 Mn108 O277'
_cell_volume   5860.46946437
_cell_formula_units_Z   1
loop_
 _symmetry_equiv_pos_site_id
 _symmetry_equiv_pos_as_xyz
  1  'x, y, z'
loop_
 _atom_type_symbol
 _atom_type_oxidation_number
  Ca2+  2.0
  Mn3.34+  3.34
  O2-  -2.0
loop_
 _atom_site_type_symbol
 _atom_site_label
 _atom_site_symmetry_multiplicity
 _atom_site_fract_x
 _atom_site_fract_y
 _atom_site_fract_z
 _atom_site_occupancy
  Ca2+  Ca0  1  0.08184068  0.23644474  0.24933592  1
  Ca2+  Ca1  1  0.10414110  0.25115297  0.56712115  1
  Ca2+  Ca2  1  0.09367626  0.24730807  0.92970773  1
  Ca2+  Ca3  1  0.09132750  0.76495386  0.24281781  1
  Ca2+  Ca4  1  0.09214011  0.76021023  0.58912925  1
  Ca2+  Ca5  1  0.08064787  0.75519279  0.91700128  1
  Ca2+  Ca6  1  0.39543708  0.25015666  0.25018266  1
  Ca2+  Ca7  1  0.39852229  0.24869123  0.58721764  1
  Ca2+  Ca8  1  0.39871679  0.25304152  0.91444846  1
  Ca2+  Ca9  1  0.42000241  0.76238909  0.25226711  1
  Ca2+  Ca10  1  0.40793694  0.75788309  0.57719430  1
  Ca2+  Ca11  1  0.42053823  0.74518701  0.92366512  1
  Ca2+  Ca12  1  0.76726263  0.24819734  0.23273698  1
  Ca2+  Ca13  1  0.73516627  0.24914249  0.58805349  1
  Ca2+  Ca14  1  0.75955331  0.25541599  0.94339493  1
  Ca2+  Ca15  1  0.74140692  0.75675878  0.24411660  1
  Ca2+  Ca16  1  0.74488849  0.76192657  0.57527054  1
  Ca2+  Ca17  1  0.74507944  0.73936439  0.93932439  1
  Ca2+  Ca18  1  0.23947821  0.23064988  0.10182531  1
  Ca2+  Ca19  1  0.23003804  0.22704339  0.40740335  1
  Ca2+  Ca20  1  0.25438036  0.23194304  0.73506617  1
  Ca2+  Ca21  1  0.25181358  0.74421783  0.08384417  1
  Ca2+  Ca22  1  0.25891642  0.76118471  0.41555063  1
  Ca2+  Ca23  1  0.25373951  0.74249286  0.75010988  1
  Ca2+  Ca24  1  0.60843077  0.24349835  0.09457309  1
  Ca2+  Ca25  1  0.57423105  0.25915481  0.42004269  1
  Ca2+  Ca26  1  0.55942632  0.24516871  0.73605887  1
  Ca2+  Ca27  1  0.59714543  0.74336554  0.08533423  1
  Ca2+  Ca28  1  0.58487731  0.76169755  0.40960622  1
  Ca2+  Ca29  1  0.57318167  0.75085568  0.76415343  1
  Ca2+  Ca30  1  0.91247258  0.23382378  0.09521491  1
  Ca2+  Ca31  1  0.95161536  0.23478291  0.39591226  1
  Ca2+  Ca32  1  0.92372433  0.24782473  0.74839757  1
  Ca2+  Ca33  1  0.89865277  0.74871219  0.07751130  1
  Ca2+  Ca34  1  0.90623028  0.77108430  0.41358778  1
  Ca2+  Ca35  1  0.92883873  0.75538925  0.76301613  1
  Ca2+  Ca36  1  0.73653848  0.58247019  0.97699826  1
  Ca2+  Ca37  1  0.09212177  0.08028808  0.95362872  1
  Ca2+  Ca38  1  0.07629959  0.09442356  0.23400415  1
  Ca2+  Ca39  1  0.40335599  0.59755835  0.61342436  1
  Ca2+  Ca40  1  0.73788638  0.59934967  0.23156219  1
  Ca2+  Ca41  1  0.38589908  0.09050766  0.59322491  1
  Ca2+  Ca42  1  0.28807727  0.59261487  0.07249519  1
  Ca2+  Ca43  1  0.77785324  0.09544783  0.94410080  1
  Ca2+  Ca44  1  0.92944319  0.08178526  0.38028014  1
  Ca2+  Ca45  1  0.41800036  0.60916293  0.22266708  1
  Ca2+  Ca46  1  0.88568529  0.57914290  0.41103771  1
  Ca2+  Ca47  1  0.75513934  0.59044112  0.57669766  1
  Ca2+  Ca48  1  0.39190331  0.59818131  0.61266050  1
  Ca2+  Ca49  1  0.92424695  0.08496964  0.74731074  1
  Ca2+  Ca50  1  0.08327883  0.59231105  0.59715052  1
  Ca2+  Ca51  1  0.76505610  0.09438880  0.94774989  1
  Ca2+  Ca52  1  0.41611299  0.60380692  0.23090945  1
  Ca2+  Ca53  1  0.76741384  0.10327652  0.23286337  1
  Ca2+  Ca54  1  0.12078771  0.11077748  0.56634470  1
  Ca2+  Ca55  1  0.25277228  0.58875896  0.41122911  1
  Ca2+  Ca56  1  0.39031063  0.09186999  0.23757191  1
  Ca2+  Ca57  1  0.89119057  0.59141261  0.07269334  1
  Ca2+  Ca58  1  0.61219350  0.58280197  0.40516268  1
  Ca2+  Ca59  1  0.08539042  0.59015760  0.92692436  1
  Ca2+  Ca60  1  0.10346926  0.58097931  0.23329813  1
  Ca2+  Ca61  1  0.11052698  0.11046309  0.56645375  1
  Ca2+  Ca62  1  0.07447976  0.58852639  0.92749746  1
  Ca2+  Ca63  1  0.38738287  0.09172274  0.92420771  1
  Ca2+  Ca64  1  0.92211388  0.07817004  0.38565467  1
  Ca2+  Ca65  1  0.92830054  0.59451524  0.75391005  1
  Ca2+  Ca66  1  0.09702158  0.59067500  0.59525905  1
  Ca2+  Ca67  1  0.74705594  0.07258415  0.59247231  1
  Ca2+  Ca68  1  0.58398391  0.07493777  0.41032746  1
  Ca2+  Ca69  1  0.56771228  0.59828571  0.07590139  1
  Ca2+  Ca70  1  0.42175185  0.60963813  0.90952772  1
  Ca2+  Ca71  1  0.40042032  0.09032869  0.24151720  1
  Ca2+  Ca72  1  0.08130172  0.91368016  0.92022776  1
  Ca2+  Ca73  1  0.76395653  0.93273472  0.28939985  1
  Ca2+  Ca74  1  0.57695733  0.39802497  0.75333275  1
  Ca2+  Ca75  1  0.75707023  0.90341331  0.90883854  1
  Ca2+  Ca76  1  0.75383816  0.39893007  0.24369566  1
  Ca2+  Ca77  1  0.09128680  0.39770647  0.58096643  1
  Ca2+  Ca78  1  0.93041861  0.91231485  0.09050713  1
  Ca2+  Ca79  1  0.40769407  0.90566945  0.92110365  1
  Ca2+  Ca80  1  0.59615965  0.40822964  0.07493247  1
  Ca2+  Ca81  1  0.42253492  0.41133132  0.94589896  1
  Ca2+  Ca82  1  0.06707075  0.41605581  0.94013799  1
  Ca2+  Ca83  1  0.25572027  0.90572502  0.74385663  1
  Ca2+  Ca84  1  0.24421776  0.39137482  0.74895711  1
  Ca2+  Ca85  1  0.22786494  0.92032339  0.08384173  1
  Ca2+  Ca86  1  0.91341305  0.91766833  0.73683507  1
  Ca2+  Ca87  1  0.41900741  0.91173007  0.58066262  1
  Ca2+  Ca88  1  0.41667592  0.39702118  0.23965307  1
  Ca2+  Ca89  1  0.90070069  0.91845947  0.73640108  1
  Ca2+  Ca90  1  0.73998543  0.39559596  0.57307662  1
  Ca2+  Ca91  1  0.27074382  0.91909232  0.40801917  1
  Ca2+  Ca92  1  0.59267712  0.91131915  0.73520540  1
  Ca2+  Ca93  1  0.75249333  0.39637458  0.57519033  1
  Ca2+  Ca94  1  0.07848143  0.41576693  0.93972162  1
  Ca2+  Ca95  1  0.25090140  0.39607555  0.42035906  1
  Ca2+  Ca96  1  0.92614535  0.39199941  0.75258863  1
  Ca2+  Ca97  1  0.75299348  0.91534257  0.57216806  1
  Ca2+  Ca98  1  0.91283463  0.39706295  0.41413682  1
  Ca2+  Ca99  1  0.08404259  0.40120235  0.23325744  1
  Ca2+  Ca100  1  0.25170683  0.40129629  0.08594676  1
  Ca2+  Ca101  1  0.24012228  0.91785170  0.08203604  1
  Ca2+  Ca102  1  0.42036618  0.90573782  0.92116167  1
  Ca2+  Ca103  1  0.57635343  0.91626940  0.40901826  1
  Ca2+  Ca104  1  0.58968273  0.39711608  0.75282505  1
  Ca2+  Ca105  1  0.94120867  0.91365056  0.09068317  1
  Ca2+  Ca106  1  0.07124540  0.92116991  0.25973913  1
  Ca2+  Ca107  1  0.07845758  0.91062163  0.58623395  1
  Mn3.34+  Mn108  1  0.08267287  0.33142146  0.08581660  1
  Mn3.34+  Mn109  1  0.08300728  0.33322358  0.41252847  1
  Mn3.34+  Mn110  1  0.08393367  0.32766457  0.75524870  1
  Mn3.34+  Mn111  1  0.08598349  0.83062033  0.08430424  1
  Mn3.34+  Mn112  1  0.08452675  0.83854860  0.41523391  1
  Mn3.34+  Mn113  1  0.08571166  0.83688646  0.75177586  1
  Mn3.34+  Mn114  1  0.42083279  0.33139980  0.08625021  1
  Mn3.34+  Mn115  1  0.41331515  0.32948642  0.41507832  1
  Mn3.34+  Mn116  1  0.41184550  0.33016447  0.75003999  1
  Mn3.34+  Mn117  1  0.42087976  0.83599276  0.09236438  1
  Mn3.34+  Mn118  1  0.42011272  0.83997744  0.41513651  1
  Mn3.34+  Mn119  1  0.41763091  0.83415026  0.75120208  1
  Mn3.34+  Mn120  1  0.75526467  0.33593636  0.08564713  1
  Mn3.34+  Mn121  1  0.74465069  0.33564539  0.40986906  1
  Mn3.34+  Mn122  1  0.75181812  0.32230528  0.75782977  1
  Mn3.34+  Mn123  1  0.74787688  0.83687473  0.08766170  1
  Mn3.34+  Mn124  1  0.74674833  0.84069619  0.41482154  1
  Mn3.34+  Mn125  1  0.74757591  0.83553359  0.74860358  1
  Mn3.34+  Mn126  1  0.24680406  0.33065433  0.25053909  1
  Mn3.34+  Mn127  1  0.25526762  0.33103861  0.58059213  1
  Mn3.34+  Mn128  1  0.25114600  0.33047246  0.91657605  1
  Mn3.34+  Mn129  1  0.25430611  0.83565011  0.25093561  1
  Mn3.34+  Mn130  1  0.24940224  0.83690826  0.57843953  1
  Mn3.34+  Mn131  1  0.24792176  0.83135803  0.91357080  1
  Mn3.34+  Mn132  1  0.58291133  0.32444604  0.24914856  1
  Mn3.34+  Mn133  1  0.57125357  0.32910221  0.57569608  1
  Mn3.34+  Mn134  1  0.58569212  0.33054503  0.91869845  1
  Mn3.34+  Mn135  1  0.58311385  0.83966536  0.24345452  1
  Mn3.34+  Mn136  1  0.58376208  0.83652089  0.58048395  1
  Mn3.34+  Mn137  1  0.58713074  0.83274788  0.91881595  1
  Mn3.34+  Mn138  1  0.91996417  0.32734101  0.24682768  1
  Mn3.34+  Mn139  1  0.91802918  0.31852624  0.57954049  1
  Mn3.34+  Mn140  1  0.91286390  0.33356721  0.91964514  1
  Mn3.34+  Mn141  1  0.91496396  0.84005275  0.25281365  1
  Mn3.34+  Mn142  1  0.91747314  0.83405977  0.57735985  1
  Mn3.34+  Mn143  1  0.91572492  0.83590242  0.91521726  1
  Mn3.34+  Mn144  1  0.91539629  0.67466459  0.58233351  1
  Mn3.34+  Mn145  1  0.07514928  0.66478454  0.41494291  1
  Mn3.34+  Mn146  1  0.08814725  0.66872502  0.75701504  1
  Mn3.34+  Mn147  1  0.57973144  0.66870941  0.91843564  1
  Mn3.34+  Mn148  1  0.57694568  0.16142514  0.58521687  1
  Mn3.34+  Mn149  1  0.58807115  0.66277246  0.58150526  1
  Mn3.34+  Mn150  1  0.75098406  0.67093439  0.41623038  1
  Mn3.34+  Mn151  1  0.58618054  0.17852792  0.91360842  1
  Mn3.34+  Mn152  1  0.75054563  0.16386284  0.75450233  1
  Mn3.34+  Mn153  1  0.91699864  0.16794709  0.58070044  1
  Mn3.34+  Mn154  1  0.91260942  0.67148356  0.24761631  1
  Mn3.34+  Mn155  1  0.74562537  0.15611690  0.75514289  1
  Mn3.34+  Mn156  1  0.08584013  0.66411043  0.08506232  1
  Mn3.34+  Mn157  1  0.08669162  0.66913738  0.41370272  1
  Mn3.34+  Mn158  1  0.41986720  0.16966083  0.08470064  1
  Mn3.34+  Mn159  1  0.58163720  0.15964831  0.24522245  1
  Mn3.34+  Mn160  1  0.57691894  0.67100182  0.58441652  1
  Mn3.34+  Mn161  1  0.41615430  0.66916947  0.41503998  1
  Mn3.34+  Mn162  1  0.24506494  0.16846501  0.91627369  1
  Mn3.34+  Mn163  1  0.40699130  0.15512424  0.42315996  1
  Mn3.34+  Mn164  1  0.58450322  0.67332054  0.25069061  1
  Mn3.34+  Mn165  1  0.74299988  0.66483102  0.75424759  1
  Mn3.34+  Mn166  1  0.41084957  0.16170958  0.75226364  1
  Mn3.34+  Mn167  1  0.74300835  0.16914109  0.42095999  1
  Mn3.34+  Mn168  1  0.25051808  0.67440641  0.58445549  1
  Mn3.34+  Mn169  1  0.92730488  0.17125888  0.91225052  1
  Mn3.34+  Mn170  1  0.91443313  0.66859210  0.91803308  1
  Mn3.34+  Mn171  1  0.75302801  0.16444374  0.42357043  1
  Mn3.34+  Mn172  1  0.08090777  0.16163737  0.08762004  1
  Mn3.34+  Mn173  1  0.24817678  0.66969038  0.24713050  1
  Mn3.34+  Mn174  1  0.41978446  0.16214250  0.41952471  1
  Mn3.34+  Mn175  1  0.92616702  0.66543926  0.24606877  1
  Mn3.34+  Mn176  1  0.08485753  0.16117615  0.75975500  1
  Mn3.34+  Mn177  1  0.75282537  0.67058626  0.75215946  1
  Mn3.34+  Mn178  1  0.25528262  0.67359157  0.91503694  1
  Mn3.34+  Mn179  1  0.57374928  0.17105674  0.91442781  1
  Mn3.34+  Mn180  1  0.90403064  0.49912527  0.92133889  1
  Mn3.34+  Mn181  1  0.26875846  0.49977074  0.90736959  1
  Mn3.34+  Mn182  1  0.41164084  0.50327789  0.75982659  1
  Mn3.34+  Mn183  1  0.74694495  0.00337582  0.09358908  1
  Mn3.34+  Mn184  1  0.41637829  0.50116922  0.42184520  1
  Mn3.34+  Mn185  1  0.42302125  0.49921225  0.75822648  1
  Mn3.34+  Mn186  1  0.25441605  0.49652742  0.57908953  1
  Mn3.34+  Mn187  1  0.91798913  0.50080201  0.23664897  1
  Mn3.34+  Mn188  1  0.57896208  0.49702012  0.57931696  1
  Mn3.34+  Mn189  1  0.58013353  0.50378963  0.92568391  1
  Mn3.34+  Mn190  1  0.09299918  0.00616447  0.74571702  1
  Mn3.34+  Mn191  1  0.90701822  0.49653550  0.23727432  1
  Mn3.34+  Mn192  1  0.43004499  0.49513730  0.42306096  1
  Mn3.34+  Mn193  1  0.92615464  0.00268458  0.92091464  1
  Mn3.34+  Mn194  1  0.24612494  0.00199222  0.91267375  1
  Mn3.34+  Mn195  1  0.58912817  0.00116241  0.90195048  1
  Mn3.34+  Mn196  1  0.24864101  -0.00317431  0.58688304  1
  Mn3.34+  Mn197  1  0.42077238  -0.00031422  0.07866596  1
  Mn3.34+  Mn198  1  0.41725530  0.00447985  0.74667660  1
  Mn3.34+  Mn199  1  0.74623838  0.50366713  0.75630870  1
  Mn3.34+  Mn200  1  0.08488654  0.49753232  0.40715722  1
  Mn3.34+  Mn201  1  0.09964259  0.49862050  0.74597254  1
  Mn3.34+  Mn202  1  0.92103550  0.50004276  0.58027435  1
  Mn3.34+  Mn203  1  0.91776689  0.00733837  0.58573677  1
  Mn3.34+  Mn204  1  0.08486464  -0.00314307  0.40792314  1
  Mn3.34+  Mn205  1  0.58298615  0.00109886  0.58982214  1
  Mn3.34+  Mn206  1  0.90953554  0.49578527  0.57978442  1
  Mn3.34+  Mn207  1  0.74734355  0.49640652  0.76869581  1
  Mn3.34+  Mn208  1  0.73602153  -0.00259492  0.09333107  1
  Mn3.34+  Mn209  1  0.25800522  0.50450426  0.90730734  1
  Mn3.34+  Mn210  1  0.25547324  0.50050834  0.24934329  1
  Mn3.34+  Mn211  1  0.57926424  0.00712265  0.90299189  1
  Mn3.34+  Mn212  1  0.58279048  0.49563208  0.24234004  1
  Mn3.34+  Mn213  1  0.25405109  0.00104528  0.26181630  1
  Mn3.34+  Mn214  1  0.59430440  0.49964915  0.24276208  1
  Mn3.34+  Mn215  1  0.57945392  -0.00045770  0.25912388  1
  O2-  O216  1  0.00630811  0.17048090  -0.00914572  1
  O2-  O217  1  0.00545307  0.14864134  0.33648107  1
  O2-  O218  1  -0.00665426  0.15912593  0.67417571  1
  O2-  O219  1  -0.00164415  0.65243540  0.00042193  1
  O2-  O220  1  -0.00718089  0.63907124  0.33202773  1
  O2-  O221  1  0.00243230  0.65622150  0.66746314  1
  O2-  O222  1  0.33981187  0.16823651  -0.00225129  1
  O2-  O223  1  0.33122982  0.14830868  0.33866433  1
  O2-  O224  1  0.33233658  0.15603068  0.67789691  1
  O2-  O225  1  0.33310924  0.67033704  -0.00352181  1
  O2-  O226  1  0.33225122  0.64858999  0.33147421  1
  O2-  O227  1  0.33568089  0.67727103  0.65952964  1
  O2-  O228  1  0.67250231  0.17060490  -0.01286236  1
  O2-  O229  1  0.65808878  0.15733651  0.34320060  1
  O2-  O230  1  0.67159523  0.15622126  0.66137193  1
  O2-  O231  1  0.65690091  0.65945485  0.00249564  1
  O2-  O232  1  0.66736537  0.65531043  0.33344359  1
  O2-  O233  1  0.66900708  0.64218868  0.66369525  1
  O2-  O234  1  0.16662346  0.16070555  -0.00333174  1
  O2-  O235  1  0.14868558  0.15740307  0.32515332  1
  O2-  O236  1  0.15235750  0.17275485  0.67112757  1
  O2-  O237  1  0.16959282  0.64617808  0.00317245  1
  O2-  O238  1  0.16401434  0.64316995  0.32949742  1
  O2-  O239  1  0.16844167  0.65412778  0.66960595  1
  O2-  O240  1  0.50365830  0.18830005  0.00259904  1
  O2-  O241  1  0.49230170  0.14730128  0.33023937  1
  O2-  O242  1  0.49130169  0.15366805  0.66500581  1
  O2-  O243  1  0.49862221  0.66689383  -0.00391554  1
  O2-  O244  1  0.49983026  0.64465158  0.33672549  1
  O2-  O245  1  0.49700054  0.66051327  0.66282559  1
  O2-  O246  1  0.84076745  0.17324192  -0.01295156  1
  O2-  O247  1  0.83264149  0.16413578  0.34141599  1
  O2-  O248  1  0.83121043  0.18132566  0.66458734  1
  O2-  O249  1  0.83176448  0.66065591  -0.00880773  1
  O2-  O250  1  0.83414219  0.65012289  0.32813568  1
  O2-  O251  1  0.83305934  0.65163913  0.66702440  1
  O2-  O252  1  0.00568782  0.33542758  -0.00724673  1
  O2-  O253  1  -0.00082855  0.34502300  0.33226017  1
  O2-  O254  1  -0.00001036  0.32262855  0.66822890  1
  O2-  O255  1  0.00359756  0.84956608  0.00056628  1
  O2-  O256  1  0.00299212  0.84649052  0.33091149  1
  O2-  O257  1  -0.00288265  0.84009326  0.67009595  1
  O2-  O258  1  0.33601828  0.34181741  0.00047084  1
  O2-  O259  1  0.33428092  0.34554012  0.32777976  1
  O2-  O260  1  0.33427157  0.34633688  0.66700723  1
  O2-  O261  1  0.33084122  0.83915863  -0.00209731  1
  O2-  O262  1  0.33146165  0.84334944  0.33723720  1
  O2-  O263  1  0.33519223  0.83856086  0.66579782  1
  O2-  O264  1  0.66420632  0.32860101  0.00410834  1
  O2-  O265  1  0.66850102  0.30272200  0.33109320  1
  O2-  O266  1  0.67048574  0.33236549  0.66879572  1
  O2-  O267  1  0.67441263  0.85002772  -0.00727947  1
  O2-  O268  1  0.66393718  0.85110685  0.33265900  1
  O2-  O269  1  0.67484005  0.85423138  0.65619683  1
  O2-  O270  1  0.16670685  0.34877111  -0.00683943  1
  O2-  O271  1  0.16380156  0.35563985  0.32986275  1
  O2-  O272  1  0.16270345  0.33606156  0.66720817  1
  O2-  O273  1  0.16900556  0.85396649  -0.00179635  1
  O2-  O274  1  0.16719479  0.85628630  0.33169721  1
  O2-  O275  1  0.16545205  0.85255349  0.66269061  1
  O2-  O276  1  0.49796530  0.32570105  -0.00258922  1
  O2-  O277  1  0.49655991  0.32692765  0.32778093  1
  O2-  O278  1  0.50365322  0.34208186  0.67370474  1
  O2-  O279  1  0.49166582  0.83864150  -0.00482488  1
  O2-  O280  1  0.50376280  0.84464120  0.33506774  1
  O2-  O281  1  0.50329986  0.84083334  0.67032823  1
  O2-  O282  1  0.83709989  0.32915441  0.00253171  1
  O2-  O283  1  0.83120603  0.33509497  0.33318182  1
  O2-  O284  1  0.83134577  0.32554622  0.66744300  1
  O2-  O285  1  0.84133496  0.85805935  0.00569519  1
  O2-  O286  1  0.82927412  0.84440027  0.33006229  1
  O2-  O287  1  0.83890219  0.83554563  0.66868481  1
  O2-  O288  1  0.00157437  0.17130209  0.16143157  1
  O2-  O289  1  0.00394052  0.18020791  0.51456683  1
  O2-  O290  1  0.00354763  0.19325171  0.83095370  1
  O2-  O291  1  0.00157077  0.68761137  0.16467501  1
  O2-  O292  1  0.00485516  0.68876962  0.50619383  1
  O2-  O293  1  0.00202095  0.67818016  0.83549338  1
  O2-  O294  1  0.34446135  0.17519725  0.16876523  1
  O2-  O295  1  0.34192897  0.17354937  0.50739798  1
  O2-  O296  1  0.33388560  0.17782129  0.83944082  1
  O2-  O297  1  0.33248561  0.68171713  0.17323833  1
  O2-  O298  1  0.33049992  0.68072752  0.49860425  1
  O2-  O299  1  0.33192446  0.69132901  0.84075942  1
  O2-  O300  1  0.66948956  0.18287930  0.18731897  1
  O2-  O301  1  0.66628354  0.19043224  0.49848530  1
  O2-  O302  1  0.65857226  0.19763698  0.82504923  1
  O2-  O303  1  0.66358471  0.67879632  0.17539665  1
  O2-  O304  1  0.66422351  0.68178855  0.50090768  1
  O2-  O305  1  0.66877030  0.68006805  0.83903619  1
  O2-  O306  1  0.15587538  0.16913288  0.17002962  1
  O2-  O307  1  0.16585604  0.17841385  0.49990495  1
  O2-  O308  1  0.16709156  0.18801511  0.83317994  1
  O2-  O309  1  0.16439591  0.67957922  0.16901020  1
  O2-  O310  1  0.16377540  0.67045655  0.50743050  1
  O2-  O311  1  0.15845110  0.67704793  0.84533092  1
  O2-  O312  1  0.50036818  0.18758664  0.17173593  1
  O2-  O313  1  0.50560852  0.17957844  0.48949335  1
  O2-  O314  1  0.49299177  0.18770051  0.83756155  1
  O2-  O315  1  0.49798353  0.68290983  0.17647433  1
  O2-  O316  1  0.49637320  0.68336546  0.50156109  1
  O2-  O317  1  0.49997980  0.68534468  0.84085060  1
  O2-  O318  1  0.83930699  0.17310357  0.17141303  1
  O2-  O319  1  0.83261417  0.19655646  0.49701601  1
  O2-  O320  1  0.83542211  0.18927027  0.83231544  1
  O2-  O321  1  0.83556468  0.67947000  0.16722834  1
  O2-  O322  1  0.83229024  0.69031796  0.50191940  1
  O2-  O323  1  0.84269100  0.68457101  0.82648694  1
  O2-  O324  1  0.00938419  0.32266898  0.17238450  1
  O2-  O325  1  -0.00177517  0.31617019  0.49596183  1
  O2-  O326  1  -0.00306056  0.31519659  0.83326984  1
  O2-  O327  1  -0.00088635  0.82348070  0.16166956  1
  O2-  O328  1  0.00275064  0.81553119  0.50360098  1
  O2-  O329  1  0.00161478  0.82392649  0.83468108  1
  O2-  O330  1  0.33421777  0.31966498  0.16382843  1
  O2-  O331  1  0.32483310  0.31943276  0.48875742  1
  O2-  O332  1  0.33128054  0.32276997  0.83129837  1
  O2-  O333  1  0.33392330  0.81367767  0.16225686  1
  O2-  O334  1  0.33428339  0.82232311  0.50054931  1
  O2-  O335  1  0.33338257  0.81819709  0.83379472  1
  O2-  O336  1  0.66793906  0.31963192  0.17214476  1
  O2-  O337  1  0.66765400  0.32092791  0.49989339  1
  O2-  O338  1  0.65799584  0.31557885  0.82728897  1
  O2-  O339  1  0.66738271  0.82177886  0.16753882  1
  O2-  O340  1  0.66332935  0.82310721  0.49620955  1
  O2-  O341  1  0.65854444  0.83284425  0.82248805  1
  O2-  O342  1  0.17110382  0.32668215  0.16238078  1
  O2-  O343  1  0.16480795  0.32783181  0.49766236  1
  O2-  O344  1  0.16827313  0.32006995  0.83366739  1
  O2-  O345  1  0.17481134  0.82403244  0.15944742  1
  O2-  O346  1  0.16719913  0.82226761  0.49807394  1
  O2-  O347  1  0.16867926  0.82991033  0.83125861  1
  O2-  O348  1  0.49897527  0.30694840  0.16475973  1
  O2-  O349  1  0.48789753  0.31350183  0.50064728  1
  O2-  O350  1  0.50275908  0.32025916  0.83191807  1
  O2-  O351  1  0.50476789  0.81255428  0.16219836  1
  O2-  O352  1  0.49840001  0.81911454  0.50288287  1
  O2-  O353  1  0.49323312  0.81840078  0.83862643  1
  O2-  O354  1  0.83211804  0.32848548  0.17127200  1
  O2-  O355  1  0.82474142  0.31661086  0.50808072  1
  O2-  O356  1  0.83651250  0.31135446  0.83418782  1
  O2-  O357  1  0.84249213  0.82385490  0.16163209  1
  O2-  O358  1  0.82777317  0.82446889  0.50323921  1
  O2-  O359  1  0.82934638  0.81892137  0.83338558  1
  O2-  O360  1  0.07883395  0.08147124  0.09103136  1
  O2-  O361  1  0.04681375  0.05972635  0.46900497  1
  O2-  O362  1  0.06596860  0.07861933  0.80082264  1
  O2-  O363  1  0.07514072  0.58276805  0.10136647  1
  O2-  O364  1  0.07760448  0.57804272  0.46195122  1
  O2-  O365  1  0.07904961  0.58111351  0.78520656  1
  O2-  O366  1  0.42515022  0.08023248  0.10433068  1
  O2-  O367  1  0.43145389  0.07855029  0.45403329  1
  O2-  O368  1  0.42375951  0.08130401  0.78988099  1
  O2-  O369  1  0.42420952  0.56993947  0.11028163  1
  O2-  O370  1  0.41133441  0.57601450  0.47324597  1
  O2-  O371  1  0.40575104  0.58553759  0.76344824  1
  O2-  O372  1  0.73971441  0.08514840  0.08981217  1
  O2-  O373  1  0.74860646  0.08332643  0.45450778  1
  O2-  O374  1  0.75733112  0.07857704  0.80813325  1
  O2-  O375  1  0.75480898  0.56781468  0.11134759  1
  O2-  O376  1  0.75221780  0.58790531  0.44787948  1
  O2-  O377  1  0.76425426  0.58153464  0.78896132  1
  O2-  O378  1  0.26006298  0.06526364  0.20391337  1
  O2-  O379  1  0.24590254  0.07419706  0.55683895  1
  O2-  O380  1  0.24006940  0.08272222  0.89724761  1
  O2-  O381  1  0.25995571  0.58163107  0.21171716  1
  O2-  O382  1  0.26015942  0.58283677  0.56123511  1
  O2-  O383  1  0.26448371  0.58748094  0.89205766  1
  O2-  O384  1  0.55994821  0.07187658  0.21696504  1
  O2-  O385  1  0.59660800  0.07850610  0.55015997  1
  O2-  O386  1  0.60176051  0.08835841  0.89025792  1
  O2-  O387  1  0.57312446  0.58291515  0.21518374  1
  O2-  O388  1  0.57990145  0.58080987  0.54428908  1
  O2-  O389  1  0.57864747  0.58095724  0.89439438  1
  O2-  O390  1  0.90520261  0.07310811  0.24065832  1
  O2-  O391  1  0.89648341  0.08284394  0.54247038  1
  O2-  O392  1  0.90577226  0.08340900  0.88828864  1
  O2-  O393  1  0.91776700  0.58205632  0.20588440  1
  O2-  O394  1  0.91935181  0.58171368  0.54860031  1
  O2-  O395  1  0.92184193  0.58060572  0.88846414  1
  O2-  O396  1  0.08993830  0.41664966  0.08819490  1
  O2-  O397  1  0.06496279  0.41918810  0.45039878  1
  O2-  O398  1  0.07618945  0.41883990  0.78770070  1
  O2-  O399  1  0.08563511  0.91609094  0.11708679  1
  O2-  O400  1  0.09178926  0.92260815  0.45252601  1
  O2-  O401  1  0.07387969  0.92251395  0.77738845  1
  O2-  O402  1  0.43520711  0.41015570  0.10142530  1
  O2-  O403  1  0.41289922  0.41439103  0.43465145  1
  O2-  O404  1  0.43259170  0.41750421  0.78461420  1
  O2-  O405  1  0.38313160  0.92111746  0.09382992  1
  O2-  O406  1  0.41763551  0.91849748  0.44400628  1
  O2-  O407  1  0.41483482  0.92408408  0.78728969  1
  O2-  O408  1  0.72990642  0.41528799  0.11391773  1
  O2-  O409  1  0.77122340  0.42008533  0.44913409  1
  O2-  O410  1  0.73259999  0.41504259  0.76557970  1
  O2-  O411  1  0.76042591  0.91983469  0.12384723  1
  O2-  O412  1  0.73856003  0.92114830  0.43435218  1
  O2-  O413  1  0.76651666  0.91765866  0.77060026  1
  O2-  O414  1  0.25799985  0.41978874  0.22150049  1
  O2-  O415  1  0.23827933  0.41635888  0.56008549  1
  O2-  O416  1  0.25652917  0.41698896  0.88465434  1
  O2-  O417  1  0.24749886  0.92624112  0.21780591  1
  O2-  O418  1  0.26008888  0.91891304  0.55031630  1
  O2-  O419  1  0.26984341  0.92006890  0.88427257  1
  O2-  O420  1  0.57213256  0.41373813  0.22151469  1
  O2-  O421  1  0.60299800  0.41258578  0.57261652  1
  O2-  O422  1  0.58406363  0.42513169  0.88430057  1
  O2-  O423  1  0.59285703  0.92653427  0.22218995  1
  O2-  O424  1  0.57406541  0.92254800  0.55068955  1
  O2-  O425  1  0.56473069  0.91942171  0.88145442  1
  O2-  O426  1  0.91234679  0.41413760  0.23829369  1
  O2-  O427  1  0.90435876  0.41205391  0.57345865  1
  O2-  O428  1  0.92624418  0.42196656  0.88375490  1
  O2-  O429  1  0.91985612  0.92065877  0.22423071  1
  O2-  O430  1  0.91836970  0.92356815  0.57941807  1
  O2-  O431  1  0.91153544  0.92404322  0.87271097  1
  O2-  O432  1  -0.00250102  -0.02162187  0.00187640  1
  O2-  O433  1  0.00951508  0.00600258  0.32879139  1
  O2-  O434  1  -0.01284578  0.00189347  0.68794252  1
  O2-  O435  1  0.00712507  0.50375944  -0.03622071  1
  O2-  O436  1  0.01019624  0.50811634  0.31133459  1
  O2-  O437  1  -0.00143811  0.51546416  0.66766111  1
  O2-  O438  1  0.34027610  -0.00013078  -0.01746326  1
  O2-  O439  1  0.34310670  0.00811117  0.31827623  1
  O2-  O440  1  0.33453151  -0.00868856  0.66252920  1
  O2-  O441  1  0.32386780  0.49074406  0.00669552  1
  O2-  O442  1  0.33983732  0.50949247  0.33432904  1
  O2-  O443  1  0.33834567  0.50463974  0.66357393  1
  O2-  O444  1  0.67056353  -0.00169693  -0.01093567  1
  O2-  O445  1  0.66703598  0.01248592  0.31696310  1
  O2-  O446  1  0.67718109  -0.00934610  0.64099712  1
  O2-  O447  1  0.64659294  0.50273142  0.00923868  1
  O2-  O448  1  0.67658934  0.51450604  0.31645657  1
  O2-  O449  1  0.67986926  0.49972275  0.65666501  1
  O2-  O450  1  0.16942602  -0.01750520  -0.00849674  1
  O2-  O451  1  0.16925184  -0.00899247  0.33097598  1
  O2-  O452  1  0.14633925  -0.00525764  0.63957851  1
  O2-  O453  1  0.15267489  0.50313578  -0.03761127  1
  O2-  O454  1  0.17555510  0.51354803  0.33236070  1
  O2-  O455  1  0.14728282  0.50310611  0.62991760  1
  O2-  O456  1  0.49341821  -0.00576290  -0.01822782  1
  O2-  O457  1  0.50972761  0.00220299  0.33774692  1
  O2-  O458  1  0.49860814  -0.01000773  0.66288433  1
  O2-  O459  1  0.48648609  0.49986113  -0.02802348  1
  O2-  O460  1  0.50788671  0.50931287  0.33671367  1
  O2-  O461  1  0.50836129  0.49926311  0.67823815  1
  O2-  O462  1  0.82568770  0.00433216  -0.00408480  1
  O2-  O463  1  0.82882751  0.02472439  0.31486768  1
  O2-  O464  1  0.83608922  0.00801795  0.66414823  1
  O2-  O465  1  0.83667621  0.51126791  -0.00039736  1
  O2-  O466  1  0.83969220  0.50695931  0.32730591  1
  O2-  O467  1  0.84050458  0.50395388  0.67932703  1
  O2-  O468  1  0.75162226  0.75865553  0.06942483  1
  O2-  O469  1  0.40875483  0.24213659  0.39138560  1
  O2-  O470  1  0.41622739  0.75156888  0.39175525  1
  O2-  O471  1  0.58661925  0.75386306  0.27578098  1
  O2-  O472  1  0.73301220  0.75124001  0.72002183  1
  O2-  O473  1  0.09327378  0.25003473  0.06945386  1
  O2-  O474  1  0.25444538  0.25396543  0.59878312  1
  O2-  O475  1  0.08951649  0.75095807  0.73058178  1
  O2-  O476  1  0.09057893  0.25571554  0.38984419  1
  O2-  O477  1  0.09159423  0.74957761  0.05615410  1
  O2-  O478  1  0.92230719  0.75185339  0.94028139  1
  O2-  O479  1  0.24006995  0.74889215  0.27907688  1
  O2-  O480  1  0.59739546  0.75070048  0.61360032  1
  O2-  O481  1  0.57864349  0.24705564  0.60209574  1
  O2-  O482  1  0.74717464  0.75293709  0.38969378  1
  O2-  O483  1  0.24958532  0.25164841  0.94436000  1
  O2-  O484  1  0.24381794  0.25240963  0.26861314  1
  O2-  O485  1  0.75724478  0.25216577  0.08332269  1
  O2-  O486  1  0.92202536  0.75261741  0.27851101  1
  O2-  O487  1  0.09196950  0.75188153  0.38400651  1
  O2-  O488  1  0.22851560  0.75315244  0.94261918  1
  O2-  O489  1  0.92018729  0.24940394  0.25799044  1
  O2-  O490  1  0.41228916  0.24855227  0.72778514  1
  O2-  O491  1  0.59826416  0.75295753  0.93776692  1
  O2-  O492  1  0.23646686  0.75502227  0.60297639  1
