# generated using pymatgen
data_Ca108Mn108O277
_symmetry_space_group_name_H-M   'P 1'
_cell_length_a   16.03432657
_cell_length_b   22.31604196
_cell_length_c   16.39466688
_cell_angle_alpha   89.99641141
_cell_angle_beta   89.99519703
_cell_angle_gamma   90.00117539
_symmetry_Int_Tables_number   1
_chemical_formula_structural   Ca108Mn108O277
_chemical_formula_sum   'Ca108 Mn108 O277'
_cell_volume   5866.38401025
_cell_formula_units_Z   1
loop_
 _symmetry_equiv_pos_site_id
 _symmetry_equiv_pos_as_xyz
  1  'x, y, z'
loop_
 _atom_type_symbol
 _atom_type_oxidation_number
  Ca2+  2.0
  Mn3.34+  3.34
  O2-  -2.0
loop_
 _atom_site_type_symbol
 _atom_site_label
 _atom_site_symmetry_multiplicity
 _atom_site_fract_x
 _atom_site_fract_y
 _atom_site_fract_z
 _atom_site_occupancy
  Ca2+  Ca0  1  0.06186547  0.24429127  0.25828826  1
  Ca2+  Ca1  1  0.05815255  0.22062006  0.57386280  1
  Ca2+  Ca2  1  0.06715346  0.25689913  0.91529285  1
  Ca2+  Ca3  1  0.08229789  0.74895227  0.24919584  1
  Ca2+  Ca4  1  0.07710662  0.76527483  0.58820868  1
  Ca2+  Ca5  1  0.08970338  0.74885772  0.91527589  1
  Ca2+  Ca6  1  0.41926753  0.25667657  0.26759919  1
  Ca2+  Ca7  1  0.41900601  0.24413624  0.56423083  1
  Ca2+  Ca8  1  0.42890128  0.26104208  0.90891729  1
  Ca2+  Ca9  1  0.41347022  0.75421468  0.23961230  1
  Ca2+  Ca10  1  0.42340720  0.75170697  0.57638541  1
  Ca2+  Ca11  1  0.41325508  0.74909821  0.92497391  1
  Ca2+  Ca12  1  0.77134980  0.25189661  0.25809823  1
  Ca2+  Ca13  1  0.76931526  0.23378044  0.58797736  1
  Ca2+  Ca14  1  0.75222352  0.25594752  0.89612369  1
  Ca2+  Ca15  1  0.76362779  0.74531330  0.26557567  1
  Ca2+  Ca16  1  0.75273269  0.76603272  0.57211648  1
  Ca2+  Ca17  1  0.74706684  0.76547629  0.91748039  1
  Ca2+  Ca18  1  0.24183489  0.25592405  0.08099607  1
  Ca2+  Ca19  1  0.25860157  0.24646663  0.42507470  1
  Ca2+  Ca20  1  0.24586739  0.24815281  0.74319634  1
  Ca2+  Ca21  1  0.26737584  0.73816423  0.08865632  1
  Ca2+  Ca22  1  0.24408337  0.76700836  0.40519800  1
  Ca2+  Ca23  1  0.24164697  0.75133402  0.75616772  1
  Ca2+  Ca24  1  0.57635359  0.26386548  0.07831977  1
  Ca2+  Ca25  1  0.57133516  0.25021683  0.42233113  1
  Ca2+  Ca26  1  0.58926225  0.25559877  0.75158419  1
  Ca2+  Ca27  1  0.55984342  0.75245019  0.08894048  1
  Ca2+  Ca28  1  0.58542689  0.75339551  0.41483811  1
  Ca2+  Ca29  1  0.55700928  0.74822105  0.74004914  1
  Ca2+  Ca30  1  0.92887225  0.25289608  0.09323506  1
  Ca2+  Ca31  1  0.91422991  0.23886328  0.41515534  1
  Ca2+  Ca32  1  0.91887058  0.22978368  0.73525553  1
  Ca2+  Ca33  1  0.93370525  0.74641191  0.11036191  1
  Ca2+  Ca34  1  0.92494700  0.74775824  0.39819758  1
  Ca2+  Ca35  1  0.94424754  0.74903750  0.74949578  1
  Ca2+  Ca36  1  0.74563729  0.08789347  0.91829427  1
  Ca2+  Ca37  1  0.24581153  0.60325604  0.77401663  1
  Ca2+  Ca38  1  0.22567425  0.58636797  0.40320428  1
  Ca2+  Ca39  1  0.22724804  0.10344669  0.42930125  1
  Ca2+  Ca40  1  0.06004370  0.59298561  0.24558180  1
  Ca2+  Ca41  1  0.58827442  0.60299465  0.40108760  1
  Ca2+  Ca42  1  0.93679115  0.09753620  0.10637707  1
  Ca2+  Ca43  1  0.25457781  0.60576767  0.76947519  1
  Ca2+  Ca44  1  0.42086189  0.07946594  0.92660105  1
  Ca2+  Ca45  1  0.40524161  0.10130823  0.56853831  1
  Ca2+  Ca46  1  0.07869202  0.09336625  0.91698998  1
  Ca2+  Ca47  1  0.55480484  0.58997782  0.75105736  1
  Ca2+  Ca48  1  0.56089018  0.59516592  0.09177354  1
  Ca2+  Ca49  1  0.58846766  0.09896987  0.76099126  1
  Ca2+  Ca50  1  0.24413774  0.08415451  0.72742321  1
  Ca2+  Ca51  1  0.78683486  0.59816279  0.25903293  1
  Ca2+  Ca52  1  0.07587896  0.60691667  0.89447940  1
  Ca2+  Ca53  1  0.43313603  0.59222065  0.59478163  1
  Ca2+  Ca54  1  0.41199306  0.09113620  0.27398077  1
  Ca2+  Ca55  1  0.93945634  0.58495162  0.07196508  1
  Ca2+  Ca56  1  0.58256407  0.06474596  0.05203415  1
  Ca2+  Ca57  1  0.92436258  0.09766636  0.10506821  1
  Ca2+  Ca58  1  0.57606784  0.10253015  0.41740593  1
  Ca2+  Ca59  1  0.60006665  0.09901446  0.76182934  1
  Ca2+  Ca60  1  0.23234826  0.08354533  0.72846149  1
  Ca2+  Ca61  1  0.07110831  0.57311147  0.61626475  1
  Ca2+  Ca62  1  0.77069407  0.09273299  0.27986434  1
  Ca2+  Ca63  1  0.42449913  0.61314765  0.22429037  1
  Ca2+  Ca64  1  0.57192142  0.06684313  0.05218643  1
  Ca2+  Ca65  1  0.39686911  0.58073357  0.98169939  1
  Ca2+  Ca66  1  0.74895869  0.57502367  0.93831440  1
  Ca2+  Ca67  1  0.42144639  0.59341825  0.59606821  1
  Ca2+  Ca68  1  0.05325851  0.59803536  0.24953826  1
  Ca2+  Ca69  1  0.73902651  0.59558596  0.57632898  1
  Ca2+  Ca70  1  0.58654451  0.10199214  0.41680151  1
  Ca2+  Ca71  1  0.59907548  0.60208290  0.40244442  1
  Ca2+  Ca72  1  0.24291675  0.90815157  0.75150051  1
  Ca2+  Ca73  1  0.59439546  0.39203109  0.41786831  1
  Ca2+  Ca74  1  0.43479520  0.42812648  0.93818470  1
  Ca2+  Ca75  1  0.22862309  0.39863643  0.40320554  1
  Ca2+  Ca76  1  0.22709416  0.41570444  0.75300685  1
  Ca2+  Ca77  1  0.75123787  0.39670767  0.57508955  1
  Ca2+  Ca78  1  0.56981588  0.42664681  0.06218757  1
  Ca2+  Ca79  1  0.41703146  0.90413712  0.57329415  1
  Ca2+  Ca80  1  0.73460028  0.41433606  0.93324801  1
  Ca2+  Ca81  1  0.91610284  0.89963669  0.08626378  1
  Ca2+  Ca82  1  0.08454760  0.90204836  0.91976310  1
  Ca2+  Ca83  1  0.08129828  0.42199224  0.93248994  1
  Ca2+  Ca84  1  0.23150451  0.90767373  0.75262026  1
  Ca2+  Ca85  1  0.23942933  0.41300613  0.75179348  1
  Ca2+  Ca86  1  0.75175745  0.90231712  0.25791111  1
  Ca2+  Ca87  1  0.42089685  0.39648038  0.57803955  1
  Ca2+  Ca88  1  0.08182327  0.40469535  0.57572047  1
  Ca2+  Ca89  1  0.76388120  0.90418029  0.25902583  1
  Ca2+  Ca90  1  0.40537038  0.90452410  0.57137285  1
  Ca2+  Ca91  1  0.92187396  0.41201805  0.09062309  1
  Ca2+  Ca92  1  0.25683365  0.41525366  0.07470733  1
  Ca2+  Ca93  1  0.08684937  0.91001923  0.25519449  1
  Ca2+  Ca94  1  0.24445652  0.41308136  0.07411894  1
  Ca2+  Ca95  1  0.94185927  0.41486009  0.74774866  1
  Ca2+  Ca96  1  0.90946828  0.91636984  0.71652166  1
  Ca2+  Ca97  1  0.92293516  0.40772144  0.40049434  1
  Ca2+  Ca98  1  0.09737103  0.91015134  0.25455527  1
  Ca2+  Ca99  1  0.59042989  0.89893471  0.41234071  1
  Ca2+  Ca100  1  0.59568259  0.89727726  0.76053839  1
  Ca2+  Ca101  1  0.58350030  0.40320509  0.76428686  1
  Ca2+  Ca102  1  0.93307034  0.41265822  0.09066402  1
  Ca2+  Ca103  1  0.07073809  0.40609254  0.57476908  1
  Ca2+  Ca104  1  0.71818093  0.92377438  0.93075461  1
  Ca2+  Ca105  1  0.93176099  0.41103697  0.74608464  1
  Ca2+  Ca106  1  0.26620772  0.90277893  0.08439456  1
  Ca2+  Ca107  1  0.44719711  0.92770368  0.95817204  1
  Mn3.34+  Mn108  1  0.08538417  0.33448822  0.08783187  1
  Mn3.34+  Mn109  1  0.08295198  0.33017375  0.41384375  1
  Mn3.34+  Mn110  1  0.08270859  0.32702744  0.75286859  1
  Mn3.34+  Mn111  1  0.08646559  0.83275141  0.08378034  1
  Mn3.34+  Mn112  1  0.08050612  0.83701002  0.42268581  1
  Mn3.34+  Mn113  1  0.07818184  0.83272855  0.74856021  1
  Mn3.34+  Mn114  1  0.41491536  0.33349437  0.09156945  1
  Mn3.34+  Mn115  1  0.41676980  0.32860824  0.41345640  1
  Mn3.34+  Mn116  1  0.41487893  0.33457575  0.74922958  1
  Mn3.34+  Mn117  1  0.41917422  0.83634186  0.08704248  1
  Mn3.34+  Mn118  1  0.41608886  0.83379173  0.40737401  1
  Mn3.34+  Mn119  1  0.41569474  0.83090082  0.75446183  1
  Mn3.34+  Mn120  1  0.74841894  0.33739351  0.09202259  1
  Mn3.34+  Mn121  1  0.75002294  0.32846747  0.41578905  1
  Mn3.34+  Mn122  1  0.75231614  0.33550729  0.74944483  1
  Mn3.34+  Mn123  1  0.74733484  0.83050648  0.08579939  1
  Mn3.34+  Mn124  1  0.75469363  0.83745097  0.42059045  1
  Mn3.34+  Mn125  1  0.75627488  0.83653657  0.75253131  1
  Mn3.34+  Mn126  1  0.24727549  0.32909820  0.24832351  1
  Mn3.34+  Mn127  1  0.25036541  0.32920438  0.57940554  1
  Mn3.34+  Mn128  1  0.25098239  0.33099673  0.91241434  1
  Mn3.34+  Mn129  1  0.25388055  0.83457456  0.24839134  1
  Mn3.34+  Mn130  1  0.24262902  0.84078764  0.57692120  1
  Mn3.34+  Mn131  1  0.25454124  0.83551578  0.91815450  1
  Mn3.34+  Mn132  1  0.58934816  0.33053684  0.24552370  1
  Mn3.34+  Mn133  1  0.58490003  0.33199104  0.58599759  1
  Mn3.34+  Mn134  1  0.58263364  0.33632213  0.91826134  1
  Mn3.34+  Mn135  1  0.58391674  0.82864294  0.24397912  1
  Mn3.34+  Mn136  1  0.58814672  0.83358559  0.58461969  1
  Mn3.34+  Mn137  1  0.58123908  0.83448101  0.91819564  1
  Mn3.34+  Mn138  1  0.91678276  0.33049918  0.25332215  1
  Mn3.34+  Mn139  1  0.91439465  0.32827354  0.57695268  1
  Mn3.34+  Mn140  1  0.91276677  0.33439864  0.91678547  1
  Mn3.34+  Mn141  1  0.92074846  0.83217706  0.25245219  1
  Mn3.34+  Mn142  1  0.91652325  0.84217976  0.57522724  1
  Mn3.34+  Mn143  1  0.91653485  0.82906973  0.91514001  1
  Mn3.34+  Mn144  1  0.75590611  0.16129314  0.42853981  1
  Mn3.34+  Mn145  1  0.24570607  0.16869347  0.57873548  1
  Mn3.34+  Mn146  1  0.23810355  0.66740987  0.57618458  1
  Mn3.34+  Mn147  1  0.08683282  0.66488484  0.08519119  1
  Mn3.34+  Mn148  1  0.58158685  0.17043138  0.91535207  1
  Mn3.34+  Mn149  1  0.25001001  0.66783019  0.24775797  1
  Mn3.34+  Mn150  1  0.25682229  0.17001929  0.91765758  1
  Mn3.34+  Mn151  1  0.24996700  0.67299101  0.57983154  1
  Mn3.34+  Mn152  1  0.57679091  0.66027118  0.91033682  1
  Mn3.34+  Mn153  1  0.92731565  0.66752550  0.58187247  1
  Mn3.34+  Mn154  1  0.08385066  0.16990623  0.08305969  1
  Mn3.34+  Mn155  1  0.40939956  0.16233992  0.09391374  1
  Mn3.34+  Mn156  1  0.08191701  0.66533279  0.41950365  1
  Mn3.34+  Mn157  1  0.58814397  0.16938104  0.58453259  1
  Mn3.34+  Mn158  1  0.91695608  0.67195281  0.91727152  1
  Mn3.34+  Mn159  1  0.58749675  0.66704819  0.91236048  1
  Mn3.34+  Mn160  1  0.75140529  0.66947986  0.75519764  1
  Mn3.34+  Mn161  1  0.91453317  0.66082736  0.57859443  1
  Mn3.34+  Mn162  1  0.75958696  0.16517337  0.74744220  1
  Mn3.34+  Mn163  1  0.58540431  0.16980953  0.24574296  1
  Mn3.34+  Mn164  1  0.24787601  0.16426415  0.91518662  1
  Mn3.34+  Mn165  1  0.58657887  0.66901527  0.58114676  1
  Mn3.34+  Mn166  1  0.75208138  0.66916479  0.08807358  1
  Mn3.34+  Mn167  1  0.41830652  0.17178782  0.74584282  1
  Mn3.34+  Mn168  1  0.25152902  0.66964075  0.92421825  1
  Mn3.34+  Mn169  1  0.24336879  0.16298214  0.24689515  1
  Mn3.34+  Mn170  1  0.42209238  0.16908943  0.09114805  1
  Mn3.34+  Mn171  1  0.74691073  0.17315612  0.08130518  1
  Mn3.34+  Mn172  1  0.75768273  0.67049562  0.41618919  1
  Mn3.34+  Mn173  1  0.23371393  0.15724633  0.24701770  1
  Mn3.34+  Mn174  1  0.07672497  0.16501805  0.74710705  1
  Mn3.34+  Mn175  1  0.74691594  0.16903025  0.09224478  1
  Mn3.34+  Mn176  1  0.76044085  0.67521376  0.75255697  1
  Mn3.34+  Mn177  1  0.41202265  0.66849674  0.41311404  1
  Mn3.34+  Mn178  1  0.74366320  0.67536029  0.08591318  1
  Mn3.34+  Mn179  1  0.91647722  0.16820213  0.91264393  1
  Mn3.34+  Mn180  1  0.09359826  0.00294993  0.07578729  1
  Mn3.34+  Mn181  1  0.07955488  -0.00014189  0.40552167  1
  Mn3.34+  Mn182  1  0.24637584  0.00235270  0.92870139  1
  Mn3.34+  Mn183  1  0.91192906  -0.00232154  0.90549702  1
  Mn3.34+  Mn184  1  0.57660658  -0.00385358  0.24459139  1
  Mn3.34+  Mn185  1  0.90676059  -0.00263667  0.27655449  1
  Mn3.34+  Mn186  1  0.25455990  0.49800449  0.24468055  1
  Mn3.34+  Mn187  1  0.24223503  0.50451647  0.24584899  1
  Mn3.34+  Mn188  1  0.75187460  0.50015169  0.41795829  1
  Mn3.34+  Mn189  1  0.91120832  0.49568425  0.57455060  1
  Mn3.34+  Mn190  1  0.59330787  0.49396495  0.24523461  1
  Mn3.34+  Mn191  1  0.43104184  -0.00444909  0.75196489  1
  Mn3.34+  Mn192  1  0.07338298  0.00104620  0.73919129  1
  Mn3.34+  Mn193  1  0.58591206  0.49738850  0.58308388  1
  Mn3.34+  Mn194  1  0.75559288  0.00046711  0.08861194  1
  Mn3.34+  Mn195  1  0.24141697  0.50298241  0.92563053  1
  Mn3.34+  Mn196  1  0.40947023  0.50011106  0.41682466  1
  Mn3.34+  Mn197  1  0.74419540  0.50364867  0.75053433  1
  Mn3.34+  Mn198  1  0.75896975  0.50878429  0.75074853  1
  Mn3.34+  Mn199  1  0.42385951  0.49426311  0.41466621  1
  Mn3.34+  Mn200  1  0.91997249  0.50461550  0.92189575  1
  Mn3.34+  Mn201  1  0.25995058  -0.00014034  0.26227865  1
  Mn3.34+  Mn202  1  0.19368666  0.00107753  0.56107315  1
  Mn3.34+  Mn203  1  0.92345527  0.00272963  0.90676697  1
  Mn3.34+  Mn204  1  0.74783121  0.50077704  0.08742891  1
  Mn3.34+  Mn205  1  0.91902518  0.49673673  0.26660160  1
  Mn3.34+  Mn206  1  0.41373478  0.49788495  0.75337840  1
  Mn3.34+  Mn207  1  0.42000823  0.00116491  0.75190281  1
  Mn3.34+  Mn208  1  0.61825327  0.00087285  0.58727600  1
  Mn3.34+  Mn209  1  0.40961683  -0.00105838  0.40906731  1
  Mn3.34+  Mn210  1  0.60740355  -0.00097269  0.58466632  1
  Mn3.34+  Mn211  1  0.75927049  0.00161838  0.74088017  1
  Mn3.34+  Mn212  1  0.58086984  0.50013007  0.24248096  1
  Mn3.34+  Mn213  1  0.58867395  0.00353915  0.24683789  1
  Mn3.34+  Mn214  1  0.25711448  0.49480468  0.56750515  1
  Mn3.34+  Mn215  1  0.24229179  0.50071282  0.56857008  1
  O2-  O216  1  -0.00370308  0.14967208  0.00028131  1
  O2-  O217  1  0.00969877  0.17962344  0.35284608  1
  O2-  O218  1  0.00084991  0.15481474  0.67248573  1
  O2-  O219  1  -0.00487247  0.66305556  0.00475060  1
  O2-  O220  1  0.00192851  0.65368505  0.34289775  1
  O2-  O221  1  0.00115533  0.65410796  0.66293112  1
  O2-  O222  1  0.33401083  0.14911938  0.00143051  1
  O2-  O223  1  0.32099479  0.16027121  0.33007538  1
  O2-  O224  1  0.32919763  0.15094109  0.67604134  1
  O2-  O225  1  0.33292546  0.67657367  -0.00458301  1
  O2-  O226  1  0.32583920  0.64880670  0.34027693  1
  O2-  O227  1  0.32395622  0.64192884  0.66141478  1
  O2-  O228  1  0.66285547  0.15189306  0.00725135  1
  O2-  O229  1  0.66015750  0.16884031  0.33632357  1
  O2-  O230  1  0.66587365  0.15464753  0.67261106  1
  O2-  O231  1  0.66695046  0.65135406  -0.00017500  1
  O2-  O232  1  0.67484888  0.66472202  0.33561521  1
  O2-  O233  1  0.66743507  0.65327059  0.67193933  1
  O2-  O234  1  0.16429607  0.16166514  -0.00351679  1
  O2-  O235  1  0.16581679  0.18218408  0.33186435  1
  O2-  O236  1  0.16772429  0.15676210  0.67115315  1
  O2-  O237  1  0.16142089  0.67008760  -0.00454598  1
  O2-  O238  1  0.15534222  0.64800041  0.32563808  1
  O2-  O239  1  0.16709917  0.64412390  0.65990791  1
  O2-  O240  1  0.49990606  0.14750675  0.00313584  1
  O2-  O241  1  0.50540033  0.15714442  0.32497806  1
  O2-  O242  1  0.50536716  0.13756594  0.66346149  1
  O2-  O243  1  0.50020500  0.65079025  -0.00790398  1
  O2-  O244  1  0.49582580  0.65700263  0.33841905  1
  O2-  O245  1  0.50387723  0.65484395  0.66037286  1
  O2-  O246  1  0.83044848  0.14648132  0.00457163  1
  O2-  O247  1  0.81882078  0.17666570  0.34171487  1
  O2-  O248  1  0.83381594  0.15834601  0.67103812  1
  O2-  O249  1  0.82644496  0.67158829  -0.00175119  1
  O2-  O250  1  0.83765057  0.66457480  0.34261933  1
  O2-  O251  1  0.83423709  0.65058192  0.66728063  1
  O2-  O252  1  -0.00027354  0.35107893  -0.00005224  1
  O2-  O253  1  -0.00025396  0.33777491  0.33475712  1
  O2-  O254  1  0.00143514  0.34954219  0.66360549  1
  O2-  O255  1  -0.00028169  0.84398258  0.00122104  1
  O2-  O256  1  0.00529711  0.84947781  0.32787572  1
  O2-  O257  1  -0.00496661  0.84024703  0.67137939  1
  O2-  O258  1  0.32846671  0.33740696  -0.00066522  1
  O2-  O259  1  0.32661495  0.33434818  0.33636074  1
  O2-  O260  1  0.32520954  0.35952141  0.67028751  1
  O2-  O261  1  0.33610092  0.83137074  -0.00329024  1
  O2-  O262  1  0.33765738  0.83514812  0.32596957  1
  O2-  O263  1  0.33209297  0.85889267  0.67168486  1
  O2-  O264  1  0.66499278  0.34066355  0.00736101  1
  O2-  O265  1  0.66635288  0.31049117  0.33555429  1
  O2-  O266  1  0.66742970  0.35190593  0.67008609  1
  O2-  O267  1  0.67411696  0.83756231  -0.00569755  1
  O2-  O268  1  0.67133943  0.82204261  0.32441490  1
  O2-  O269  1  0.66493031  0.82948472  0.67307092  1
  O2-  O270  1  0.16930349  0.34151858  -0.00029434  1
  O2-  O271  1  0.16703914  0.31460759  0.33415932  1
  O2-  O272  1  0.16590841  0.35220045  0.66524157  1
  O2-  O273  1  0.16993515  0.84270601  0.00143286  1
  O2-  O274  1  0.16909109  0.84620387  0.33208882  1
  O2-  O275  1  0.16495065  0.85196359  0.66626837  1
  O2-  O276  1  0.49729963  0.34715469  0.00371818  1
  O2-  O277  1  0.50818957  0.33374987  0.33553202  1
  O2-  O278  1  0.50113868  0.35632090  0.67133900  1
  O2-  O279  1  0.50131465  0.83873174  0.00057695  1
  O2-  O280  1  0.51367563  0.82841096  0.33975720  1
  O2-  O281  1  0.49783075  0.85819510  0.66837153  1
  O2-  O282  1  0.83376162  0.35291418  0.00298831  1
  O2-  O283  1  0.83598153  0.33625787  0.33721208  1
  O2-  O284  1  0.84176632  0.35720911  0.66925690  1
  O2-  O285  1  0.83758897  0.81747604  0.00541756  1
  O2-  O286  1  0.83491197  0.83770960  0.33004444  1
  O2-  O287  1  0.83107595  0.82979740  0.66715663  1
  O2-  O288  1  -0.00092227  0.17728202  0.15616507  1
  O2-  O289  1  0.00344458  0.17133403  0.46906542  1
  O2-  O290  1  0.00684082  0.18253015  0.83919899  1
  O2-  O291  1  0.00584224  0.67074839  0.16818422  1
  O2-  O292  1  0.00252380  0.68908464  0.49938671  1
  O2-  O293  1  -0.00058581  0.68679447  0.84766788  1
  O2-  O294  1  0.32734527  0.19104616  0.17365298  1
  O2-  O295  1  0.33038959  0.17405117  0.50647323  1
  O2-  O296  1  0.33820837  0.19085233  0.83930091  1
  O2-  O297  1  0.33471010  0.68185756  0.18010594  1
  O2-  O298  1  0.34260553  0.67531909  0.51205083  1
  O2-  O299  1  0.31910223  0.68548345  0.83515384  1
  O2-  O300  1  0.66704144  0.19301317  0.16863385  1
  O2-  O301  1  0.66619120  0.18794635  0.49674055  1
  O2-  O302  1  0.66743651  0.17895793  0.83175924  1
  O2-  O303  1  0.66379895  0.68955851  0.16137413  1
  O2-  O304  1  0.66301259  0.67895157  0.49604761  1
  O2-  O305  1  0.66601097  0.69451143  0.83335384  1
  O2-  O306  1  0.16422804  0.18997697  0.16665396  1
  O2-  O307  1  0.17129280  0.18371642  0.50114207  1
  O2-  O308  1  0.16980901  0.18297431  0.83189806  1
  O2-  O309  1  0.16372386  0.67848685  0.17065339  1
  O2-  O310  1  0.17805272  0.69235950  0.48710360  1
  O2-  O311  1  0.16920474  0.67690070  0.83882325  1
  O2-  O312  1  0.49895126  0.19446113  0.17305811  1
  O2-  O313  1  0.51029911  0.17290641  0.50328848  1
  O2-  O314  1  0.50676762  0.18136586  0.82003381  1
  O2-  O315  1  0.50104314  0.68393198  0.16719632  1
  O2-  O316  1  0.49906781  0.67250554  0.49641998  1
  O2-  O317  1  0.50396256  0.67542122  0.82725299  1
  O2-  O318  1  0.83832550  0.18198746  0.15880779  1
  O2-  O319  1  0.83157108  0.17647774  0.49626708  1
  O2-  O320  1  0.82939460  0.18149835  0.83887457  1
  O2-  O321  1  0.83071269  0.68225778  0.16781844  1
  O2-  O322  1  0.82264861  0.67576097  0.51443061  1
  O2-  O323  1  0.83547982  0.69606134  0.83690594  1
  O2-  O324  1  -0.00501376  0.32878234  0.16061621  1
  O2-  O325  1  0.00547839  0.31701014  0.50226045  1
  O2-  O326  1  -0.00647084  0.32261148  0.82875316  1
  O2-  O327  1  0.00052494  0.83336214  0.16694913  1
  O2-  O328  1  -0.00271015  0.81905586  0.49809521  1
  O2-  O329  1  0.00751788  0.81761543  0.84109227  1
  O2-  O330  1  0.32981500  0.31001210  0.16661263  1
  O2-  O331  1  0.33834000  0.32158829  0.50401127  1
  O2-  O332  1  0.33002430  0.31401942  0.82876246  1
  O2-  O333  1  0.32439961  0.82127778  0.15944568  1
  O2-  O334  1  0.33749123  0.82593500  0.50826592  1
  O2-  O335  1  0.32614201  0.81742533  0.82814477  1
  O2-  O336  1  0.67171916  0.30513345  0.16726732  1
  O2-  O337  1  0.66511926  0.31667089  0.49910684  1
  O2-  O338  1  0.66498628  0.32271073  0.83512643  1
  O2-  O339  1  0.66790039  0.80798879  0.16507544  1
  O2-  O340  1  0.66145729  0.82215441  0.49357849  1
  O2-  O341  1  0.66736264  0.82135018  0.83175941  1
  O2-  O342  1  0.16919895  0.31522088  0.16246284  1
  O2-  O343  1  0.16580123  0.31604895  0.49869987  1
  O2-  O344  1  0.16976921  0.31221777  0.83187800  1
  O2-  O345  1  0.15885576  0.82624893  0.17445008  1
  O2-  O346  1  0.16444823  0.81766760  0.50058990  1
  O2-  O347  1  0.17008100  0.82681554  0.83288341  1
  O2-  O348  1  0.49888708  0.31532050  0.16931883  1
  O2-  O349  1  0.49971435  0.32297435  0.50288994  1
  O2-  O350  1  0.50281323  0.32396080  0.82888174  1
  O2-  O351  1  0.49606495  0.82179285  0.17215544  1
  O2-  O352  1  0.49556028  0.82845556  0.50809319  1
  O2-  O353  1  0.50161601  0.81576105  0.83082149  1
  O2-  O354  1  0.84023947  0.31952004  0.16024647  1
  O2-  O355  1  0.82642348  0.31484540  0.50357679  1
  O2-  O356  1  0.83423397  0.32756525  0.83162368  1
  O2-  O357  1  0.83133279  0.81952298  0.17138109  1
  O2-  O358  1  0.83565151  0.82534978  0.49821117  1
  O2-  O359  1  0.83874356  0.81007047  0.83105379  1
  O2-  O360  1  0.07539921  0.08526301  0.10558506  1
  O2-  O361  1  0.12092639  0.04818657  0.48183640  1
  O2-  O362  1  0.09891626  0.07928966  0.77946500  1
  O2-  O363  1  0.07770423  0.58278131  0.10916274  1
  O2-  O364  1  0.09874132  0.59017235  0.46829874  1
  O2-  O365  1  0.13608431  0.55613418  0.79290594  1
  O2-  O366  1  0.43081708  0.08452672  0.12711997  1
  O2-  O367  1  0.44907249  0.07154158  0.44687727  1
  O2-  O368  1  0.42483236  0.08142570  0.78958491  1
  O2-  O369  1  0.43375793  0.55905001  0.11249623  1
  O2-  O370  1  0.42069285  0.57717686  0.46037097  1
  O2-  O371  1  0.39797187  0.57605815  0.77901700  1
  O2-  O372  1  0.74546481  0.08257094  0.12646765  1
  O2-  O373  1  0.72793096  0.08683526  0.43206052  1
  O2-  O374  1  0.73845788  0.07960028  0.78246140  1
  O2-  O375  1  0.74870407  0.58320692  0.11382354  1
  O2-  O376  1  0.73486691  0.58316926  0.44211846  1
  O2-  O377  1  0.75676588  0.58516622  0.80135607  1
  O2-  O378  1  0.26204307  0.07908534  0.20713725  1
  O2-  O379  1  0.25441059  0.08236217  0.57006250  1
  O2-  O380  1  0.25389994  0.07873938  0.87072291  1
  O2-  O381  1  0.25483921  0.58388927  0.21801790  1
  O2-  O382  1  0.25947453  0.58077213  0.53732855  1
  O2-  O383  1  0.26158849  0.58361598  0.90946461  1
  O2-  O384  1  0.58085899  0.07918411  0.19397637  1
  O2-  O385  1  0.60192242  0.08332056  0.55166525  1
  O2-  O386  1  0.58823127  0.08598521  0.89441112  1
  O2-  O387  1  0.58975042  0.58112224  0.22750640  1
  O2-  O388  1  0.58014351  0.57922096  0.53752332  1
  O2-  O389  1  0.60400727  0.58210854  0.88108827  1
  O2-  O390  1  0.90367305  0.07292266  0.22970471  1
  O2-  O391  1  0.92022021  0.09059140  0.59374426  1
  O2-  O392  1  0.92067998  0.08393926  0.88132056  1
  O2-  O393  1  0.91660036  0.56429884  0.20540221  1
  O2-  O394  1  0.91860393  0.57979168  0.55743006  1
  O2-  O395  1  0.91082515  0.58432305  0.90286321  1
  O2-  O396  1  0.08984612  0.41445691  0.10459218  1
  O2-  O397  1  0.09028548  0.41823311  0.44531250  1
  O2-  O398  1  0.08726163  0.41257613  0.78489516  1
  O2-  O399  1  0.08582844  0.92103606  0.11280668  1
  O2-  O400  1  0.08703473  0.92174452  0.43389867  1
  O2-  O401  1  0.08850917  0.92285147  0.78266938  1
  O2-  O402  1  0.39404505  0.41249688  0.10226230  1
  O2-  O403  1  0.41891645  0.41399689  0.43970294  1
  O2-  O404  1  0.40070840  0.41900013  0.79088850  1
  O2-  O405  1  0.40448251  0.91643392  0.09269894  1
  O2-  O406  1  0.43118491  0.91921423  0.43815537  1
  O2-  O407  1  0.41397409  0.91785650  0.79349088  1
  O2-  O408  1  0.76999118  0.42374407  0.11353588  1
  O2-  O409  1  0.74322982  0.41876565  0.44000469  1
  O2-  O410  1  0.73867128  0.42639842  0.79487750  1
  O2-  O411  1  0.76380354  0.91849479  0.11575065  1
  O2-  O412  1  0.73012215  0.91535843  0.40073921  1
  O2-  O413  1  0.75792102  0.92604409  0.78844637  1
  O2-  O414  1  0.24498479  0.41812513  0.21073509  1
  O2-  O415  1  0.24733461  0.41451270  0.53689600  1
  O2-  O416  1  0.23851890  0.42253666  0.88634692  1
  O2-  O417  1  0.23584640  0.92253652  0.21741404  1
  O2-  O418  1  0.26834563  0.92622089  0.56067461  1
  O2-  O419  1  0.24696412  0.92467782  0.88574570  1
  O2-  O420  1  0.59257302  0.41619417  0.20775462  1
  O2-  O421  1  0.58749099  0.41568240  0.55061196  1
  O2-  O422  1  0.58307517  0.41790807  0.90165144  1
  O2-  O423  1  0.61537564  0.91692731  0.23710130  1
  O2-  O424  1  0.58550502  0.91858204  0.55240308  1
  O2-  O425  1  0.58282128  0.91466727  0.89294774  1
  O2-  O426  1  0.91573207  0.42073146  0.22815087  1
  O2-  O427  1  0.92108128  0.41403111  0.53611833  1
  O2-  O428  1  0.92196429  0.42630708  0.88053687  1
  O2-  O429  1  0.90388508  0.91937649  0.22582275  1
  O2-  O430  1  0.91047405  0.91758819  0.57644701  1
  O2-  O431  1  0.91679443  0.91588677  0.88708170  1
  O2-  O432  1  -0.01912425  0.00216354  0.01672573  1
  O2-  O433  1  0.01555419  -0.01024227  0.30914036  1
  O2-  O434  1  -0.01248867  -0.00247409  0.68078117  1
  O2-  O435  1  -0.01445523  0.48813085  0.01304088  1
  O2-  O436  1  0.00939602  0.50950612  0.31850108  1
  O2-  O437  1  0.00477544  0.47704196  0.65210252  1
  O2-  O438  1  0.34540423  0.00174329  -0.02904382  1
  O2-  O439  1  0.32059478  0.03189827  0.35056115  1
  O2-  O440  1  0.33168506  0.01098807  0.67782940  1
  O2-  O441  1  0.33089841  0.48607768  -0.01450439  1
  O2-  O442  1  0.33670459  0.50301270  0.32903888  1
  O2-  O443  1  0.33361565  0.50119584  0.65867307  1
  O2-  O444  1  0.67356667  0.00765578  0.00096379  1
  O2-  O445  1  0.64063200  0.02435230  0.34507879  1
  O2-  O446  1  0.64249906  0.00044625  0.70646191  1
  O2-  O447  1  0.66524684  0.49752707  0.01638927  1
  O2-  O448  1  0.65425749  0.50679420  0.34731385  1
  O2-  O449  1  0.67189376  0.52135948  0.66289263  1
  O2-  O450  1  0.13642707  0.00153854  -0.03987428  1
  O2-  O451  1  0.16532653  -0.00310994  0.32381152  1
  O2-  O452  1  0.18139616  -0.00533405  0.69444501  1
  O2-  O453  1  0.17071708  0.48320312  0.00532225  1
  O2-  O454  1  0.17691112  0.50051770  0.34017600  1
  O2-  O455  1  0.16660921  0.47575511  0.65277766  1
  O2-  O456  1  0.49575359  0.01331066  -0.01120058  1
  O2-  O457  1  0.48206434  0.00558069  0.31491725  1
  O2-  O458  1  0.49150488  -0.00323987  0.64098353  1
  O2-  O459  1  0.50133034  0.50875557  0.01372555  1
  O2-  O460  1  0.50017541  0.50816284  0.33020715  1
  O2-  O461  1  0.49632683  0.51618016  0.66628416  1
  O2-  O462  1  0.82540274  0.00718003  -0.01294429  1
  O2-  O463  1  0.79121645  -0.00486002  0.28004451  1
  O2-  O464  1  0.83550936  0.00013491  0.66972739  1
  O2-  O465  1  0.82307776  0.49899078  -0.00681544  1
  O2-  O466  1  0.83184926  0.50850375  0.33156632  1
  O2-  O467  1  0.83634280  0.48183179  0.67122003  1
  O2-  O468  1  0.91697187  0.25164441  0.60368699  1
  O2-  O469  1  0.08172701  0.24835948  0.71861974  1
  O2-  O470  1  0.08170889  0.75210616  0.38853068  1
  O2-  O471  1  0.25343663  0.75586336  0.61520133  1
  O2-  O472  1  0.41937977  0.25480975  0.71152118  1
  O2-  O473  1  0.57306707  0.75233655  0.60136245  1
  O2-  O474  1  0.91981909  0.25214830  0.26349562  1
  O2-  O475  1  0.09115029  0.75541929  0.72665498  1
  O2-  O476  1  0.41838528  0.25014969  0.40576648  1
  O2-  O477  1  0.91159216  0.24901633  0.94875759  1
  O2-  O478  1  0.26197467  0.25069290  0.61020867  1
  O2-  O479  1  0.91483621  0.74808324  0.60533979  1
  O2-  O480  1  0.57592003  0.25093169  0.94088511  1
  O2-  O481  1  0.57285139  0.24963195  0.61480633  1
  O2-  O482  1  0.75146354  0.24967216  0.72843929  1
  O2-  O483  1  0.41932149  0.75386448  0.07256471  1
  O2-  O484  1  0.76058128  0.75133497  0.40973412  1
  O2-  O485  1  0.41487739  0.24607864  0.05026988  1
  O2-  O486  1  0.07683694  0.25140238  0.05385825  1
  O2-  O487  1  0.57923197  0.74632591  0.94494728  1
  O2-  O488  1  0.24101048  0.74977566  0.27088824  1
  O2-  O489  1  0.41488086  0.75748265  0.71466064  1
  O2-  O490  1  0.07724855  0.75210039  0.06885727  1
  O2-  O491  1  0.92996594  0.75399853  0.26106514  1
  O2-  O492  1  0.41342083  0.74987475  0.40675402  1
