# generated using pymatgen
data_Ca108Mn108O277
_symmetry_space_group_name_H-M   'P 1'
_cell_length_a   16.02706874
_cell_length_b   22.30560852
_cell_length_c   16.38856389
_cell_angle_alpha   90.00509012
_cell_angle_beta   90.00177351
_cell_angle_gamma   89.99841572
_symmetry_Int_Tables_number   1
_chemical_formula_structural   Ca108Mn108O277
_chemical_formula_sum   'Ca108 Mn108 O277'
_cell_volume   5858.80538543
_cell_formula_units_Z   1
loop_
 _symmetry_equiv_pos_site_id
 _symmetry_equiv_pos_as_xyz
  1  'x, y, z'
loop_
 _atom_type_symbol
 _atom_type_oxidation_number
  Ca2+  2.0
  Mn3.34+  3.34
  O2-  -2.0
loop_
 _atom_site_type_symbol
 _atom_site_label
 _atom_site_symmetry_multiplicity
 _atom_site_fract_x
 _atom_site_fract_y
 _atom_site_fract_z
 _atom_site_occupancy
  Ca2+  Ca0  1  0.09503029  0.24284212  0.26115457  1
  Ca2+  Ca1  1  0.10699157  0.24021701  0.58857608  1
  Ca2+  Ca2  1  0.08824812  0.25397361  0.90431845  1
  Ca2+  Ca3  1  0.09361746  0.76534030  0.24532680  1
  Ca2+  Ca4  1  0.07250384  0.74966049  0.59093491  1
  Ca2+  Ca5  1  0.07534322  0.75196118  0.90842995  1
  Ca2+  Ca6  1  0.40214379  0.24685452  0.24739333  1
  Ca2+  Ca7  1  0.39697415  0.24961597  0.58329545  1
  Ca2+  Ca8  1  0.42317333  0.25095246  0.92243478  1
  Ca2+  Ca9  1  0.41381592  0.75901539  0.24473158  1
  Ca2+  Ca10  1  0.40538519  0.74579025  0.58207222  1
  Ca2+  Ca11  1  0.42607525  0.74664329  0.92422553  1
  Ca2+  Ca12  1  0.75279513  0.24673444  0.25780406  1
  Ca2+  Ca13  1  0.74275798  0.25003594  0.56193521  1
  Ca2+  Ca14  1  0.74547785  0.25628061  0.92404663  1
  Ca2+  Ca15  1  0.74138970  0.75970002  0.23150257  1
  Ca2+  Ca16  1  0.77417186  0.74817829  0.58324957  1
  Ca2+  Ca17  1  0.75090748  0.74453061  0.93348340  1
  Ca2+  Ca18  1  0.25086175  0.24991958  0.09730908  1
  Ca2+  Ca19  1  0.24144919  0.23861012  0.43238204  1
  Ca2+  Ca20  1  0.23493760  0.24712860  0.72888678  1
  Ca2+  Ca21  1  0.25186119  0.74954026  0.09009435  1
  Ca2+  Ca22  1  0.24368938  0.75328865  0.41336337  1
  Ca2+  Ca23  1  0.22532467  0.73982885  0.74110837  1
  Ca2+  Ca24  1  0.58181696  0.24211028  0.07459445  1
  Ca2+  Ca25  1  0.58811530  0.25668308  0.42134347  1
  Ca2+  Ca26  1  0.57217294  0.25335210  0.74409961  1
  Ca2+  Ca27  1  0.59615117  0.75146989  0.08649747  1
  Ca2+  Ca28  1  0.58797839  0.76945082  0.40799272  1
  Ca2+  Ca29  1  0.58383678  0.75533647  0.75388907  1
  Ca2+  Ca30  1  0.91897316  0.25104389  0.08821954  1
  Ca2+  Ca31  1  0.92556994  0.25109454  0.41415598  1
  Ca2+  Ca32  1  0.94930209  0.24997871  0.74361542  1
  Ca2+  Ca33  1  0.90342153  0.74617520  0.07554094  1
  Ca2+  Ca34  1  0.93110010  0.75122665  0.43984323  1
  Ca2+  Ca35  1  0.93702693  0.72704310  0.73941234  1
  Ca2+  Ca36  1  0.73234270  0.60095687  0.22832022  1
  Ca2+  Ca37  1  0.55546643  0.58218005  0.73951174  1
  Ca2+  Ca38  1  0.24438356  0.59273761  0.07735721  1
  Ca2+  Ca39  1  0.12136040  0.09007208  0.56367487  1
  Ca2+  Ca40  1  0.56318400  0.10316559  0.75133664  1
  Ca2+  Ca41  1  0.41473766  0.09236351  0.25435214  1
  Ca2+  Ca42  1  0.75415745  0.59822920  0.92717270  1
  Ca2+  Ca43  1  0.38325599  0.10350913  0.57092983  1
  Ca2+  Ca44  1  0.24815116  0.60163628  0.43857161  1
  Ca2+  Ca45  1  0.59093532  0.59865675  0.07231973  1
  Ca2+  Ca46  1  0.74201266  0.59942991  0.22461877  1
  Ca2+  Ca47  1  0.72104982  0.09443978  0.93772086  1
  Ca2+  Ca48  1  0.40611444  0.59453581  0.24750336  1
  Ca2+  Ca49  1  0.90859960  0.58215258  0.05181937  1
  Ca2+  Ca50  1  0.41623055  0.58125242  0.59209083  1
  Ca2+  Ca51  1  0.92514840  0.59499633  0.44934187  1
  Ca2+  Ca52  1  0.41780007  0.59411932  0.24807857  1
  Ca2+  Ca53  1  0.93960985  0.08528070  0.73528348  1
  Ca2+  Ca54  1  0.08811509  0.09295110  0.91763439  1
  Ca2+  Ca55  1  0.45883913  0.10557983  0.92063801  1
  Ca2+  Ca56  1  0.58948713  0.09012308  0.39665817  1
  Ca2+  Ca57  1  0.26656700  0.58837231  0.72307566  1
  Ca2+  Ca58  1  0.07880482  0.60663206  0.58583329  1
  Ca2+  Ca59  1  0.70893111  0.09551744  0.93403143  1
  Ca2+  Ca60  1  0.08648296  0.60989571  0.59063970  1
  Ca2+  Ca61  1  0.41449423  0.58724267  0.91647950  1
  Ca2+  Ca62  1  0.90993864  0.08824137  0.09014609  1
  Ca2+  Ca63  1  0.24632287  0.08994441  0.71521380  1
  Ca2+  Ca64  1  0.25700582  0.60001503  0.44361037  1
  Ca2+  Ca65  1  0.74472873  0.08886615  0.25114823  1
  Ca2+  Ca66  1  0.93683777  0.08537670  0.40751998  1
  Ca2+  Ca67  1  0.24207106  0.09618686  0.71180645  1
  Ca2+  Ca68  1  0.57677092  0.09021302  0.39697727  1
  Ca2+  Ca69  1  0.08109936  0.60758706  0.90124231  1
  Ca2+  Ca70  1  0.25888776  0.59166142  0.71805324  1
  Ca2+  Ca71  1  0.91993234  0.58237596  0.05130079  1
  Ca2+  Ca72  1  0.41298860  0.90190368  0.91030839  1
  Ca2+  Ca73  1  0.91539569  0.90042594  0.75033072  1
  Ca2+  Ca74  1  0.93047921  0.91492109  0.42260242  1
  Ca2+  Ca75  1  0.92970512  0.40297563  0.43033499  1
  Ca2+  Ca76  1  0.92004946  0.40867165  0.74315720  1
  Ca2+  Ca77  1  0.90956520  0.90519614  0.08299660  1
  Ca2+  Ca78  1  0.72895383  0.91748369  0.25184113  1
  Ca2+  Ca79  1  0.08985712  0.40797138  0.91972552  1
  Ca2+  Ca80  1  0.91463164  0.41212433  0.07360275  1
  Ca2+  Ca81  1  0.40022729  0.42862936  0.59485265  1
  Ca2+  Ca82  1  0.75306600  0.90320240  0.58259702  1
  Ca2+  Ca83  1  0.25473128  0.90392691  0.74119381  1
  Ca2+  Ca84  1  0.74080723  0.39322382  0.25084031  1
  Ca2+  Ca85  1  0.76576382  0.90337102  0.58267344  1
  Ca2+  Ca86  1  0.23442945  0.92208389  0.41724674  1
  Ca2+  Ca87  1  0.40897023  0.41346606  0.91693533  1
  Ca2+  Ca88  1  0.90921443  0.40820445  0.74220316  1
  Ca2+  Ca89  1  0.58028287  0.40092117  0.08006992  1
  Ca2+  Ca90  1  0.56221770  0.42134661  0.72061948  1
  Ca2+  Ca91  1  0.75398364  0.39846050  0.57901415  1
  Ca2+  Ca92  1  0.55326086  0.42320436  0.72537371  1
  Ca2+  Ca93  1  0.25357728  0.89635757  0.08573879  1
  Ca2+  Ca94  1  0.74981204  0.41516468  0.92604392  1
  Ca2+  Ca95  1  0.08796870  0.40033632  0.25763597  1
  Ca2+  Ca96  1  0.42541951  0.90067685  0.90867012  1
  Ca2+  Ca97  1  0.92600204  0.41260298  0.07357144  1
  Ca2+  Ca98  1  0.24712467  0.40852227  0.08128307  1
  Ca2+  Ca99  1  0.24487112  0.92225778  0.41829101  1
  Ca2+  Ca100  1  0.24690787  0.40664926  0.42536131  1
  Ca2+  Ca101  1  0.94053762  0.91704978  0.41946822  1
  Ca2+  Ca102  1  0.40409896  0.89999297  0.58897774  1
  Ca2+  Ca103  1  0.09449276  0.91323613  0.58749675  1
  Ca2+  Ca104  1  0.41099101  0.40697096  0.25307011  1
  Ca2+  Ca105  1  0.92110742  0.90430319  0.08274695  1
  Ca2+  Ca106  1  0.42372151  0.40629502  0.25292100  1
  Ca2+  Ca107  1  0.74840876  0.90154531  0.91867612  1
  Mn3.34+  Mn108  1  0.08657984  0.32981217  0.08312683  1
  Mn3.34+  Mn109  1  0.08732975  0.33082037  0.42284672  1
  Mn3.34+  Mn110  1  0.09361309  0.33363670  0.74561546  1
  Mn3.34+  Mn111  1  0.08547419  0.83146829  0.08039585  1
  Mn3.34+  Mn112  1  0.08823410  0.83336284  0.41657984  1
  Mn3.34+  Mn113  1  0.08411097  0.82882136  0.75113712  1
  Mn3.34+  Mn114  1  0.41521016  0.33157519  0.08143694  1
  Mn3.34+  Mn115  1  0.41791733  0.33447142  0.42399089  1
  Mn3.34+  Mn116  1  0.40617584  0.33689354  0.75552091  1
  Mn3.34+  Mn117  1  0.42271386  0.83144900  0.08735784  1
  Mn3.34+  Mn118  1  0.41824330  0.84029135  0.41687434  1
  Mn3.34+  Mn119  1  0.41571409  0.82626386  0.74987254  1
  Mn3.34+  Mn120  1  0.74743994  0.32942609  0.08492874  1
  Mn3.34+  Mn121  1  0.75002443  0.33038907  0.41642537  1
  Mn3.34+  Mn122  1  0.74498896  0.33158277  0.75434880  1
  Mn3.34+  Mn123  1  0.74410450  0.83552436  0.08477853  1
  Mn3.34+  Mn124  1  0.74968948  0.83836374  0.41131867  1
  Mn3.34+  Mn125  1  0.74979036  0.82781861  0.75607139  1
  Mn3.34+  Mn126  1  0.24896157  0.33237539  0.25224829  1
  Mn3.34+  Mn127  1  0.25053295  0.33826238  0.58286837  1
  Mn3.34+  Mn128  1  0.25137455  0.33450103  0.91478068  1
  Mn3.34+  Mn129  1  0.25308824  0.83995451  0.24843298  1
  Mn3.34+  Mn130  1  0.24796511  0.83158223  0.57923678  1
  Mn3.34+  Mn131  1  0.24673984  0.83204064  0.91123006  1
  Mn3.34+  Mn132  1  0.57994932  0.32470860  0.24895869  1
  Mn3.34+  Mn133  1  0.57734237  0.33509802  0.57911920  1
  Mn3.34+  Mn134  1  0.58143636  0.33505396  0.90725703  1
  Mn3.34+  Mn135  1  0.57561618  0.84429200  0.24738233  1
  Mn3.34+  Mn136  1  0.58226881  0.82897027  0.58244298  1
  Mn3.34+  Mn137  1  0.58553918  0.82924480  0.91695437  1
  Mn3.34+  Mn138  1  0.91958479  0.32973749  0.24877645  1
  Mn3.34+  Mn139  1  0.92001373  0.33373505  0.58027806  1
  Mn3.34+  Mn140  1  0.91505524  0.33657907  0.91021977  1
  Mn3.34+  Mn141  1  0.91852865  0.83883437  0.25146122  1
  Mn3.34+  Mn142  1  0.92294692  0.83507748  0.58524515  1
  Mn3.34+  Mn143  1  0.91768679  0.83199373  0.90998912  1
  Mn3.34+  Mn144  1  0.92031096  0.16359877  0.24869358  1
  Mn3.34+  Mn145  1  0.75683677  0.66814076  0.41558460  1
  Mn3.34+  Mn146  1  0.24886588  0.16048174  0.24811022  1
  Mn3.34+  Mn147  1  0.74961489  0.66581337  0.75648477  1
  Mn3.34+  Mn148  1  0.24427985  0.66793043  0.24733313  1
  Mn3.34+  Mn149  1  0.08660670  0.66902304  0.41391592  1
  Mn3.34+  Mn150  1  0.93123703  0.66540223  0.25171514  1
  Mn3.34+  Mn151  1  0.58050406  0.67285530  0.24850983  1
  Mn3.34+  Mn152  1  0.08475521  0.66801111  0.08147599  1
  Mn3.34+  Mn153  1  0.91298354  0.16809466  0.91628585  1
  Mn3.34+  Mn154  1  0.41361148  0.16606390  0.41553312  1
  Mn3.34+  Mn155  1  0.42005996  0.16851854  0.08620884  1
  Mn3.34+  Mn156  1  0.74596748  0.66359170  0.41819234  1
  Mn3.34+  Mn157  1  0.08476489  0.16711007  0.09339831  1
  Mn3.34+  Mn158  1  0.25813291  0.16082955  0.91983066  1
  Mn3.34+  Mn159  1  0.58858324  0.65966985  0.58252243  1
  Mn3.34+  Mn160  1  0.24846700  0.16634485  0.92221673  1
  Mn3.34+  Mn161  1  0.41986504  0.66820540  0.41857961  1
  Mn3.34+  Mn162  1  0.74309906  0.17456178  0.74605281  1
  Mn3.34+  Mn163  1  0.58058717  0.16711571  0.24155866  1
  Mn3.34+  Mn164  1  0.74662392  0.17087984  0.09240225  1
  Mn3.34+  Mn165  1  0.75201269  0.16857173  0.74792742  1
  Mn3.34+  Mn166  1  0.41680613  0.66701672  0.08041371  1
  Mn3.34+  Mn167  1  0.74989388  0.16605029  0.41529646  1
  Mn3.34+  Mn168  1  0.91596680  0.66778728  0.91057866  1
  Mn3.34+  Mn169  1  0.92461981  0.16477871  0.57954461  1
  Mn3.34+  Mn170  1  0.91182522  0.15741591  0.57753921  1
  Mn3.34+  Mn171  1  0.91774831  0.67136456  0.25372626  1
  Mn3.34+  Mn172  1  0.41757599  0.17083980  0.75344383  1
  Mn3.34+  Mn173  1  0.09052436  0.16043905  0.41186220  1
  Mn3.34+  Mn174  1  0.57846450  0.17085710  0.57675178  1
  Mn3.34+  Mn175  1  0.58365818  0.66779642  0.91200339  1
  Mn3.34+  Mn176  1  0.92371434  0.16317990  0.91561907  1
  Mn3.34+  Mn177  1  0.57905727  0.66535494  0.58307286  1
  Mn3.34+  Mn178  1  0.25136924  0.66624791  0.91304962  1
  Mn3.34+  Mn179  1  0.41271220  0.67128164  0.75788104  1
  Mn3.34+  Mn180  1  0.73971884  0.49883983  0.42056671  1
  Mn3.34+  Mn181  1  0.92927191  0.50484009  0.26188599  1
  Mn3.34+  Mn182  1  0.07555040  -0.00633061  0.76400826  1
  Mn3.34+  Mn183  1  0.10313867  0.00064952  0.08986321  1
  Mn3.34+  Mn184  1  0.91840503  -0.00123939  0.92319268  1
  Mn3.34+  Mn185  1  0.58321597  0.00372711  0.57918560  1
  Mn3.34+  Mn186  1  0.93212304  0.00269471  0.26162090  1
  Mn3.34+  Mn187  1  0.23869675  0.50402977  0.26110151  1
  Mn3.34+  Mn188  1  0.09572260  0.49197286  0.73656928  1
  Mn3.34+  Mn189  1  0.08517790  0.49882067  0.43409316  1
  Mn3.34+  Mn190  1  0.91607691  0.49775052  0.26246499  1
  Mn3.34+  Mn191  1  0.73731924  0.00139202  0.07893048  1
  Mn3.34+  Mn192  1  0.72882902  0.50187848  0.41943035  1
  Mn3.34+  Mn193  1  0.09036187  -0.00763725  0.75598600  1
  Mn3.34+  Mn194  1  0.58485475  0.50119316  0.91175147  1
  Mn3.34+  Mn195  1  0.74661094  0.00287569  0.40735108  1
  Mn3.34+  Mn196  1  0.24288352  0.00421793  0.26316386  1
  Mn3.34+  Mn197  1  0.09109103  0.00716992  0.09264017  1
  Mn3.34+  Mn198  1  0.74700297  0.50274187  0.74260640  1
  Mn3.34+  Mn199  1  0.24967724  -0.00055847  0.91708484  1
  Mn3.34+  Mn200  1  0.75589184  0.00388294  0.74992700  1
  Mn3.34+  Mn201  1  0.58177134  -0.00718998  0.90684098  1
  Mn3.34+  Mn202  1  0.42961351  0.50256413  0.41215878  1
  Mn3.34+  Mn203  1  0.57306625  -0.00122340  0.57860688  1
  Mn3.34+  Mn204  1  0.42727854  -0.00183694  0.08519594  1
  Mn3.34+  Mn205  1  0.08474567  0.49942502  0.73730949  1
  Mn3.34+  Mn206  1  0.58447748  0.49894194  0.24041368  1
  Mn3.34+  Mn207  1  0.41744058  0.00345170  0.08647440  1
  Mn3.34+  Mn208  1  0.41707565  0.49951044  0.07549406  1
  Mn3.34+  Mn209  1  0.41471358  0.00110092  0.75216446  1
  Mn3.34+  Mn210  1  0.74166579  -0.00197525  0.75135257  1
  Mn3.34+  Mn211  1  0.24753309  0.49992767  0.91240902  1
  Mn3.34+  Mn212  1  0.08959416  0.50121167  0.08737475  1
  Mn3.34+  Mn213  1  0.75684890  0.51004070  0.73714179  1
  Mn3.34+  Mn214  1  0.42338473  -0.00221583  0.40489847  1
  Mn3.34+  Mn215  1  0.74035090  0.49443197  0.08501687  1
  O2-  O216  1  -0.00255087  0.14637312  0.00726695  1
  O2-  O217  1  -0.00725048  0.17109347  0.33621166  1
  O2-  O218  1  -0.00125512  0.15566656  0.66213708  1
  O2-  O219  1  0.00136282  0.65514254  -0.00000506  1
  O2-  O220  1  -0.00480425  0.64795111  0.34085343  1
  O2-  O221  1  0.00738518  0.66806598  0.65714219  1
  O2-  O222  1  0.34055957  0.14580829  -0.00381351  1
  O2-  O223  1  0.34022487  0.16383526  0.32619180  1
  O2-  O224  1  0.33207221  0.16915155  0.67887602  1
  O2-  O225  1  0.33135087  0.65549384  0.00128387  1
  O2-  O226  1  0.33450077  0.65393174  0.33273536  1
  O2-  O227  1  0.33532462  0.67721966  0.67516901  1
  O2-  O228  1  0.66959047  0.17090801  0.00565935  1
  O2-  O229  1  0.66393071  0.16541224  0.32869096  1
  O2-  O230  1  0.65811430  0.15499557  0.66911221  1
  O2-  O231  1  0.66251988  0.65680930  -0.00991694  1
  O2-  O232  1  0.66902765  0.64982196  0.33290764  1
  O2-  O233  1  0.65762957  0.65389648  0.67709764  1
  O2-  O234  1  0.16620155  0.14780830  0.00249586  1
  O2-  O235  1  0.16792355  0.16166838  0.32901319  1
  O2-  O236  1  0.16268017  0.15751796  0.66778907  1
  O2-  O237  1  0.16842617  0.65893484  0.00021951  1
  O2-  O238  1  0.17562150  0.64983081  0.33861214  1
  O2-  O239  1  0.17568244  0.65341168  0.67047161  1
  O2-  O240  1  0.49875086  0.17714010  0.00397282  1
  O2-  O241  1  0.50290167  0.16989307  0.33193581  1
  O2-  O242  1  0.49165324  0.16499232  0.65782806  1
  O2-  O243  1  0.49609415  0.64914891  -0.00552371  1
  O2-  O244  1  0.49268280  0.66116616  0.32575905  1
  O2-  O245  1  0.49242375  0.66554212  0.66817759  1
  O2-  O246  1  0.83022696  0.14584627  -0.00689796  1
  O2-  O247  1  0.83026343  0.15966953  0.32958752  1
  O2-  O248  1  0.83519271  0.15079995  0.66644227  1
  O2-  O249  1  0.83953824  0.66092580  0.00276851  1
  O2-  O250  1  0.83007126  0.63405320  0.32898318  1
  O2-  O251  1  0.81824747  0.68995800  0.67980849  1
  O2-  O252  1  -0.00125151  0.35190530  -0.00405365  1
  O2-  O253  1  0.00196493  0.33563085  0.33034596  1
  O2-  O254  1  -0.00500158  0.34375653  0.67282671  1
  O2-  O255  1  -0.00346950  0.84882133  -0.00026201  1
  O2-  O256  1  0.00172154  0.84965903  0.33761377  1
  O2-  O257  1  0.00584839  0.85345538  0.66328598  1
  O2-  O258  1  0.33427856  0.35225155  0.00133038  1
  O2-  O259  1  0.33794489  0.34607684  0.33216200  1
  O2-  O260  1  0.33766747  0.32985975  0.66535901  1
  O2-  O261  1  0.33530237  0.83855568  -0.00616392  1
  O2-  O262  1  0.32717934  0.84145185  0.34416315  1
  O2-  O263  1  0.32900420  0.82567653  0.66641089  1
  O2-  O264  1  0.66549752  0.33908446  -0.00679237  1
  O2-  O265  1  0.66663581  0.32696743  0.32695201  1
  O2-  O266  1  0.65948976  0.35056905  0.67637833  1
  O2-  O267  1  0.66766217  0.84345513  -0.00347655  1
  O2-  O268  1  0.66802920  0.84409222  0.33003202  1
  O2-  O269  1  0.67659745  0.83378843  0.66431865  1
  O2-  O270  1  0.16748904  0.34995683  0.00161609  1
  O2-  O271  1  0.16986221  0.34526704  0.33505995  1
  O2-  O272  1  0.16898844  0.34225746  0.66504421  1
  O2-  O273  1  0.17483380  0.82642322  0.00204662  1
  O2-  O274  1  0.17246754  0.84829347  0.34113958  1
  O2-  O275  1  0.16808318  0.83822162  0.66342706  1
  O2-  O276  1  0.50062168  0.33874998  -0.00349264  1
  O2-  O277  1  0.49253418  0.31795016  0.32950594  1
  O2-  O278  1  0.49620512  0.33336491  0.67397837  1
  O2-  O279  1  0.49473279  0.84453918  -0.00583466  1
  O2-  O280  1  0.49315725  0.82512171  0.33152030  1
  O2-  O281  1  0.49175257  0.82450331  0.66243570  1
  O2-  O282  1  0.83440803  0.35135404  -0.00083100  1
  O2-  O283  1  0.83693621  0.33704167  0.33164640  1
  O2-  O284  1  0.82924717  0.34062230  0.67135229  1
  O2-  O285  1  0.83434993  0.84480545  0.00190296  1
  O2-  O286  1  0.83838228  0.86282294  0.33561232  1
  O2-  O287  1  0.83386386  0.84208195  0.66685309  1
  O2-  O288  1  -0.00077458  0.19054682  0.16993607  1
  O2-  O289  1  -0.00340586  0.18228436  0.49653632  1
  O2-  O290  1  0.00267506  0.17956220  0.83768045  1
  O2-  O291  1  -0.00798628  0.67641947  0.15570012  1
  O2-  O292  1  0.00952958  0.67555408  0.49513578  1
  O2-  O293  1  0.00068192  0.67617529  0.84178263  1
  O2-  O294  1  0.33592153  0.17586948  0.16847145  1
  O2-  O295  1  0.34110632  0.18246171  0.49441008  1
  O2-  O296  1  0.33743966  0.18644015  0.84022356  1
  O2-  O297  1  0.33881505  0.67871758  0.17250310  1
  O2-  O298  1  0.33195613  0.68618958  0.48637964  1
  O2-  O299  1  0.33578093  0.69314023  0.83872730  1
  O2-  O300  1  0.66680080  0.19016004  0.17256580  1
  O2-  O301  1  0.66014440  0.17798161  0.49134851  1
  O2-  O302  1  0.67281557  0.18409483  0.83817584  1
  O2-  O303  1  0.66477768  0.67471377  0.17093254  1
  O2-  O304  1  0.67030624  0.68299199  0.50234654  1
  O2-  O305  1  0.66526539  0.68886571  0.83382183  1
  O2-  O306  1  0.16804757  0.18374300  0.16683139  1
  O2-  O307  1  0.15867382  0.17201179  0.49575118  1
  O2-  O308  1  0.16917619  0.17848815  0.84279292  1
  O2-  O309  1  0.16915595  0.67924328  0.16106805  1
  O2-  O310  1  0.16736876  0.67975725  0.49410635  1
  O2-  O311  1  0.16931436  0.68448416  0.84486961  1
  O2-  O312  1  0.49865414  0.19197205  0.16986790  1
  O2-  O313  1  0.50212675  0.18686097  0.49134212  1
  O2-  O314  1  0.50259304  0.18445747  0.82520820  1
  O2-  O315  1  0.49839973  0.67213261  0.16532594  1
  O2-  O316  1  0.50151025  0.68659252  0.49886780  1
  O2-  O317  1  0.50095016  0.68460236  0.82888773  1
  O2-  O318  1  0.83706085  0.18175076  0.16668076  1
  O2-  O319  1  0.83399194  0.17723420  0.49938654  1
  O2-  O320  1  0.83777004  0.18919794  0.82650365  1
  O2-  O321  1  0.82837047  0.67607662  0.18101186  1
  O2-  O322  1  0.84136978  0.67828536  0.49115375  1
  O2-  O323  1  0.82624778  0.68208762  0.84168472  1
  O2-  O324  1  -0.00373896  0.32140773  0.16012742  1
  O2-  O325  1  -0.00363009  0.31911599  0.49554436  1
  O2-  O326  1  -0.00334130  0.32468862  0.83136805  1
  O2-  O327  1  -0.00705864  0.82527992  0.15994010  1
  O2-  O328  1  0.00050491  0.83204303  0.49666678  1
  O2-  O329  1  -0.00561658  0.82221336  0.82497529  1
  O2-  O330  1  0.33587893  0.32970124  0.17094454  1
  O2-  O331  1  0.33141267  0.31615740  0.49200584  1
  O2-  O332  1  0.33321990  0.31374263  0.83785738  1
  O2-  O333  1  0.33245762  0.82009889  0.16183171  1
  O2-  O334  1  0.33301404  0.81334784  0.50317944  1
  O2-  O335  1  0.33780169  0.81434182  0.83609496  1
  O2-  O336  1  0.66216284  0.31595996  0.16575720  1
  O2-  O337  1  0.66880541  0.32784764  0.50552017  1
  O2-  O338  1  0.66488351  0.30638930  0.83184030  1
  O2-  O339  1  0.66650763  0.83061019  0.16810357  1
  O2-  O340  1  0.67590397  0.82528382  0.50434148  1
  O2-  O341  1  0.66874290  0.81298607  0.83886782  1
  O2-  O342  1  0.16695592  0.32623351  0.16946699  1
  O2-  O343  1  0.17104110  0.32605328  0.49633782  1
  O2-  O344  1  0.16168338  0.32590468  0.84114944  1
  O2-  O345  1  0.17091023  0.82291769  0.16139700  1
  O2-  O346  1  0.16451587  0.81170484  0.50224486  1
  O2-  O347  1  0.16995147  0.81366283  0.82969567  1
  O2-  O348  1  0.49595464  0.31859622  0.16633032  1
  O2-  O349  1  0.49637003  0.31202618  0.50314224  1
  O2-  O350  1  0.49631030  0.31161929  0.83309782  1
  O2-  O351  1  0.50292691  0.81566567  0.16452338  1
  O2-  O352  1  0.49711910  0.81908486  0.49926692  1
  O2-  O353  1  0.49561198  0.81595041  0.83685129  1
  O2-  O354  1  0.83350446  0.32032264  0.17087464  1
  O2-  O355  1  0.83349507  0.31852130  0.50176258  1
  O2-  O356  1  0.83243102  0.31400370  0.83114815  1
  O2-  O357  1  0.83587384  0.82685880  0.16563336  1
  O2-  O358  1  0.83507999  0.82509278  0.50021137  1
  O2-  O359  1  0.83153859  0.81354462  0.83510549  1
  O2-  O360  1  0.06965419  0.08302446  0.12595479  1
  O2-  O361  1  0.07096519  0.08393038  0.43586753  1
  O2-  O362  1  0.07871428  0.07412773  0.78417680  1
  O2-  O363  1  0.07940494  0.58281077  0.10019483  1
  O2-  O364  1  0.10302444  0.58316938  0.44547260  1
  O2-  O365  1  0.09733406  0.57278400  0.77539184  1
  O2-  O366  1  0.43779533  0.08375004  0.11637806  1
  O2-  O367  1  0.43777439  0.07690145  0.44676516  1
  O2-  O368  1  0.42273284  0.08069848  0.78588722  1
  O2-  O369  1  0.41384696  0.58076008  0.11252221  1
  O2-  O370  1  0.39355291  0.57954127  0.45507164  1
  O2-  O371  1  0.40103925  0.59093758  0.77582148  1
  O2-  O372  1  0.74229918  0.08530520  0.11050297  1
  O2-  O373  1  0.73148488  0.08263932  0.43385874  1
  O2-  O374  1  0.75073965  0.08235073  0.79812429  1
  O2-  O375  1  0.75424671  0.57666832  0.09801116  1
  O2-  O376  1  0.75460985  0.58114363  0.46317347  1
  O2-  O377  1  0.74606686  0.58211874  0.79158176  1
  O2-  O378  1  0.26418693  0.07640776  0.22132997  1
  O2-  O379  1  0.25670340  0.07496533  0.58357441  1
  O2-  O380  1  0.24465551  0.08059590  0.86773169  1
  O2-  O381  1  0.26665164  0.58136006  0.21441292  1
  O2-  O382  1  0.23713887  0.57499776  0.56539103  1
  O2-  O383  1  0.25419712  0.57808042  0.86819888  1
  O2-  O384  1  0.58253471  0.08897243  0.24363112  1
  O2-  O385  1  0.57577522  0.08392918  0.54188012  1
  O2-  O386  1  0.59095156  0.07505771  0.87997926  1
  O2-  O387  1  0.59222506  0.58170894  0.21748444  1
  O2-  O388  1  0.56197193  0.58070869  0.57200441  1
  O2-  O389  1  0.57613889  0.58261029  0.88080968  1
  O2-  O390  1  0.90130262  0.07656214  0.22373842  1
  O2-  O391  1  0.92612352  0.07879425  0.55371929  1
  O2-  O392  1  0.91936130  0.08123750  0.87454865  1
  O2-  O393  1  0.90524691  0.57807106  0.20583122  1
  O2-  O394  1  0.97997383  0.55298045  0.54951621  1
  O2-  O395  1  0.91339328  0.58306845  0.91454563  1
  O2-  O396  1  0.07837247  0.41967203  0.11760051  1
  O2-  O397  1  0.07440303  0.41600189  0.43260130  1
  O2-  O398  1  0.07513969  0.41929436  0.78212377  1
  O2-  O399  1  0.08896975  0.91794445  0.10379044  1
  O2-  O400  1  0.09564386  0.91619547  0.45017378  1
  O2-  O401  1  0.10054277  0.91260072  0.77773012  1
  O2-  O402  1  0.42640801  0.41917279  0.11665956  1
  O2-  O403  1  0.41796836  0.42034397  0.43730809  1
  O2-  O404  1  0.43174304  0.41712223  0.78249064  1
  O2-  O405  1  0.40860002  0.91583034  0.10163016  1
  O2-  O406  1  0.38789888  0.92695946  0.45605899  1
  O2-  O407  1  0.40944540  0.91791389  0.77353974  1
  O2-  O408  1  0.73966230  0.41357428  0.11543208  1
  O2-  O409  1  0.75633669  0.41556428  0.43486324  1
  O2-  O410  1  0.75985295  0.42398690  0.78915684  1
  O2-  O411  1  0.76998511  0.92245920  0.10943436  1
  O2-  O412  1  0.75566133  0.92688090  0.45178952  1
  O2-  O413  1  0.75144958  0.91804912  0.78364629  1
  O2-  O414  1  0.26094614  0.42161306  0.22462814  1
  O2-  O415  1  0.27119029  0.41707335  0.55608937  1
  O2-  O416  1  0.25485645  0.41898986  0.89137837  1
  O2-  O417  1  0.25017348  0.93000776  0.21769136  1
  O2-  O418  1  0.25020914  0.91608947  0.55553188  1
  O2-  O419  1  0.27544658  0.91890045  0.88135396  1
  O2-  O420  1  0.56880725  0.41651010  0.22630304  1
  O2-  O421  1  0.57045057  0.41636834  0.58170928  1
  O2-  O422  1  0.59199988  0.42260601  0.86622606  1
  O2-  O423  1  0.58515647  0.92034590  0.23120769  1
  O2-  O424  1  0.59117493  0.91554239  0.57128040  1
  O2-  O425  1  0.56743160  0.91222615  0.88562977  1
  O2-  O426  1  0.91906401  0.42243500  0.21218376  1
  O2-  O427  1  0.90298272  0.41192889  0.56241457  1
  O2-  O428  1  0.91008137  0.41830459  0.88239019  1
  O2-  O429  1  0.92161651  0.92629365  0.21513687  1
  O2-  O430  1  0.90139643  0.92109706  0.55255002  1
  O2-  O431  1  0.89902141  0.91692372  0.88788965  1
  O2-  O432  1  -0.00931960  -0.00123341  0.02473138  1
  O2-  O433  1  -0.01187688  -0.00442638  0.35933246  1
  O2-  O434  1  -0.00957267  -0.00561451  0.68984069  1
  O2-  O435  1  -0.01083645  0.49468664  0.03193555  1
  O2-  O436  1  0.00031282  0.50147341  0.35033297  1
  O2-  O437  1  -0.01590105  0.49065909  0.69795436  1
  O2-  O438  1  0.32666197  -0.00376642  0.01119990  1
  O2-  O439  1  0.33164440  -0.00148577  0.33590705  1
  O2-  O440  1  0.31921177  0.00254621  0.70088772  1
  O2-  O441  1  0.33874913  0.50662599  -0.01302956  1
  O2-  O442  1  0.34125850  0.50606526  0.32208185  1
  O2-  O443  1  0.34510610  0.51477164  0.66215171  1
  O2-  O444  1  0.68365266  -0.00166715  -0.03300778  1
  O2-  O445  1  0.66969987  0.00892089  0.33148082  1
  O2-  O446  1  0.66327552  0.01135699  0.66520988  1
  O2-  O447  1  0.67559913  0.49664992  -0.01310959  1
  O2-  O448  1  0.68543258  0.50412606  0.30638973  1
  O2-  O449  1  0.64000381  0.50307196  0.70002468  1
  O2-  O450  1  0.15620921  0.01074051  -0.01111988  1
  O2-  O451  1  0.17226482  -0.00844212  0.34055112  1
  O2-  O452  1  0.16282087  -0.00398988  0.67161415  1
  O2-  O453  1  0.17199398  0.49657576  0.00530795  1
  O2-  O454  1  0.18064519  0.49595997  0.36152090  1
  O2-  O455  1  0.19199961  0.50190152  0.68954116  1
  O2-  O456  1  0.48629007  0.00172142  -0.02218081  1
  O2-  O457  1  0.50421105  0.01590979  0.33731402  1
  O2-  O458  1  0.49122438  0.00776816  0.66179140  1
  O2-  O459  1  0.50622180  0.49462348  -0.00221635  1
  O2-  O460  1  0.48326362  0.50686977  0.29559803  1
  O2-  O461  1  0.48231475  0.50031874  0.67234698  1
  O2-  O462  1  0.83488074  0.01488392  0.01103471  1
  O2-  O463  1  0.83188053  -0.00366329  0.33141143  1
  O2-  O464  1  0.82668079  -0.01633373  0.66559315  1
  O2-  O465  1  0.84189156  0.48997987  0.02774728  1
  O2-  O466  1  0.84112998  0.50521657  0.35301248  1
  O2-  O467  1  0.83536354  0.48090256  0.66885793  1
  O2-  O468  1  0.59951787  0.25068902  0.60363943  1
  O2-  O469  1  0.74711432  0.75633099  0.07474499  1
  O2-  O470  1  0.75458000  0.75051692  0.38406064  1
  O2-  O471  1  0.08384908  0.24863971  0.05105123  1
  O2-  O472  1  0.92326566  0.75204260  0.94047770  1
  O2-  O473  1  0.91087803  0.24569381  0.60722433  1
  O2-  O474  1  0.24427007  0.74967728  0.27067325  1
  O2-  O475  1  0.08039073  0.75274734  0.72867662  1
  O2-  O476  1  0.07296688  0.74975104  0.06449260  1
  O2-  O477  1  0.08875462  0.25528730  0.73420202  1
  O2-  O478  1  0.92582702  0.75642878  0.59297477  1
  O2-  O479  1  0.75071329  0.24862532  0.40501616  1
  O2-  O480  1  0.91538476  0.75305701  0.28296072  1
  O2-  O481  1  0.59475725  0.74541271  0.60261006  1
  O2-  O482  1  0.24639004  0.24966597  0.95150450  1
  O2-  O483  1  0.25177962  0.25096569  0.26534464  1
  O2-  O484  1  0.91811296  0.25081020  0.94699736  1
  O2-  O485  1  0.41931848  0.74852558  0.06237312  1
  O2-  O486  1  0.39503946  0.25106416  0.06297872  1
  O2-  O487  1  0.57622467  0.74879419  0.94741082  1
  O2-  O488  1  0.07967149  0.75040970  0.38464316  1
  O2-  O489  1  0.24576241  0.25480403  0.59088607  1
  O2-  O490  1  0.59335588  0.75141010  0.26744595  1
  O2-  O491  1  0.09007895  0.25042495  0.40044253  1
  O2-  O492  1  0.76714715  0.25039487  0.05856154  1
