# generated using pymatgen
data_Ca108Mn108O277
_symmetry_space_group_name_H-M   'P 1'
_cell_length_a   16.02438820
_cell_length_b   22.30073615
_cell_length_c   16.38727308
_cell_angle_alpha   89.99560631
_cell_angle_beta   89.99310212
_cell_angle_gamma   89.99659329
_symmetry_Int_Tables_number   1
_chemical_formula_structural   Ca108Mn108O277
_chemical_formula_sum   'Ca108 Mn108 O277'
_cell_volume   5856.08460567
_cell_formula_units_Z   1
loop_
 _symmetry_equiv_pos_site_id
 _symmetry_equiv_pos_as_xyz
  1  'x, y, z'
loop_
 _atom_type_symbol
 _atom_type_oxidation_number
  Ca2+  2.0
  Mn3.34+  3.34
  O2-  -2.0
loop_
 _atom_site_type_symbol
 _atom_site_label
 _atom_site_symmetry_multiplicity
 _atom_site_fract_x
 _atom_site_fract_y
 _atom_site_fract_z
 _atom_site_occupancy
  Ca2+  Ca0  1  0.09358074  0.25795889  0.26397563  1
  Ca2+  Ca1  1  0.09781540  0.23769751  0.57976633  1
  Ca2+  Ca2  1  0.08539216  0.25533525  0.90819853  1
  Ca2+  Ca3  1  0.11305798  0.74359400  0.24403605  1
  Ca2+  Ca4  1  0.07323429  0.75292252  0.58138424  1
  Ca2+  Ca5  1  0.09194778  0.73900692  0.92586722  1
  Ca2+  Ca6  1  0.42253906  0.23826031  0.26926193  1
  Ca2+  Ca7  1  0.40207195  0.24030298  0.55115251  1
  Ca2+  Ca8  1  0.42752149  0.25752377  0.92304629  1
  Ca2+  Ca9  1  0.41595491  0.75055559  0.24487884  1
  Ca2+  Ca10  1  0.41628648  0.75633286  0.57603421  1
  Ca2+  Ca11  1  0.39934507  0.75038975  0.92022010  1
  Ca2+  Ca12  1  0.73297225  0.25008861  0.25403429  1
  Ca2+  Ca13  1  0.75990383  0.25009456  0.59493559  1
  Ca2+  Ca14  1  0.74442784  0.25031268  0.89599546  1
  Ca2+  Ca15  1  0.73061884  0.75795700  0.25227973  1
  Ca2+  Ca16  1  0.75973088  0.75814442  0.57897659  1
  Ca2+  Ca17  1  0.75857341  0.76169265  0.91351911  1
  Ca2+  Ca18  1  0.24304291  0.25021594  0.10426068  1
  Ca2+  Ca19  1  0.25411455  0.25396140  0.42259561  1
  Ca2+  Ca20  1  0.23270395  0.24726690  0.72571663  1
  Ca2+  Ca21  1  0.24958188  0.75705284  0.08569763  1
  Ca2+  Ca22  1  0.25679662  0.75094878  0.39485347  1
  Ca2+  Ca23  1  0.24741242  0.75132002  0.76526586  1
  Ca2+  Ca24  1  0.58707615  0.23862855  0.11458339  1
  Ca2+  Ca25  1  0.56728198  0.23630557  0.41049886  1
  Ca2+  Ca26  1  0.61728511  0.23667531  0.73775952  1
  Ca2+  Ca27  1  0.57477830  0.75544883  0.10043061  1
  Ca2+  Ca28  1  0.57477135  0.75008763  0.39745060  1
  Ca2+  Ca29  1  0.58289659  0.74738818  0.74638196  1
  Ca2+  Ca30  1  0.92057625  0.25590433  0.09076688  1
  Ca2+  Ca31  1  0.92989405  0.24645149  0.42750203  1
  Ca2+  Ca32  1  0.91256442  0.25477927  0.73816415  1
  Ca2+  Ca33  1  0.92911944  0.75432068  0.07173647  1
  Ca2+  Ca34  1  0.92140915  0.75524902  0.42373346  1
  Ca2+  Ca35  1  0.91454302  0.74581064  0.75464329  1
  Ca2+  Ca36  1  0.58342568  0.60157069  0.40788659  1
  Ca2+  Ca37  1  0.24228319  0.59319309  0.40111099  1
  Ca2+  Ca38  1  0.73782808  0.10750762  0.58134624  1
  Ca2+  Ca39  1  0.26502529  0.11032519  0.43488082  1
  Ca2+  Ca40  1  0.56892535  0.59697706  0.09820423  1
  Ca2+  Ca41  1  0.41701090  0.60056712  0.59784103  1
  Ca2+  Ca42  1  0.89894098  0.09086205  0.74181701  1
  Ca2+  Ca43  1  0.91150564  0.09179956  0.74123452  1
  Ca2+  Ca44  1  0.58547420  0.60757178  0.74070647  1
  Ca2+  Ca45  1  0.70668615  0.09166537  0.24263240  1
  Ca2+  Ca46  1  0.27371552  0.59835922  0.77347392  1
  Ca2+  Ca47  1  0.40946693  0.60871385  0.24433587  1
  Ca2+  Ca48  1  0.56349398  0.10317200  0.42204958  1
  Ca2+  Ca49  1  0.44296468  0.10388200  0.25492504  1
  Ca2+  Ca50  1  0.90708801  0.60574111  0.75739969  1
  Ca2+  Ca51  1  0.92336885  0.58768105  0.42179061  1
  Ca2+  Ca52  1  0.72738509  0.58835213  0.25670832  1
  Ca2+  Ca53  1  0.23536915  0.08681348  0.70642103  1
  Ca2+  Ca54  1  0.73963632  0.58592125  0.25883571  1
  Ca2+  Ca55  1  0.75140339  0.60372477  0.59679432  1
  Ca2+  Ca56  1  0.41947667  0.07062851  0.92354120  1
  Ca2+  Ca57  1  0.23266482  0.61489801  0.08561720  1
  Ca2+  Ca58  1  0.76210583  0.60379530  0.59947195  1
  Ca2+  Ca59  1  0.24101267  0.61123937  0.08179347  1
  Ca2+  Ca60  1  0.91112223  0.06904865  0.08087941  1
  Ca2+  Ca61  1  0.25652641  0.10666582  0.43188359  1
  Ca2+  Ca62  1  0.42194479  0.60250041  0.60649418  1
  Ca2+  Ca63  1  0.07131760  0.58962778  0.58560705  1
  Ca2+  Ca64  1  0.71837296  0.09044321  0.24729665  1
  Ca2+  Ca65  1  0.72738324  0.10817860  0.58021074  1
  Ca2+  Ca66  1  0.43251983  0.06958865  0.92272252  1
  Ca2+  Ca67  1  0.11214239  0.60755238  0.24296754  1
  Ca2+  Ca68  1  0.60232179  0.09535371  0.73484423  1
  Ca2+  Ca69  1  0.42293180  0.11007499  0.56851126  1
  Ca2+  Ca70  1  0.76885391  0.59806493  0.89185849  1
  Ca2+  Ca71  1  0.74178717  0.07220272  0.92921214  1
  Ca2+  Ca72  1  0.08698391  0.90564417  0.24484873  1
  Ca2+  Ca73  1  0.09361227  0.91018953  0.58278423  1
  Ca2+  Ca74  1  0.90853949  0.91295959  0.07635477  1
  Ca2+  Ca75  1  0.91808643  0.40574193  0.41462948  1
  Ca2+  Ca76  1  0.60371965  0.92029704  0.06523442  1
  Ca2+  Ca77  1  0.58837702  0.40540510  0.08175760  1
  Ca2+  Ca78  1  0.39686942  0.40200981  0.58215859  1
  Ca2+  Ca79  1  0.59359023  0.40175330  0.75121163  1
  Ca2+  Ca80  1  0.91182863  0.40674923  0.07381815  1
  Ca2+  Ca81  1  0.75665092  0.40228875  0.58102514  1
  Ca2+  Ca82  1  0.41610571  0.41931068  0.92134698  1
  Ca2+  Ca83  1  0.25410107  0.41704335  0.73189983  1
  Ca2+  Ca84  1  0.40353335  0.41873937  0.92003149  1
  Ca2+  Ca85  1  0.41946998  0.40095500  0.24680925  1
  Ca2+  Ca86  1  0.06255606  0.40423723  0.91953211  1
  Ca2+  Ca87  1  0.24722298  0.40608490  0.08364417  1
  Ca2+  Ca88  1  0.25363430  0.90361937  0.75238341  1
  Ca2+  Ca89  1  0.07581762  0.90576711  0.24493986  1
  Ca2+  Ca90  1  0.90765799  0.90534444  0.75123570  1
  Ca2+  Ca91  1  0.91899472  0.90476287  0.75049013  1
  Ca2+  Ca92  1  0.24313075  0.41792704  0.73371734  1
  Ca2+  Ca93  1  0.40935210  0.40239415  0.58430706  1
  Ca2+  Ca94  1  0.75194948  0.40517076  0.24875674  1
  Ca2+  Ca95  1  0.58088735  0.40253909  0.75070660  1
  Ca2+  Ca96  1  0.59139465  0.90438600  0.76179305  1
  Ca2+  Ca97  1  0.74507171  0.91028236  0.24623210  1
  Ca2+  Ca98  1  0.41938884  0.90103729  0.58535495  1
  Ca2+  Ca99  1  0.77059632  0.40916227  0.91691046  1
  Ca2+  Ca100  1  0.08130527  0.91219784  0.58360451  1
  Ca2+  Ca101  1  0.91279036  0.90882537  0.41441477  1
  Ca2+  Ca102  1  0.92834691  0.40311561  0.41764645  1
  Ca2+  Ca103  1  0.25875721  0.40574769  0.08346434  1
  Ca2+  Ca104  1  0.57872157  0.90345792  0.76318785  1
  Ca2+  Ca105  1  0.59259144  0.39790498  0.41402150  1
  Ca2+  Ca106  1  0.08567564  0.91211707  0.93207744  1
  Ca2+  Ca107  1  0.58467843  0.90248232  0.42184476  1
  Mn3.34+  Mn108  1  0.08182803  0.33116312  0.08561835  1
  Mn3.34+  Mn109  1  0.08831998  0.33534461  0.41714168  1
  Mn3.34+  Mn110  1  0.07744950  0.33215157  0.74761932  1
  Mn3.34+  Mn111  1  0.08540120  0.84117175  0.08431126  1
  Mn3.34+  Mn112  1  0.08684018  0.83455265  0.41509573  1
  Mn3.34+  Mn113  1  0.08551554  0.83254171  0.75615954  1
  Mn3.34+  Mn114  1  0.41932228  0.32857328  0.08658050  1
  Mn3.34+  Mn115  1  0.41454419  0.33246624  0.41420634  1
  Mn3.34+  Mn116  1  0.41645357  0.32449883  0.75374043  1
  Mn3.34+  Mn117  1  0.41625977  0.83388575  0.08272346  1
  Mn3.34+  Mn118  1  0.41446649  0.83687247  0.41166088  1
  Mn3.34+  Mn119  1  0.41632931  0.82876775  0.75381682  1
  Mn3.34+  Mn120  1  0.75168461  0.33039731  0.08428033  1
  Mn3.34+  Mn121  1  0.74940304  0.32745652  0.41864280  1
  Mn3.34+  Mn122  1  0.75841168  0.33297755  0.74995399  1
  Mn3.34+  Mn123  1  0.75020801  0.84056255  0.08288033  1
  Mn3.34+  Mn124  1  0.74905975  0.83455300  0.41535227  1
  Mn3.34+  Mn125  1  0.74790523  0.82723543  0.74906662  1
  Mn3.34+  Mn126  1  0.24921080  0.33509643  0.25691356  1
  Mn3.34+  Mn127  1  0.23806549  0.33421954  0.57729694  1
  Mn3.34+  Mn128  1  0.24993263  0.33329024  0.90831351  1
  Mn3.34+  Mn129  1  0.25928186  0.83367214  0.24570818  1
  Mn3.34+  Mn130  1  0.25150761  0.83327931  0.57928087  1
  Mn3.34+  Mn131  1  0.25208726  0.83552256  0.92137165  1
  Mn3.34+  Mn132  1  0.58286774  0.32952260  0.25000459  1
  Mn3.34+  Mn133  1  0.58378477  0.32185696  0.57958426  1
  Mn3.34+  Mn134  1  0.58688670  0.33463790  0.91794295  1
  Mn3.34+  Mn135  1  0.57799093  0.83563319  0.24629709  1
  Mn3.34+  Mn136  1  0.58763718  0.82909607  0.57868019  1
  Mn3.34+  Mn137  1  0.58152846  0.83633776  0.92407888  1
  Mn3.34+  Mn138  1  0.91790344  0.33456047  0.24588763  1
  Mn3.34+  Mn139  1  0.92299495  0.33351554  0.58526053  1
  Mn3.34+  Mn140  1  0.91650676  0.33179159  0.91371150  1
  Mn3.34+  Mn141  1  0.91315659  0.83282215  0.24680340  1
  Mn3.34+  Mn142  1  0.91386580  0.83579544  0.57813541  1
  Mn3.34+  Mn143  1  0.91577511  0.83269111  0.91824332  1
  Mn3.34+  Mn144  1  0.74992230  0.16697139  0.41871919  1
  Mn3.34+  Mn145  1  0.25435663  0.16014443  0.91288080  1
  Mn3.34+  Mn146  1  0.08627780  0.16491434  0.42036124  1
  Mn3.34+  Mn147  1  0.09202581  0.15195591  0.09198958  1
  Mn3.34+  Mn148  1  0.58482180  0.66954816  0.91346581  1
  Mn3.34+  Mn149  1  0.41199660  0.16934651  0.74903488  1
  Mn3.34+  Mn150  1  0.92608491  0.15999289  0.25435144  1
  Mn3.34+  Mn151  1  0.75315603  0.67038168  0.41889528  1
  Mn3.34+  Mn152  1  0.08313587  0.66651819  0.41697057  1
  Mn3.34+  Mn153  1  0.91359218  0.16704717  0.25533828  1
  Mn3.34+  Mn154  1  0.24400288  0.16499176  0.91343567  1
  Mn3.34+  Mn155  1  0.08164818  0.16665274  0.74610146  1
  Mn3.34+  Mn156  1  0.59096357  0.15877160  0.92171482  1
  Mn3.34+  Mn157  1  0.41744209  0.66925647  0.08342266  1
  Mn3.34+  Mn158  1  0.25100715  0.66523960  0.91447237  1
  Mn3.34+  Mn159  1  0.91405084  0.17145341  0.91710232  1
  Mn3.34+  Mn160  1  0.41664875  0.66996550  0.41490037  1
  Mn3.34+  Mn161  1  0.42003022  0.17617458  0.74789479  1
  Mn3.34+  Mn162  1  0.08323456  0.15750536  0.08765186  1
  Mn3.34+  Mn163  1  0.75563234  0.16156025  0.08872846  1
  Mn3.34+  Mn164  1  0.58154509  0.16472295  0.92144707  1
  Mn3.34+  Mn165  1  0.75656613  0.66731596  0.07916980  1
  Mn3.34+  Mn166  1  0.25311536  0.16600907  0.25093093  1
  Mn3.34+  Mn167  1  0.92094736  0.67062704  0.58422239  1
  Mn3.34+  Mn168  1  0.92785438  0.66372372  0.24679451  1
  Mn3.34+  Mn169  1  0.92275161  0.16524025  0.91587685  1
  Mn3.34+  Mn170  1  0.41086066  0.16837018  0.08972027  1
  Mn3.34+  Mn171  1  0.91770666  0.66886656  0.24940419  1
  Mn3.34+  Mn172  1  0.58480952  0.68050172  0.57873717  1
  Mn3.34+  Mn173  1  0.23731904  0.66802191  0.58678832  1
  Mn3.34+  Mn174  1  0.74612559  0.66238934  0.07925064  1
  Mn3.34+  Mn175  1  0.91914791  0.16612060  0.57737103  1
  Mn3.34+  Mn176  1  0.08268655  0.66799978  0.75599095  1
  Mn3.34+  Mn177  1  0.25143037  0.66248426  0.58454209  1
  Mn3.34+  Mn178  1  0.57006198  0.66439090  0.91081072  1
  Mn3.34+  Mn179  1  0.92357084  0.66386705  0.91576381  1
  Mn3.34+  Mn180  1  0.07485548  0.50120601  0.07163325  1
  Mn3.34+  Mn181  1  0.41204876  0.50107740  0.07886427  1
  Mn3.34+  Mn182  1  0.41212128  -0.00468062  0.08880948  1
  Mn3.34+  Mn183  1  0.42593707  -0.00160031  0.09194042  1
  Mn3.34+  Mn184  1  0.75786458  0.49950977  0.07053832  1
  Mn3.34+  Mn185  1  0.75746512  0.49971958  0.74571652  1
  Mn3.34+  Mn186  1  0.58423049  -0.00103954  0.58918612  1
  Mn3.34+  Mn187  1  0.91772932  -0.00071811  0.25351853  1
  Mn3.34+  Mn188  1  0.59530916  0.49606628  0.57679631  1
  Mn3.34+  Mn189  1  0.06788696  0.50998193  0.06526236  1
  Mn3.34+  Mn190  1  0.74960117  -0.00152704  0.41177952  1
  Mn3.34+  Mn191  1  0.41485819  -0.00528672  0.41134225  1
  Mn3.34+  Mn192  1  0.24061253  -0.00180996  0.92937561  1
  Mn3.34+  Mn193  1  0.91614861  -0.00125038  0.92892455  1
  Mn3.34+  Mn194  1  0.92749646  0.49873296  0.25487579  1
  Mn3.34+  Mn195  1  0.91440258  0.49902647  0.58700554  1
  Mn3.34+  Mn196  1  0.74795462  -0.00232814  0.75496830  1
  Mn3.34+  Mn197  1  0.06957480  0.49997487  0.75554515  1
  Mn3.34+  Mn198  1  0.08022618  0.00622303  0.40664346  1
  Mn3.34+  Mn199  1  0.58055079  0.49600995  0.24818394  1
  Mn3.34+  Mn200  1  0.56977629  -0.00536649  0.25620550  1
  Mn3.34+  Mn201  1  0.41779329  0.50547574  0.41369642  1
  Mn3.34+  Mn202  1  0.58813283  0.50517710  0.92642320  1
  Mn3.34+  Mn203  1  0.07941911  0.50480828  0.75730247  1
  Mn3.34+  Mn204  1  0.25417284  -0.00300623  0.58393467  1
  Mn3.34+  Mn205  1  0.24713122  0.00530581  0.24316868  1
  Mn3.34+  Mn206  1  0.25868765  -0.00204186  0.24354761  1
  Mn3.34+  Mn207  1  0.74888924  0.50077433  0.41743176  1
  Mn3.34+  Mn208  1  0.57905691  0.50020544  0.57678340  1
  Mn3.34+  Mn209  1  0.24119330  0.49743319  0.25222097  1
  Mn3.34+  Mn210  1  0.40435234  0.49863626  0.41297662  1
  Mn3.34+  Mn211  1  0.42166969  0.50252821  0.75206937  1
  Mn3.34+  Mn212  1  0.41813920  0.00044707  0.74528660  1
  Mn3.34+  Mn213  1  0.08805762  0.49751653  0.41223545  1
  Mn3.34+  Mn214  1  0.91340714  0.00154291  0.58358917  1
  Mn3.34+  Mn215  1  0.08460896  0.00224070  0.75436486  1
  O2-  O216  1  0.00110095  0.16191728  0.00065743  1
  O2-  O217  1  0.00202112  0.15543461  0.33722562  1
  O2-  O218  1  -0.01112233  0.15737223  0.67349813  1
  O2-  O219  1  -0.00316288  0.67758703  -0.00255938  1
  O2-  O220  1  0.00286344  0.64635925  0.33494343  1
  O2-  O221  1  0.00063062  0.65496186  0.66626536  1
  O2-  O222  1  0.33971400  0.18197021  -0.00624960  1
  O2-  O223  1  0.33505233  0.15377729  0.32491524  1
  O2-  O224  1  0.33232728  0.16200841  0.66910344  1
  O2-  O225  1  0.33049486  0.66368603  0.00244505  1
  O2-  O226  1  0.33388810  0.65500432  0.34438075  1
  O2-  O227  1  0.33175655  0.66482839  0.66731473  1
  O2-  O228  1  0.67448525  0.17206987  0.00479977  1
  O2-  O229  1  0.67139450  0.16015678  0.33668774  1
  O2-  O230  1  0.66748600  0.16567104  0.66298313  1
  O2-  O231  1  0.66379449  0.64178083  -0.00656262  1
  O2-  O232  1  0.67552804  0.65651093  0.33686442  1
  O2-  O233  1  0.66736938  0.67209779  0.65906023  1
  O2-  O234  1  0.17119190  0.16385282  0.00348258  1
  O2-  O235  1  0.17635186  0.15836884  0.33873540  1
  O2-  O236  1  0.15906892  0.16182366  0.66968673  1
  O2-  O237  1  0.16944918  0.67387639  -0.00193689  1
  O2-  O238  1  0.16580593  0.66391759  0.34194184  1
  O2-  O239  1  0.16558372  0.64301777  0.67112645  1
  O2-  O240  1  0.49389907  0.15549894  -0.00290028  1
  O2-  O241  1  0.50213355  0.16494752  0.33729095  1
  O2-  O242  1  0.50129841  0.17290074  0.66869416  1
  O2-  O243  1  0.50062649  0.65192295  -0.00151313  1
  O2-  O244  1  0.49604456  0.65708241  0.33939830  1
  O2-  O245  1  0.50030821  0.67776966  0.65768231  1
  O2-  O246  1  0.83673083  0.16777232  0.00352304  1
  O2-  O247  1  0.82810078  0.16322667  0.33099581  1
  O2-  O248  1  0.83399198  0.15543347  0.66028094  1
  O2-  O249  1  0.83101666  0.65506475  -0.00349428  1
  O2-  O250  1  0.83878496  0.64375152  0.33389199  1
  O2-  O251  1  0.83805720  0.66836692  0.66377686  1
  O2-  O252  1  0.00021631  0.32716238  -0.00346822  1
  O2-  O253  1  -0.00247025  0.34571634  0.33200867  1
  O2-  O254  1  -0.00253087  0.33914625  0.66884642  1
  O2-  O255  1  0.00024988  0.83974343  0.00182145  1
  O2-  O256  1  -0.00192909  0.84979410  0.33314215  1
  O2-  O257  1  0.00158437  0.85240692  0.66533514  1
  O2-  O258  1  0.33333384  0.33393420  -0.00135864  1
  O2-  O259  1  0.34018847  0.34364895  0.32735105  1
  O2-  O260  1  0.33271026  0.34056228  0.67576794  1
  O2-  O261  1  0.33373223  0.83357705  0.00010086  1
  O2-  O262  1  0.33171664  0.84016140  0.33476300  1
  O2-  O263  1  0.33485279  0.83683695  0.66613137  1
  O2-  O264  1  0.67232481  0.34340034  -0.00200395  1
  O2-  O265  1  0.67178939  0.33787171  0.33008226  1
  O2-  O266  1  0.66398895  0.33732924  0.66747396  1
  O2-  O267  1  0.66856235  0.84050728  0.00020828  1
  O2-  O268  1  0.66723153  0.84513175  0.33171277  1
  O2-  O269  1  0.66633490  0.81419034  0.66554232  1
  O2-  O270  1  0.16782438  0.34645787  -0.00371840  1
  O2-  O271  1  0.16690141  0.33869082  0.33458109  1
  O2-  O272  1  0.16904933  0.34460652  0.67414368  1
  O2-  O273  1  0.16005478  0.83180828  -0.00189014  1
  O2-  O274  1  0.16138072  0.84289004  0.32562767  1
  O2-  O275  1  0.16453826  0.84908629  0.66920979  1
  O2-  O276  1  0.49438023  0.34470561  -0.00464272  1
  O2-  O277  1  0.50303878  0.34675373  0.33544452  1
  O2-  O278  1  0.49781626  0.34316406  0.66587337  1
  O2-  O279  1  0.50734748  0.84450080  0.00827066  1
  O2-  O280  1  0.50673280  0.84256867  0.34012322  1
  O2-  O281  1  0.50247588  0.82244290  0.66666104  1
  O2-  O282  1  0.83629322  0.31886733  0.00075759  1
  O2-  O283  1  0.83515879  0.34163021  0.33560153  1
  O2-  O284  1  0.83099358  0.34187299  0.66114508  1
  O2-  O285  1  0.83825165  0.84227250  0.00306068  1
  O2-  O286  1  0.83181697  0.85151857  0.33082458  1
  O2-  O287  1  0.83788778  0.83572154  0.67073350  1
  O2-  O288  1  -0.00556868  0.17567712  0.16176410  1
  O2-  O289  1  0.00443156  0.17791724  0.50235949  1
  O2-  O290  1  0.00097501  0.18616246  0.83449381  1
  O2-  O291  1  0.00412818  0.68734877  0.17119598  1
  O2-  O292  1  -0.00131451  0.67408436  0.49941844  1
  O2-  O293  1  -0.00150190  0.68458496  0.82965372  1
  O2-  O294  1  0.33063586  0.18987213  0.16738932  1
  O2-  O295  1  0.33288759  0.17256999  0.49347536  1
  O2-  O296  1  0.33459180  0.19177832  0.83109894  1
  O2-  O297  1  0.33565995  0.67324316  0.15849652  1
  O2-  O298  1  0.33727350  0.67967202  0.50769958  1
  O2-  O299  1  0.32860417  0.68242290  0.83286113  1
  O2-  O300  1  0.68180098  0.17738025  0.16985656  1
  O2-  O301  1  0.67365045  0.18320861  0.49681711  1
  O2-  O302  1  0.66719049  0.16857978  0.83758399  1
  O2-  O303  1  0.66890792  0.67269493  0.16182973  1
  O2-  O304  1  0.66951508  0.67983940  0.49943369  1
  O2-  O305  1  0.66427649  0.68089228  0.83385508  1
  O2-  O306  1  0.16319319  0.17713024  0.17610031  1
  O2-  O307  1  0.17087844  0.18091204  0.48873189  1
  O2-  O308  1  0.16644225  0.18249977  0.82982680  1
  O2-  O309  1  0.17169838  0.67908510  0.15892156  1
  O2-  O310  1  0.16382906  0.67271521  0.50178056  1
  O2-  O311  1  0.16879428  0.67912620  0.82827914  1
  O2-  O312  1  0.48757046  0.18445490  0.16464859  1
  O2-  O313  1  0.50364018  0.17693846  0.50233632  1
  O2-  O314  1  0.49914824  0.18804414  0.83124147  1
  O2-  O315  1  0.49646312  0.67429972  0.16143319  1
  O2-  O316  1  0.49826788  0.67882716  0.50111359  1
  O2-  O317  1  0.50232315  0.68550611  0.82759331  1
  O2-  O318  1  0.84030063  0.18637227  0.16700130  1
  O2-  O319  1  0.83015376  0.18290774  0.50313868  1
  O2-  O320  1  0.84051044  0.18292649  0.83232207  1
  O2-  O321  1  0.82329298  0.67581794  0.17854303  1
  O2-  O322  1  0.83165892  0.67789858  0.50571054  1
  O2-  O323  1  0.83618126  0.68148385  0.83740822  1
  O2-  O324  1  -0.00752689  0.32613945  0.15954769  1
  O2-  O325  1  -0.00817697  0.32754739  0.49042313  1
  O2-  O326  1  0.00071372  0.31764066  0.83659284  1
  O2-  O327  1  0.00448234  0.81702817  0.16910227  1
  O2-  O328  1  0.00190069  0.82755555  0.50136978  1
  O2-  O329  1  -0.00941750  0.82639996  0.82399706  1
  O2-  O330  1  0.33001880  0.32223428  0.15938561  1
  O2-  O331  1  0.33462651  0.32952669  0.50389827  1
  O2-  O332  1  0.33850553  0.30604964  0.83697570  1
  O2-  O333  1  0.33547904  0.81766070  0.16370175  1
  O2-  O334  1  0.33831408  0.82585463  0.50480250  1
  O2-  O335  1  0.33005881  0.82450241  0.82930477  1
  O2-  O336  1  0.66631537  0.32049510  0.16445784  1
  O2-  O337  1  0.66634368  0.30850359  0.49836008  1
  O2-  O338  1  0.66431563  0.32507703  0.82874220  1
  O2-  O339  1  0.66707770  0.82525887  0.16572422  1
  O2-  O340  1  0.66465141  0.81263328  0.49310219  1
  O2-  O341  1  0.66191866  0.81707130  0.82621796  1
  O2-  O342  1  0.17335565  0.33119162  0.16018815  1
  O2-  O343  1  0.16134395  0.31942457  0.49940921  1
  O2-  O344  1  0.16772431  0.31696091  0.83152020  1
  O2-  O345  1  0.16238018  0.82274983  0.16650838  1
  O2-  O346  1  0.15791809  0.82460114  0.50903649  1
  O2-  O347  1  0.16617453  0.82428245  0.83272637  1
  O2-  O348  1  0.50114110  0.32042334  0.16570521  1
  O2-  O349  1  0.49387566  0.32414312  0.50487337  1
  O2-  O350  1  0.50411967  0.32135399  0.82851994  1
  O2-  O351  1  0.49661083  0.82090859  0.16904295  1
  O2-  O352  1  0.50291963  0.81676937  0.50131960  1
  O2-  O353  1  0.50623142  0.81880369  0.82730309  1
  O2-  O354  1  0.82820465  0.31281476  0.17075582  1
  O2-  O355  1  0.83487335  0.32027550  0.49514965  1
  O2-  O356  1  0.83107650  0.32131674  0.83930610  1
  O2-  O357  1  0.83186303  0.82109283  0.16784802  1
  O2-  O358  1  0.83687751  0.82329719  0.49429112  1
  O2-  O359  1  0.83564984  0.82553846  0.82567441  1
  O2-  O360  1  0.06304502  0.07418700  0.10649131  1
  O2-  O361  1  0.11665630  0.08061788  0.44171425  1
  O2-  O362  1  0.06653491  0.08395106  0.77278528  1
  O2-  O363  1  0.09717102  0.58090455  0.11187591  1
  O2-  O364  1  0.08288141  0.57748801  0.45044241  1
  O2-  O365  1  0.06797057  0.58539628  0.78317184  1
  O2-  O366  1  0.40946628  0.08216554  0.11127280  1
  O2-  O367  1  0.40500529  0.06893756  0.44890274  1
  O2-  O368  1  0.41635610  0.08233047  0.78759837  1
  O2-  O369  1  0.42008776  0.58044311  0.10695598  1
  O2-  O370  1  0.41986045  0.58015463  0.46466915  1
  O2-  O371  1  0.42912486  0.58295617  0.73756753  1
  O2-  O372  1  0.76677547  0.08024501  0.11984401  1
  O2-  O373  1  0.74362403  0.07757032  0.44810555  1
  O2-  O374  1  0.76666240  0.07433876  0.78710337  1
  O2-  O375  1  0.74961783  0.57858476  0.11813317  1
  O2-  O376  1  0.74762390  0.58245733  0.45789073  1
  O2-  O377  1  0.75397426  0.58145385  0.75299971  1
  O2-  O378  1  0.26119701  0.08271394  0.21579460  1
  O2-  O379  1  0.26708707  0.07519818  0.56566998  1
  O2-  O380  1  0.27746968  0.07544375  0.88062221  1
  O2-  O381  1  0.24872683  0.57216645  0.20972857  1
  O2-  O382  1  0.26790208  0.58112343  0.55824283  1
  O2-  O383  1  0.25028949  0.58560881  0.90819834  1
  O2-  O384  1  0.57813867  0.07123643  0.21546009  1
  O2-  O385  1  0.59679589  0.07533819  0.55260755  1
  O2-  O386  1  0.56627166  0.08063081  0.88067128  1
  O2-  O387  1  0.59452540  0.57589088  0.22598873  1
  O2-  O388  1  0.57536638  0.58405313  0.56674292  1
  O2-  O389  1  0.58633535  0.58388011  0.87376437  1
  O2-  O390  1  0.90579885  0.08012181  0.22018121  1
  O2-  O391  1  0.89315286  0.08232406  0.56595647  1
  O2-  O392  1  0.91256034  0.07714389  0.88017041  1
  O2-  O393  1  0.92312147  0.58266548  0.21639981  1
  O2-  O394  1  0.90618662  0.58304746  0.56070608  1
  O2-  O395  1  0.90985763  0.58568877  0.88841022  1
  O2-  O396  1  0.07988367  0.42307879  0.10403136  1
  O2-  O397  1  0.06854829  0.41822822  0.44054894  1
  O2-  O398  1  0.09404735  0.41817267  0.78668656  1
  O2-  O399  1  0.07085072  0.91971723  0.11138389  1
  O2-  O400  1  0.07775488  0.92678427  0.45059088  1
  O2-  O401  1  0.07611989  0.92017720  0.78316408  1
  O2-  O402  1  0.41179251  0.42054803  0.11509070  1
  O2-  O403  1  0.42497460  0.42008680  0.45025978  1
  O2-  O404  1  0.42414189  0.42041953  0.78561261  1
  O2-  O405  1  0.42177435  0.91411392  0.10914554  1
  O2-  O406  1  0.43382368  0.91819439  0.44726931  1
  O2-  O407  1  0.44217293  0.91871145  0.75323776  1
  O2-  O408  1  0.76275024  0.42064774  0.10675056  1
  O2-  O409  1  0.74647899  0.41753595  0.44287567  1
  O2-  O410  1  0.73347701  0.41953770  0.77717015  1
  O2-  O411  1  0.75260569  0.91921045  0.10702125  1
  O2-  O412  1  0.74292646  0.91821977  0.44063689  1
  O2-  O413  1  0.73248529  0.91589619  0.76286939  1
  O2-  O414  1  0.26534612  0.41941346  0.22012092  1
  O2-  O415  1  0.26432373  0.41768730  0.58659254  1
  O2-  O416  1  0.27448300  0.41955446  0.86789689  1
  O2-  O417  1  0.23340807  0.91939962  0.21800840  1
  O2-  O418  1  0.23698526  0.91656637  0.56226223  1
  O2-  O419  1  0.23939722  0.92061004  0.89077495  1
  O2-  O420  1  0.58545383  0.41539044  0.22210672  1
  O2-  O421  1  0.59621206  0.41436641  0.55234504  1
  O2-  O422  1  0.57111732  0.42398906  0.88014209  1
  O2-  O423  1  0.59289081  0.92101715  0.21730265  1
  O2-  O424  1  0.56883090  0.91796909  0.56936996  1
  O2-  O425  1  0.58453409  0.91688719  0.89345139  1
  O2-  O426  1  0.90016130  0.41696340  0.22072744  1
  O2-  O427  1  0.90269399  0.41932063  0.55088125  1
  O2-  O428  1  0.91510685  0.41049354  0.91098507  1
  O2-  O429  1  0.92573143  0.91893649  0.21476983  1
  O2-  O430  1  0.93136879  0.92045871  0.55511619  1
  O2-  O431  1  0.92035086  0.92192500  0.88504352  1
  O2-  O432  1  -0.01595651  -0.00989387  0.00893176  1
  O2-  O433  1  0.00295325  -0.02042288  0.32795825  1
  O2-  O434  1  -0.00508997  -0.00910342  0.67680687  1
  O2-  O435  1  -0.01668386  0.48645926  0.00095296  1
  O2-  O436  1  -0.02540734  0.49687489  0.37162864  1
  O2-  O437  1  0.00892779  0.51042731  0.65480493  1
  O2-  O438  1  0.34013948  0.00363707  -0.00964000  1
  O2-  O439  1  0.33157507  0.00465073  0.33272176  1
  O2-  O440  1  0.32660060  -0.00621078  0.67585068  1
  O2-  O441  1  0.33082289  0.47116760  0.00602111  1
  O2-  O442  1  0.33472539  0.51196561  0.32310505  1
  O2-  O443  1  0.34913174  0.48812743  0.66585409  1
  O2-  O444  1  0.66663496  0.00583837  0.00038356  1
  O2-  O445  1  0.66960805  0.00779000  0.31932761  1
  O2-  O446  1  0.66802125  0.01295207  0.67334653  1
  O2-  O447  1  0.65085455  0.49560193  0.02895128  1
  O2-  O448  1  0.66683108  0.50554523  0.32754152  1
  O2-  O449  1  0.65484440  0.49858615  0.68174551  1
  O2-  O450  1  0.14370177  0.00137567  -0.02905176  1
  O2-  O451  1  0.15944682  -0.00734492  0.31918047  1
  O2-  O452  1  0.16292770  -0.00455663  0.66322702  1
  O2-  O453  1  0.18387747  0.49249003  0.03479039  1
  O2-  O454  1  0.16337353  0.52117651  0.33051898  1
  O2-  O455  1  0.18716907  0.50479559  0.70586498  1
  O2-  O456  1  0.50327206  0.00967643  0.00590451  1
  O2-  O457  1  0.50870768  0.01325305  0.34858206  1
  O2-  O458  1  0.50807259  0.01535118  0.67561559  1
  O2-  O459  1  0.49162802  0.48475184  -0.00422015  1
  O2-  O460  1  0.50088335  0.49803756  0.33419033  1
  O2-  O461  1  0.50639693  0.47823165  0.66916887  1
  O2-  O462  1  0.82929332  0.01112819  -0.00634208  1
  O2-  O463  1  0.82391100  -0.00453898  0.31960879  1
  O2-  O464  1  0.84665851  -0.00413982  0.69079343  1
  O2-  O465  1  0.81343834  0.49526340  -0.01802729  1
  O2-  O466  1  0.82122909  0.51145985  0.31857429  1
  O2-  O467  1  0.80689982  0.50502346  0.63546894  1
  O2-  O468  1  0.58231618  0.24763084  0.93589119  1
  O2-  O469  1  0.76346595  0.75047962  0.39022705  1
  O2-  O470  1  0.90891913  0.75280187  0.93251621  1
  O2-  O471  1  0.41237138  0.25470435  0.40471394  1
  O2-  O472  1  0.08886801  0.24119122  0.07458348  1
  O2-  O473  1  0.24393722  0.25099404  0.26951179  1
  O2-  O474  1  0.41277472  0.75185860  0.39769365  1
  O2-  O475  1  0.91565277  0.24954804  0.59980443  1
  O2-  O476  1  0.92556828  0.75308292  0.59945814  1
  O2-  O477  1  0.25577114  0.75484710  0.26180823  1
  O2-  O478  1  0.75636629  0.25453730  0.73765882  1
  O2-  O479  1  0.08412483  0.75045745  0.72340145  1
  O2-  O480  1  0.58556435  0.74861397  0.94681781  1
  O2-  O481  1  0.58425909  0.75581060  0.26095564  1
  O2-  O482  1  0.90886974  0.74841106  0.28249010  1
  O2-  O483  1  0.58310437  0.25201252  0.26610208  1
  O2-  O484  1  0.25053687  0.25597600  0.59329295  1
  O2-  O485  1  0.07525696  0.25068386  0.39827275  1
  O2-  O486  1  0.07481665  0.74942270  0.39871324  1
  O2-  O487  1  0.24938731  0.75314229  0.92691284  1
  O2-  O488  1  0.23982736  0.74995601  0.60457458  1
  O2-  O489  1  0.42596309  0.75043620  0.06056345  1
  O2-  O490  1  0.08287763  0.25033666  0.72583254  1
  O2-  O491  1  0.93294020  0.25006599  0.27131998  1
  O2-  O492  1  0.75191794  0.74999497  0.06114963  1
