# generated using pymatgen
data_Ca108Mn108O277
_symmetry_space_group_name_H-M   'P 1'
_cell_length_a   16.03482226
_cell_length_b   22.31528719
_cell_length_c   16.39400598
_cell_angle_alpha   89.99592735
_cell_angle_beta   89.99640064
_cell_angle_gamma   90.00577866
_symmetry_Int_Tables_number   1
_chemical_formula_structural   Ca108Mn108O277
_chemical_formula_sum   'Ca108 Mn108 O277'
_cell_volume   5866.13043754
_cell_formula_units_Z   1
loop_
 _symmetry_equiv_pos_site_id
 _symmetry_equiv_pos_as_xyz
  1  'x, y, z'
loop_
 _atom_type_symbol
 _atom_type_oxidation_number
  Ca2+  2.0
  Mn3.34+  3.34
  O2-  -2.0
loop_
 _atom_site_type_symbol
 _atom_site_label
 _atom_site_symmetry_multiplicity
 _atom_site_fract_x
 _atom_site_fract_y
 _atom_site_fract_z
 _atom_site_occupancy
  Ca2+  Ca0  1  0.10607506  0.24688257  0.25674991  1
  Ca2+  Ca1  1  0.08137597  0.26884006  0.58941699  1
  Ca2+  Ca2  1  0.06898411  0.25486477  0.90374679  1
  Ca2+  Ca3  1  0.07076928  0.74427838  0.25246379  1
  Ca2+  Ca4  1  0.08693538  0.74475493  0.59482869  1
  Ca2+  Ca5  1  0.09393637  0.75014148  0.90537345  1
  Ca2+  Ca6  1  0.42204928  0.23074031  0.26949590  1
  Ca2+  Ca7  1  0.43076152  0.24197055  0.57734544  1
  Ca2+  Ca8  1  0.42409261  0.24559337  0.89013962  1
  Ca2+  Ca9  1  0.42861364  0.75837415  0.25072706  1
  Ca2+  Ca10  1  0.41908224  0.75620819  0.58870195  1
  Ca2+  Ca11  1  0.41998136  0.75004194  0.90281892  1
  Ca2+  Ca12  1  0.72605418  0.23875211  0.26897594  1
  Ca2+  Ca13  1  0.72788949  0.23492696  0.57045070  1
  Ca2+  Ca14  1  0.76799331  0.24255572  0.91322399  1
  Ca2+  Ca15  1  0.74069397  0.75791870  0.24656163  1
  Ca2+  Ca16  1  0.74217509  0.77670015  0.58779907  1
  Ca2+  Ca17  1  0.73930918  0.75920918  0.91728421  1
  Ca2+  Ca18  1  0.24635658  0.25434461  0.08225547  1
  Ca2+  Ca19  1  0.27363919  0.24748224  0.42818602  1
  Ca2+  Ca20  1  0.27563185  0.25189974  0.73938501  1
  Ca2+  Ca21  1  0.24665837  0.76228311  0.07527634  1
  Ca2+  Ca22  1  0.25861469  0.74870105  0.42590201  1
  Ca2+  Ca23  1  0.25334766  0.74377801  0.74742391  1
  Ca2+  Ca24  1  0.59324198  0.24808930  0.08544025  1
  Ca2+  Ca25  1  0.57849590  0.23599925  0.42857572  1
  Ca2+  Ca26  1  0.56903851  0.23466230  0.73427495  1
  Ca2+  Ca27  1  0.58820496  0.75363808  0.08159309  1
  Ca2+  Ca28  1  0.58270062  0.76153831  0.41523416  1
  Ca2+  Ca29  1  0.57903442  0.76750553  0.74700406  1
  Ca2+  Ca30  1  0.91200602  0.24833178  0.06208646  1
  Ca2+  Ca31  1  0.88923787  0.24294288  0.43840565  1
  Ca2+  Ca32  1  0.90821664  0.24704327  0.74985197  1
  Ca2+  Ca33  1  0.90235160  0.75208197  0.08911328  1
  Ca2+  Ca34  1  0.91132117  0.75919198  0.42231362  1
  Ca2+  Ca35  1  0.91558208  0.75788240  0.74339309  1
  Ca2+  Ca36  1  0.57630912  0.09387599  0.42498279  1
  Ca2+  Ca37  1  0.92910952  0.60334156  0.40312252  1
  Ca2+  Ca38  1  0.59543901  0.10560478  0.08971418  1
  Ca2+  Ca39  1  0.10247610  0.59181395  0.60932872  1
  Ca2+  Ca40  1  0.74960646  0.11036714  0.90935579  1
  Ca2+  Ca41  1  0.95016244  0.59812667  0.74655909  1
  Ca2+  Ca42  1  0.74921810  0.58327638  0.59309378  1
  Ca2+  Ca43  1  0.73704737  0.58356412  0.59266808  1
  Ca2+  Ca44  1  0.57879497  0.60312695  0.08211008  1
  Ca2+  Ca45  1  0.08788344  0.60911973  0.89053204  1
  Ca2+  Ca46  1  0.42829804  0.57875629  0.29310715  1
  Ca2+  Ca47  1  0.94164258  0.60366981  0.40549406  1
  Ca2+  Ca48  1  0.73272928  0.08854586  0.28432393  1
  Ca2+  Ca49  1  0.26951677  0.58485633  0.42892959  1
  Ca2+  Ca50  1  0.43243136  0.09212435  0.90623693  1
  Ca2+  Ca51  1  0.90853239  0.59147237  0.07991482  1
  Ca2+  Ca52  1  0.58487371  0.10587581  0.08788384  1
  Ca2+  Ca53  1  0.39065919  0.57597153  0.58926039  1
  Ca2+  Ca54  1  0.30287545  0.10847497  0.39601097  1
  Ca2+  Ca55  1  0.75952548  0.58605154  0.93399883  1
  Ca2+  Ca56  1  0.15270969  0.08568211  0.25368563  1
  Ca2+  Ca57  1  0.26927446  0.58614940  0.06170100  1
  Ca2+  Ca58  1  0.42336829  0.08820640  0.90905163  1
  Ca2+  Ca59  1  0.28935737  0.09156996  0.74361069  1
  Ca2+  Ca60  1  0.76074279  0.59775434  0.24000952  1
  Ca2+  Ca61  1  0.88282333  0.09824673  0.04834589  1
  Ca2+  Ca62  1  0.54253670  0.58030129  0.73793725  1
  Ca2+  Ca63  1  0.84012556  0.08571797  0.45083936  1
  Ca2+  Ca64  1  0.55246315  0.57823956  0.73604920  1
  Ca2+  Ca65  1  0.25817634  0.58505634  0.06364770  1
  Ca2+  Ca66  1  0.91700235  0.58720816  0.08627132  1
  Ca2+  Ca67  1  0.90227596  0.09286508  0.75055082  1
  Ca2+  Ca68  1  0.74779890  0.59717887  0.24010564  1
  Ca2+  Ca69  1  0.89587281  0.09987507  0.04598543  1
  Ca2+  Ca70  1  0.43649735  0.10095710  0.58230444  1
  Ca2+  Ca71  1  0.25848609  0.58373499  0.74228596  1
  Ca2+  Ca72  1  0.09609445  0.91743342  0.92188953  1
  Ca2+  Ca73  1  0.25160725  0.40491639  0.07688740  1
  Ca2+  Ca74  1  0.91633338  0.40010834  0.75245093  1
  Ca2+  Ca75  1  0.09550368  0.90244547  0.24809186  1
  Ca2+  Ca76  1  0.25080363  0.91253237  0.75306672  1
  Ca2+  Ca77  1  0.28007446  0.41017977  0.43172933  1
  Ca2+  Ca78  1  0.91901139  0.90792091  0.07752736  1
  Ca2+  Ca79  1  0.90290640  0.92094954  0.72631366  1
  Ca2+  Ca80  1  0.60755307  0.92810099  0.43193708  1
  Ca2+  Ca81  1  0.91840026  0.41225247  0.07176095  1
  Ca2+  Ca82  1  0.26150592  0.42537506  0.72246447  1
  Ca2+  Ca83  1  0.41520521  0.39828243  0.90110327  1
  Ca2+  Ca84  1  0.09481052  0.40125860  0.24718710  1
  Ca2+  Ca85  1  0.08209455  0.40115736  0.24752622  1
  Ca2+  Ca86  1  0.74513566  0.39398276  0.25003385  1
  Ca2+  Ca87  1  0.26381725  0.90397630  0.39922880  1
  Ca2+  Ca88  1  0.08365272  0.91959536  0.92145696  1
  Ca2+  Ca89  1  0.41230762  0.41029146  0.26593881  1
  Ca2+  Ca90  1  0.90986645  0.38945443  0.42858740  1
  Ca2+  Ca91  1  0.06731437  0.90768855  0.59298647  1
  Ca2+  Ca92  1  0.42075696  0.91167283  0.92126893  1
  Ca2+  Ca93  1  0.56892766  0.39990479  0.42478189  1
  Ca2+  Ca94  1  0.26978611  0.41330240  0.43038910  1
  Ca2+  Ca95  1  0.26315281  0.91116364  0.75469859  1
  Ca2+  Ca96  1  0.40445699  0.39757589  0.90068916  1
  Ca2+  Ca97  1  0.90662194  0.40975942  0.07493609  1
  Ca2+  Ca98  1  0.41859173  0.42207897  0.59873312  1
  Ca2+  Ca99  1  0.74307825  0.90525734  0.91302335  1
  Ca2+  Ca100  1  0.88158283  0.92274236  0.43748923  1
  Ca2+  Ca101  1  0.27224259  0.90683391  0.40443707  1
  Ca2+  Ca102  1  0.58320103  0.39227057  0.08505270  1
  Ca2+  Ca103  1  0.26426708  0.92230916  0.07232355  1
  Ca2+  Ca104  1  0.10657354  0.90634556  0.24553974  1
  Ca2+  Ca105  1  0.56934383  0.90508735  0.07981196  1
  Ca2+  Ca106  1  0.75243634  0.39171599  0.91037955  1
  Ca2+  Ca107  1  0.74466588  0.91118101  0.26996641  1
  Mn3.34+  Mn108  1  0.08464198  0.32990511  0.07862091  1
  Mn3.34+  Mn109  1  0.08249110  0.33166443  0.42384482  1
  Mn3.34+  Mn110  1  0.08658900  0.33875305  0.74768711  1
  Mn3.34+  Mn111  1  0.08060868  0.83557285  0.08364500  1
  Mn3.34+  Mn112  1  0.08012259  0.82807304  0.42498060  1
  Mn3.34+  Mn113  1  0.08156715  0.83284682  0.75154212  1
  Mn3.34+  Mn114  1  0.41685134  0.32616617  0.08585879  1
  Mn3.34+  Mn115  1  0.42375231  0.33001360  0.42243941  1
  Mn3.34+  Mn116  1  0.42261685  0.33483870  0.74082274  1
  Mn3.34+  Mn117  1  0.41712015  0.83579649  0.08479749  1
  Mn3.34+  Mn118  1  0.42721050  0.83819405  0.42257366  1
  Mn3.34+  Mn119  1  0.42100742  0.83848161  0.74689279  1
  Mn3.34+  Mn120  1  0.75177500  0.32548566  0.08776952  1
  Mn3.34+  Mn121  1  0.74239356  0.32700066  0.42172051  1
  Mn3.34+  Mn122  1  0.74285676  0.33641412  0.74542845  1
  Mn3.34+  Mn123  1  0.74912404  0.83342962  0.08565559  1
  Mn3.34+  Mn124  1  0.74399026  0.83898544  0.41901385  1
  Mn3.34+  Mn125  1  0.74427736  0.84405993  0.74648149  1
  Mn3.34+  Mn126  1  0.25716305  0.32917692  0.24831934  1
  Mn3.34+  Mn127  1  0.25039422  0.33650501  0.58627275  1
  Mn3.34+  Mn128  1  0.24151970  0.33149055  0.91012182  1
  Mn3.34+  Mn129  1  0.25929721  0.83150483  0.24275067  1
  Mn3.34+  Mn130  1  0.25198673  0.83342064  0.58048745  1
  Mn3.34+  Mn131  1  0.25199039  0.83303848  0.91447318  1
  Mn3.34+  Mn132  1  0.57967380  0.32948031  0.25171042  1
  Mn3.34+  Mn133  1  0.58612703  0.33260174  0.58746051  1
  Mn3.34+  Mn134  1  0.58706321  0.32602727  0.91229912  1
  Mn3.34+  Mn135  1  0.57972422  0.83626013  0.24888664  1
  Mn3.34+  Mn136  1  0.57916250  0.84554314  0.58572479  1
  Mn3.34+  Mn137  1  0.58196715  0.83518634  0.91370354  1
  Mn3.34+  Mn138  1  0.91700082  0.32680662  0.24827147  1
  Mn3.34+  Mn139  1  0.91215898  0.33061145  0.58890445  1
  Mn3.34+  Mn140  1  0.91923445  0.33006995  0.90987781  1
  Mn3.34+  Mn141  1  0.91464860  0.83248472  0.25031061  1
  Mn3.34+  Mn142  1  0.91287469  0.83408117  0.58173055  1
  Mn3.34+  Mn143  1  0.91663518  0.83500401  0.90926192  1
  Mn3.34+  Mn144  1  0.73127735  0.66498504  0.42313828  1
  Mn3.34+  Mn145  1  0.08810639  0.17104439  0.42494367  1
  Mn3.34+  Mn146  1  0.42514241  0.66031432  0.42825438  1
  Mn3.34+  Mn147  1  0.41324744  0.66807433  0.74865283  1
  Mn3.34+  Mn148  1  0.25304707  0.16320227  0.91771207  1
  Mn3.34+  Mn149  1  0.57930971  0.67003177  0.91392807  1
  Mn3.34+  Mn150  1  0.74660856  0.67088862  0.08086084  1
  Mn3.34+  Mn151  1  0.57901184  0.67012287  0.58037206  1
  Mn3.34+  Mn152  1  0.91858522  0.66934190  0.91009587  1
  Mn3.34+  Mn153  1  0.08352972  0.16450148  0.08860772  1
  Mn3.34+  Mn154  1  0.26023339  0.66890772  0.25372864  1
  Mn3.34+  Mn155  1  0.24407202  0.15690729  0.91609592  1
  Mn3.34+  Mn156  1  0.75867561  0.66322548  0.75908138  1
  Mn3.34+  Mn157  1  0.09043201  0.16168703  0.73905869  1
  Mn3.34+  Mn158  1  0.25692383  0.16926169  0.58212338  1
  Mn3.34+  Mn159  1  0.74455740  0.66876959  0.75579655  1
  Mn3.34+  Mn160  1  0.24780076  0.66159742  0.25221760  1
  Mn3.34+  Mn161  1  0.57557152  0.66854636  0.25037542  1
  Mn3.34+  Mn162  1  0.92003777  0.66912898  0.58223432  1
  Mn3.34+  Mn163  1  0.92136535  0.16710131  0.24828478  1
  Mn3.34+  Mn164  1  0.91128117  0.17595043  0.25236501  1
  Mn3.34+  Mn165  1  0.58424357  0.16834533  0.91100474  1
  Mn3.34+  Mn166  1  0.08929807  0.67680700  0.42200554  1
  Mn3.34+  Mn167  1  0.25106093  0.66900682  0.58438901  1
  Mn3.34+  Mn168  1  0.57538259  0.16478858  0.25520432  1
  Mn3.34+  Mn169  1  0.41761003  0.67449010  0.08283086  1
  Mn3.34+  Mn170  1  0.74545000  0.66978020  0.41931875  1
  Mn3.34+  Mn171  1  0.74113553  0.15633216  0.74571089  1
  Mn3.34+  Mn172  1  0.07556418  0.16401066  0.42670716  1
  Mn3.34+  Mn173  1  0.25331956  0.66909557  0.90704187  1
  Mn3.34+  Mn174  1  0.07462418  0.66543186  0.08715363  1
  Mn3.34+  Mn175  1  0.07782186  0.16310354  0.74940405  1
  Mn3.34+  Mn176  1  0.40585673  0.15838022  0.09983038  1
  Mn3.34+  Mn177  1  0.90876369  0.15961724  0.58526732  1
  Mn3.34+  Mn178  1  0.09267430  0.15851380  0.09014355  1
  Mn3.34+  Mn179  1  0.08619375  0.66931908  0.08554396  1
  Mn3.34+  Mn180  1  0.07590687  -0.00202988  0.42519570  1
  Mn3.34+  Mn181  1  0.58187652  0.50095302  0.58013580  1
  Mn3.34+  Mn182  1  0.92647803  0.49960773  0.91649102  1
  Mn3.34+  Mn183  1  0.90648394  0.00937481  0.25297735  1
  Mn3.34+  Mn184  1  0.09279100  0.01024645  0.07204728  1
  Mn3.34+  Mn185  1  0.75156146  0.49938095  0.75052439  1
  Mn3.34+  Mn186  1  0.91853664  0.49783415  0.25993137  1
  Mn3.34+  Mn187  1  0.58797444  0.49621805  0.91014811  1
  Mn3.34+  Mn188  1  0.92108887  0.00350678  0.25183617  1
  Mn3.34+  Mn189  1  0.75151159  0.49409511  0.41675612  1
  Mn3.34+  Mn190  1  0.74339006  0.00268755  0.72631925  1
  Mn3.34+  Mn191  1  0.57691251  0.50095994  0.91018138  1
  Mn3.34+  Mn192  1  0.58429158  0.49674889  0.24754100  1
  Mn3.34+  Mn193  1  0.57619068  -0.00120675  0.25957810  1
  Mn3.34+  Mn194  1  0.24967569  0.50111726  0.25415287  1
  Mn3.34+  Mn195  1  0.41493813  0.00098106  0.39867656  1
  Mn3.34+  Mn196  1  0.73933211  -0.00708008  0.09225931  1
  Mn3.34+  Mn197  1  0.08620972  0.49433948  0.73586193  1
  Mn3.34+  Mn198  1  0.08666925  0.50090470  0.09186574  1
  Mn3.34+  Mn199  1  0.74100741  0.49722803  0.08455565  1
  Mn3.34+  Mn200  1  0.74923406  -0.00090667  0.09284625  1
  Mn3.34+  Mn201  1  0.26360885  -0.00112485  0.57586365  1
  Mn3.34+  Mn202  1  0.07993699  0.49789658  0.43293846  1
  Mn3.34+  Mn203  1  0.91860273  0.49708075  0.58391876  1
  Mn3.34+  Mn204  1  0.43301925  0.49729002  0.09898713  1
  Mn3.34+  Mn205  1  0.09396926  0.50381185  0.43095977  1
  Mn3.34+  Mn206  1  0.41807505  0.50246546  0.09627576  1
  Mn3.34+  Mn207  1  0.08162308  0.00033286  0.74126008  1
  Mn3.34+  Mn208  1  0.41596067  0.00201276  0.07371942  1
  Mn3.34+  Mn209  1  0.09095561  0.00229387  0.42244368  1
  Mn3.34+  Mn210  1  0.91510469  -0.00010207  0.90960767  1
  Mn3.34+  Mn211  1  0.44561923  -0.01046143  0.72041313  1
  Mn3.34+  Mn212  1  0.25043372  0.00500609  0.57767192  1
  Mn3.34+  Mn213  1  0.23652455  0.49809560  0.91347136  1
  Mn3.34+  Mn214  1  0.58979680  -0.00003550  0.90743851  1
  Mn3.34+  Mn215  1  0.73651906  0.49888768  0.41627616  1
  O2-  O216  1  0.00233788  0.14993197  0.01218873  1
  O2-  O217  1  0.00386308  0.15481762  0.32679039  1
  O2-  O218  1  -0.00074185  0.15092791  0.66628608  1
  O2-  O219  1  -0.00015131  0.65280354  -0.00572044  1
  O2-  O220  1  0.00020995  0.68339865  0.34414910  1
  O2-  O221  1  0.00186043  0.66593648  0.65834974  1
  O2-  O222  1  0.34207495  0.15648203  -0.00054261  1
  O2-  O223  1  0.30783122  0.19085711  0.32016065  1
  O2-  O224  1  0.33635703  0.15984974  0.65981283  1
  O2-  O225  1  0.32905755  0.66211950  0.00485693  1
  O2-  O226  1  0.33421497  0.65579065  0.34236360  1
  O2-  O227  1  0.33116853  0.65272788  0.66769856  1
  O2-  O228  1  0.66208545  0.15891650  -0.00283673  1
  O2-  O229  1  0.65613742  0.16052256  0.33024762  1
  O2-  O230  1  0.67322216  0.18440996  0.67473768  1
  O2-  O231  1  0.66800474  0.64925983  -0.00305162  1
  O2-  O232  1  0.66582051  0.64640638  0.32981867  1
  O2-  O233  1  0.65809998  0.64048644  0.67823107  1
  O2-  O234  1  0.17067410  0.14365709  0.00188244  1
  O2-  O235  1  0.16253134  0.16246205  0.34068221  1
  O2-  O236  1  0.17924424  0.14801082  0.67431447  1
  O2-  O237  1  0.16702248  0.64570183  0.00307278  1
  O2-  O238  1  0.16857387  0.65601033  0.33993420  1
  O2-  O239  1  0.17245964  0.66696215  0.66528131  1
  O2-  O240  1  0.50004190  0.15277619  0.00018985  1
  O2-  O241  1  0.49560132  0.15167581  0.32800179  1
  O2-  O242  1  0.49357626  0.16981822  0.66096787  1
  O2-  O243  1  0.49961543  0.66699220  0.00070574  1
  O2-  O244  1  0.49085899  0.66948272  0.33186228  1
  O2-  O245  1  0.49084877  0.64906525  0.65477411  1
  O2-  O246  1  0.82451478  0.17531855  0.00544933  1
  O2-  O247  1  0.83625597  0.15711227  0.33392476  1
  O2-  O248  1  0.83446068  0.16214662  0.67434831  1
  O2-  O249  1  0.84253151  0.65947294  0.00428587  1
  O2-  O250  1  0.82730685  0.64979898  0.33500799  1
  O2-  O251  1  0.83222575  0.64368264  0.66612316  1
  O2-  O252  1  -0.00745869  0.34681956  0.00605195  1
  O2-  O253  1  -0.00101733  0.34788679  0.33075357  1
  O2-  O254  1  0.00045224  0.34554091  0.66599859  1
  O2-  O255  1  0.00171826  0.84616871  -0.00418692  1
  O2-  O256  1  0.00689454  0.82464006  0.32846972  1
  O2-  O257  1  0.00024391  0.82925310  0.66850634  1
  O2-  O258  1  0.33554643  0.34011216  -0.00156374  1
  O2-  O259  1  0.33096815  0.34386441  0.33894126  1
  O2-  O260  1  0.33260199  0.34566497  0.66803529  1
  O2-  O261  1  0.33330241  0.84475168  -0.00140937  1
  O2-  O262  1  0.33760969  0.83092484  0.33606765  1
  O2-  O263  1  0.32925755  0.85453164  0.66639189  1
  O2-  O264  1  0.66631031  0.33401279  0.00646555  1
  O2-  O265  1  0.66148339  0.34622275  0.33455464  1
  O2-  O266  1  0.66703751  0.31733051  0.66788025  1
  O2-  O267  1  0.66634853  0.85207615  0.00368937  1
  O2-  O268  1  0.66020738  0.84879886  0.33472602  1
  O2-  O269  1  0.66226403  0.84299974  0.66649252  1
  O2-  O270  1  0.17063228  0.34554084  0.00275573  1
  O2-  O271  1  0.16870534  0.33918122  0.32753120  1
  O2-  O272  1  0.16860954  0.35035153  0.66640596  1
  O2-  O273  1  0.16870164  0.84953156  0.00100474  1
  O2-  O274  1  0.16670622  0.84792166  0.34344183  1
  O2-  O275  1  0.16564942  0.84866661  0.66787978  1
  O2-  O276  1  0.49385727  0.34620568  -0.00376561  1
  O2-  O277  1  0.49560318  0.34791720  0.32965522  1
  O2-  O278  1  0.49877878  0.34874985  0.66119400  1
  O2-  O279  1  0.49778000  0.83709929  -0.00062976  1
  O2-  O280  1  0.49935712  0.82470807  0.33606468  1
  O2-  O281  1  0.49772949  0.83687200  0.66491393  1
  O2-  O282  1  0.83155080  0.33304330  0.00081892  1
  O2-  O283  1  0.83188004  0.32862760  0.32801875  1
  O2-  O284  1  0.83758695  0.33161516  0.67768129  1
  O2-  O285  1  0.83627675  0.84080241  -0.00065493  1
  O2-  O286  1  0.83442843  0.83867327  0.33430361  1
  O2-  O287  1  0.83429167  0.84607803  0.66638781  1
  O2-  O288  1  0.00156978  0.19545715  0.17358263  1
  O2-  O289  1  -0.00945043  0.17788968  0.49649553  1
  O2-  O290  1  -0.00277608  0.17600052  0.82246636  1
  O2-  O291  1  -0.01115952  0.68703731  0.15989790  1
  O2-  O292  1  -0.00108985  0.68579785  0.49737070  1
  O2-  O293  1  -0.00232216  0.68554782  0.83480489  1
  O2-  O294  1  0.34095777  0.20781915  0.15421758  1
  O2-  O295  1  0.33501012  0.17786310  0.50429953  1
  O2-  O296  1  0.33160717  0.17528997  0.83399093  1
  O2-  O297  1  0.33290152  0.68937584  0.16387369  1
  O2-  O298  1  0.33940739  0.68284127  0.50033756  1
  O2-  O299  1  0.33628840  0.68414971  0.83170988  1
  O2-  O300  1  0.65564450  0.17711626  0.16583068  1
  O2-  O301  1  0.66050187  0.16115422  0.49466922  1
  O2-  O302  1  0.66668224  0.18165940  0.83462755  1
  O2-  O303  1  0.66410814  0.67058841  0.16586016  1
  O2-  O304  1  0.68528983  0.68236824  0.52510544  1
  O2-  O305  1  0.66962844  0.68358814  0.84031303  1
  O2-  O306  1  0.16776682  0.17863423  0.17038878  1
  O2-  O307  1  0.16458547  0.18916238  0.50694590  1
  O2-  O308  1  0.16179483  0.17800318  0.83237525  1
  O2-  O309  1  0.17154451  0.67809178  0.16663259  1
  O2-  O310  1  0.16970750  0.68840463  0.50196710  1
  O2-  O311  1  0.16991003  0.68233675  0.83563828  1
  O2-  O312  1  0.50267484  0.17997158  0.15823235  1
  O2-  O313  1  0.51109915  0.16619119  0.50481190  1
  O2-  O314  1  0.49390538  0.16932781  0.84195722  1
  O2-  O315  1  0.50068343  0.68804409  0.16108141  1
  O2-  O316  1  0.50730063  0.69127881  0.49495380  1
  O2-  O317  1  0.50845936  0.68165168  0.81634557  1
  O2-  O318  1  0.83589759  0.19442836  0.17268443  1
  O2-  O319  1  0.82821034  0.17435691  0.51195643  1
  O2-  O320  1  0.82058917  0.17780120  0.82028729  1
  O2-  O321  1  0.82219633  0.68084545  0.16644412  1
  O2-  O322  1  0.84160536  0.66924056  0.48950179  1
  O2-  O323  1  0.83176626  0.69659161  0.84237138  1
  O2-  O324  1  0.01031820  0.31668185  0.17687788  1
  O2-  O325  1  -0.00783742  0.32056354  0.49710147  1
  O2-  O326  1  -0.00457724  0.32578135  0.82480204  1
  O2-  O327  1  -0.00384149  0.81607423  0.16705688  1
  O2-  O328  1  0.00174895  0.80956254  0.50543729  1
  O2-  O329  1  0.00329292  0.80995885  0.83456584  1
  O2-  O330  1  0.33107998  0.32216907  0.16326016  1
  O2-  O331  1  0.33408888  0.32503443  0.49936987  1
  O2-  O332  1  0.33823521  0.31958564  0.83726063  1
  O2-  O333  1  0.33703376  0.80997241  0.15767932  1
  O2-  O334  1  0.33140079  0.82142672  0.49150541  1
  O2-  O335  1  0.32994434  0.82572088  0.82983164  1
  O2-  O336  1  0.67340223  0.31482710  0.17281830  1
  O2-  O337  1  0.65714364  0.32922510  0.49432827  1
  O2-  O338  1  0.67421591  0.31473203  0.84028107  1
  O2-  O339  1  0.66592207  0.82322455  0.16478533  1
  O2-  O340  1  0.66033986  0.82683410  0.49634355  1
  O2-  O341  1  0.66867836  0.82579769  0.83733809  1
  O2-  O342  1  0.16749739  0.31454836  0.17086697  1
  O2-  O343  1  0.17922622  0.32847059  0.49039055  1
  O2-  O344  1  0.16727920  0.31610357  0.82812684  1
  O2-  O345  1  0.15786776  0.82467018  0.17243269  1
  O2-  O346  1  0.16740754  0.81310807  0.49904026  1
  O2-  O347  1  0.16925660  0.81693232  0.82810255  1
  O2-  O348  1  0.50864202  0.31499699  0.15728416  1
  O2-  O349  1  0.50221118  0.32539847  0.49969790  1
  O2-  O350  1  0.49581258  0.32763064  0.83706414  1
  O2-  O351  1  0.50401608  0.81687901  0.16022217  1
  O2-  O352  1  0.50043236  0.81568110  0.50297060  1
  O2-  O353  1  0.49566378  0.82288791  0.83830245  1
  O2-  O354  1  0.84548037  0.31584249  0.15729521  1
  O2-  O355  1  0.83036908  0.32034507  0.50161128  1
  O2-  O356  1  0.83232037  0.31668194  0.83460280  1
  O2-  O357  1  0.83226387  0.81379879  0.16932553  1
  O2-  O358  1  0.83419399  0.82721240  0.49416160  1
  O2-  O359  1  0.83075820  0.82484173  0.83385603  1
  O2-  O360  1  0.06954135  0.08048305  0.13819447  1
  O2-  O361  1  0.09898469  0.08230756  0.44549247  1
  O2-  O362  1  0.07923273  0.07885702  0.77579014  1
  O2-  O363  1  0.06171087  0.58418747  0.12321446  1
  O2-  O364  1  0.07622127  0.58522233  0.45752589  1
  O2-  O365  1  0.08720169  0.56974162  0.77261275  1
  O2-  O366  1  0.44754201  0.07618223  0.10993251  1
  O2-  O367  1  0.42165079  0.06831824  0.45265233  1
  O2-  O368  1  0.41722781  0.05410818  0.78700259  1
  O2-  O369  1  0.41085645  0.58418451  0.11756001  1
  O2-  O370  1  0.41209922  0.57986090  0.44326633  1
  O2-  O371  1  0.41643676  0.58572621  0.77230481  1
  O2-  O372  1  0.76205200  0.07970579  0.11897074  1
  O2-  O373  1  0.71229404  0.07117543  0.42164208  1
  O2-  O374  1  0.74567232  0.07061195  0.78272042  1
  O2-  O375  1  0.75677264  0.58344045  0.10702342  1
  O2-  O376  1  0.73971153  0.57800466  0.45787036  1
  O2-  O377  1  0.75539577  0.58379259  0.79744823  1
  O2-  O378  1  0.28404540  0.08131916  0.25825457  1
  O2-  O379  1  0.25160493  0.08396579  0.54916138  1
  O2-  O380  1  0.27394350  0.07823788  0.88717618  1
  O2-  O381  1  0.26853901  0.58163616  0.20674677  1
  O2-  O382  1  0.24196458  0.58748499  0.55894518  1
  O2-  O383  1  0.24303451  0.58350539  0.89053870  1
  O2-  O384  1  0.58823843  0.07889106  0.22194639  1
  O2-  O385  1  0.58121926  0.08849038  0.56686343  1
  O2-  O386  1  0.57870704  0.08222223  0.89518040  1
  O2-  O387  1  0.57803149  0.57861173  0.21832621  1
  O2-  O388  1  0.60204435  0.58202798  0.54884550  1
  O2-  O389  1  0.58161777  0.58105496  0.87349270  1
  O2-  O390  1  0.91022580  0.08535874  0.19914896  1
  O2-  O391  1  0.91259597  0.08096507  0.56718637  1
  O2-  O392  1  0.88747906  0.07946051  0.91001993  1
  O2-  O393  1  0.89184690  0.57509120  0.21022823  1
  O2-  O394  1  0.91572474  0.57614738  0.53474636  1
  O2-  O395  1  0.92123329  0.58149104  0.88134038  1
  O2-  O396  1  0.07861373  0.41621631  0.11469320  1
  O2-  O397  1  0.08490358  0.41601597  0.43402120  1
  O2-  O398  1  0.07681755  0.42318144  0.78095431  1
  O2-  O399  1  0.06397729  0.93033562  0.12289364  1
  O2-  O400  1  0.07398120  0.91673824  0.45089746  1
  O2-  O401  1  0.09860133  0.92250561  0.78690173  1
  O2-  O402  1  0.41961377  0.41677504  0.12215167  1
  O2-  O403  1  0.41575191  0.41700426  0.44510467  1
  O2-  O404  1  0.40765410  0.41975350  0.77206699  1
  O2-  O405  1  0.41835459  0.92397829  0.10590143  1
  O2-  O406  1  0.40233356  0.92227249  0.43788018  1
  O2-  O407  1  0.40042207  0.92533272  0.78485598  1
  O2-  O408  1  0.77134472  0.41673531  0.11407768  1
  O2-  O409  1  0.76327013  0.41319637  0.42138164  1
  O2-  O410  1  0.76766760  0.41865971  0.78008870  1
  O2-  O411  1  0.76381813  0.91499211  0.12500165  1
  O2-  O412  1  0.74688090  0.91935111  0.42599345  1
  O2-  O413  1  0.75840226  0.93695529  0.78570392  1
  O2-  O414  1  0.22971637  0.42031563  0.21183289  1
  O2-  O415  1  0.26464835  0.42029131  0.56333198  1
  O2-  O416  1  0.26809231  0.41724156  0.88835945  1
  O2-  O417  1  0.24326623  0.91510256  0.22676954  1
  O2-  O418  1  0.23859224  0.92009787  0.53540386  1
  O2-  O419  1  0.23678998  0.91622221  0.88582523  1
  O2-  O420  1  0.59540833  0.41659377  0.21677214  1
  O2-  O421  1  0.57775661  0.42157425  0.55992032  1
  O2-  O422  1  0.58781816  0.41313559  0.90117598  1
  O2-  O423  1  0.58312589  0.92150142  0.21587429  1
  O2-  O424  1  0.57218459  0.91933277  0.55951835  1
  O2-  O425  1  0.58128068  0.91828792  0.89896901  1
  O2-  O426  1  0.93424041  0.42036035  0.20809784  1
  O2-  O427  1  0.91077566  0.41653493  0.56248983  1
  O2-  O428  1  0.89827973  0.41674566  0.90520286  1
  O2-  O429  1  0.91763279  0.92216241  0.22099102  1
  O2-  O430  1  0.93004567  0.91366110  0.56354620  1
  O2-  O431  1  0.94501012  0.92209823  0.87662119  1
  O2-  O432  1  0.00112113  -0.00019726  -0.00584569  1
  O2-  O433  1  -0.00502720  0.00845492  0.34106016  1
  O2-  O434  1  0.00198994  -0.01757872  0.67613726  1
  O2-  O435  1  -0.01889834  0.49963270  0.03374694  1
  O2-  O436  1  -0.00978289  0.51373162  0.35672218  1
  O2-  O437  1  -0.00003427  0.51420514  0.66781849  1
  O2-  O438  1  0.34218408  -0.00557294  -0.00375440  1
  O2-  O439  1  0.29449670  0.00231998  0.39598075  1
  O2-  O440  1  0.33117351  -0.00450216  0.67378948  1
  O2-  O441  1  0.33968285  0.50225980  0.00503250  1
  O2-  O442  1  0.31590373  0.49163099  0.35269777  1
  O2-  O443  1  0.33299853  0.50390375  0.66794137  1
  O2-  O444  1  0.66607705  0.00242824  0.00159605  1
  O2-  O445  1  0.68009869  -0.00373613  0.28935736  1
  O2-  O446  1  0.66811128  -0.00090957  0.66291514  1
  O2-  O447  1  0.67131053  0.51254335  -0.01107125  1
  O2-  O448  1  0.68753500  0.50567614  0.30550239  1
  O2-  O449  1  0.65297932  0.52182551  0.68118423  1
  O2-  O450  1  0.16608763  -0.02457684  0.00314946  1
  O2-  O451  1  0.14557503  -0.01530585  0.31821366  1
  O2-  O452  1  0.17419613  -0.01749283  0.66809996  1
  O2-  O453  1  0.18515887  0.50728341  0.02619872  1
  O2-  O454  1  0.15117379  0.49612019  0.32713109  1
  O2-  O455  1  0.17637987  0.50635963  0.68018140  1
  O2-  O456  1  0.49798329  0.00173537  -0.01142367  1
  O2-  O457  1  0.52738336  -0.00284587  0.36466447  1
  O2-  O458  1  0.49625711  0.01642974  0.63776133  1
  O2-  O459  1  0.51139166  0.50333615  0.01045413  1
  O2-  O460  1  0.48228780  0.49105444  0.29384628  1
  O2-  O461  1  0.48970147  0.51404762  0.64439894  1
  O2-  O462  1  0.83747681  -0.01222625  0.00887114  1
  O2-  O463  1  0.83863211  0.00538776  0.34448566  1
  O2-  O464  1  0.83970987  0.00762125  0.68662211  1
  O2-  O465  1  0.83759007  0.51344291  0.00760238  1
  O2-  O466  1  0.83807657  0.52823490  0.34862949  1
  O2-  O467  1  0.82467419  0.51716278  0.65447473  1
  O2-  O468  1  0.59073484  0.75334425  0.93965887  1
  O2-  O469  1  0.42475803  0.25150303  0.40707088  1
  O2-  O470  1  0.58902007  0.74744200  0.61224849  1
  O2-  O471  1  0.57607475  0.25242788  0.58501866  1
  O2-  O472  1  0.73886968  0.24899786  0.41034432  1
  O2-  O473  1  0.59854099  0.74985111  0.27097480  1
  O2-  O474  1  0.08337994  0.24822540  0.72558603  1
  O2-  O475  1  0.41115609  0.75166455  0.72738077  1
  O2-  O476  1  0.57611205  0.24947428  0.28056306  1
  O2-  O477  1  0.89124396  0.74837685  0.60259005  1
  O2-  O478  1  0.23622095  0.75005753  0.27607825  1
  O2-  O479  1  0.08699580  0.24481586  0.04865437  1
  O2-  O480  1  0.09682034  0.74902067  0.04989852  1
  O2-  O481  1  0.24147069  0.25277212  0.60681818  1
  O2-  O482  1  0.56906860  0.24848114  0.94169300  1
  O2-  O483  1  0.24088218  0.24486633  0.94068389  1
  O2-  O484  1  0.74131863  0.75262591  0.39362161  1
  O2-  O485  1  0.92885861  0.25253995  0.92830563  1
  O2-  O486  1  0.42103695  0.25487139  0.73098064  1
  O2-  O487  1  0.74009339  0.75131060  0.05612745  1
  O2-  O488  1  0.74959282  0.74688812  0.72005062  1
  O2-  O489  1  0.26162482  0.75368424  0.60949818  1
  O2-  O490  1  0.07241900  0.25169123  0.39154744  1
  O2-  O491  1  0.92847025  0.24897103  0.60471809  1
  O2-  O492  1  0.24897859  0.75098844  0.94035793  1
