# generated using pymatgen
data_Ca108Mn108O277
_symmetry_space_group_name_H-M   'P 1'
_cell_length_a   16.02894840
_cell_length_b   22.30843311
_cell_length_c   16.39084901
_cell_angle_alpha   89.99714277
_cell_angle_beta   89.99707170
_cell_angle_gamma   89.99587028
_symmetry_Int_Tables_number   1
_chemical_formula_structural   Ca108Mn108O277
_chemical_formula_sum   'Ca108 Mn108 O277'
_cell_volume   5861.05161204
_cell_formula_units_Z   1
loop_
 _symmetry_equiv_pos_site_id
 _symmetry_equiv_pos_as_xyz
  1  'x, y, z'
loop_
 _atom_type_symbol
 _atom_type_oxidation_number
  Ca2+  2.0
  Mn3.34+  3.34
  O2-  -2.0
loop_
 _atom_site_type_symbol
 _atom_site_label
 _atom_site_symmetry_multiplicity
 _atom_site_fract_x
 _atom_site_fract_y
 _atom_site_fract_z
 _atom_site_occupancy
  Ca2+  Ca0  1  0.09095837  0.25467335  0.25193968  1
  Ca2+  Ca1  1  0.07788952  0.24238772  0.59305332  1
  Ca2+  Ca2  1  0.06138625  0.25477361  0.91343009  1
  Ca2+  Ca3  1  0.09053605  0.75867032  0.23866580  1
  Ca2+  Ca4  1  0.09131806  0.76196620  0.57009110  1
  Ca2+  Ca5  1  0.08913213  0.75540812  0.93195893  1
  Ca2+  Ca6  1  0.42891376  0.26024351  0.25280108  1
  Ca2+  Ca7  1  0.41601347  0.26039509  0.58805060  1
  Ca2+  Ca8  1  0.43082905  0.24984092  0.89154518  1
  Ca2+  Ca9  1  0.42289140  0.74221665  0.26178732  1
  Ca2+  Ca10  1  0.42630978  0.76016837  0.57220662  1
  Ca2+  Ca11  1  0.41739501  0.74955925  0.91296510  1
  Ca2+  Ca12  1  0.73675757  0.23621416  0.24305149  1
  Ca2+  Ca13  1  0.76246321  0.23761196  0.59046614  1
  Ca2+  Ca14  1  0.76280734  0.24641347  0.90972017  1
  Ca2+  Ca15  1  0.74406906  0.74888769  0.25619822  1
  Ca2+  Ca16  1  0.73593914  0.75126112  0.56227788  1
  Ca2+  Ca17  1  0.74657137  0.74525388  0.92520560  1
  Ca2+  Ca18  1  0.24178410  0.25312089  0.09010636  1
  Ca2+  Ca19  1  0.25212872  0.25847001  0.41970229  1
  Ca2+  Ca20  1  0.25409707  0.24992029  0.74300460  1
  Ca2+  Ca21  1  0.24809532  0.75697027  0.08638640  1
  Ca2+  Ca22  1  0.27417766  0.74303198  0.41081173  1
  Ca2+  Ca23  1  0.26814253  0.75354210  0.75153715  1
  Ca2+  Ca24  1  0.60280717  0.25232387  0.08388705  1
  Ca2+  Ca25  1  0.59020367  0.25099517  0.40982857  1
  Ca2+  Ca26  1  0.59621509  0.24794075  0.75203616  1
  Ca2+  Ca27  1  0.58838297  0.74867296  0.08116212  1
  Ca2+  Ca28  1  0.58196940  0.73931635  0.41668350  1
  Ca2+  Ca29  1  0.57560813  0.75001515  0.74662671  1
  Ca2+  Ca30  1  0.90716240  0.24948566  0.06521343  1
  Ca2+  Ca31  1  0.90770447  0.25052422  0.42574235  1
  Ca2+  Ca32  1  0.92265538  0.22454154  0.76507902  1
  Ca2+  Ca33  1  0.91716644  0.75104359  0.08186988  1
  Ca2+  Ca34  1  0.89371931  0.75488979  0.40977498  1
  Ca2+  Ca35  1  0.90286733  0.76106586  0.75064721  1
  Ca2+  Ca36  1  0.88687974  0.11603464  0.41942900  1
  Ca2+  Ca37  1  0.42027567  0.59738406  0.27140841  1
  Ca2+  Ca38  1  0.42671747  0.07998585  0.25676555  1
  Ca2+  Ca39  1  0.24777025  0.08896478  0.74967434  1
  Ca2+  Ca40  1  0.42740123  0.59579139  0.91601442  1
  Ca2+  Ca41  1  0.86869029  0.59401769  0.40379381  1
  Ca2+  Ca42  1  0.25912190  0.08837936  0.74975534  1
  Ca2+  Ca43  1  0.60426746  0.09643798  0.09429606  1
  Ca2+  Ca44  1  0.41462336  0.07791647  0.26008244  1
  Ca2+  Ca45  1  0.60211929  0.07768943  0.74834425  1
  Ca2+  Ca46  1  0.21177865  0.06460610  0.06882298  1
  Ca2+  Ca47  1  0.24442663  0.08559073  0.40375049  1
  Ca2+  Ca48  1  0.91771989  0.08825633  0.07516922  1
  Ca2+  Ca49  1  0.44384634  0.05760492  0.62541521  1
  Ca2+  Ca50  1  0.23333983  0.59671926  0.08078585  1
  Ca2+  Ca51  1  0.26968974  0.59375847  0.41293746  1
  Ca2+  Ca52  1  0.05796555  0.09988442  0.89585761  1
  Ca2+  Ca53  1  0.41678346  0.60722206  0.56851686  1
  Ca2+  Ca54  1  0.77518309  0.09473172  0.90615992  1
  Ca2+  Ca55  1  0.89336865  0.59526422  0.76706674  1
  Ca2+  Ca56  1  0.04770295  0.10140423  0.89596546  1
  Ca2+  Ca57  1  0.10241273  0.57853399  0.58584823  1
  Ca2+  Ca58  1  0.61611689  0.61056279  0.07803252  1
  Ca2+  Ca59  1  0.61083102  0.10053892  0.08824719  1
  Ca2+  Ca60  1  0.09694737  0.08417280  0.25107525  1
  Ca2+  Ca61  1  0.89584105  0.60645426  0.07586895  1
  Ca2+  Ca62  1  0.07120785  0.09392556  0.60762666  1
  Ca2+  Ca63  1  0.92830716  0.08730504  0.07598643  1
  Ca2+  Ca64  1  0.24402390  0.59508556  0.07825787  1
  Ca2+  Ca65  1  0.75418454  0.61024522  0.24903351  1
  Ca2+  Ca66  1  0.07767286  0.58086338  0.25108603  1
  Ca2+  Ca67  1  0.24587900  0.58331130  0.76255973  1
  Ca2+  Ca68  1  0.42594426  0.60917711  0.57290900  1
  Ca2+  Ca69  1  0.60703997  0.60459017  0.41704234  1
  Ca2+  Ca70  1  0.08655589  0.08538125  0.24758677  1
  Ca2+  Ca71  1  0.25822519  0.58498340  0.76156299  1
  Ca2+  Ca72  1  0.24453051  0.40774641  0.08128261  1
  Ca2+  Ca73  1  0.57992137  0.90519593  0.43178142  1
  Ca2+  Ca74  1  0.08179936  0.40772418  0.58234747  1
  Ca2+  Ca75  1  0.59103187  0.90457778  0.43124787  1
  Ca2+  Ca76  1  0.59159588  0.39859290  0.75601757  1
  Ca2+  Ca77  1  0.57981487  0.40427371  0.40796535  1
  Ca2+  Ca78  1  0.25217487  0.90576119  0.40398483  1
  Ca2+  Ca79  1  0.58311547  0.39734095  0.08271651  1
  Ca2+  Ca80  1  0.88953071  0.91684675  0.74473618  1
  Ca2+  Ca81  1  0.92481155  0.41863963  0.40163866  1
  Ca2+  Ca82  1  0.60129097  0.90106592  0.08131743  1
  Ca2+  Ca83  1  0.24499222  0.40929497  0.75914071  1
  Ca2+  Ca84  1  0.25392688  0.40724501  0.75425926  1
  Ca2+  Ca85  1  0.58335643  0.91976711  0.73819893  1
  Ca2+  Ca86  1  0.09388350  0.40586201  0.57847796  1
  Ca2+  Ca87  1  0.42150322  0.41026885  0.91637164  1
  Ca2+  Ca88  1  0.24094201  0.90672491  0.40478527  1
  Ca2+  Ca89  1  0.40901645  0.41206001  0.91724811  1
  Ca2+  Ca90  1  0.08049931  0.92450487  0.94343165  1
  Ca2+  Ca91  1  0.75285401  0.40148322  0.25646113  1
  Ca2+  Ca92  1  0.42398879  0.90968366  0.90584529  1
  Ca2+  Ca93  1  0.22516742  0.91722317  0.08180100  1
  Ca2+  Ca94  1  0.92500645  0.40709159  0.07075717  1
  Ca2+  Ca95  1  0.06705159  0.90435420  0.58583886  1
  Ca2+  Ca96  1  0.41135713  0.90594056  0.25060463  1
  Ca2+  Ca97  1  0.24512628  0.91060684  0.75506305  1
  Ca2+  Ca98  1  0.41183163  0.91210325  0.90780547  1
  Ca2+  Ca99  1  0.23325296  0.40884048  0.07887497  1
  Ca2+  Ca100  1  0.08550856  0.41543845  0.25832241  1
  Ca2+  Ca101  1  0.42377031  0.90784821  0.25150550  1
  Ca2+  Ca102  1  0.91226133  0.41871795  0.40189799  1
  Ca2+  Ca103  1  0.74052036  0.39839444  0.58032228  1
  Ca2+  Ca104  1  0.73785111  0.92088125  0.60823182  1
  Ca2+  Ca105  1  0.25650600  0.41197324  0.40954909  1
  Ca2+  Ca106  1  0.25625740  0.91198326  0.75339744  1
  Ca2+  Ca107  1  0.75024548  0.40156296  0.58441772  1
  Mn3.34+  Mn108  1  0.07689282  0.33266069  0.08601230  1
  Mn3.34+  Mn109  1  0.08093942  0.33353216  0.41810169  1
  Mn3.34+  Mn110  1  0.07604820  0.33510469  0.75510433  1
  Mn3.34+  Mn111  1  0.07212257  0.84013835  0.08679874  1
  Mn3.34+  Mn112  1  0.07181020  0.83111677  0.40828662  1
  Mn3.34+  Mn113  1  0.07872618  0.83539200  0.75866537  1
  Mn3.34+  Mn114  1  0.41894835  0.33029849  0.08525816  1
  Mn3.34+  Mn115  1  0.41912654  0.33566359  0.41548162  1
  Mn3.34+  Mn116  1  0.42079570  0.33336380  0.74581621  1
  Mn3.34+  Mn117  1  0.41751503  0.83145113  0.08331824  1
  Mn3.34+  Mn118  1  0.41835076  0.83120967  0.41936031  1
  Mn3.34+  Mn119  1  0.41859950  0.83559806  0.74557500  1
  Mn3.34+  Mn120  1  0.75509400  0.33149010  0.08166388  1
  Mn3.34+  Mn121  1  0.75191754  0.33275160  0.41810620  1
  Mn3.34+  Mn122  1  0.75645185  0.33070452  0.75487205  1
  Mn3.34+  Mn123  1  0.75992148  0.83435505  0.08491448  1
  Mn3.34+  Mn124  1  0.75253431  0.83432247  0.41257631  1
  Mn3.34+  Mn125  1  0.74445641  0.83843146  0.75849515  1
  Mn3.34+  Mn126  1  0.25449402  0.33193360  0.25237023  1
  Mn3.34+  Mn127  1  0.25508278  0.33308400  0.57860233  1
  Mn3.34+  Mn128  1  0.24470646  0.33204265  0.91463802  1
  Mn3.34+  Mn129  1  0.24589106  0.83521762  0.24243151  1
  Mn3.34+  Mn130  1  0.24967109  0.83200856  0.58073120  1
  Mn3.34+  Mn131  1  0.24958101  0.83328397  0.91845805  1
  Mn3.34+  Mn132  1  0.58459643  0.32847993  0.24850304  1
  Mn3.34+  Mn133  1  0.57720411  0.32929397  0.58079177  1
  Mn3.34+  Mn134  1  0.59120821  0.33140765  0.91629022  1
  Mn3.34+  Mn135  1  0.58998646  0.83368997  0.24514225  1
  Mn3.34+  Mn136  1  0.58409848  0.83761024  0.58870714  1
  Mn3.34+  Mn137  1  0.58832150  0.83321194  0.91433043  1
  Mn3.34+  Mn138  1  0.91602108  0.32652666  0.24351458  1
  Mn3.34+  Mn139  1  0.91645395  0.32619000  0.58686232  1
  Mn3.34+  Mn140  1  0.91453321  0.33442019  0.91093936  1
  Mn3.34+  Mn141  1  0.91251866  0.83828584  0.24500583  1
  Mn3.34+  Mn142  1  0.90991047  0.83817709  0.58008535  1
  Mn3.34+  Mn143  1  0.91179996  0.83766102  0.91811742  1
  Mn3.34+  Mn144  1  0.58950364  0.67300638  0.58630153  1
  Mn3.34+  Mn145  1  0.91866493  0.66806833  0.24367271  1
  Mn3.34+  Mn146  1  0.08190128  0.16929445  0.08845335  1
  Mn3.34+  Mn147  1  0.75782111  0.15792073  0.75212360  1
  Mn3.34+  Mn148  1  0.08154431  0.16719547  0.42357185  1
  Mn3.34+  Mn149  1  0.91569059  0.66999083  0.58501456  1
  Mn3.34+  Mn150  1  0.75830821  0.16699406  0.08262769  1
  Mn3.34+  Mn151  1  0.25039692  0.16940745  0.57927457  1
  Mn3.34+  Mn152  1  0.08856439  0.65654189  0.41767850  1
  Mn3.34+  Mn153  1  0.42126927  0.66770746  0.75383883  1
  Mn3.34+  Mn154  1  0.59739790  0.15674242  0.57627325  1
  Mn3.34+  Mn155  1  0.91078205  0.66667528  0.91631128  1
  Mn3.34+  Mn156  1  0.24679975  0.17028916  0.91816993  1
  Mn3.34+  Mn157  1  0.08337353  0.66827843  0.75581325  1
  Mn3.34+  Mn158  1  0.73768559  0.66018648  0.75686105  1
  Mn3.34+  Mn159  1  0.58732437  0.16150915  0.57900798  1
  Mn3.34+  Mn160  1  0.25115726  0.66773726  0.58429764  1
  Mn3.34+  Mn161  1  0.07845817  0.66179763  0.41641680  1
  Mn3.34+  Mn162  1  0.41322027  0.16530853  0.42176992  1
  Mn3.34+  Mn163  1  0.24874028  0.16780829  0.24533861  1
  Mn3.34+  Mn164  1  0.25094000  0.66777066  0.24664289  1
  Mn3.34+  Mn165  1  0.91569129  0.16497232  0.58784597  1
  Mn3.34+  Mn166  1  0.42339596  0.17616647  0.07904961  1
  Mn3.34+  Mn167  1  0.90195832  0.66381922  0.58401041  1
  Mn3.34+  Mn168  1  0.91399120  0.16897590  0.24857855  1
  Mn3.34+  Mn169  1  0.25061083  0.66799764  0.91721077  1
  Mn3.34+  Mn170  1  0.07815387  0.67053901  0.08186563  1
  Mn3.34+  Mn171  1  0.58874812  0.16362864  0.90845162  1
  Mn3.34+  Mn172  1  0.42385272  0.16056845  0.42332027  1
  Mn3.34+  Mn173  1  0.42270407  0.16174474  0.74722366  1
  Mn3.34+  Mn174  1  0.58464245  0.67119678  0.24727987  1
  Mn3.34+  Mn175  1  0.25986982  0.16337047  0.91683761  1
  Mn3.34+  Mn176  1  0.58705182  0.66990439  0.91506563  1
  Mn3.34+  Mn177  1  0.07417666  0.67400444  0.75340990  1
  Mn3.34+  Mn178  1  0.41437394  0.17045820  0.08172571  1
  Mn3.34+  Mn179  1  0.42058337  0.66955131  0.08469370  1
  Mn3.34+  Mn180  1  0.43119285  0.49871778  0.08960375  1
  Mn3.34+  Mn181  1  0.74792721  0.00819707  0.41587412  1
  Mn3.34+  Mn182  1  0.75275540  -0.00326131  0.08797787  1
  Mn3.34+  Mn183  1  0.25270919  0.49849363  0.25729630  1
  Mn3.34+  Mn184  1  0.90230265  0.50301976  0.58323130  1
  Mn3.34+  Mn185  1  0.06989607  0.50024321  0.75556500  1
  Mn3.34+  Mn186  1  0.41881674  0.50336818  0.09039005  1
  Mn3.34+  Mn187  1  0.91472171  0.50014076  0.24838097  1
  Mn3.34+  Mn188  1  0.59347873  0.50279217  0.25104368  1
  Mn3.34+  Mn189  1  0.91295644  -0.00630900  0.92462841  1
  Mn3.34+  Mn190  1  0.60341212  -0.00370951  0.25618704  1
  Mn3.34+  Mn191  1  0.43273013  0.50301049  0.74879733  1
  Mn3.34+  Mn192  1  0.05683660  -0.00335232  0.41621259  1
  Mn3.34+  Mn193  1  0.26027162  0.00008896  0.57712840  1
  Mn3.34+  Mn194  1  0.42256722  0.00060304  0.07131702  1
  Mn3.34+  Mn195  1  0.92299448  0.49852502  0.92492207  1
  Mn3.34+  Mn196  1  0.41819327  0.49592112  0.41547089  1
  Mn3.34+  Mn197  1  0.41059942  0.00496162  0.07128778  1
  Mn3.34+  Mn198  1  0.06706540  -0.00470618  0.74814338  1
  Mn3.34+  Mn199  1  0.59858441  -0.00125795  0.92174358  1
  Mn3.34+  Mn200  1  0.06615153  0.00326584  0.41978034  1
  Mn3.34+  Mn201  1  0.42149641  0.00190462  0.41983550  1
  Mn3.34+  Mn202  1  0.07984433  0.50242485  0.06616952  1
  Mn3.34+  Mn203  1  0.74515382  0.49541686  0.08189752  1
  Mn3.34+  Mn204  1  0.75920340  0.00223181  0.41781111  1
  Mn3.34+  Mn205  1  0.75465777  0.50078722  0.07866544  1
  Mn3.34+  Mn206  1  0.58956352  0.50644727  0.58351338  1
  Mn3.34+  Mn207  1  0.59163557  0.50451899  0.91597577  1
  Mn3.34+  Mn208  1  0.24904069  0.00510920  0.57674721  1
  Mn3.34+  Mn209  1  0.90901697  -0.00322066  0.24680893  1
  Mn3.34+  Mn210  1  0.57889649  0.49702652  0.25016977  1
  Mn3.34+  Mn211  1  0.74797819  0.49731998  0.76065348  1
  Mn3.34+  Mn212  1  0.27034437  0.49717776  0.59251477  1
  Mn3.34+  Mn213  1  0.58030270  0.50062227  0.58150241  1
  Mn3.34+  Mn214  1  0.90866683  0.00419903  0.59099234  1
  Mn3.34+  Mn215  1  0.91299634  0.49832437  0.58363482  1
  O2-  O216  1  0.00217915  0.15700165  0.00750650  1
  O2-  O217  1  0.00228190  0.15983454  0.32991961  1
  O2-  O218  1  0.00558974  0.16774008  0.66093409  1
  O2-  O219  1  -0.00605533  0.67188324  0.00459263  1
  O2-  O220  1  -0.00227358  0.64939478  0.33412867  1
  O2-  O221  1  -0.00752249  0.64707695  0.66923586  1
  O2-  O222  1  0.33113226  0.15361295  0.00525033  1
  O2-  O223  1  0.33394741  0.14432279  0.33048655  1
  O2-  O224  1  0.33435956  0.14807060  0.65961830  1
  O2-  O225  1  0.33627447  0.64621842  0.00113701  1
  O2-  O226  1  0.33013970  0.66157187  0.32633043  1
  O2-  O227  1  0.32959917  0.64685141  0.67137760  1
  O2-  O228  1  0.67614643  0.15052132  -0.00391589  1
  O2-  O229  1  0.66831328  0.18348991  0.33997379  1
  O2-  O230  1  0.67019376  0.15321052  0.66505536  1
  O2-  O231  1  0.66492267  0.67618377  -0.00660324  1
  O2-  O232  1  0.66685810  0.66219379  0.32306293  1
  O2-  O233  1  0.67174607  0.68446196  0.66970797  1
  O2-  O234  1  0.16527129  0.15524313  0.00307290  1
  O2-  O235  1  0.15950589  0.15122492  0.33517861  1
  O2-  O236  1  0.17630866  0.15583571  0.66171172  1
  O2-  O237  1  0.16483797  0.65728223  -0.00198579  1
  O2-  O238  1  0.16739753  0.64239526  0.32852440  1
  O2-  O239  1  0.16420767  0.65191922  0.66727641  1
  O2-  O240  1  0.50692261  0.14974488  0.00390094  1
  O2-  O241  1  0.49207706  0.14518302  0.33385934  1
  O2-  O242  1  0.50754215  0.14621940  0.66297387  1
  O2-  O243  1  0.50369645  0.65234471  0.00572903  1
  O2-  O244  1  0.50907955  0.65538060  0.33035793  1
  O2-  O245  1  0.49918110  0.65289806  0.66918519  1
  O2-  O246  1  0.84066157  0.15098376  0.00783468  1
  O2-  O247  1  0.84161205  0.19462800  0.32755220  1
  O2-  O248  1  0.83679591  0.15844161  0.66901924  1
  O2-  O249  1  0.83756526  0.67946059  -0.00348404  1
  O2-  O250  1  0.84132656  0.67467734  0.32386084  1
  O2-  O251  1  0.83146352  0.66191709  0.67571740  1
  O2-  O252  1  -0.00109965  0.32887229  0.00325473  1
  O2-  O253  1  -0.00042198  0.33142692  0.33115761  1
  O2-  O254  1  0.00918665  0.34398059  0.65623622  1
  O2-  O255  1  -0.00090353  0.83168224  -0.00471258  1
  O2-  O256  1  -0.00898646  0.81018063  0.32502396  1
  O2-  O257  1  -0.00334996  0.84145022  0.67307845  1
  O2-  O258  1  0.33286448  0.35099566  0.00459853  1
  O2-  O259  1  0.33214599  0.34485036  0.33632143  1
  O2-  O260  1  0.32911682  0.35232735  0.67395383  1
  O2-  O261  1  0.33312347  0.85477087  0.00207262  1
  O2-  O262  1  0.33289197  0.84098922  0.33308183  1
  O2-  O263  1  0.32391972  0.84673885  0.67230305  1
  O2-  O264  1  0.66491120  0.34335525  0.00567388  1
  O2-  O265  1  0.66885550  0.34343885  0.33679704  1
  O2-  O266  1  0.66394809  0.34342908  0.66148105  1
  O2-  O267  1  0.66835321  0.82839647  0.00358161  1
  O2-  O268  1  0.66333900  0.85456360  0.33586419  1
  O2-  O269  1  0.67070689  0.83422730  0.66543204  1
  O2-  O270  1  0.16792911  0.33590512  0.00861142  1
  O2-  O271  1  0.16432869  0.34656099  0.33742444  1
  O2-  O272  1  0.16701551  0.33719738  0.66661265  1
  O2-  O273  1  0.16403553  0.84613799  -0.00671778  1
  O2-  O274  1  0.16472001  0.84772589  0.32898623  1
  O2-  O275  1  0.16139091  0.84748687  0.66478480  1
  O2-  O276  1  0.49351772  0.34282014  -0.00583629  1
  O2-  O277  1  0.50039804  0.34210531  0.33046820  1
  O2-  O278  1  0.50059358  0.34734319  0.66697058  1
  O2-  O279  1  0.50021933  0.85484345  0.00005166  1
  O2-  O280  1  0.50137063  0.85416959  0.33550956  1
  O2-  O281  1  0.50392012  0.84729037  0.67130400  1
  O2-  O282  1  0.83877137  0.34480489  0.00520200  1
  O2-  O283  1  0.83995340  0.33806582  0.33780251  1
  O2-  O284  1  0.83110872  0.34757625  0.66196244  1
  O2-  O285  1  0.83495085  0.81086774  0.00039265  1
  O2-  O286  1  0.83250068  0.82778487  0.32821334  1
  O2-  O287  1  0.83016016  0.83987047  0.67364862  1
  O2-  O288  1  0.00221954  0.18866705  0.16951593  1
  O2-  O289  1  -0.00072814  0.18721789  0.49774868  1
  O2-  O290  1  0.01669201  0.18055388  0.84171442  1
  O2-  O291  1  0.00874187  0.68239141  0.17232620  1
  O2-  O292  1  0.00607398  0.68218963  0.50970624  1
  O2-  O293  1  -0.00705079  0.68927907  0.83279471  1
  O2-  O294  1  0.34067509  0.19283699  0.16625277  1
  O2-  O295  1  0.33216175  0.18516195  0.49526379  1
  O2-  O296  1  0.33545005  0.18124723  0.82856801  1
  O2-  O297  1  0.32690114  0.67838989  0.15679758  1
  O2-  O298  1  0.33484804  0.67935912  0.51164015  1
  O2-  O299  1  0.33038658  0.67982384  0.83015017  1
  O2-  O300  1  0.66759859  0.17590142  0.15218461  1
  O2-  O301  1  0.66694145  0.18935442  0.49990591  1
  O2-  O302  1  0.66842982  0.18272051  0.83223593  1
  O2-  O303  1  0.66351203  0.68370501  0.16660466  1
  O2-  O304  1  0.66010311  0.67859468  0.50335978  1
  O2-  O305  1  0.66083703  0.68924700  0.83086357  1
  O2-  O306  1  0.16252608  0.18991840  0.16600879  1
  O2-  O307  1  0.16857475  0.19188210  0.49686686  1
  O2-  O308  1  0.17782661  0.18351109  0.82927830  1
  O2-  O309  1  0.17141354  0.67102705  0.15911328  1
  O2-  O310  1  0.16865673  0.67554280  0.50169507  1
  O2-  O311  1  0.17068881  0.69002414  0.82879417  1
  O2-  O312  1  0.50428203  0.18094908  0.15970965  1
  O2-  O313  1  0.50096605  0.18691599  0.50649470  1
  O2-  O314  1  0.50634811  0.17909745  0.82673893  1
  O2-  O315  1  0.49593324  0.68446306  0.16749780  1
  O2-  O316  1  0.49939343  0.67881364  0.51229171  1
  O2-  O317  1  0.49278243  0.68005983  0.83853451  1
  O2-  O318  1  0.84060756  0.18124669  0.16052988  1
  O2-  O319  1  0.84147949  0.18413251  0.50461709  1
  O2-  O320  1  0.82588739  0.17296485  0.83448495  1
  O2-  O321  1  0.84241322  0.68405176  0.16776924  1
  O2-  O322  1  0.83736976  0.67864707  0.49488301  1
  O2-  O323  1  0.83206716  0.68677168  0.83029926  1
  O2-  O324  1  -0.00079429  0.30896538  0.16623785  1
  O2-  O325  1  -0.00297543  0.31607275  0.49985626  1
  O2-  O326  1  -0.00621591  0.31347029  0.82523281  1
  O2-  O327  1  -0.00360430  0.81679087  0.16704025  1
  O2-  O328  1  0.00151356  0.82310516  0.50280267  1
  O2-  O329  1  0.00083141  0.80749697  0.83534535  1
  O2-  O330  1  0.33098566  0.31612975  0.15825137  1
  O2-  O331  1  0.33266755  0.32275919  0.49450363  1
  O2-  O332  1  0.33650551  0.32385585  0.83266239  1
  O2-  O333  1  0.33817944  0.82041479  0.17242757  1
  O2-  O334  1  0.32881684  0.82171760  0.49145962  1
  O2-  O335  1  0.33608325  0.82042705  0.83543786  1
  O2-  O336  1  0.67106541  0.32222891  0.16715081  1
  O2-  O337  1  0.67218743  0.32337567  0.50168545  1
  O2-  O338  1  0.66407209  0.32025621  0.82864383  1
  O2-  O339  1  0.66576440  0.81583636  0.16324743  1
  O2-  O340  1  0.65855564  0.82671687  0.49525929  1
  O2-  O341  1  0.66073496  0.81298487  0.82819226  1
  O2-  O342  1  0.16648502  0.32219942  0.16567811  1
  O2-  O343  1  0.15826661  0.32028541  0.50283138  1
  O2-  O344  1  0.16797567  0.31345065  0.82556565  1
  O2-  O345  1  0.17103591  0.83036113  0.15853554  1
  O2-  O346  1  0.17134339  0.82439117  0.49300927  1
  O2-  O347  1  0.17591801  0.81627519  0.82618003  1
  O2-  O348  1  0.50671828  0.31049250  0.15542695  1
  O2-  O349  1  0.50391435  0.31663977  0.49264102  1
  O2-  O350  1  0.50040836  0.32530764  0.83207407  1
  O2-  O351  1  0.49635245  0.81983814  0.17199146  1
  O2-  O352  1  0.50389794  0.83153799  0.49687730  1
  O2-  O353  1  0.49043896  0.82794145  0.83724467  1
  O2-  O354  1  0.83072180  0.31140275  0.17041579  1
  O2-  O355  1  0.82912868  0.31440662  0.50696528  1
  O2-  O356  1  0.83206273  0.31847395  0.83344768  1
  O2-  O357  1  0.83323306  0.80934460  0.16850485  1
  O2-  O358  1  0.82736258  0.82159314  0.50171477  1
  O2-  O359  1  0.82957308  0.81997108  0.83468727  1
  O2-  O360  1  0.07150951  0.07994806  0.11935727  1
  O2-  O361  1  0.08537105  0.08120063  0.46599961  1
  O2-  O362  1  0.11428909  0.07280394  0.78054806  1
  O2-  O363  1  0.08998794  0.58226202  0.10723713  1
  O2-  O364  1  0.08246369  0.57734462  0.44902665  1
  O2-  O365  1  0.09827088  0.58279031  0.78343668  1
  O2-  O366  1  0.40185655  0.08218689  0.12324322  1
  O2-  O367  1  0.41415398  0.08158894  0.46619433  1
  O2-  O368  1  0.40049007  0.08356451  0.76658378  1
  O2-  O369  1  0.41768122  0.58314858  0.12069465  1
  O2-  O370  1  0.41200773  0.57483203  0.44480991  1
  O2-  O371  1  0.40114863  0.58373607  0.78271758  1
  O2-  O372  1  0.75177060  0.08072233  0.11578137  1
  O2-  O373  1  0.75648567  0.08504581  0.44346135  1
  O2-  O374  1  0.74057713  0.08122859  0.77656646  1
  O2-  O375  1  0.75506928  0.57975925  0.11626093  1
  O2-  O376  1  0.73850281  0.57309604  0.42026756  1
  O2-  O377  1  0.75746275  0.57719749  0.78708878  1
  O2-  O378  1  0.23428352  0.08547619  0.21376875  1
  O2-  O379  1  0.24641039  0.08493504  0.54264988  1
  O2-  O380  1  0.24805255  0.08342179  0.88603559  1
  O2-  O381  1  0.25854275  0.57785866  0.21707190  1
  O2-  O382  1  0.26143637  0.58125396  0.55387453  1
  O2-  O383  1  0.25385351  0.58296428  0.89543736  1
  O2-  O384  1  0.55087557  0.06714922  0.20208863  1
  O2-  O385  1  0.57820768  0.07820589  0.55351611  1
  O2-  O386  1  0.59898025  0.08105726  0.88952300  1
  O2-  O387  1  0.58478789  0.58158659  0.21214466  1
  O2-  O388  1  0.57258366  0.58693301  0.55528484  1
  O2-  O389  1  0.57961883  0.58497515  0.89678469  1
  O2-  O390  1  0.92762629  0.07860668  0.21214618  1
  O2-  O391  1  0.92599620  0.08142426  0.55200570  1
  O2-  O392  1  0.91747204  0.06773263  0.87792892  1
  O2-  O393  1  0.91452508  0.58029640  0.22006441  1
  O2-  O394  1  0.91938859  0.58210942  0.54371080  1
  O2-  O395  1  0.92539914  0.57798956  0.89388667  1
  O2-  O396  1  0.08674368  0.42280096  0.11310112  1
  O2-  O397  1  0.05412814  0.42356233  0.45199089  1
  O2-  O398  1  0.11128498  0.42000539  0.76818417  1
  O2-  O399  1  0.08119596  0.91903762  0.08995638  1
  O2-  O400  1  0.09670450  0.91900249  0.44712413  1
  O2-  O401  1  0.10915387  0.92084347  0.79258378  1
  O2-  O402  1  0.43466115  0.41825817  0.11688379  1
  O2-  O403  1  0.42402660  0.41648407  0.44404348  1
  O2-  O404  1  0.41538219  0.41922986  0.78231189  1
  O2-  O405  1  0.42308942  0.92200679  0.11823973  1
  O2-  O406  1  0.40407115  0.91827063  0.43071084  1
  O2-  O407  1  0.39708615  0.91835175  0.77512963  1
  O2-  O408  1  0.76277644  0.41659449  0.11765150  1
  O2-  O409  1  0.78317979  0.42077875  0.45563576  1
  O2-  O410  1  0.73677389  0.41544730  0.76513720  1
  O2-  O411  1  0.74240881  0.91744257  0.10575670  1
  O2-  O412  1  0.74383762  0.92353737  0.45375816  1
  O2-  O413  1  0.74241502  0.91657429  0.76560888  1
  O2-  O414  1  0.24739693  0.41921469  0.21747554  1
  O2-  O415  1  0.22757082  0.42045592  0.54839352  1
  O2-  O416  1  0.26573835  0.41970482  0.88931015  1
  O2-  O417  1  0.27139511  0.91822533  0.23513465  1
  O2-  O418  1  0.24938612  0.92012993  0.54303134  1
  O2-  O419  1  0.26785505  0.91697705  0.88720986  1
  O2-  O420  1  0.58788432  0.41715315  0.21638957  1
  O2-  O421  1  0.60707930  0.42327657  0.54053123  1
  O2-  O422  1  0.56603479  0.42207856  0.88954713  1
  O2-  O423  1  0.56928765  0.91655859  0.21451699  1
  O2-  O424  1  0.59685258  0.91938938  0.56430006  1
  O2-  O425  1  0.57197561  0.91849441  0.88315191  1
  O2-  O426  1  0.91608240  0.41807767  0.22303958  1
  O2-  O427  1  0.91540438  0.41554410  0.55029934  1
  O2-  O428  1  0.93395059  0.41981253  0.90537747  1
  O2-  O429  1  0.91275739  0.91751709  0.22519581  1
  O2-  O430  1  0.92037271  0.92331249  0.56154499  1
  O2-  O431  1  0.93615420  0.92258546  0.87659469  1
  O2-  O432  1  -0.00029052  0.01851924  -0.01190135  1
  O2-  O433  1  0.01415959  0.01007174  0.30724359  1
  O2-  O434  1  0.00863363  0.00004788  0.64349776  1
  O2-  O435  1  -0.03013668  0.50406680  0.03749298  1
  O2-  O436  1  0.00111561  0.49157544  0.31613615  1
  O2-  O437  1  0.01909191  0.49432138  0.63607201  1
  O2-  O438  1  0.30721103  -0.00582837  0.02485864  1
  O2-  O439  1  0.33257264  0.01509008  0.34250561  1
  O2-  O440  1  0.32483371  0.00314622  0.67641140  1
  O2-  O441  1  0.33661020  0.47946754  0.01008109  1
  O2-  O442  1  0.31456917  0.50220876  0.35727368  1
  O2-  O443  1  0.30981860  0.49633639  0.71554203  1
  O2-  O444  1  0.63972892  0.00539962  0.03940261  1
  O2-  O445  1  0.64032931  -0.00652218  0.37444097  1
  O2-  O446  1  0.65631079  -0.00394190  0.67819897  1
  O2-  O447  1  0.64229061  0.49714685  0.02579676  1
  O2-  O448  1  0.66844955  0.47924708  0.32975470  1
  O2-  O449  1  0.66719635  0.49054440  0.66753350  1
  O2-  O450  1  0.14876676  0.00409567  -0.01258019  1
  O2-  O451  1  0.16841531  0.00830050  0.35452905  1
  O2-  O452  1  0.17043788  -0.00331157  0.66717678  1
  O2-  O453  1  0.19712098  0.50139532  0.06005133  1
  O2-  O454  1  0.15908510  0.49779235  0.30808796  1
  O2-  O455  1  0.16958887  0.51243656  0.66800015  1
  O2-  O456  1  0.47732002  -0.00546698  -0.03178228  1
  O2-  O457  1  0.48191560  -0.00373429  0.30837436  1
  O2-  O458  1  0.52429538  0.00353159  0.69851849  1
  O2-  O459  1  0.48507734  0.50045622  -0.02085070  1
  O2-  O460  1  0.50288972  0.51050959  0.33708851  1
  O2-  O461  1  0.47432649  0.51014259  0.63427593  1
  O2-  O462  1  0.84006436  0.01572126  0.00899730  1
  O2-  O463  1  0.84817671  0.01272238  0.34734967  1
  O2-  O464  1  0.83131107  -0.01029359  0.66160372  1
  O2-  O465  1  0.82170144  0.50188564  -0.01223644  1
  O2-  O466  1  0.84483460  0.49510617  0.33357880  1
  O2-  O467  1  0.83884039  0.50204546  0.68051966  1
  O2-  O468  1  0.91662040  0.24947052  0.61691566  1
  O2-  O469  1  0.73907264  0.75640406  0.40355376  1
  O2-  O470  1  0.41576927  0.24688782  0.38927099  1
  O2-  O471  1  0.75177466  0.24858833  0.05347311  1
  O2-  O472  1  0.58566549  0.25050693  0.27156484  1
  O2-  O473  1  0.57756801  0.24742588  0.94098358  1
  O2-  O474  1  0.41500806  0.25037877  0.72631986  1
  O2-  O475  1  0.26714315  0.24919338  0.94830192  1
  O2-  O476  1  0.74738851  0.24998577  0.72811837  1
  O2-  O477  1  0.09704989  0.74184836  0.39805619  1
  O2-  O478  1  0.91535969  0.75170053  0.60626069  1
  O2-  O479  1  0.57119845  0.75468204  0.60138397  1
  O2-  O480  1  0.42424074  0.75364014  0.40050170  1
  O2-  O481  1  0.58043136  0.24201490  0.61291219  1
  O2-  O482  1  0.57858792  0.75430067  0.27797849  1
  O2-  O483  1  0.09609534  0.75166097  0.07118343  1
  O2-  O484  1  0.41143848  0.74983455  0.05218906  1
  O2-  O485  1  0.41713262  0.75017900  0.72076561  1
  O2-  O486  1  0.25660783  0.75097131  0.94679185  1
  O2-  O487  1  0.24723466  0.24851001  0.28157835  1
  O2-  O488  1  0.26608563  0.24988871  0.60678608  1
  O2-  O489  1  0.24355363  0.74804453  0.61206900  1
  O2-  O490  1  0.91012988  0.25374425  0.92897694  1
  O2-  O491  1  0.23822571  0.75032233  0.26885900  1
  O2-  O492  1  0.56286658  0.75309605  0.93724611  1
