# generated using pymatgen
data_Ca108Mn108O277
_symmetry_space_group_name_H-M   'P 1'
_cell_length_a   16.02740839
_cell_length_b   22.30453776
_cell_length_c   16.38822580
_cell_angle_alpha   89.99874080
_cell_angle_beta   89.99775416
_cell_angle_gamma   89.99873795
_symmetry_Int_Tables_number   1
_chemical_formula_structural   Ca108Mn108O277
_chemical_formula_sum   'Ca108 Mn108 O277'
_cell_volume   5858.52745024
_cell_formula_units_Z   1
loop_
 _symmetry_equiv_pos_site_id
 _symmetry_equiv_pos_as_xyz
  1  'x, y, z'
loop_
 _atom_type_symbol
 _atom_type_oxidation_number
  Ca2+  2.0
  Mn3.34+  3.34
  O2-  -2.0
loop_
 _atom_site_type_symbol
 _atom_site_label
 _atom_site_symmetry_multiplicity
 _atom_site_fract_x
 _atom_site_fract_y
 _atom_site_fract_z
 _atom_site_occupancy
  Ca2+  Ca0  1  0.08535989  0.24185872  0.24774256  1
  Ca2+  Ca1  1  0.07263368  0.25874213  0.57538893  1
  Ca2+  Ca2  1  0.08391205  0.25192678  0.92850267  1
  Ca2+  Ca3  1  0.08239383  0.74813081  0.25265636  1
  Ca2+  Ca4  1  0.09787103  0.73714598  0.58485517  1
  Ca2+  Ca5  1  0.08722138  0.75738632  0.91708100  1
  Ca2+  Ca6  1  0.39683210  0.24885732  0.23073709  1
  Ca2+  Ca7  1  0.40801364  0.27001478  0.58101390  1
  Ca2+  Ca8  1  0.42653223  0.25710334  0.93464436  1
  Ca2+  Ca9  1  0.39974033  0.75471504  0.25554496  1
  Ca2+  Ca10  1  0.41659027  0.73533035  0.58553609  1
  Ca2+  Ca11  1  0.43636076  0.74982998  0.90952250  1
  Ca2+  Ca12  1  0.76900633  0.23995905  0.25484055  1
  Ca2+  Ca13  1  0.77602296  0.24848144  0.57091641  1
  Ca2+  Ca14  1  0.73914828  0.25632408  0.92000352  1
  Ca2+  Ca15  1  0.76177149  0.75052131  0.24922691  1
  Ca2+  Ca16  1  0.73856024  0.75503463  0.58432727  1
  Ca2+  Ca17  1  0.73123035  0.74729803  0.92287117  1
  Ca2+  Ca18  1  0.23690148  0.25077350  0.09816633  1
  Ca2+  Ca19  1  0.23317842  0.24811462  0.39523625  1
  Ca2+  Ca20  1  0.23097728  0.26301844  0.75431033  1
  Ca2+  Ca21  1  0.24085249  0.75936961  0.10079202  1
  Ca2+  Ca22  1  0.24602053  0.75376764  0.41383617  1
  Ca2+  Ca23  1  0.23465379  0.73323684  0.73654075  1
  Ca2+  Ca24  1  0.57442852  0.25207205  0.07452283  1
  Ca2+  Ca25  1  0.59756018  0.25237872  0.40941973  1
  Ca2+  Ca26  1  0.59191304  0.25277799  0.77453539  1
  Ca2+  Ca27  1  0.59060478  0.75157766  0.07272079  1
  Ca2+  Ca28  1  0.57770412  0.75631701  0.42672403  1
  Ca2+  Ca29  1  0.57712973  0.74094892  0.74699107  1
  Ca2+  Ca30  1  0.94177546  0.24575833  0.09635679  1
  Ca2+  Ca31  1  0.92361626  0.23345469  0.41003729  1
  Ca2+  Ca32  1  0.92346197  0.24495929  0.73122476  1
  Ca2+  Ca33  1  0.91996014  0.75026787  0.10145716  1
  Ca2+  Ca34  1  0.92543975  0.74607235  0.40130955  1
  Ca2+  Ca35  1  0.94707884  0.73437441  0.73885467  1
  Ca2+  Ca36  1  0.44587669  0.56300782  0.88848138  1
  Ca2+  Ca37  1  0.08609328  0.58541767  0.90743116  1
  Ca2+  Ca38  1  0.07581543  0.09348329  0.93482931  1
  Ca2+  Ca39  1  0.72312934  0.11437974  0.91180062  1
  Ca2+  Ca40  1  0.45115880  0.10450829  0.92850714  1
  Ca2+  Ca41  1  0.78414976  0.10711319  0.57353297  1
  Ca2+  Ca42  1  0.73361460  0.11339600  0.91206623  1
  Ca2+  Ca43  1  0.05327257  0.10954099  0.57527131  1
  Ca2+  Ca44  1  0.10548895  0.60032649  0.59966004  1
  Ca2+  Ca45  1  0.38072026  0.57739126  0.61131238  1
  Ca2+  Ca46  1  0.91148060  0.59687829  0.09896286  1
  Ca2+  Ca47  1  0.80938851  0.59764991  0.26110180  1
  Ca2+  Ca48  1  0.71384099  0.57624161  0.91955303  1
  Ca2+  Ca49  1  0.04014968  0.59531359  0.25522175  1
  Ca2+  Ca50  1  0.58301223  0.59592228  0.41499625  1
  Ca2+  Ca51  1  0.23615574  0.10996141  0.10466855  1
  Ca2+  Ca52  1  0.06030118  0.10614047  0.56913342  1
  Ca2+  Ca53  1  0.24685182  0.10012656  0.75156493  1
  Ca2+  Ca54  1  0.23745430  0.57567820  0.07839414  1
  Ca2+  Ca55  1  0.91749526  0.08166575  0.38189541  1
  Ca2+  Ca56  1  0.40237890  0.58209468  0.26520565  1
  Ca2+  Ca57  1  0.25414492  0.60006785  0.43617070  1
  Ca2+  Ca58  1  0.24423398  0.58820067  0.72865635  1
  Ca2+  Ca59  1  0.61713226  0.07436023  0.40617413  1
  Ca2+  Ca60  1  0.22977711  0.08673598  0.38156279  1
  Ca2+  Ca61  1  0.42407613  0.08354046  0.58413527  1
  Ca2+  Ca62  1  0.75647797  0.58967570  0.57569438  1
  Ca2+  Ca63  1  0.24958747  0.60424638  0.44346713  1
  Ca2+  Ca64  1  0.76634601  0.09123217  0.25729545  1
  Ca2+  Ca65  1  0.07577706  0.09925739  0.24518352  1
  Ca2+  Ca66  1  0.09881232  0.58615197  0.90813119  1
  Ca2+  Ca67  1  0.57933147  0.10954151  0.08281449  1
  Ca2+  Ca68  1  0.92957629  0.10950189  0.11134629  1
  Ca2+  Ca69  1  0.06620213  0.09751829  0.94051213  1
  Ca2+  Ca70  1  0.76721822  0.59236209  0.57343244  1
  Ca2+  Ca71  1  0.23437169  0.09928279  0.75339540  1
  Ca2+  Ca72  1  0.43805673  0.90231084  0.57193849  1
  Ca2+  Ca73  1  0.43107160  0.90852420  0.93109821  1
  Ca2+  Ca74  1  0.41274875  0.90605253  0.25076515  1
  Ca2+  Ca75  1  0.09472834  0.40874224  0.91739482  1
  Ca2+  Ca76  1  0.06002278  0.92230142  0.26796150  1
  Ca2+  Ca77  1  0.75898340  0.40872797  0.59100899  1
  Ca2+  Ca78  1  0.07725095  0.89436320  0.57132553  1
  Ca2+  Ca79  1  0.25851216  0.40851650  0.08448701  1
  Ca2+  Ca80  1  0.24803134  0.89991252  0.75270660  1
  Ca2+  Ca81  1  0.74749722  0.40797788  0.59113343  1
  Ca2+  Ca82  1  0.58458842  0.90195411  0.09287386  1
  Ca2+  Ca83  1  0.92125055  0.41056345  0.40874001  1
  Ca2+  Ca84  1  0.07515182  0.90412427  0.93509062  1
  Ca2+  Ca85  1  0.08199249  0.40475183  0.24176626  1
  Ca2+  Ca86  1  0.59020102  0.90738837  0.73438148  1
  Ca2+  Ca87  1  0.10532815  0.40796677  0.91669468  1
  Ca2+  Ca88  1  0.77954404  0.92866585  0.28423621  1
  Ca2+  Ca89  1  0.26938661  0.42381621  0.72607036  1
  Ca2+  Ca90  1  0.91013023  0.89560024  0.74711738  1
  Ca2+  Ca91  1  0.60190358  0.91543617  0.41201375  1
  Ca2+  Ca92  1  0.27851640  0.42611600  0.72996577  1
  Ca2+  Ca93  1  0.75712107  0.40462462  0.24411934  1
  Ca2+  Ca94  1  0.55950768  0.41388813  0.76015821  1
  Ca2+  Ca95  1  0.72488264  0.41057046  0.91405287  1
  Ca2+  Ca96  1  0.76814573  0.40458816  0.24159780  1
  Ca2+  Ca97  1  0.91470750  0.40890627  0.40051224  1
  Ca2+  Ca98  1  0.41952222  0.90787177  0.93204584  1
  Ca2+  Ca99  1  0.75131010  0.90592517  0.91862324  1
  Ca2+  Ca100  1  0.23519302  0.89950183  0.75281003  1
  Ca2+  Ca101  1  0.23175991  0.91483016  0.40599918  1
  Ca2+  Ca102  1  0.57166313  0.39861755  0.41495168  1
  Ca2+  Ca103  1  0.76285394  0.90535022  0.92022803  1
  Ca2+  Ca104  1  0.92293784  0.89542882  0.74758627  1
  Ca2+  Ca105  1  0.73427942  0.40770352  0.91648378  1
  Ca2+  Ca106  1  0.42623133  0.90340678  0.57286792  1
  Ca2+  Ca107  1  0.26239161  0.40188145  0.43104728  1
  Mn3.34+  Mn108  1  0.08371822  0.33542446  0.08364380  1
  Mn3.34+  Mn109  1  0.08588494  0.33347389  0.41708138  1
  Mn3.34+  Mn110  1  0.07916491  0.33769226  0.74852863  1
  Mn3.34+  Mn111  1  0.07990981  0.83210606  0.09082571  1
  Mn3.34+  Mn112  1  0.08007257  0.83382033  0.41657444  1
  Mn3.34+  Mn113  1  0.08395043  0.82565805  0.75046574  1
  Mn3.34+  Mn114  1  0.41787014  0.33936536  0.08757359  1
  Mn3.34+  Mn115  1  0.41578070  0.33264228  0.41350515  1
  Mn3.34+  Mn116  1  0.41653209  0.33574037  0.75588475  1
  Mn3.34+  Mn117  1  0.41645776  0.83075719  0.09188674  1
  Mn3.34+  Mn118  1  0.41571276  0.83159302  0.41376284  1
  Mn3.34+  Mn119  1  0.41731291  0.82925515  0.75037116  1
  Mn3.34+  Mn120  1  0.75015847  0.33525664  0.08359758  1
  Mn3.34+  Mn121  1  0.74837538  0.33241483  0.41892563  1
  Mn3.34+  Mn122  1  0.75511747  0.34103662  0.75427500  1
  Mn3.34+  Mn123  1  0.75390736  0.82943543  0.09392938  1
  Mn3.34+  Mn124  1  0.75771897  0.83458480  0.41877500  1
  Mn3.34+  Mn125  1  0.74962961  0.82642676  0.74564928  1
  Mn3.34+  Mn126  1  0.25013058  0.33550846  0.24974368  1
  Mn3.34+  Mn127  1  0.24645246  0.33537404  0.58217095  1
  Mn3.34+  Mn128  1  0.26038518  0.33658351  0.91475422  1
  Mn3.34+  Mn129  1  0.24376125  0.83632489  0.24987329  1
  Mn3.34+  Mn130  1  0.25023673  0.82884833  0.57785123  1
  Mn3.34+  Mn131  1  0.25117771  0.82695615  0.92145117  1
  Mn3.34+  Mn132  1  0.58001984  0.32816097  0.24369340  1
  Mn3.34+  Mn133  1  0.57745856  0.33138169  0.58514276  1
  Mn3.34+  Mn134  1  0.57223392  0.33632831  0.92248543  1
  Mn3.34+  Mn135  1  0.58795503  0.83383331  0.25205642  1
  Mn3.34+  Mn136  1  0.59189628  0.83471278  0.57769755  1
  Mn3.34+  Mn137  1  0.58658081  0.83413710  0.91563999  1
  Mn3.34+  Mn138  1  0.92247041  0.32926768  0.24439969  1
  Mn3.34+  Mn139  1  0.92419632  0.33459262  0.58185115  1
  Mn3.34+  Mn140  1  0.91478224  0.33055144  0.91369440  1
  Mn3.34+  Mn141  1  0.91726109  0.83973938  0.25070722  1
  Mn3.34+  Mn142  1  0.91440079  0.82127308  0.57262285  1
  Mn3.34+  Mn143  1  0.91596752  0.82650506  0.92036664  1
  Mn3.34+  Mn144  1  0.26370177  0.66698796  0.91741057  1
  Mn3.34+  Mn145  1  0.91435555  0.17206354  0.91688009  1
  Mn3.34+  Mn146  1  0.75726742  0.66005724  0.75405910  1
  Mn3.34+  Mn147  1  0.58042771  0.65784022  0.91487237  1
  Mn3.34+  Mn148  1  0.74740859  0.65451848  0.75508280  1
  Mn3.34+  Mn149  1  0.41617142  0.66777898  0.42244122  1
  Mn3.34+  Mn150  1  0.07703650  0.16935953  0.75484744  1
  Mn3.34+  Mn151  1  0.57979012  0.66581855  0.58254799  1
  Mn3.34+  Mn152  1  0.75472299  0.17262363  0.08892029  1
  Mn3.34+  Mn153  1  0.75324797  0.67366928  0.41925711  1
  Mn3.34+  Mn154  1  0.42288152  0.18043209  0.75321335  1
  Mn3.34+  Mn155  1  0.75660296  0.16205774  0.41386167  1
  Mn3.34+  Mn156  1  0.25463038  0.66139478  0.91453116  1
  Mn3.34+  Mn157  1  0.42346789  0.16384465  0.41541661  1
  Mn3.34+  Mn158  1  0.42742824  0.65604468  0.08813805  1
  Mn3.34+  Mn159  1  0.41381678  0.66159694  0.08694780  1
  Mn3.34+  Mn160  1  0.58903980  0.67346672  0.25118200  1
  Mn3.34+  Mn161  1  0.08144075  0.16517978  0.41182491  1
  Mn3.34+  Mn162  1  0.25380217  0.17353689  0.92129506  1
  Mn3.34+  Mn163  1  0.75671156  0.17223061  0.74749069  1
  Mn3.34+  Mn164  1  0.41704083  0.66427144  0.74850966  1
  Mn3.34+  Mn165  1  0.91153386  0.66795805  0.91826516  1
  Mn3.34+  Mn166  1  0.41365897  0.16937033  0.08783035  1
  Mn3.34+  Mn167  1  0.24826880  0.17372878  0.57722647  1
  Mn3.34+  Mn168  1  0.08340102  0.66709409  0.09265044  1
  Mn3.34+  Mn169  1  0.24628434  0.66216586  0.25057379  1
  Mn3.34+  Mn170  1  0.41073886  0.16815420  0.41106052  1
  Mn3.34+  Mn171  1  0.08066029  0.67135778  0.41461226  1
  Mn3.34+  Mn172  1  0.41329606  0.18007090  0.74639334  1
  Mn3.34+  Mn173  1  0.58065680  0.66712289  0.24936859  1
  Mn3.34+  Mn174  1  0.92077005  0.67356353  0.92118137  1
  Mn3.34+  Mn175  1  0.58295017  0.16400880  0.58282960  1
  Mn3.34+  Mn176  1  0.58713268  0.16759516  0.24608510  1
  Mn3.34+  Mn177  1  0.92475704  0.66418706  0.57261631  1
  Mn3.34+  Mn178  1  0.74759949  0.66578591  0.08731632  1
  Mn3.34+  Mn179  1  0.59242460  0.15834917  0.58127462  1
  Mn3.34+  Mn180  1  0.74958177  -0.00032238  0.09230527  1
  Mn3.34+  Mn181  1  0.43840150  0.00436570  0.74808590  1
  Mn3.34+  Mn182  1  0.07878294  0.49802934  0.73124467  1
  Mn3.34+  Mn183  1  0.74077328  0.50669328  0.07464352  1
  Mn3.34+  Mn184  1  0.07032767  0.00153201  0.75145279  1
  Mn3.34+  Mn185  1  0.07718422  0.50231668  0.07847893  1
  Mn3.34+  Mn186  1  0.55972679  0.49922140  0.59464944  1
  Mn3.34+  Mn187  1  0.90681540  -0.00491959  0.56160280  1
  Mn3.34+  Mn188  1  0.91374362  0.00436869  0.90993650  1
  Mn3.34+  Mn189  1  0.42197619  0.00170837  0.08548229  1
  Mn3.34+  Mn190  1  0.25955476  0.00538470  0.92599855  1
  Mn3.34+  Mn191  1  0.42544968  0.00271173  0.75146600  1
  Mn3.34+  Mn192  1  0.57375816  0.50481606  0.59819561  1
  Mn3.34+  Mn193  1  0.41744745  0.50111026  0.42340584  1
  Mn3.34+  Mn194  1  0.24497982  -0.00025971  0.92518453  1
  Mn3.34+  Mn195  1  0.07283399  -0.00487381  0.08202985  1
  Mn3.34+  Mn196  1  0.73092233  0.00347689  0.73664222  1
  Mn3.34+  Mn197  1  0.58215268  0.50113377  0.23835779  1
  Mn3.34+  Mn198  1  0.25315745  0.49937838  0.26100334  1
  Mn3.34+  Mn199  1  0.08600842  0.50048381  0.42714386  1
  Mn3.34+  Mn200  1  0.41724520  0.00079575  0.40584453  1
  Mn3.34+  Mn201  1  0.23520742  0.00256490  0.57600849  1
  Mn3.34+  Mn202  1  0.76393324  -0.00595278  0.09204538  1
  Mn3.34+  Mn203  1  0.58863895  0.00115035  0.91407478  1
  Mn3.34+  Mn204  1  0.56851674  0.49505783  0.23982146  1
  Mn3.34+  Mn205  1  0.90190766  0.50306318  0.89967486  1
  Mn3.34+  Mn206  1  0.74913170  0.50082862  0.40816411  1
  Mn3.34+  Mn207  1  0.91713244  -0.00908033  0.56450643  1
  Mn3.34+  Mn208  1  0.74483863  0.00831597  0.73678767  1
  Mn3.34+  Mn209  1  0.25109632  0.00701968  0.57591010  1
  Mn3.34+  Mn210  1  0.41980690  0.49664594  0.06501524  1
  Mn3.34+  Mn211  1  0.58654053  0.00368321  0.25422478  1
  Mn3.34+  Mn212  1  0.07557390  0.50532139  0.42678971  1
  Mn3.34+  Mn213  1  0.92211313  0.50174913  0.59464969  1
  Mn3.34+  Mn214  1  0.24209887  -0.00538613  0.25692152  1
  Mn3.34+  Mn215  1  0.91149267  0.49720116  0.89946714  1
  O2-  O216  1  -0.01077116  0.15844547  0.00254315  1
  O2-  O217  1  0.00025370  0.15664155  0.34018500  1
  O2-  O218  1  -0.00093612  0.15790518  0.67673889  1
  O2-  O219  1  0.00236716  0.64907175  0.00126124  1
  O2-  O220  1  0.00253646  0.67274484  0.33287087  1
  O2-  O221  1  0.00239609  0.67183553  0.64895341  1
  O2-  O222  1  0.33975303  0.15400497  -0.00739221  1
  O2-  O223  1  0.32797054  0.16884889  0.34056833  1
  O2-  O224  1  0.33248308  0.15464543  0.66752543  1
  O2-  O225  1  0.33113119  0.64343597  0.00480238  1
  O2-  O226  1  0.33109517  0.65132882  0.33898878  1
  O2-  O227  1  0.33514026  0.67054575  0.67088003  1
  O2-  O228  1  0.67169274  0.17136459  0.00809382  1
  O2-  O229  1  0.66823230  0.15046347  0.32926682  1
  O2-  O230  1  0.67153609  0.15258288  0.66781980  1
  O2-  O231  1  0.66785576  0.65774096  -0.00457503  1
  O2-  O232  1  0.66239242  0.67235228  0.34129874  1
  O2-  O233  1  0.67228049  0.64404315  0.65879331  1
  O2-  O234  1  0.16998722  0.15124148  -0.00898235  1
  O2-  O235  1  0.16101315  0.16089096  0.33334813  1
  O2-  O236  1  0.15798174  0.14295649  0.66575498  1
  O2-  O237  1  0.16805139  0.65147961  -0.00186270  1
  O2-  O238  1  0.16475285  0.64389696  0.33530702  1
  O2-  O239  1  0.17710847  0.66838599  0.66026231  1
  O2-  O240  1  0.49957022  0.17030196  0.01044816  1
  O2-  O241  1  0.50519996  0.15945216  0.33718309  1
  O2-  O242  1  0.49541593  0.15558519  0.66153707  1
  O2-  O243  1  0.49658408  0.65467067  -0.00179741  1
  O2-  O244  1  0.49696843  0.65317312  0.33188905  1
  O2-  O245  1  0.49601440  0.65360285  0.65955417  1
  O2-  O246  1  0.82616932  0.15817552  -0.00686272  1
  O2-  O247  1  0.83183811  0.16037623  0.33461690  1
  O2-  O248  1  0.82765346  0.17995344  0.66434969  1
  O2-  O249  1  0.83147915  0.65636781  -0.00032450  1
  O2-  O250  1  0.82771785  0.68614066  0.33717412  1
  O2-  O251  1  0.83662247  0.66072112  0.66606801  1
  O2-  O252  1  0.00695698  0.35074445  -0.00709720  1
  O2-  O253  1  0.00354929  0.34905427  0.33114675  1
  O2-  O254  1  0.00404722  0.33686757  0.66284276  1
  O2-  O255  1  0.00038866  0.83001455  -0.00286252  1
  O2-  O256  1  -0.00194320  0.83143399  0.33173213  1
  O2-  O257  1  -0.00157589  0.83784217  0.66825502  1
  O2-  O258  1  0.33577667  0.34632968  -0.00057441  1
  O2-  O259  1  0.33147655  0.32749092  0.33505570  1
  O2-  O260  1  0.33472291  0.33103826  0.67255898  1
  O2-  O261  1  0.34226731  0.84032853  -0.00670990  1
  O2-  O262  1  0.32772367  0.84701773  0.33593177  1
  O2-  O263  1  0.33185079  0.84804724  0.66418703  1
  O2-  O264  1  0.66771778  0.33951962  -0.00182256  1
  O2-  O265  1  0.67260682  0.35323126  0.33395673  1
  O2-  O266  1  0.66567005  0.34953973  0.67082600  1
  O2-  O267  1  0.67008429  0.84933284  0.00027246  1
  O2-  O268  1  0.66812341  0.81254464  0.33468638  1
  O2-  O269  1  0.66849547  0.84387921  0.66707432  1
  O2-  O270  1  0.17257069  0.35072837  0.00198993  1
  O2-  O271  1  0.17027959  0.35237814  0.33872742  1
  O2-  O272  1  0.17754326  0.35301736  0.68211567  1
  O2-  O273  1  0.16570499  0.83442537  -0.00179798  1
  O2-  O274  1  0.16090965  0.85054056  0.32981780  1
  O2-  O275  1  0.16820965  0.84124847  0.66436836  1
  O2-  O276  1  0.49890048  0.33895918  0.00529792  1
  O2-  O277  1  0.50645035  0.32825945  0.33747545  1
  O2-  O278  1  0.49844164  0.32078645  0.67517220  1
  O2-  O279  1  0.50463863  0.84488962  0.00367667  1
  O2-  O280  1  0.50320662  0.84436511  0.33538579  1
  O2-  O281  1  0.49962384  0.85082716  0.66780126  1
  O2-  O282  1  0.81960059  0.33765105  -0.01231401  1
  O2-  O283  1  0.83351960  0.34216358  0.33705354  1
  O2-  O284  1  0.82845389  0.33837467  0.66164145  1
  O2-  O285  1  0.82808733  0.83865820  -0.00460777  1
  O2-  O286  1  0.83373917  0.82516335  0.33089735  1
  O2-  O287  1  0.84244461  0.82514977  0.67083161  1
  O2-  O288  1  0.01134176  0.17593122  0.17411640  1
  O2-  O289  1  0.00656069  0.17958064  0.50008906  1
  O2-  O290  1  0.01034051  0.17765985  0.84836354  1
  O2-  O291  1  0.00200701  0.67962853  0.16500608  1
  O2-  O292  1  0.00070926  0.69012742  0.49448305  1
  O2-  O293  1  0.00703285  0.68676638  0.84793501  1
  O2-  O294  1  0.32580805  0.17690208  0.15580342  1
  O2-  O295  1  0.34187269  0.19120726  0.49863520  1
  O2-  O296  1  0.32311530  0.18582268  0.82350384  1
  O2-  O297  1  0.34108152  0.67602188  0.17331781  1
  O2-  O298  1  0.33285807  0.68090139  0.49479132  1
  O2-  O299  1  0.33595411  0.69534954  0.83643798  1
  O2-  O300  1  0.66827805  0.18457064  0.16536812  1
  O2-  O301  1  0.66695691  0.17346213  0.49488827  1
  O2-  O302  1  0.67843798  0.18567074  0.83110789  1
  O2-  O303  1  0.66704407  0.68862614  0.16870644  1
  O2-  O304  1  0.66846045  0.68112260  0.50274758  1
  O2-  O305  1  0.66800648  0.67458548  0.83547808  1
  O2-  O306  1  0.15354491  0.17567903  0.16639965  1
  O2-  O307  1  0.16090361  0.17592595  0.50406795  1
  O2-  O308  1  0.17283773  0.17519762  0.82837911  1
  O2-  O309  1  0.17201716  0.67926881  0.16383730  1
  O2-  O310  1  0.17145391  0.67862901  0.49028719  1
  O2-  O311  1  0.16875932  0.68800889  0.84736173  1
  O2-  O312  1  0.50127902  0.18193579  0.16802800  1
  O2-  O313  1  0.49892592  0.18843928  0.49589443  1
  O2-  O314  1  0.49285090  0.18683906  0.83495385  1
  O2-  O315  1  0.50093708  0.69151766  0.17059792  1
  O2-  O316  1  0.50569208  0.68107582  0.49290708  1
  O2-  O317  1  0.49869655  0.67546294  0.83566436  1
  O2-  O318  1  0.84033464  0.18383380  0.15759800  1
  O2-  O319  1  0.83112237  0.17844479  0.49204062  1
  O2-  O320  1  0.83250585  0.18530896  0.83747728  1
  O2-  O321  1  0.83195724  0.67941819  0.16148056  1
  O2-  O322  1  0.82473660  0.67834353  0.51156763  1
  O2-  O323  1  0.83705502  0.69528352  0.83594635  1
  O2-  O324  1  0.00632818  0.32529661  0.16876871  1
  O2-  O325  1  -0.01206474  0.32674412  0.48314630  1
  O2-  O326  1  0.00704079  0.32885156  0.84216484  1
  O2-  O327  1  -0.00142966  0.81461741  0.17537568  1
  O2-  O328  1  0.00686920  0.81213592  0.50509133  1
  O2-  O329  1  -0.00469436  0.82268943  0.83148724  1
  O2-  O330  1  0.32674284  0.32767038  0.16180324  1
  O2-  O331  1  0.32558116  0.31707689  0.49295696  1
  O2-  O332  1  0.33474249  0.31177541  0.83130258  1
  O2-  O333  1  0.33309955  0.82120557  0.17306385  1
  O2-  O334  1  0.34145454  0.81871047  0.50849022  1
  O2-  O335  1  0.32789500  0.82281457  0.82888176  1
  O2-  O336  1  0.67638152  0.31986354  0.17191388  1
  O2-  O337  1  0.66862813  0.33165660  0.50298722  1
  O2-  O338  1  0.67448627  0.32278041  0.83313310  1
  O2-  O339  1  0.66138575  0.81430354  0.16479588  1
  O2-  O340  1  0.66950760  0.81860957  0.49403622  1
  O2-  O341  1  0.67599287  0.83393025  0.83791582  1
  O2-  O342  1  0.16463903  0.33068696  0.16686472  1
  O2-  O343  1  0.16464461  0.32157152  0.50000822  1
  O2-  O344  1  0.15977237  0.32465526  0.84354401  1
  O2-  O345  1  0.16106090  0.82013493  0.17286103  1
  O2-  O346  1  0.16851174  0.81663516  0.49980911  1
  O2-  O347  1  0.17081303  0.82060563  0.83201222  1
  O2-  O348  1  0.49851740  0.31450498  0.16807241  1
  O2-  O349  1  0.50111095  0.31355818  0.49390629  1
  O2-  O350  1  0.50065208  0.32173999  0.83140670  1
  O2-  O351  1  0.50116798  0.81521556  0.17200282  1
  O2-  O352  1  0.49590366  0.82003253  0.50457864  1
  O2-  O353  1  0.49335778  0.83304419  0.84221181  1
  O2-  O354  1  0.83127790  0.32013141  0.16913180  1
  O2-  O355  1  0.82922861  0.33079269  0.50256858  1
  O2-  O356  1  0.83508498  0.31039573  0.82825130  1
  O2-  O357  1  0.83820989  0.81349828  0.17247267  1
  O2-  O358  1  0.83312922  0.79860633  0.49499191  1
  O2-  O359  1  0.83419114  0.82274618  0.83335990  1
  O2-  O360  1  0.06807599  0.07332666  0.10410391  1
  O2-  O361  1  0.09044221  0.08153372  0.44355184  1
  O2-  O362  1  0.10406868  0.07825445  0.79864015  1
  O2-  O363  1  0.08405474  0.58202964  0.11556655  1
  O2-  O364  1  0.08609955  0.58668332  0.45548824  1
  O2-  O365  1  0.08969778  0.57313635  0.77528696  1
  O2-  O366  1  0.42687670  0.08313156  0.09499101  1
  O2-  O367  1  0.40857241  0.08048069  0.44978526  1
  O2-  O368  1  0.40684466  0.08497408  0.78604610  1
  O2-  O369  1  0.42036721  0.57236161  0.12278126  1
  O2-  O370  1  0.41384760  0.58298448  0.45863630  1
  O2-  O371  1  0.39179810  0.58840843  0.77040564  1
  O2-  O372  1  0.75512609  0.08171388  0.11232270  1
  O2-  O373  1  0.75408959  0.08108507  0.44197500  1
  O2-  O374  1  0.75932637  0.08139343  0.78562330  1
  O2-  O375  1  0.75405981  0.58260332  0.11998043  1
  O2-  O376  1  0.73842295  0.58132261  0.43888432  1
  O2-  O377  1  0.76480518  0.57561736  0.78386095  1
  O2-  O378  1  0.23042002  0.06862037  0.22767660  1
  O2-  O379  1  0.26275686  0.08721081  0.55170191  1
  O2-  O380  1  0.26301930  0.08277400  0.88216244  1
  O2-  O381  1  0.26090563  0.57584572  0.21518989  1
  O2-  O382  1  0.24402133  0.56627244  0.55748209  1
  O2-  O383  1  0.23509737  0.58100152  0.87709964  1
  O2-  O384  1  0.59186840  0.08182177  0.21652202  1
  O2-  O385  1  0.56657743  0.08148496  0.54533912  1
  O2-  O386  1  0.59445073  0.08329358  0.91138046  1
  O2-  O387  1  0.57595183  0.58311845  0.21594305  1
  O2-  O388  1  0.58944044  0.57868075  0.54582351  1
  O2-  O389  1  0.58066645  0.57987199  0.88902194  1
  O2-  O390  1  0.91389398  0.06432300  0.23167038  1
  O2-  O391  1  0.92042215  0.07774876  0.54167860  1
  O2-  O392  1  0.91927212  0.08636590  0.89205101  1
  O2-  O393  1  0.92199241  0.56517589  0.21696200  1
  O2-  O394  1  0.90425169  0.57927242  0.55301466  1
  O2-  O395  1  0.93227566  0.58388654  0.87565181  1
  O2-  O396  1  0.09087629  0.42271533  0.10269639  1
  O2-  O397  1  0.07640576  0.41790413  0.44857684  1
  O2-  O398  1  0.07682195  0.42476448  0.78273335  1
  O2-  O399  1  0.07469559  0.91483823  0.10827004  1
  O2-  O400  1  0.08590867  0.91386551  0.44173463  1
  O2-  O401  1  0.09011107  0.91555769  0.77893673  1
  O2-  O402  1  0.41206890  0.42614313  0.11286587  1
  O2-  O403  1  0.41889561  0.41900695  0.43360241  1
  O2-  O404  1  0.41133510  0.41572040  0.76923559  1
  O2-  O405  1  0.43458645  0.91991404  0.11253938  1
  O2-  O406  1  0.41069721  0.91894325  0.44166136  1
  O2-  O407  1  0.39688079  0.92226312  0.78392948  1
  O2-  O408  1  0.74726913  0.42708563  0.11223758  1
  O2-  O409  1  0.75735925  0.42274470  0.45052666  1
  O2-  O410  1  0.75109557  0.42104996  0.77952911  1
  O2-  O411  1  0.74904036  0.91423305  0.12648500  1
  O2-  O412  1  0.74339193  0.91390258  0.41672586  1
  O2-  O413  1  0.77567831  0.92527583  0.78049774  1
  O2-  O414  1  0.24128248  0.42285180  0.22532246  1
  O2-  O415  1  0.26211950  0.41417462  0.57241774  1
  O2-  O416  1  0.23885086  0.41840271  0.87505463  1
  O2-  O417  1  0.25996933  0.92049888  0.22044176  1
  O2-  O418  1  0.24414409  0.91985519  0.55422246  1
  O2-  O419  1  0.24702027  0.92035093  0.88382910  1
  O2-  O420  1  0.58893150  0.41381139  0.22696330  1
  O2-  O421  1  0.57614326  0.42246050  0.55096916  1
  O2-  O422  1  0.59494384  0.41677583  0.88603724  1
  O2-  O423  1  0.58109620  0.92320197  0.22646395  1
  O2-  O424  1  0.56938172  0.91502125  0.54557797  1
  O2-  O425  1  0.58094770  0.92171373  0.87919629  1
  O2-  O426  1  0.90339148  0.41230571  0.24354362  1
  O2-  O427  1  0.91012703  0.42252554  0.55093084  1
  O2-  O428  1  0.89058316  0.41531285  0.89370589  1
  O2-  O429  1  0.91562547  0.91578940  0.23582983  1
  O2-  O430  1  0.91567287  0.90879571  0.57190721  1
  O2-  O431  1  0.90633154  0.92069149  0.88021296  1
  O2-  O432  1  0.01793937  -0.00014194  -0.02893347  1
  O2-  O433  1  0.00203051  0.01407704  0.30976808  1
  O2-  O434  1  0.00723769  -0.00140567  0.64557560  1
  O2-  O435  1  0.00690859  0.50492657  -0.02639057  1
  O2-  O436  1  -0.00779525  0.48851794  0.34941623  1
  O2-  O437  1  0.02794510  0.51575627  0.63383136  1
  O2-  O438  1  0.33859361  -0.02044281  0.00157105  1
  O2-  O439  1  0.32043025  -0.00307180  0.34001038  1
  O2-  O440  1  0.32750171  0.00983848  0.67443614  1
  O2-  O441  1  0.32295276  0.50533695  0.02264009  1
  O2-  O442  1  0.32240131  0.51751744  0.35406402  1
  O2-  O443  1  0.32195835  0.50955720  0.69046375  1
  O2-  O444  1  0.66440501  -0.01775447  0.00737806  1
  O2-  O445  1  0.67790048  0.00237967  0.31410437  1
  O2-  O446  1  0.64588044  -0.00908202  0.67028321  1
  O2-  O447  1  0.68454631  0.49069448  -0.02097640  1
  O2-  O448  1  0.66202141  0.49839349  0.32756254  1
  O2-  O449  1  0.66946547  0.48931404  0.65433522  1
  O2-  O450  1  0.16853655  0.01321575  0.00939189  1
  O2-  O451  1  0.15997361  -0.00987868  0.32595168  1
  O2-  O452  1  0.17746125  0.00153258  0.68358961  1
  O2-  O453  1  0.15703270  0.51066468  -0.00721112  1
  O2-  O454  1  0.16169244  0.50568274  0.33597528  1
  O2-  O455  1  0.17777950  0.49627667  0.69309815  1
  O2-  O456  1  0.49120495  -0.00768051  -0.01780535  1
  O2-  O457  1  0.52215003  -0.00222569  0.35487949  1
  O2-  O458  1  0.47748499  -0.01247847  0.64262272  1
  O2-  O459  1  0.49272629  0.50691358  -0.00549985  1
  O2-  O460  1  0.49660145  0.51403336  0.33285943  1
  O2-  O461  1  0.48044681  0.50468384  0.67050330  1
  O2-  O462  1  0.82340934  -0.00908396  -0.01267229  1
  O2-  O463  1  0.83621059  0.01470438  0.31735624  1
  O2-  O464  1  0.82853022  0.00490873  0.65285285  1
  O2-  O465  1  0.83916487  0.51551987  -0.00113241  1
  O2-  O466  1  0.82357473  0.48477112  0.33176758  1
  O2-  O467  1  0.80741176  0.50057291  0.61073187  1
  O2-  O468  1  0.41430815  0.74421440  0.05599454  1
  O2-  O469  1  0.92304606  0.25288850  0.26947937  1
  O2-  O470  1  0.59713663  0.24866326  0.27365500  1
  O2-  O471  1  0.09976823  0.75112887  0.38901916  1
  O2-  O472  1  0.08693492  0.25683863  0.06558527  1
  O2-  O473  1  0.58456043  0.74978401  0.60769217  1
  O2-  O474  1  0.74194109  0.25171204  0.39935315  1
  O2-  O475  1  0.58337732  0.25791690  0.92949429  1
  O2-  O476  1  0.24233190  0.25275224  0.94442737  1
  O2-  O477  1  0.43598037  0.75083004  0.72961759  1
  O2-  O478  1  0.24921064  0.75016391  0.27196827  1
  O2-  O479  1  0.58376557  0.74960187  0.93095723  1
  O2-  O480  1  0.92782014  0.25222581  0.94631632  1
  O2-  O481  1  0.72980952  0.73966985  0.72790985  1
  O2-  O482  1  0.08786149  0.74708953  0.06144575  1
  O2-  O483  1  0.40916878  0.25387764  0.07070447  1
  O2-  O484  1  0.08510050  0.25253879  0.39442281  1
  O2-  O485  1  0.41864115  0.74901872  0.39029053  1
  O2-  O486  1  0.23991337  0.25598371  0.25544611  1
  O2-  O487  1  0.23551081  0.25029420  0.61335749  1
  O2-  O488  1  0.08709672  0.74976686  0.72968385  1
  O2-  O489  1  0.08665116  0.25153537  0.72915961  1
  O2-  O490  1  0.74604292  0.74943320  0.05800906  1
  O2-  O491  1  0.92213829  0.25620569  0.58971951  1
  O2-  O492  1  0.59942401  0.24388956  0.60371537  1
