# generated using pymatgen
data_Ca108Mn108O277
_symmetry_space_group_name_H-M   'P 1'
_cell_length_a   16.03182822
_cell_length_b   22.31602294
_cell_length_c   16.39499749
_cell_angle_alpha   90.00474824
_cell_angle_beta   90.00487028
_cell_angle_gamma   89.99950836
_symmetry_Int_Tables_number   1
_chemical_formula_structural   Ca108Mn108O277
_chemical_formula_sum   'Ca108 Mn108 O277'
_cell_volume   5865.58322880
_cell_formula_units_Z   1
loop_
 _symmetry_equiv_pos_site_id
 _symmetry_equiv_pos_as_xyz
  1  'x, y, z'
loop_
 _atom_type_symbol
 _atom_type_oxidation_number
  Ca2+  2.0
  Mn3.34+  3.34
  O2-  -2.0
loop_
 _atom_site_type_symbol
 _atom_site_label
 _atom_site_symmetry_multiplicity
 _atom_site_fract_x
 _atom_site_fract_y
 _atom_site_fract_z
 _atom_site_occupancy
  Ca2+  Ca0  1  0.08611206  0.24265371  0.24521944  1
  Ca2+  Ca1  1  0.09007493  0.25948226  0.58676088  1
  Ca2+  Ca2  1  0.07708761  0.23919160  0.92486855  1
  Ca2+  Ca3  1  0.07529336  0.74489129  0.24478424  1
  Ca2+  Ca4  1  0.08355487  0.73301113  0.59024888  1
  Ca2+  Ca5  1  0.06513975  0.74305477  0.90730802  1
  Ca2+  Ca6  1  0.40468001  0.26347543  0.24413097  1
  Ca2+  Ca7  1  0.42398799  0.26562098  0.58328336  1
  Ca2+  Ca8  1  0.41173884  0.26920918  0.92312306  1
  Ca2+  Ca9  1  0.40103863  0.74704790  0.25584823  1
  Ca2+  Ca10  1  0.38972924  0.73564431  0.60518784  1
  Ca2+  Ca11  1  0.41351544  0.74327856  0.90020649  1
  Ca2+  Ca12  1  0.76167023  0.27074273  0.24837714  1
  Ca2+  Ca13  1  0.73382975  0.26255162  0.57906626  1
  Ca2+  Ca14  1  0.78029390  0.24778926  0.92655629  1
  Ca2+  Ca15  1  0.76073363  0.74413470  0.25833503  1
  Ca2+  Ca16  1  0.78184362  0.74522900  0.58664852  1
  Ca2+  Ca17  1  0.74160529  0.74112156  0.90990648  1
  Ca2+  Ca18  1  0.25264789  0.26227449  0.08143308  1
  Ca2+  Ca19  1  0.23663253  0.26575244  0.40784259  1
  Ca2+  Ca20  1  0.24294552  0.26225743  0.76259874  1
  Ca2+  Ca21  1  0.23393085  0.73660824  0.07382830  1
  Ca2+  Ca22  1  0.24335121  0.74634148  0.43058694  1
  Ca2+  Ca23  1  0.25084413  0.75100334  0.74770218  1
  Ca2+  Ca24  1  0.57716026  0.27664897  0.08064003  1
  Ca2+  Ca25  1  0.58362094  0.27547085  0.41551021  1
  Ca2+  Ca26  1  0.58061501  0.26833644  0.74751364  1
  Ca2+  Ca27  1  0.58298052  0.73945337  0.06342563  1
  Ca2+  Ca28  1  0.59307818  0.74202908  0.40834000  1
  Ca2+  Ca29  1  0.56256898  0.73997994  0.77889616  1
  Ca2+  Ca30  1  0.91816704  0.24376133  0.07982671  1
  Ca2+  Ca31  1  0.92845983  0.26962263  0.40357156  1
  Ca2+  Ca32  1  0.92766115  0.25315468  0.77837519  1
  Ca2+  Ca33  1  0.92052490  0.74804867  0.07441543  1
  Ca2+  Ca34  1  0.91156709  0.73984392  0.42270785  1
  Ca2+  Ca35  1  0.92009249  0.71367349  0.74413827  1
  Ca2+  Ca36  1  0.77882568  0.60487310  0.55785707  1
  Ca2+  Ca37  1  0.20737227  0.10679390  0.08723210  1
  Ca2+  Ca38  1  0.78269956  0.61002937  0.56424981  1
  Ca2+  Ca39  1  0.59994284  0.08274198  0.41739933  1
  Ca2+  Ca40  1  0.40870775  0.60229185  0.91240965  1
  Ca2+  Ca41  1  0.55769654  0.60720809  0.76788518  1
  Ca2+  Ca42  1  0.90839652  0.58856668  0.39745711  1
  Ca2+  Ca43  1  0.58733370  0.58572926  0.06526707  1
  Ca2+  Ca44  1  0.09808964  0.09239159  0.57492164  1
  Ca2+  Ca45  1  0.26783236  0.60930141  0.75148031  1
  Ca2+  Ca46  1  0.57504717  0.08985622  0.08225658  1
  Ca2+  Ca47  1  0.21926118  0.08410347  0.39568287  1
  Ca2+  Ca48  1  0.38433663  0.08200685  0.25182622  1
  Ca2+  Ca49  1  0.75899492  0.08290999  0.60267650  1
  Ca2+  Ca50  1  0.25751251  0.60889432  0.75033756  1
  Ca2+  Ca51  1  0.58758515  0.09033616  0.08106085  1
  Ca2+  Ca52  1  0.95671672  0.06611284  0.37304937  1
  Ca2+  Ca53  1  0.93156515  0.60819666  0.07349463  1
  Ca2+  Ca54  1  0.25358242  0.08524593  0.74595877  1
  Ca2+  Ca55  1  0.96501302  0.06937835  0.37744533  1
  Ca2+  Ca56  1  0.75242626  0.59357498  0.26274497  1
  Ca2+  Ca57  1  0.40208602  0.08472438  0.92185892  1
  Ca2+  Ca58  1  0.77694809  0.08399344  0.24652368  1
  Ca2+  Ca59  1  0.58617098  0.08404966  0.74277711  1
  Ca2+  Ca60  1  0.24160462  0.08836718  0.74804996  1
  Ca2+  Ca61  1  0.40684850  0.08347392  0.60037315  1
  Ca2+  Ca62  1  0.81050385  0.09124829  0.91732257  1
  Ca2+  Ca63  1  0.08680948  0.59377241  0.59134368  1
  Ca2+  Ca64  1  0.92483316  0.11257074  0.77159270  1
  Ca2+  Ca65  1  0.78683791  0.08394611  0.25147448  1
  Ca2+  Ca66  1  0.93914908  0.61168657  0.07874891  1
  Ca2+  Ca67  1  0.76191860  0.60632237  0.92162118  1
  Ca2+  Ca68  1  0.08618303  0.61208799  0.92097105  1
  Ca2+  Ca69  1  0.20000963  0.10347427  0.09305142  1
  Ca2+  Ca70  1  0.58783248  0.08506410  0.41580052  1
  Ca2+  Ca71  1  0.59828154  0.08679596  0.74496444  1
  Ca2+  Ca72  1  0.75501219  0.40618382  0.58014952  1
  Ca2+  Ca73  1  0.57630721  0.41346856  0.74331892  1
  Ca2+  Ca74  1  0.23534164  0.90019992  0.10071998  1
  Ca2+  Ca75  1  0.40684207  0.89973178  0.60177153  1
  Ca2+  Ca76  1  0.41080518  0.41336441  0.58889698  1
  Ca2+  Ca77  1  0.08324735  0.90299608  0.92331859  1
  Ca2+  Ca78  1  0.09004717  0.40335128  0.91705988  1
  Ca2+  Ca79  1  0.90525815  0.90120568  0.75969728  1
  Ca2+  Ca80  1  0.75319620  0.89801201  0.25516732  1
  Ca2+  Ca81  1  0.24880995  0.41060714  0.74714076  1
  Ca2+  Ca82  1  0.75881106  0.41280755  0.92912904  1
  Ca2+  Ca83  1  0.92676268  0.40489609  0.74498633  1
  Ca2+  Ca84  1  0.91548958  0.90405423  0.75655425  1
  Ca2+  Ca85  1  0.09242146  0.90559014  0.57065913  1
  Ca2+  Ca86  1  0.07043279  0.90500432  0.92332315  1
  Ca2+  Ca87  1  0.56433859  0.89992897  0.76200327  1
  Ca2+  Ca88  1  0.93601745  0.90587060  0.09644358  1
  Ca2+  Ca89  1  0.23150588  0.91479487  0.39063580  1
  Ca2+  Ca90  1  0.08542373  0.41068057  0.58748209  1
  Ca2+  Ca91  1  0.41199497  0.42275400  0.94667288  1
  Ca2+  Ca92  1  0.58394652  0.88791701  0.09310162  1
  Ca2+  Ca93  1  0.08159263  0.90394760  0.56952593  1
  Ca2+  Ca94  1  0.09239858  0.41419393  0.26135180  1
  Ca2+  Ca95  1  0.75390918  0.90384780  0.57542485  1
  Ca2+  Ca96  1  0.41000510  0.89272024  0.24495446  1
  Ca2+  Ca97  1  0.74611640  0.41304396  0.92848510  1
  Ca2+  Ca98  1  0.91064415  0.40912646  0.08738483  1
  Ca2+  Ca99  1  0.75206448  0.90075857  0.91559805  1
  Ca2+  Ca100  1  0.57583820  0.89784953  0.75969531  1
  Ca2+  Ca101  1  0.58561150  0.88945447  0.40894785  1
  Ca2+  Ca102  1  0.76590824  0.90226397  0.57205247  1
  Ca2+  Ca103  1  0.22131559  0.91652681  0.39130363  1
  Ca2+  Ca104  1  0.08207346  0.41409892  0.26048117  1
  Ca2+  Ca105  1  0.39522136  0.41876351  0.22813848  1
  Ca2+  Ca106  1  0.92763875  0.90522568  0.08874592  1
  Ca2+  Ca107  1  0.58954153  0.42162004  0.40760174  1
  Mn3.34+  Mn108  1  0.08313944  0.33262109  0.08596248  1
  Mn3.34+  Mn109  1  0.08315041  0.33888848  0.42193364  1
  Mn3.34+  Mn110  1  0.08454130  0.33606892  0.75077182  1
  Mn3.34+  Mn111  1  0.08680780  0.82546460  0.09096749  1
  Mn3.34+  Mn112  1  0.07432079  0.83227954  0.40745455  1
  Mn3.34+  Mn113  1  0.08878184  0.82880761  0.75105408  1
  Mn3.34+  Mn114  1  0.41425750  0.34267008  0.08483749  1
  Mn3.34+  Mn115  1  0.41172735  0.34153180  0.41292161  1
  Mn3.34+  Mn116  1  0.41513317  0.34036498  0.75349740  1
  Mn3.34+  Mn117  1  0.41236237  0.82236290  0.08187200  1
  Mn3.34+  Mn118  1  0.41712309  0.82913438  0.42170877  1
  Mn3.34+  Mn119  1  0.40418049  0.83378110  0.75673362  1
  Mn3.34+  Mn120  1  0.74617858  0.33542725  0.09073796  1
  Mn3.34+  Mn121  1  0.75618887  0.34275577  0.40904768  1
  Mn3.34+  Mn122  1  0.75301257  0.33072320  0.75330783  1
  Mn3.34+  Mn123  1  0.75108734  0.82715814  0.08592640  1
  Mn3.34+  Mn124  1  0.75229773  0.82457197  0.41727827  1
  Mn3.34+  Mn125  1  0.74614300  0.82879005  0.75002174  1
  Mn3.34+  Mn126  1  0.24662991  0.33790176  0.24538775  1
  Mn3.34+  Mn127  1  0.25250400  0.34083115  0.57527465  1
  Mn3.34+  Mn128  1  0.24899603  0.33703818  0.92013666  1
  Mn3.34+  Mn129  1  0.24713116  0.82626983  0.24935068  1
  Mn3.34+  Mn130  1  0.24876794  0.83121600  0.58278701  1
  Mn3.34+  Mn131  1  0.25203564  0.83126301  0.91865750  1
  Mn3.34+  Mn132  1  0.58051367  0.34547542  0.24904372  1
  Mn3.34+  Mn133  1  0.58107903  0.34102416  0.58001427  1
  Mn3.34+  Mn134  1  0.58235818  0.33933886  0.91677204  1
  Mn3.34+  Mn135  1  0.58226022  0.82092900  0.24558156  1
  Mn3.34+  Mn136  1  0.58416031  0.82365239  0.58108265  1
  Mn3.34+  Mn137  1  0.57965141  0.82800032  0.92167562  1
  Mn3.34+  Mn138  1  0.92134026  0.33780618  0.24474622  1
  Mn3.34+  Mn139  1  0.91520744  0.32966875  0.58069650  1
  Mn3.34+  Mn140  1  0.92179008  0.33537711  0.91977826  1
  Mn3.34+  Mn141  1  0.91524007  0.83116623  0.25388249  1
  Mn3.34+  Mn142  1  0.92334168  0.82925370  0.58110358  1
  Mn3.34+  Mn143  1  0.91365573  0.82811655  0.91664243  1
  Mn3.34+  Mn144  1  0.59709746  0.17256540  0.91821673  1
  Mn3.34+  Mn145  1  0.57631565  0.66340102  0.57933395  1
  Mn3.34+  Mn146  1  0.24721455  0.16892205  0.57694571  1
  Mn3.34+  Mn147  1  0.40296719  0.17375304  0.41821346  1
  Mn3.34+  Mn148  1  0.23901089  0.65775098  0.24167209  1
  Mn3.34+  Mn149  1  0.58592063  0.16962257  0.24812842  1
  Mn3.34+  Mn150  1  0.41750482  0.66435385  0.41478296  1
  Mn3.34+  Mn151  1  0.24645805  0.16919356  0.91989608  1
  Mn3.34+  Mn152  1  0.08803766  0.17120624  0.75434474  1
  Mn3.34+  Mn153  1  0.09102176  0.65577903  0.41344423  1
  Mn3.34+  Mn154  1  0.42067479  0.17091337  0.75080804  1
  Mn3.34+  Mn155  1  0.40329533  0.65496282  0.09326144  1
  Mn3.34+  Mn156  1  0.74591707  0.66709449  0.75477733  1
  Mn3.34+  Mn157  1  0.24586216  0.17020784  0.24821647  1
  Mn3.34+  Mn158  1  0.75199540  0.17310390  0.75179491  1
  Mn3.34+  Mn159  1  0.91716480  0.16864110  0.58183871  1
  Mn3.34+  Mn160  1  0.58364182  0.66346381  0.24555079  1
  Mn3.34+  Mn161  1  0.40784054  0.65885806  0.41544640  1
  Mn3.34+  Mn162  1  0.08509750  0.17575699  0.41498131  1
  Mn3.34+  Mn163  1  0.57448061  0.17439658  0.24945504  1
  Mn3.34+  Mn164  1  0.41418373  0.65139940  0.09476783  1
  Mn3.34+  Mn165  1  0.08086252  0.66009552  0.41118119  1
  Mn3.34+  Mn166  1  0.75862480  0.17057091  0.08466723  1
  Mn3.34+  Mn167  1  0.40986463  0.16625954  0.75328392  1
  Mn3.34+  Mn168  1  0.92656336  0.17413332  0.58388872  1
  Mn3.34+  Mn169  1  0.93061283  0.17050544  0.23976543  1
  Mn3.34+  Mn170  1  0.58698519  0.16662581  0.91579000  1
  Mn3.34+  Mn171  1  0.58753777  0.66995243  0.58100118  1
  Mn3.34+  Mn172  1  0.74558180  0.66498660  0.09146143  1
  Mn3.34+  Mn173  1  0.91449317  0.66699139  0.24502665  1
  Mn3.34+  Mn174  1  0.08485075  0.66431693  0.75206024  1
  Mn3.34+  Mn175  1  0.76371239  0.16806555  0.42239744  1
  Mn3.34+  Mn176  1  0.40853680  0.17016280  0.08307432  1
  Mn3.34+  Mn177  1  0.75361466  0.17311788  0.41866117  1
  Mn3.34+  Mn178  1  0.41276221  0.16777625  0.42061945  1
  Mn3.34+  Mn179  1  0.58364388  0.17193677  0.58281358  1
  Mn3.34+  Mn180  1  0.75990447  -0.00303258  0.41658603  1
  Mn3.34+  Mn181  1  0.10347604  0.50535114  0.08823474  1
  Mn3.34+  Mn182  1  0.58455373  -0.00459568  0.25015451  1
  Mn3.34+  Mn183  1  0.25551151  0.50136647  0.92941347  1
  Mn3.34+  Mn184  1  0.58037676  0.50304504  0.25076328  1
  Mn3.34+  Mn185  1  0.92197229  0.49571828  0.57645709  1
  Mn3.34+  Mn186  1  0.76085187  0.50737084  0.74469843  1
  Mn3.34+  Mn187  1  0.75099477  0.50075741  0.09026084  1
  Mn3.34+  Mn188  1  0.77788406  0.00672895  0.76270907  1
  Mn3.34+  Mn189  1  0.08191163  0.49909515  0.40088363  1
  Mn3.34+  Mn190  1  0.58072396  -0.00838419  0.58538692  1
  Mn3.34+  Mn191  1  0.40195364  0.50260248  0.40112356  1
  Mn3.34+  Mn192  1  0.75587418  -0.00555860  0.07674523  1
  Mn3.34+  Mn193  1  0.24140834  -0.00074128  0.92140089  1
  Mn3.34+  Mn194  1  0.24917659  0.50084652  0.59024502  1
  Mn3.34+  Mn195  1  0.08077589  0.50349867  0.74500533  1
  Mn3.34+  Mn196  1  0.57754165  -0.00204872  0.92042182  1
  Mn3.34+  Mn197  1  0.58028663  0.50276528  0.58491580  1
  Mn3.34+  Mn198  1  0.92178139  0.50312842  0.92378877  1
  Mn3.34+  Mn199  1  0.91848964  0.00074904  0.57235724  1
  Mn3.34+  Mn200  1  0.41474762  -0.00613172  0.08369868  1
  Mn3.34+  Mn201  1  0.08157417  -0.00089008  0.75796005  1
  Mn3.34+  Mn202  1  0.09317214  0.50056056  0.09125790  1
  Mn3.34+  Mn203  1  0.39245586  0.50805145  0.39713462  1
  Mn3.34+  Mn204  1  0.07417066  0.00037849  0.08183930  1
  Mn3.34+  Mn205  1  0.56887214  -0.00469981  0.58698525  1
  Mn3.34+  Mn206  1  0.41821676  -0.00563770  0.42460953  1
  Mn3.34+  Mn207  1  0.76696917  -0.00060981  0.07401401  1
  Mn3.34+  Mn208  1  0.74783623  0.50038875  0.74452472  1
  Mn3.34+  Mn209  1  0.40565262  -0.00250037  0.42152806  1
  Mn3.34+  Mn210  1  0.40072373  -0.00002702  0.08492877  1
  Mn3.34+  Mn211  1  0.76038168  0.49446626  0.39054692  1
  Mn3.34+  Mn212  1  0.58427762  0.49891912  0.92771212  1
  Mn3.34+  Mn213  1  0.41624111  0.50014132  0.74655134  1
  Mn3.34+  Mn214  1  0.25434739  0.00327521  0.57970870  1
  Mn3.34+  Mn215  1  0.07093584  0.00443134  0.75872113  1
  O2-  O216  1  0.00325926  0.17902874  0.01081585  1
  O2-  O217  1  0.00388828  0.16068144  0.33231192  1
  O2-  O218  1  0.00828102  0.15158970  0.66405324  1
  O2-  O219  1  0.00908939  0.67980052  0.00539188  1
  O2-  O220  1  0.00217283  0.65001797  0.33001067  1
  O2-  O221  1  0.00891064  0.65375544  0.66929997  1
  O2-  O222  1  0.31788329  0.14076439  0.01130838  1
  O2-  O223  1  0.32612433  0.14727946  0.33667346  1
  O2-  O224  1  0.32643777  0.15609149  0.66772245  1
  O2-  O225  1  0.33844367  0.67706504  0.00644077  1
  O2-  O226  1  0.33699791  0.65031522  0.32800122  1
  O2-  O227  1  0.32686032  0.67422147  0.68101689  1
  O2-  O228  1  0.67503399  0.14250775  -0.00043259  1
  O2-  O229  1  0.67569028  0.13912825  0.32917989  1
  O2-  O230  1  0.67049849  0.15494044  0.66379931  1
  O2-  O231  1  0.67382251  0.66423220  0.00595054  1
  O2-  O232  1  0.66346140  0.68310057  0.31991577  1
  O2-  O233  1  0.66459130  0.65281602  0.66464471  1
  O2-  O234  1  0.16069737  0.16891278  -0.00714298  1
  O2-  O235  1  0.16625052  0.16470232  0.33453628  1
  O2-  O236  1  0.17104494  0.15282693  0.66437439  1
  O2-  O237  1  0.14765910  0.68881153  -0.00992914  1
  O2-  O238  1  0.16871426  0.65612699  0.33323560  1
  O2-  O239  1  0.16453284  0.65697746  0.67168086  1
  O2-  O240  1  0.49446020  0.14397816  -0.00277145  1
  O2-  O241  1  0.49850578  0.13727819  0.33582060  1
  O2-  O242  1  0.50145551  0.14347649  0.66731585  1
  O2-  O243  1  0.49472989  0.65835574  0.01426785  1
  O2-  O244  1  0.50090676  0.66873796  0.33611626  1
  O2-  O245  1  0.50229863  0.66929666  0.66349966  1
  O2-  O246  1  0.83770002  0.16402482  0.00885850  1
  O2-  O247  1  0.84539400  0.14655267  0.34169973  1
  O2-  O248  1  0.83670398  0.16200799  0.66983331  1
  O2-  O249  1  0.83176524  0.66551062  0.01629726  1
  O2-  O250  1  0.83476995  0.66105327  0.32792321  1
  O2-  O251  1  0.82492990  0.65551068  0.66871533  1
  O2-  O252  1  -0.00154311  0.35371217  0.00333994  1
  O2-  O253  1  0.00535677  0.34626023  0.33090295  1
  O2-  O254  1  -0.00016874  0.33709268  0.66635531  1
  O2-  O255  1  0.00401813  0.83896966  0.00174596  1
  O2-  O256  1  -0.00477824  0.84016225  0.33164171  1
  O2-  O257  1  -0.00013254  0.86079194  0.66600836  1
  O2-  O258  1  0.33243063  0.34429445  -0.00206908  1
  O2-  O259  1  0.33725273  0.34665256  0.32269810  1
  O2-  O260  1  0.33220590  0.33921323  0.66365503  1
  O2-  O261  1  0.32847528  0.80994640  0.00298283  1
  O2-  O262  1  0.33063313  0.85008191  0.34130541  1
  O2-  O263  1  0.32932299  0.83730271  0.66818794  1
  O2-  O264  1  0.66814265  0.34836144  -0.00195211  1
  O2-  O265  1  0.66356113  0.35326976  0.33581719  1
  O2-  O266  1  0.66953256  0.34444770  0.66911495  1
  O2-  O267  1  0.67395132  0.83216709  -0.00338160  1
  O2-  O268  1  0.66465193  0.82050638  0.33396334  1
  O2-  O269  1  0.66604010  0.85642383  0.66442131  1
  O2-  O270  1  0.15652441  0.32587116  -0.00390511  1
  O2-  O271  1  0.16570410  0.34545559  0.33370202  1
  O2-  O272  1  0.16964626  0.34185959  0.66451333  1
  O2-  O273  1  0.16553011  0.83362927  0.00461723  1
  O2-  O274  1  0.16160604  0.84027415  0.32830443  1
  O2-  O275  1  0.16138257  0.85103159  0.66076492  1
  O2-  O276  1  0.49556935  0.34722646  -0.00295670  1
  O2-  O277  1  0.50263817  0.35676200  0.33932770  1
  O2-  O278  1  0.49774260  0.35261400  0.66533982  1
  O2-  O279  1  0.50445884  0.83211470  0.00852448  1
  O2-  O280  1  0.49732356  0.82975988  0.32972339  1
  O2-  O281  1  0.50634480  0.83759596  0.66497565  1
  O2-  O282  1  0.83040420  0.34242026  -0.00538447  1
  O2-  O283  1  0.83853494  0.34224867  0.32889003  1
  O2-  O284  1  0.83362206  0.31176620  0.66875556  1
  O2-  O285  1  0.83982814  0.85208606  0.00937579  1
  O2-  O286  1  0.82551528  0.83177381  0.32925370  1
  O2-  O287  1  0.83291497  0.84685686  0.66550470  1
  O2-  O288  1  0.00034757  0.18678618  0.16214122  1
  O2-  O289  1  0.00002199  0.19361633  0.49830593  1
  O2-  O290  1  0.00847927  0.17903944  0.83026037  1
  O2-  O291  1  -0.01120456  0.68374007  0.16049140  1
  O2-  O292  1  0.00151575  0.67050039  0.49023841  1
  O2-  O293  1  0.00912813  0.67109609  0.83235128  1
  O2-  O294  1  0.33732957  0.18132000  0.17174308  1
  O2-  O295  1  0.33637429  0.19578267  0.51376506  1
  O2-  O296  1  0.34085140  0.17966752  0.84617199  1
  O2-  O297  1  0.32830765  0.68377086  0.16650616  1
  O2-  O298  1  0.33435762  0.67608466  0.49581415  1
  O2-  O299  1  0.32666858  0.67681425  0.83879091  1
  O2-  O300  1  0.66612271  0.17129654  0.15926889  1
  O2-  O301  1  0.65903579  0.18359316  0.49033894  1
  O2-  O302  1  0.66470929  0.19669368  0.82098976  1
  O2-  O303  1  0.65949164  0.68896602  0.16311056  1
  O2-  O304  1  0.66799527  0.68676849  0.50684444  1
  O2-  O305  1  0.66101681  0.67716998  0.82613826  1
  O2-  O306  1  0.17512789  0.18633668  0.16367106  1
  O2-  O307  1  0.16275087  0.18963357  0.50414816  1
  O2-  O308  1  0.18254143  0.17984662  0.82236847  1
  O2-  O309  1  0.16676717  0.68651712  0.17462293  1
  O2-  O310  1  0.15953582  0.67328842  0.49852899  1
  O2-  O311  1  0.17306312  0.67879028  0.82741938  1
  O2-  O312  1  0.50495261  0.18183774  0.15195753  1
  O2-  O313  1  0.50367948  0.17557035  0.49619850  1
  O2-  O314  1  0.51084429  0.17989004  0.82581368  1
  O2-  O315  1  0.49125741  0.68693552  0.16874371  1
  O2-  O316  1  0.49944297  0.68752112  0.49889381  1
  O2-  O317  1  0.48711614  0.66950192  0.84244363  1
  O2-  O318  1  0.82586261  0.17467596  0.18128734  1
  O2-  O319  1  0.82775612  0.19736150  0.51468731  1
  O2-  O320  1  0.83206135  0.18052649  0.83077272  1
  O2-  O321  1  0.82955708  0.68828170  0.16712281  1
  O2-  O322  1  0.82768971  0.68159370  0.49483807  1
  O2-  O323  1  0.82006564  0.67815845  0.83441045  1
  O2-  O324  1  0.00177894  0.31160267  0.16292567  1
  O2-  O325  1  0.00270395  0.31824982  0.50608102  1
  O2-  O326  1  0.00164682  0.32969578  0.83545815  1
  O2-  O327  1  -0.00799563  0.82098611  0.15883690  1
  O2-  O328  1  0.01313433  0.82458959  0.51020381  1
  O2-  O329  1  -0.00555716  0.82262864  0.82684038  1
  O2-  O330  1  0.33053893  0.32583505  0.16430022  1
  O2-  O331  1  0.33271762  0.31602860  0.49777298  1
  O2-  O332  1  0.33136888  0.32450484  0.82994121  1
  O2-  O333  1  0.33462521  0.81582968  0.17031984  1
  O2-  O334  1  0.33783415  0.83356011  0.50631447  1
  O2-  O335  1  0.32680468  0.81615062  0.83608888  1
  O2-  O336  1  0.66564304  0.32244402  0.17108481  1
  O2-  O337  1  0.66737055  0.32988547  0.50251425  1
  O2-  O338  1  0.67198713  0.32155410  0.83584735  1
  O2-  O339  1  0.66543020  0.80911412  0.16231622  1
  O2-  O340  1  0.67466707  0.80877119  0.50778683  1
  O2-  O341  1  0.65713061  0.82413572  0.82569984  1
  O2-  O342  1  0.16199228  0.31084525  0.16857933  1
  O2-  O343  1  0.16436773  0.32071794  0.50530857  1
  O2-  O344  1  0.16747655  0.33071633  0.83265510  1
  O2-  O345  1  0.17050327  0.81050520  0.16545576  1
  O2-  O346  1  0.16944507  0.82907128  0.49460950  1
  O2-  O347  1  0.15756394  0.81666629  0.84584954  1
  O2-  O348  1  0.49330948  0.32318941  0.17124072  1
  O2-  O349  1  0.49651049  0.32709506  0.50220599  1
  O2-  O350  1  0.50396714  0.32778278  0.82981214  1
  O2-  O351  1  0.49794118  0.81073815  0.16582092  1
  O2-  O352  1  0.50767527  0.81052557  0.49625177  1
  O2-  O353  1  0.49890519  0.83010359  0.83434394  1
  O2-  O354  1  0.84137659  0.32430390  0.15763984  1
  O2-  O355  1  0.82992914  0.31803946  0.50194103  1
  O2-  O356  1  0.83550242  0.31795620  0.83562714  1
  O2-  O357  1  0.83385479  0.81459270  0.16360798  1
  O2-  O358  1  0.83344565  0.81906159  0.50400242  1
  O2-  O359  1  0.82862518  0.82819148  0.83538465  1
  O2-  O360  1  0.08276142  0.07125713  0.12687984  1
  O2-  O361  1  0.07587675  0.09229445  0.44473253  1
  O2-  O362  1  0.09946294  0.08522479  0.77736159  1
  O2-  O363  1  0.07280492  0.58543010  0.09171443  1
  O2-  O364  1  0.08166436  0.57216174  0.44981073  1
  O2-  O365  1  0.10742389  0.57973656  0.77988881  1
  O2-  O366  1  0.42678188  0.07919697  0.12297469  1
  O2-  O367  1  0.41711976  0.07897791  0.46389327  1
  O2-  O368  1  0.41039238  0.08365953  0.78422565  1
  O2-  O369  1  0.44235434  0.57457440  0.11395144  1
  O2-  O370  1  0.42815137  0.57909960  0.45849518  1
  O2-  O371  1  0.40204033  0.57538273  0.77773698  1
  O2-  O372  1  0.74501753  0.07799640  0.11826301  1
  O2-  O373  1  0.73134004  0.07858531  0.46862875  1
  O2-  O374  1  0.73018136  0.08564586  0.78512483  1
  O2-  O375  1  0.74645292  0.58171739  0.11482551  1
  O2-  O376  1  0.75220670  0.56234214  0.44464812  1
  O2-  O377  1  0.73779193  0.58174249  0.78655442  1
  O2-  O378  1  0.25015991  0.08655030  0.21661148  1
  O2-  O379  1  0.24781206  0.08306878  0.53818592  1
  O2-  O380  1  0.25518555  0.07830212  0.88086799  1
  O2-  O381  1  0.24492221  0.58480166  0.21819638  1
  O2-  O382  1  0.23587124  0.57640932  0.58532186  1
  O2-  O383  1  0.24990291  0.56982310  0.87980051  1
  O2-  O384  1  0.57807055  0.07989433  0.21358171  1
  O2-  O385  1  0.58413533  0.07797658  0.55107446  1
  O2-  O386  1  0.57673283  0.08062189  0.87646205  1
  O2-  O387  1  0.60378474  0.57826571  0.21070296  1
  O2-  O388  1  0.60567241  0.58082919  0.55336490  1
  O2-  O389  1  0.58319204  0.56970808  0.88983518  1
  O2-  O390  1  0.92126214  0.08503044  0.23613503  1
  O2-  O391  1  0.91082539  0.08483112  0.53568143  1
  O2-  O392  1  0.90389517  0.03989424  0.84552713  1
  O2-  O393  1  0.90215020  0.58804721  0.20805167  1
  O2-  O394  1  0.90824511  0.56962284  0.53354433  1
  O2-  O395  1  0.92946228  0.58201710  0.93501990  1
  O2-  O396  1  0.09540244  0.41943204  0.12043253  1
  O2-  O397  1  0.08297132  0.42643677  0.45030209  1
  O2-  O398  1  0.07137938  0.42335033  0.77787810  1
  O2-  O399  1  0.08346457  0.91911311  0.11240451  1
  O2-  O400  1  0.09047749  0.91466859  0.43853009  1
  O2-  O401  1  0.07883895  0.91756549  0.78844028  1
  O2-  O402  1  0.41095934  0.42060537  0.09431308  1
  O2-  O403  1  0.41356450  0.42786429  0.45441317  1
  O2-  O404  1  0.41714607  0.42476708  0.78984277  1
  O2-  O405  1  0.41676891  0.91338161  0.10872211  1
  O2-  O406  1  0.44423907  0.91518411  0.44510829  1
  O2-  O407  1  0.43504874  0.91870558  0.74670068  1
  O2-  O408  1  0.76092473  0.41859521  0.09192320  1
  O2-  O409  1  0.74897535  0.42744316  0.44827045  1
  O2-  O410  1  0.76743278  0.42162593  0.78446518  1
  O2-  O411  1  0.73151710  0.91702460  0.11945363  1
  O2-  O412  1  0.72850058  0.91510166  0.44289905  1
  O2-  O413  1  0.76202421  0.91978554  0.77793222  1
  O2-  O414  1  0.22555279  0.41392718  0.21972610  1
  O2-  O415  1  0.25779659  0.42351563  0.55145812  1
  O2-  O416  1  0.24881576  0.42517579  0.88913504  1
  O2-  O417  1  0.25977914  0.91117460  0.23242988  1
  O2-  O418  1  0.23719636  0.92249807  0.54858495  1
  O2-  O419  1  0.22076979  0.91856998  0.90807909  1
  O2-  O420  1  0.56286385  0.42528235  0.21971407  1
  O2-  O421  1  0.57956973  0.42360804  0.54954077  1
  O2-  O422  1  0.61241544  0.42916642  0.87735928  1
  O2-  O423  1  0.58611642  0.91134443  0.23154666  1
  O2-  O424  1  0.59558091  0.91459195  0.54544889  1
  O2-  O425  1  0.59993670  0.91666548  0.89381347  1
  O2-  O426  1  0.95195780  0.41635651  0.21644458  1
  O2-  O427  1  0.90682868  0.41472583  0.57808502  1
  O2-  O428  1  0.89950737  0.42269927  0.88673458  1
  O2-  O429  1  0.89130247  0.91502022  0.21932169  1
  O2-  O430  1  0.90305823  0.91626602  0.54986771  1
  O2-  O431  1  0.93589303  0.91337246  0.88674140  1
  O2-  O432  1  -0.00050224  -0.02781968  0.00669646  1
  O2-  O433  1  0.01905507  -0.01338121  0.34234802  1
  O2-  O434  1  -0.00837245  -0.00876999  0.67197670  1
  O2-  O435  1  -0.00268264  0.48541722  0.01653073  1
  O2-  O436  1  -0.00411299  0.49658432  0.34404581  1
  O2-  O437  1  0.00574110  0.49786097  0.65496385  1
  O2-  O438  1  0.33954457  0.00336574  -0.01413663  1
  O2-  O439  1  0.33932815  0.00418414  0.32964613  1
  O2-  O440  1  0.32335197  0.02439645  0.66987474  1
  O2-  O441  1  0.35062642  0.51110558  -0.02698776  1
  O2-  O442  1  0.33505116  0.48784652  0.30594182  1
  O2-  O443  1  0.32935535  0.48865921  0.67474746  1
  O2-  O444  1  0.65615830  0.01363452  0.01463241  1
  O2-  O445  1  0.67648022  0.01895593  0.32727954  1
  O2-  O446  1  0.66208667  0.00731116  0.67465420  1
  O2-  O447  1  0.67097716  0.50460102  -0.00313069  1
  O2-  O448  1  0.66905784  0.49785469  0.32997066  1
  O2-  O449  1  0.66674570  0.48373799  0.66526699  1
  O2-  O450  1  0.17599000  0.00821798  0.02345644  1
  O2-  O451  1  0.17723128  -0.00032599  0.37053968  1
  O2-  O452  1  0.15594301  0.00897038  0.65971479  1
  O2-  O453  1  0.15626638  0.49763356  -0.01646614  1
  O2-  O454  1  0.15455101  0.49240795  0.32540031  1
  O2-  O455  1  0.16589625  0.48196798  0.66780692  1
  O2-  O456  1  0.50032490  0.01926558  0.00852764  1
  O2-  O457  1  0.51219215  0.01322850  0.35297007  1
  O2-  O458  1  0.50177992  0.01924901  0.67381322  1
  O2-  O459  1  0.50266161  0.49997939  -0.00964448  1
  O2-  O460  1  0.50418934  0.49968288  0.34300644  1
  O2-  O461  1  0.50600760  0.49450382  0.67786845  1
  O2-  O462  1  0.81972771  -0.01818525  -0.02241070  1
  O2-  O463  1  0.84259904  0.02162517  0.33915015  1
  O2-  O464  1  0.81818234  -0.00525563  0.64412711  1
  O2-  O465  1  0.82712187  0.49662047  -0.00521955  1
  O2-  O466  1  0.83422359  0.51515217  0.32398341  1
  O2-  O467  1  0.82871864  0.50340381  0.65095451  1
  O2-  O468  1  0.57914537  0.74954074  0.92375774  1
  O2-  O469  1  0.39725876  0.74807272  0.39610618  1
  O2-  O470  1  0.92395716  0.74929289  0.27898715  1
  O2-  O471  1  0.92814698  0.75367344  0.61062726  1
  O2-  O472  1  0.43222177  0.25339255  0.38356577  1
  O2-  O473  1  0.08285199  0.74601051  0.39486869  1
  O2-  O474  1  0.08361971  0.25587656  0.38875476  1
  O2-  O475  1  0.41201193  0.25077360  0.05755550  1
  O2-  O476  1  0.74422842  0.74996551  0.72195586  1
  O2-  O477  1  0.92850789  0.25636728  0.93594078  1
  O2-  O478  1  0.26093576  0.25122642  0.27486165  1
  O2-  O479  1  0.25644876  0.74786411  0.28436476  1
  O2-  O480  1  0.08933774  0.25078121  0.72861727  1
  O2-  O481  1  0.24108508  0.75401802  0.59527690  1
  O2-  O482  1  0.58216589  0.25670186  0.27997188  1
  O2-  O483  1  0.42083620  0.75621039  0.74384610  1
  O2-  O484  1  0.26196844  0.25059202  0.93429622  1
  O2-  O485  1  0.90507262  0.75221718  0.93516272  1
  O2-  O486  1  0.73923946  0.25173832  0.06279723  1
  O2-  O487  1  0.91047793  0.25105210  0.27009444  1
  O2-  O488  1  0.42670669  0.25210612  0.72350265  1
  O2-  O489  1  0.73862047  0.25502911  0.38523963  1
  O2-  O490  1  0.57805474  0.25642049  0.60740215  1
  O2-  O491  1  0.08163417  0.75007304  0.72620359  1
  O2-  O492  1  0.56987727  0.25214139  0.94644694  1
