# generated using pymatgen
data_Ca108Mn108O277
_symmetry_space_group_name_H-M   'P 1'
_cell_length_a   16.02863540
_cell_length_b   22.30838967
_cell_length_c   16.38844053
_cell_angle_alpha   89.99685401
_cell_angle_beta   89.99829767
_cell_angle_gamma   90.00122917
_symmetry_Int_Tables_number   1
_chemical_formula_structural   Ca108Mn108O277
_chemical_formula_sum   'Ca108 Mn108 O277'
_cell_volume   5860.06456201
_cell_formula_units_Z   1
loop_
 _symmetry_equiv_pos_site_id
 _symmetry_equiv_pos_as_xyz
  1  'x, y, z'
loop_
 _atom_type_symbol
 _atom_type_oxidation_number
  Ca2+  2.0
  Mn3.34+  3.34
  O2-  -2.0
loop_
 _atom_site_type_symbol
 _atom_site_label
 _atom_site_symmetry_multiplicity
 _atom_site_fract_x
 _atom_site_fract_y
 _atom_site_fract_z
 _atom_site_occupancy
  Ca2+  Ca0  1  0.08784780  0.25066153  0.25324859  1
  Ca2+  Ca1  1  0.08272162  0.24169156  0.58922779  1
  Ca2+  Ca2  1  0.09272614  0.24864089  0.90249865  1
  Ca2+  Ca3  1  0.07819120  0.76269435  0.24586652  1
  Ca2+  Ca4  1  0.08389721  0.74905882  0.59446442  1
  Ca2+  Ca5  1  0.08218599  0.75442393  0.91346108  1
  Ca2+  Ca6  1  0.41160397  0.24733173  0.26101903  1
  Ca2+  Ca7  1  0.40508945  0.24967677  0.57831470  1
  Ca2+  Ca8  1  0.38927279  0.24370421  0.90374660  1
  Ca2+  Ca9  1  0.41432546  0.75273382  0.26291167  1
  Ca2+  Ca10  1  0.39678024  0.74799742  0.57414279  1
  Ca2+  Ca11  1  0.40963993  0.76200585  0.91586873  1
  Ca2+  Ca12  1  0.75040883  0.25181750  0.26127151  1
  Ca2+  Ca13  1  0.76349978  0.25188191  0.57937188  1
  Ca2+  Ca14  1  0.76210841  0.24909006  0.91199724  1
  Ca2+  Ca15  1  0.76082865  0.75426601  0.24198865  1
  Ca2+  Ca16  1  0.77547464  0.74322063  0.58268508  1
  Ca2+  Ca17  1  0.75854461  0.75328380  0.93054488  1
  Ca2+  Ca18  1  0.23122771  0.24240910  0.06735856  1
  Ca2+  Ca19  1  0.24571677  0.24274298  0.41565063  1
  Ca2+  Ca20  1  0.23109339  0.24259764  0.75999332  1
  Ca2+  Ca21  1  0.25057266  0.75721524  0.08367978  1
  Ca2+  Ca22  1  0.26867962  0.75287720  0.42127635  1
  Ca2+  Ca23  1  0.24407052  0.75510110  0.73927283  1
  Ca2+  Ca24  1  0.59211576  0.25185977  0.08811257  1
  Ca2+  Ca25  1  0.58530976  0.24478679  0.41461384  1
  Ca2+  Ca26  1  0.58818069  0.24161974  0.75190895  1
  Ca2+  Ca27  1  0.60441137  0.75443060  0.09206304  1
  Ca2+  Ca28  1  0.56271796  0.75487752  0.41230686  1
  Ca2+  Ca29  1  0.58776890  0.75945193  0.75209819  1
  Ca2+  Ca30  1  0.92776460  0.24857859  0.08060930  1
  Ca2+  Ca31  1  0.91862047  0.24314195  0.42026275  1
  Ca2+  Ca32  1  0.93854576  0.24020690  0.74623051  1
  Ca2+  Ca33  1  0.90522135  0.74313294  0.08916586  1
  Ca2+  Ca34  1  0.91088235  0.76177265  0.41422998  1
  Ca2+  Ca35  1  0.92182795  0.75153925  0.74192753  1
  Ca2+  Ca36  1  0.42058456  0.58173971  0.92992826  1
  Ca2+  Ca37  1  0.07952515  0.59967089  0.23449078  1
  Ca2+  Ca38  1  0.59619254  0.59896386  0.08846707  1
  Ca2+  Ca39  1  0.23523128  0.59089906  0.08662262  1
  Ca2+  Ca40  1  0.38601996  0.07671534  0.57547063  1
  Ca2+  Ca41  1  0.38903707  0.07472658  0.27611368  1
  Ca2+  Ca42  1  0.56459592  0.59550757  0.41190751  1
  Ca2+  Ca43  1  0.41521081  0.58870286  0.28068026  1
  Ca2+  Ca44  1  0.26996834  0.60835183  0.43102996  1
  Ca2+  Ca45  1  0.74487115  0.60516890  0.23327142  1
  Ca2+  Ca46  1  0.56430680  0.08322211  0.40382160  1
  Ca2+  Ca47  1  0.23643691  0.09902268  0.74196918  1
  Ca2+  Ca48  1  0.06855875  0.59938220  0.23215557  1
  Ca2+  Ca49  1  0.59314785  0.59788030  0.75329974  1
  Ca2+  Ca50  1  0.24491108  0.09334712  0.41407785  1
  Ca2+  Ca51  1  0.92589607  0.09853417  0.74412950  1
  Ca2+  Ca52  1  0.76073195  0.08662251  0.59326647  1
  Ca2+  Ca53  1  0.10593932  0.10550183  0.91190004  1
  Ca2+  Ca54  1  0.08483763  0.10226541  0.57428350  1
  Ca2+  Ca55  1  0.24794763  0.59065578  0.08768495  1
  Ca2+  Ca56  1  0.06669672  0.57935669  0.94370334  1
  Ca2+  Ca57  1  0.75596808  0.60566601  0.23150418  1
  Ca2+  Ca58  1  0.08245318  0.10364003  0.25596644  1
  Ca2+  Ca59  1  0.41934946  0.58744867  0.29000365  1
  Ca2+  Ca60  1  0.23952042  0.09646385  0.75108793  1
  Ca2+  Ca61  1  0.39507721  0.61096955  0.55328918  1
  Ca2+  Ca62  1  0.93027880  0.10259495  0.40849117  1
  Ca2+  Ca63  1  0.24146106  0.08665986  0.08841982  1
  Ca2+  Ca64  1  0.74547467  0.09535432  0.90574980  1
  Ca2+  Ca65  1  0.89251989  0.59358828  0.43593498  1
  Ca2+  Ca66  1  0.24334631  0.59878172  0.70783797  1
  Ca2+  Ca67  1  0.90203135  0.59568875  0.43926069  1
  Ca2+  Ca68  1  0.39017402  0.09543808  0.91019713  1
  Ca2+  Ca69  1  0.04866875  0.59484290  0.59872272  1
  Ca2+  Ca70  1  0.76106497  0.58316735  0.94688865  1
  Ca2+  Ca71  1  0.09507672  0.10435225  0.91254654  1
  Ca2+  Ca72  1  0.24925448  0.91420394  0.73698601  1
  Ca2+  Ca73  1  0.24514184  0.39970734  0.75575908  1
  Ca2+  Ca74  1  0.07201037  0.40745869  0.92446169  1
  Ca2+  Ca75  1  0.41007545  0.91027950  0.57361566  1
  Ca2+  Ca76  1  0.58544009  0.40540129  0.41398194  1
  Ca2+  Ca77  1  0.40763897  0.40616442  0.57083588  1
  Ca2+  Ca78  1  0.08995063  0.90715829  0.59090199  1
  Ca2+  Ca79  1  0.77310074  0.41435705  0.92549774  1
  Ca2+  Ca80  1  0.25164308  0.91017525  0.09122906  1
  Ca2+  Ca81  1  0.07243710  0.40750904  0.57983547  1
  Ca2+  Ca82  1  0.27042759  0.92131353  0.40837073  1
  Ca2+  Ca83  1  0.41972708  0.41389034  0.25334462  1
  Ca2+  Ca84  1  0.75056155  0.91230657  0.59355768  1
  Ca2+  Ca85  1  0.57885414  0.39973081  0.76047323  1
  Ca2+  Ca86  1  0.41603936  0.39839528  0.92624973  1
  Ca2+  Ca87  1  0.76082753  0.90513986  0.24898396  1
  Ca2+  Ca88  1  0.90837901  0.40338345  0.41809116  1
  Ca2+  Ca89  1  0.40636402  0.91802497  0.27315004  1
  Ca2+  Ca90  1  0.76194872  0.41072113  0.92925066  1
  Ca2+  Ca91  1  0.75297368  0.90390044  0.91579304  1
  Ca2+  Ca92  1  0.92342620  0.40634997  0.74201337  1
  Ca2+  Ca93  1  0.58844134  0.40461829  0.07869454  1
  Ca2+  Ca94  1  0.92362562  0.41035318  0.08440155  1
  Ca2+  Ca95  1  0.59170641  0.39986721  0.76101208  1
  Ca2+  Ca96  1  0.91992539  0.40303777  0.41788512  1
  Ca2+  Ca97  1  0.58433564  0.91418192  0.74004698  1
  Ca2+  Ca98  1  0.24253031  0.40116358  0.08420991  1
  Ca2+  Ca99  1  0.41196018  0.90631355  0.92326795  1
  Ca2+  Ca100  1  0.77106858  0.90917475  0.24682193  1
  Ca2+  Ca101  1  0.91321272  0.91474362  0.40131454  1
  Ca2+  Ca102  1  0.59669467  0.91687904  0.74142977  1
  Ca2+  Ca103  1  0.57410058  0.40467692  0.41326767  1
  Ca2+  Ca104  1  0.40906358  0.41389265  0.25305400  1
  Ca2+  Ca105  1  0.24149004  0.40077660  0.41316354  1
  Ca2+  Ca106  1  0.08347233  0.90009647  0.91960271  1
  Ca2+  Ca107  1  0.76145486  0.91272975  0.59460823  1
  Mn3.34+  Mn108  1  0.08172517  0.32943192  0.08469132  1
  Mn3.34+  Mn109  1  0.08299863  0.32760372  0.41894739  1
  Mn3.34+  Mn110  1  0.08235519  0.33140017  0.74860716  1
  Mn3.34+  Mn111  1  0.08010520  0.83832114  0.08782437  1
  Mn3.34+  Mn112  1  0.08655862  0.83237357  0.41645273  1
  Mn3.34+  Mn113  1  0.08019905  0.83444349  0.75320539  1
  Mn3.34+  Mn114  1  0.41637662  0.32867831  0.08746372  1
  Mn3.34+  Mn115  1  0.41448313  0.33263813  0.41898296  1
  Mn3.34+  Mn116  1  0.41274543  0.32898346  0.74647033  1
  Mn3.34+  Mn117  1  0.41908481  0.83109357  0.09156137  1
  Mn3.34+  Mn118  1  0.41794547  0.83410626  0.41816233  1
  Mn3.34+  Mn119  1  0.41586708  0.83463400  0.75037932  1
  Mn3.34+  Mn120  1  0.75728007  0.33095582  0.09108700  1
  Mn3.34+  Mn121  1  0.74983202  0.33131519  0.41560880  1
  Mn3.34+  Mn122  1  0.75532771  0.32635051  0.74516790  1
  Mn3.34+  Mn123  1  0.75341701  0.83369949  0.08289800  1
  Mn3.34+  Mn124  1  0.74390810  0.83196409  0.41989688  1
  Mn3.34+  Mn125  1  0.75508175  0.83324303  0.75679380  1
  Mn3.34+  Mn126  1  0.24540828  0.32921111  0.24782163  1
  Mn3.34+  Mn127  1  0.24556165  0.33164144  0.58482759  1
  Mn3.34+  Mn128  1  0.24741461  0.33184262  0.91729718  1
  Mn3.34+  Mn129  1  0.24734722  0.84047164  0.24888902  1
  Mn3.34+  Mn130  1  0.24766112  0.84224586  0.57593471  1
  Mn3.34+  Mn131  1  0.24935596  0.83522785  0.91752193  1
  Mn3.34+  Mn132  1  0.58700717  0.33156294  0.24463133  1
  Mn3.34+  Mn133  1  0.58558086  0.33237397  0.58341856  1
  Mn3.34+  Mn134  1  0.58340515  0.32408992  0.91806417  1
  Mn3.34+  Mn135  1  0.58117801  0.83584370  0.24706313  1
  Mn3.34+  Mn136  1  0.58129447  0.83253686  0.57650585  1
  Mn3.34+  Mn137  1  0.58277032  0.83432334  0.92023916  1
  Mn3.34+  Mn138  1  0.92038950  0.33392533  0.24646410  1
  Mn3.34+  Mn139  1  0.91612069  0.33232106  0.58317854  1
  Mn3.34+  Mn140  1  0.91974001  0.33270274  0.91340078  1
  Mn3.34+  Mn141  1  0.92676456  0.83862491  0.24545332  1
  Mn3.34+  Mn142  1  0.92203402  0.83795223  0.57934822  1
  Mn3.34+  Mn143  1  0.91813973  0.83274739  0.91940116  1
  Mn3.34+  Mn144  1  0.41773295  0.67070571  0.09123737  1
  Mn3.34+  Mn145  1  0.91829992  0.16814451  0.91631138  1
  Mn3.34+  Mn146  1  0.24458194  0.66117198  0.90945178  1
  Mn3.34+  Mn147  1  0.09243036  0.66542978  0.42473706  1
  Mn3.34+  Mn148  1  0.76048095  0.67070368  0.74624447  1
  Mn3.34+  Mn149  1  0.74675210  0.16087815  0.08877325  1
  Mn3.34+  Mn150  1  0.58324469  0.67733273  0.58524833  1
  Mn3.34+  Mn151  1  0.75099800  0.16265681  0.41484269  1
  Mn3.34+  Mn152  1  0.58443835  0.67228776  0.25125543  1
  Mn3.34+  Mn153  1  0.07869417  0.16454165  0.08817898  1
  Mn3.34+  Mn154  1  0.75460364  0.16165843  0.75202473  1
  Mn3.34+  Mn155  1  0.57809474  0.66920901  0.91620136  1
  Mn3.34+  Mn156  1  0.24432913  0.67299259  0.24665751  1
  Mn3.34+  Mn157  1  0.42873246  0.16132572  0.08800450  1
  Mn3.34+  Mn158  1  0.91884159  0.16753733  0.57939161  1
  Mn3.34+  Mn159  1  0.75772305  0.16546973  0.08756856  1
  Mn3.34+  Mn160  1  0.92415463  0.66053247  0.91638580  1
  Mn3.34+  Mn161  1  0.91804492  0.67079625  0.24955865  1
  Mn3.34+  Mn162  1  0.58161687  0.17198067  0.91258209  1
  Mn3.34+  Mn163  1  0.58689818  0.67524567  0.91795480  1
  Mn3.34+  Mn164  1  0.59511372  0.67157756  0.58310901  1
  Mn3.34+  Mn165  1  0.91354734  0.66453320  0.91554710  1
  Mn3.34+  Mn166  1  0.24598481  0.16613574  0.24988935  1
  Mn3.34+  Mn167  1  0.41678799  0.67159660  0.74720904  1
  Mn3.34+  Mn168  1  0.24709684  0.16687821  0.57653272  1
  Mn3.34+  Mn169  1  0.57759584  0.15785479  0.58421869  1
  Mn3.34+  Mn170  1  0.58556699  0.16803226  0.25363066  1
  Mn3.34+  Mn171  1  0.41564982  0.16588620  0.08971951  1
  Mn3.34+  Mn172  1  0.07896156  0.67169744  0.74577170  1
  Mn3.34+  Mn173  1  0.91821303  0.16150117  0.24803469  1
  Mn3.34+  Mn174  1  0.25519072  0.66582921  0.91154796  1
  Mn3.34+  Mn175  1  0.41410809  0.16420683  0.41725170  1
  Mn3.34+  Mn176  1  0.58713322  0.16339195  0.58661941  1
  Mn3.34+  Mn177  1  0.74739319  0.67135626  0.41787775  1
  Mn3.34+  Mn178  1  0.07769552  0.67022609  0.42242943  1
  Mn3.34+  Mn179  1  0.41690459  0.16533052  0.74844170  1
  Mn3.34+  Mn180  1  0.57731949  0.00576790  0.23380940  1
  Mn3.34+  Mn181  1  0.58442005  0.00201300  0.92322336  1
  Mn3.34+  Mn182  1  0.07221745  0.50600178  0.75231648  1
  Mn3.34+  Mn183  1  0.59862301  0.49557741  0.25168728  1
  Mn3.34+  Mn184  1  0.25163283  0.50033102  0.91842656  1
  Mn3.34+  Mn185  1  0.08342096  -0.00344556  0.39639498  1
  Mn3.34+  Mn186  1  0.74846002  0.00039456  0.41081768  1
  Mn3.34+  Mn187  1  0.07991975  0.50386504  0.42432579  1
  Mn3.34+  Mn188  1  0.07723568  0.49292415  0.07745337  1
  Mn3.34+  Mn189  1  0.42003668  -0.00537335  0.08698632  1
  Mn3.34+  Mn190  1  0.24547683  0.49774323  0.58187401  1
  Mn3.34+  Mn191  1  0.40628661  0.49877473  0.74908957  1
  Mn3.34+  Mn192  1  0.58429075  0.50643234  0.58212991  1
  Mn3.34+  Mn193  1  0.75576204  0.49619572  0.08242408  1
  Mn3.34+  Mn194  1  0.91179553  0.00233498  0.91011701  1
  Mn3.34+  Mn195  1  0.59279174  0.00499976  0.23804989  1
  Mn3.34+  Mn196  1  0.59866448  0.50058704  0.58278951  1
  Mn3.34+  Mn197  1  0.07652199  0.00298725  0.08388784  1
  Mn3.34+  Mn198  1  0.75467581  -0.00034258  0.08066484  1
  Mn3.34+  Mn199  1  0.91682331  0.50234493  0.25591355  1
  Mn3.34+  Mn200  1  0.41792958  0.00109915  0.74399882  1
  Mn3.34+  Mn201  1  0.74509222  0.50195701  0.42226421  1
  Mn3.34+  Mn202  1  0.24560288  -0.00394773  0.92984607  1
  Mn3.34+  Mn203  1  0.57437152  0.00702287  0.92129275  1
  Mn3.34+  Mn204  1  0.58227435  -0.00334388  0.57875353  1
  Mn3.34+  Mn205  1  0.08349974  -0.00248952  0.41169957  1
  Mn3.34+  Mn206  1  0.08236488  0.50118589  0.75573980  1
  Mn3.34+  Mn207  1  0.76265748  0.50824142  0.74559148  1
  Mn3.34+  Mn208  1  0.23445995  0.49521192  0.25513081  1
  Mn3.34+  Mn209  1  0.77293562  0.50743324  0.73843404  1
  Mn3.34+  Mn210  1  0.08062183  -0.00420683  0.74114136  1
  Mn3.34+  Mn211  1  0.58193017  0.50057731  0.91727679  1
  Mn3.34+  Mn212  1  0.41987861  0.50555903  0.74871956  1
  Mn3.34+  Mn213  1  0.92245063  -0.00187136  0.90793825  1
  Mn3.34+  Mn214  1  0.92133058  0.00279564  0.58385617  1
  Mn3.34+  Mn215  1  0.41985607  0.50468428  0.08663659  1
  O2-  O216  1  0.00231412  0.14947367  -0.00131573  1
  O2-  O217  1  -0.00519986  0.18265204  0.32474139  1
  O2-  O218  1  -0.00257973  0.15798916  0.65943430  1
  O2-  O219  1  0.00627329  0.66553205  -0.00777275  1
  O2-  O220  1  -0.00306999  0.64306245  0.34253163  1
  O2-  O221  1  -0.00054548  0.67510120  0.66875818  1
  O2-  O222  1  0.33985192  0.15797901  0.00541540  1
  O2-  O223  1  0.32963984  0.15681220  0.33593882  1
  O2-  O224  1  0.33406284  0.14625719  0.66526802  1
  O2-  O225  1  0.33224555  0.64308784  -0.00089090  1
  O2-  O226  1  0.32839988  0.66413274  0.32132905  1
  O2-  O227  1  0.33931983  0.66414405  0.66879280  1
  O2-  O228  1  0.66424847  0.16648518  -0.00017416  1
  O2-  O229  1  0.65639484  0.15208433  0.34554622  1
  O2-  O230  1  0.66561684  0.14769077  0.67007509  1
  O2-  O231  1  0.66635263  0.66200596  -0.00193844  1
  O2-  O232  1  0.66593618  0.65012596  0.33610574  1
  O2-  O233  1  0.66906780  0.66091824  0.66891915  1
  O2-  O234  1  0.16594963  0.15299139  0.01289727  1
  O2-  O235  1  0.16847542  0.16304297  0.32929709  1
  O2-  O236  1  0.17015077  0.15557184  0.66030482  1
  O2-  O237  1  0.16904795  0.65074516  -0.00361935  1
  O2-  O238  1  0.16145896  0.65174137  0.33240761  1
  O2-  O239  1  0.15927893  0.66834278  0.66692334  1
  O2-  O240  1  0.49748695  0.18775208  0.00128942  1
  O2-  O241  1  0.49170435  0.15398293  0.32764790  1
  O2-  O242  1  0.49577344  0.14802202  0.66195948  1
  O2-  O243  1  0.49992877  0.65380490  0.00187897  1
  O2-  O244  1  0.50253333  0.66552686  0.32906117  1
  O2-  O245  1  0.50840907  0.65412190  0.66926934  1
  O2-  O246  1  0.82650840  0.15259517  -0.00521834  1
  O2-  O247  1  0.83734661  0.17078597  0.33182998  1
  O2-  O248  1  0.83360443  0.15354518  0.66610543  1
  O2-  O249  1  0.83839586  0.65680776  -0.00211913  1
  O2-  O250  1  0.83073772  0.64800979  0.33106218  1
  O2-  O251  1  0.83926558  0.67449553  0.67024965  1
  O2-  O252  1  -0.00328434  0.34585881  0.00211684  1
  O2-  O253  1  -0.00438673  0.32205807  0.33967639  1
  O2-  O254  1  0.00090874  0.34395462  0.66516663  1
  O2-  O255  1  0.00816794  0.82813952  -0.00417647  1
  O2-  O256  1  0.00131913  0.84714759  0.33505802  1
  O2-  O257  1  0.00271487  0.83177397  0.66117802  1
  O2-  O258  1  0.33167101  0.33739280  0.00461649  1
  O2-  O259  1  0.33560998  0.35096501  0.33333207  1
  O2-  O260  1  0.33205044  0.35474221  0.66479040  1
  O2-  O261  1  0.33018353  0.85055315  0.00477366  1
  O2-  O262  1  0.33228044  0.83832160  0.33212620  1
  O2-  O263  1  0.33162028  0.84183203  0.66159928  1
  O2-  O264  1  0.67382409  0.34474587  -0.00767791  1
  O2-  O265  1  0.66438740  0.35000405  0.33218323  1
  O2-  O266  1  0.66495700  0.34856168  0.67039852  1
  O2-  O267  1  0.66963278  0.83295312  -0.00302715  1
  O2-  O268  1  0.67302664  0.84664335  0.32683687  1
  O2-  O269  1  0.66354837  0.84406923  0.66616492  1
  O2-  O270  1  0.16237617  0.34772143  -0.00253008  1
  O2-  O271  1  0.16843089  0.33061861  0.33865128  1
  O2-  O272  1  0.16263279  0.35148152  0.66659925  1
  O2-  O273  1  0.16652685  0.83348548  0.00151868  1
  O2-  O274  1  0.17429690  0.82862970  0.33551125  1
  O2-  O275  1  0.17081464  0.83741587  0.66512191  1
  O2-  O276  1  0.50285748  0.32694484  0.00457757  1
  O2-  O277  1  0.49868173  0.34695889  0.32880594  1
  O2-  O278  1  0.49959477  0.35353694  0.66503891  1
  O2-  O279  1  0.49425126  0.83478402  -0.00474654  1
  O2-  O280  1  0.49910844  0.83254723  0.33022948  1
  O2-  O281  1  0.50586357  0.84656572  0.67013570  1
  O2-  O282  1  0.83833145  0.34632812  0.00286465  1
  O2-  O283  1  0.83961607  0.33387333  0.33706484  1
  O2-  O284  1  0.83683464  0.34556062  0.66957000  1
  O2-  O285  1  0.83208922  0.84523485  -0.00257478  1
  O2-  O286  1  0.83351021  0.84576026  0.33742888  1
  O2-  O287  1  0.83165049  0.83946020  0.66100491  1
  O2-  O288  1  -0.00004291  0.18455412  0.17026470  1
  O2-  O289  1  -0.00281602  0.17924781  0.50147838  1
  O2-  O290  1  0.00336288  0.17339105  0.84433692  1
  O2-  O291  1  0.00663011  0.68191688  0.18306160  1
  O2-  O292  1  -0.00237045  0.67704121  0.50136965  1
  O2-  O293  1  -0.00116760  0.68263838  0.83525340  1
  O2-  O294  1  0.33347787  0.18890983  0.15868439  1
  O2-  O295  1  0.33543945  0.18109925  0.49995552  1
  O2-  O296  1  0.33200244  0.17238214  0.82142410  1
  O2-  O297  1  0.31969829  0.67873219  0.15726724  1
  O2-  O298  1  0.32479105  0.68345735  0.50108691  1
  O2-  O299  1  0.33746828  0.68216181  0.83648588  1
  O2-  O300  1  0.67146596  0.18598080  0.17064099  1
  O2-  O301  1  0.66807418  0.17780081  0.50775628  1
  O2-  O302  1  0.67302037  0.18482274  0.83883448  1
  O2-  O303  1  0.67079061  0.68196520  0.17834283  1
  O2-  O304  1  0.66483088  0.69166751  0.49777794  1
  O2-  O305  1  0.66368715  0.68770708  0.83255855  1
  O2-  O306  1  0.16347139  0.18259140  0.16819012  1
  O2-  O307  1  0.16819230  0.18312565  0.50240887  1
  O2-  O308  1  0.16856443  0.16466473  0.82970354  1
  O2-  O309  1  0.16241924  0.67857512  0.16909673  1
  O2-  O310  1  0.16639905  0.69161242  0.49694265  1
  O2-  O311  1  0.16764669  0.68497926  0.83011890  1
  O2-  O312  1  0.50304077  0.18975653  0.16413179  1
  O2-  O313  1  0.50256583  0.18023111  0.49770277  1
  O2-  O314  1  0.49457608  0.18721045  0.83581181  1
  O2-  O315  1  0.50624862  0.68526199  0.16659907  1
  O2-  O316  1  0.50201813  0.68367790  0.50754797  1
  O2-  O317  1  0.50015985  0.68773169  0.83400863  1
  O2-  O318  1  0.83755283  0.18647750  0.16916163  1
  O2-  O319  1  0.83117521  0.17874517  0.49816237  1
  O2-  O320  1  0.83928934  0.18515827  0.82972681  1
  O2-  O321  1  0.83458776  0.67717035  0.17701648  1
  O2-  O322  1  0.83769215  0.68221431  0.48585526  1
  O2-  O323  1  0.83189863  0.67667783  0.83985060  1
  O2-  O324  1  0.00122701  0.31355497  0.16584273  1
  O2-  O325  1  -0.00017613  0.31218910  0.49973285  1
  O2-  O326  1  -0.00072646  0.31900805  0.83264238  1
  O2-  O327  1  -0.00442879  0.81377828  0.16029814  1
  O2-  O328  1  0.00168163  0.81523941  0.50101510  1
  O2-  O329  1  0.00183794  0.82049257  0.83890889  1
  O2-  O330  1  0.34005499  0.32453504  0.17438536  1
  O2-  O331  1  0.33140076  0.32580347  0.49835830  1
  O2-  O332  1  0.33277422  0.32346432  0.83315927  1
  O2-  O333  1  0.33019063  0.81235069  0.17354795  1
  O2-  O334  1  0.33185226  0.82323551  0.50184746  1
  O2-  O335  1  0.33367442  0.82594882  0.83417388  1
  O2-  O336  1  0.66254190  0.32268077  0.15887022  1
  O2-  O337  1  0.65792097  0.32819322  0.48893322  1
  O2-  O338  1  0.66325011  0.32018998  0.82924568  1
  O2-  O339  1  0.67195597  0.82001124  0.17310020  1
  O2-  O340  1  0.66707500  0.80954390  0.50493761  1
  O2-  O341  1  0.66449300  0.81909520  0.83574346  1
  O2-  O342  1  0.17323817  0.31735806  0.15670083  1
  O2-  O343  1  0.16480687  0.31551263  0.50130374  1
  O2-  O344  1  0.16711391  0.32673088  0.83106854  1
  O2-  O345  1  0.16840581  0.81611257  0.16620186  1
  O2-  O346  1  0.16610657  0.81468613  0.50397051  1
  O2-  O347  1  0.16847021  0.82162212  0.83662144  1
  O2-  O348  1  0.49876108  0.31352910  0.16943960  1
  O2-  O349  1  0.50057441  0.32277746  0.49832129  1
  O2-  O350  1  0.50344968  0.31830448  0.82982087  1
  O2-  O351  1  0.50269492  0.80750145  0.16846149  1
  O2-  O352  1  0.49337423  0.81460808  0.50750317  1
  O2-  O353  1  0.50324648  0.81863238  0.83431553  1
  O2-  O354  1  0.83737494  0.31220790  0.16896714  1
  O2-  O355  1  0.83773308  0.32078971  0.49434810  1
  O2-  O356  1  0.82501623  0.32491999  0.84025891  1
  O2-  O357  1  0.83032281  0.82650339  0.17464165  1
  O2-  O358  1  0.83151424  0.81940867  0.50353386  1
  O2-  O359  1  0.83101938  0.82040329  0.83929991  1
  O2-  O360  1  0.08564256  0.08166912  0.12310077  1
  O2-  O361  1  0.08095338  0.07771949  0.43634792  1
  O2-  O362  1  0.07215813  0.06974572  0.78536397  1
  O2-  O363  1  0.09655840  0.57336766  0.10716710  1
  O2-  O364  1  0.09953372  0.58606038  0.46200719  1
  O2-  O365  1  0.08438942  0.58770258  0.77753818  1
  O2-  O366  1  0.41683069  0.07914638  0.12284742  1
  O2-  O367  1  0.41561133  0.08361894  0.43896789  1
  O2-  O368  1  0.41186116  0.07946444  0.77838881  1
  O2-  O369  1  0.41387146  0.58460364  0.13556047  1
  O2-  O370  1  0.41751089  0.57695630  0.42090950  1
  O2-  O371  1  0.42269155  0.58404203  0.78536020  1
  O2-  O372  1  0.74928411  0.07991415  0.11433540  1
  O2-  O373  1  0.75577493  0.07803760  0.44817797  1
  O2-  O374  1  0.76982658  0.08260871  0.77528151  1
  O2-  O375  1  0.73593914  0.57532287  0.10633102  1
  O2-  O376  1  0.75145741  0.58454873  0.45238048  1
  O2-  O377  1  0.73744151  0.58458844  0.78904256  1
  O2-  O378  1  0.25019904  0.08618391  0.22533356  1
  O2-  O379  1  0.24562571  0.08435873  0.55321217  1
  O2-  O380  1  0.25178959  0.07052606  0.87820464  1
  O2-  O381  1  0.22820369  0.57688677  0.22048905  1
  O2-  O382  1  0.25548042  0.57591931  0.56073193  1
  O2-  O383  1  0.25156795  0.58003798  0.86564512  1
  O2-  O384  1  0.57853371  0.08727576  0.21676309  1
  O2-  O385  1  0.58171220  0.07648149  0.54337180  1
  O2-  O386  1  0.58496162  0.08639978  0.89163551  1
  O2-  O387  1  0.59992305  0.57912352  0.22343944  1
  O2-  O388  1  0.58170441  0.58518235  0.54765422  1
  O2-  O389  1  0.57766970  0.58273885  0.88588131  1
  O2-  O390  1  0.93717777  0.08603304  0.25266528  1
  O2-  O391  1  0.91823319  0.08207919  0.55104418  1
  O2-  O392  1  0.90683918  0.08403975  0.88401262  1
  O2-  O393  1  0.92736471  0.58279881  0.21660205  1
  O2-  O394  1  0.94773840  0.55271971  0.53662633  1
  O2-  O395  1  0.92316537  0.58035365  0.89507180  1
  O2-  O396  1  0.08110892  0.41460791  0.10738667  1
  O2-  O397  1  0.06227907  0.41896860  0.43631243  1
  O2-  O398  1  0.07733323  0.41931611  0.78645438  1
  O2-  O399  1  0.10560558  0.92417053  0.09114698  1
  O2-  O400  1  0.08489015  0.92016428  0.45188788  1
  O2-  O401  1  0.09258628  0.91721890  0.77167053  1
  O2-  O402  1  0.42286250  0.42034052  0.11166030  1
  O2-  O403  1  0.43393089  0.41863562  0.43347534  1
  O2-  O404  1  0.43417803  0.42145150  0.78954555  1
  O2-  O405  1  0.41165197  0.91394398  0.12532972  1
  O2-  O406  1  0.41024408  0.91579057  0.43688503  1
  O2-  O407  1  0.42772213  0.92106264  0.78187000  1
  O2-  O408  1  0.75298212  0.41513983  0.09973021  1
  O2-  O409  1  0.76742434  0.41902704  0.43489116  1
  O2-  O410  1  0.72820436  0.42966386  0.79484334  1
  O2-  O411  1  0.74451394  0.91988700  0.11408815  1
  O2-  O412  1  0.74796356  0.92030395  0.45609222  1
  O2-  O413  1  0.73206896  0.91592108  0.77426926  1
  O2-  O414  1  0.25658380  0.41599971  0.22440854  1
  O2-  O415  1  0.24097691  0.41813070  0.54848336  1
  O2-  O416  1  0.26300506  0.41752192  0.89490211  1
  O2-  O417  1  0.25997968  0.91753749  0.22886260  1
  O2-  O418  1  0.24489698  0.92109106  0.55641597  1
  O2-  O419  1  0.24530565  0.92062308  0.88681804  1
  O2-  O420  1  0.56972890  0.41550989  0.21734077  1
  O2-  O421  1  0.58065004  0.42170032  0.54838833  1
  O2-  O422  1  0.57706424  0.41759235  0.89357239  1
  O2-  O423  1  0.58763607  0.92271760  0.21999811  1
  O2-  O424  1  0.58651569  0.91818337  0.55078686  1
  O2-  O425  1  0.58186151  0.92317320  0.87668192  1
  O2-  O426  1  0.91754786  0.42203054  0.22799617  1
  O2-  O427  1  0.93039657  0.41026589  0.54762999  1
  O2-  O428  1  0.90610716  0.41505899  0.88409031  1
  O2-  O429  1  0.90902761  0.91666741  0.23115154  1
  O2-  O430  1  0.91164951  0.92376113  0.54595636  1
  O2-  O431  1  0.92349745  0.91568092  0.89228240  1
  O2-  O432  1  0.01366246  0.00477173  -0.01939552  1
  O2-  O433  1  -0.02548410  0.00222236  0.36674323  1
  O2-  O434  1  0.02321966  0.00357577  0.64089277  1
  O2-  O435  1  0.00932713  0.48960584  -0.00626937  1
  O2-  O436  1  -0.00103079  0.51925286  0.33774612  1
  O2-  O437  1  0.02009533  0.48699750  0.65647174  1
  O2-  O438  1  0.31990715  0.00199259  0.01713422  1
  O2-  O439  1  0.33455717  -0.00523665  0.33548167  1
  O2-  O440  1  0.33522373  0.00035545  0.67566164  1
  O2-  O441  1  0.32789064  0.52045615  0.01258043  1
  O2-  O442  1  0.34497955  0.50116464  0.28330612  1
  O2-  O443  1  0.34250303  0.49593875  0.65236655  1
  O2-  O444  1  0.67861728  -0.00385272  -0.01375778  1
  O2-  O445  1  0.65628438  0.00579499  0.33300133  1
  O2-  O446  1  0.66447419  -0.01822617  0.65683171  1
  O2-  O447  1  0.66226915  0.49538604  0.00407436  1
  O2-  O448  1  0.63282832  0.49670006  0.37738276  1
  O2-  O449  1  0.65730033  0.50628304  0.68556466  1
  O2-  O450  1  0.16366892  0.02375474  0.00024592  1
  O2-  O451  1  0.19236748  0.00206180  0.36644501  1
  O2-  O452  1  0.18177619  0.00565922  0.70070503  1
  O2-  O453  1  0.17129758  0.50646677  0.00975767  1
  O2-  O454  1  0.17267090  0.50721749  0.34796337  1
  O2-  O455  1  0.18327478  0.50192603  0.68652724  1
  O2-  O456  1  0.47554007  -0.00732885  -0.02275109  1
  O2-  O457  1  0.48999025  0.00458359  0.30491724  1
  O2-  O458  1  0.49825322  -0.01483695  0.66173936  1
  O2-  O459  1  0.49068648  0.50298229  -0.00824099  1
  O2-  O460  1  0.48896228  0.49923247  0.29378601  1
  O2-  O461  1  0.50367376  0.49013280  0.66686457  1
  O2-  O462  1  0.83085212  -0.00295613  -0.01027990  1
  O2-  O463  1  0.81750682  -0.02107740  0.33160234  1
  O2-  O464  1  0.81670740  -0.00107239  0.62706110  1
  O2-  O465  1  0.82173812  0.49367862  -0.01214514  1
  O2-  O466  1  0.83463367  0.51483766  0.34466540  1
  O2-  O467  1  0.85364522  0.47961490  0.67634156  1
  O2-  O468  1  0.75900559  0.75477346  0.06976619  1
  O2-  O469  1  0.41852146  0.75297669  0.72329320  1
  O2-  O470  1  0.73657321  0.24964761  0.39974695  1
  O2-  O471  1  0.25754146  0.25161210  0.61477513  1
  O2-  O472  1  0.06892381  0.74618629  0.38226812  1
  O2-  O473  1  0.40302569  0.74822206  0.05399024  1
  O2-  O474  1  0.25931308  0.74847248  0.94241125  1
  O2-  O475  1  0.75142519  0.75030952  0.38258842  1
  O2-  O476  1  0.25954547  0.25036650  0.27409146  1
  O2-  O477  1  0.90943806  0.74703067  0.93609713  1
  O2-  O478  1  0.90859115  0.24965122  0.60865348  1
  O2-  O479  1  0.41404656  0.75401355  0.40125999  1
  O2-  O480  1  0.74529001  0.24707222  0.72020149  1
  O2-  O481  1  0.08717423  0.75349774  0.74004994  1
  O2-  O482  1  0.58272491  0.24691953  0.61171738  1
  O2-  O483  1  0.59140766  0.25114832  0.27732685  1
  O2-  O484  1  0.08609589  0.25373780  0.73184877  1
  O2-  O485  1  0.24275885  0.25268429  0.92938504  1
  O2-  O486  1  0.41635673  0.24663651  0.71758840  1
  O2-  O487  1  0.91435901  0.75074993  0.27755158  1
  O2-  O488  1  0.91425304  0.24938015  0.94220290  1
  O2-  O489  1  0.08084011  0.24789557  0.05199548  1
  O2-  O490  1  0.41746036  0.25100317  0.39649886  1
  O2-  O491  1  0.75236529  0.24884216  0.05762310  1
  O2-  O492  1  0.74545030  0.75266118  0.72751609  1
