# generated using pymatgen
data_Ca108Mn108O277
_symmetry_space_group_name_H-M   'P 1'
_cell_length_a   16.03325784
_cell_length_b   22.31490832
_cell_length_c   16.39302571
_cell_angle_alpha   90.00332060
_cell_angle_beta   90.00000089
_cell_angle_gamma   89.99937070
_symmetry_Int_Tables_number   1
_chemical_formula_structural   Ca108Mn108O277
_chemical_formula_sum   'Ca108 Mn108 O277'
_cell_volume   5865.10785596
_cell_formula_units_Z   1
loop_
 _symmetry_equiv_pos_site_id
 _symmetry_equiv_pos_as_xyz
  1  'x, y, z'
loop_
 _atom_type_symbol
 _atom_type_oxidation_number
  Ca2+  2.0
  Mn3.34+  3.34
  O2-  -2.0
loop_
 _atom_site_type_symbol
 _atom_site_label
 _atom_site_symmetry_multiplicity
 _atom_site_fract_x
 _atom_site_fract_y
 _atom_site_fract_z
 _atom_site_occupancy
  Ca2+  Ca0  1  0.09313235  0.25775324  0.25641777  1
  Ca2+  Ca1  1  0.08874880  0.24836621  0.56839845  1
  Ca2+  Ca2  1  0.10823534  0.25160777  0.91731383  1
  Ca2+  Ca3  1  0.07460571  0.75100152  0.23934441  1
  Ca2+  Ca4  1  0.09635048  0.75363164  0.59058699  1
  Ca2+  Ca5  1  0.07650420  0.75633739  0.91545282  1
  Ca2+  Ca6  1  0.41996459  0.24378085  0.25456053  1
  Ca2+  Ca7  1  0.39550554  0.23914129  0.57846042  1
  Ca2+  Ca8  1  0.39358164  0.24715219  0.91143610  1
  Ca2+  Ca9  1  0.42813745  0.75106189  0.22420177  1
  Ca2+  Ca10  1  0.40374782  0.75131256  0.60189873  1
  Ca2+  Ca11  1  0.40603128  0.75272469  0.91409179  1
  Ca2+  Ca12  1  0.73005478  0.25317708  0.24629289  1
  Ca2+  Ca13  1  0.76437724  0.24881428  0.59503103  1
  Ca2+  Ca14  1  0.75093292  0.25420305  0.91588426  1
  Ca2+  Ca15  1  0.74021326  0.74037058  0.24315892  1
  Ca2+  Ca16  1  0.74450288  0.74972362  0.57426360  1
  Ca2+  Ca17  1  0.78186422  0.73690864  0.93009237  1
  Ca2+  Ca18  1  0.24917700  0.25319441  0.08019412  1
  Ca2+  Ca19  1  0.25928410  0.24968721  0.41451096  1
  Ca2+  Ca20  1  0.26580755  0.25116211  0.75133376  1
  Ca2+  Ca21  1  0.26758436  0.73278507  0.07351954  1
  Ca2+  Ca22  1  0.24059103  0.75654615  0.42184200  1
  Ca2+  Ca23  1  0.26163838  0.74135125  0.75188835  1
  Ca2+  Ca24  1  0.58932650  0.25156752  0.10589499  1
  Ca2+  Ca25  1  0.55724435  0.24414178  0.39949010  1
  Ca2+  Ca26  1  0.57382888  0.26092949  0.75178111  1
  Ca2+  Ca27  1  0.58006650  0.74679264  0.09989775  1
  Ca2+  Ca28  1  0.59806378  0.75985995  0.40765746  1
  Ca2+  Ca29  1  0.54754671  0.74631857  0.74669413  1
  Ca2+  Ca30  1  0.90529633  0.25954365  0.08802382  1
  Ca2+  Ca31  1  0.92498155  0.25620837  0.42123423  1
  Ca2+  Ca32  1  0.90581569  0.25453039  0.74370093  1
  Ca2+  Ca33  1  0.92148545  0.74326850  0.07050470  1
  Ca2+  Ca34  1  0.91357780  0.75184192  0.40907188  1
  Ca2+  Ca35  1  0.93509520  0.75306946  0.76543561  1
  Ca2+  Ca36  1  0.39714824  0.09601483  0.91163123  1
  Ca2+  Ca37  1  0.88907949  0.07702033  0.71892486  1
  Ca2+  Ca38  1  0.07761150  0.60162046  0.90920534  1
  Ca2+  Ca39  1  0.20496225  0.56898500  0.42267146  1
  Ca2+  Ca40  1  0.91347494  0.59653279  0.07594866  1
  Ca2+  Ca41  1  0.43488393  0.61245415  0.22291167  1
  Ca2+  Ca42  1  0.59235765  0.59944230  0.41623649  1
  Ca2+  Ca43  1  0.40241224  0.57719760  0.61210744  1
  Ca2+  Ca44  1  0.25957809  0.09807478  0.73231669  1
  Ca2+  Ca45  1  0.75618218  0.08690170  0.90770550  1
  Ca2+  Ca46  1  0.26248739  0.58237523  0.73835965  1
  Ca2+  Ca47  1  0.27641118  0.10920876  0.43513496  1
  Ca2+  Ca48  1  0.60394222  0.59935440  0.41715936  1
  Ca2+  Ca49  1  0.53745118  0.58026003  0.73431877  1
  Ca2+  Ca50  1  0.92661245  0.60185324  0.76035246  1
  Ca2+  Ca51  1  0.91327077  0.08524700  0.08192535  1
  Ca2+  Ca52  1  0.41154106  0.60641325  0.90564878  1
  Ca2+  Ca53  1  0.94218499  0.58489938  0.40738230  1
  Ca2+  Ca54  1  0.74864278  0.58342827  0.59004543  1
  Ca2+  Ca55  1  0.73250032  0.10580826  0.24768586  1
  Ca2+  Ca56  1  0.06721628  0.60243890  0.90946113  1
  Ca2+  Ca57  1  0.88789068  0.08087616  0.71026541  1
  Ca2+  Ca58  1  0.56750365  0.10448647  0.10122554  1
  Ca2+  Ca59  1  0.27952262  0.08880428  0.07919374  1
  Ca2+  Ca60  1  0.60106975  0.09331724  0.74617476  1
  Ca2+  Ca61  1  0.41535194  0.60935679  0.91430248  1
  Ca2+  Ca62  1  0.58823465  0.09178162  0.74439293  1
  Ca2+  Ca63  1  0.93341835  0.09223965  0.42747354  1
  Ca2+  Ca64  1  0.57562598  0.61573631  0.09314535  1
  Ca2+  Ca65  1  0.27094585  0.08575786  0.07491512  1
  Ca2+  Ca66  1  0.10413705  0.09681505  0.57617094  1
  Ca2+  Ca67  1  0.73606549  0.58135074  0.58969925  1
  Ca2+  Ca68  1  0.43183825  0.09772180  0.27406409  1
  Ca2+  Ca69  1  0.74736873  0.60004289  0.24320438  1
  Ca2+  Ca70  1  0.08343244  0.08514516  0.26766175  1
  Ca2+  Ca71  1  0.10414614  0.57570219  0.60659506  1
  Ca2+  Ca72  1  0.76144929  0.90019601  0.90316447  1
  Ca2+  Ca73  1  0.25005641  0.90513180  0.42120302  1
  Ca2+  Ca74  1  0.74913726  0.90076405  0.90387452  1
  Ca2+  Ca75  1  0.26532792  0.42870345  0.73412878  1
  Ca2+  Ca76  1  0.24935207  0.90412393  0.74528300  1
  Ca2+  Ca77  1  0.26254489  0.90294375  0.09331747  1
  Ca2+  Ca78  1  0.40896381  0.90359132  0.25491757  1
  Ca2+  Ca79  1  0.56329887  0.90893598  0.07400583  1
  Ca2+  Ca80  1  0.41171902  0.42532489  0.61224385  1
  Ca2+  Ca81  1  0.08552092  0.90446171  0.26193667  1
  Ca2+  Ca82  1  0.40805516  0.39944862  0.24963488  1
  Ca2+  Ca83  1  0.73230552  0.40981222  0.58652342  1
  Ca2+  Ca84  1  0.41981592  0.90534632  0.91711592  1
  Ca2+  Ca85  1  0.25139780  0.90315574  0.09275647  1
  Ca2+  Ca86  1  0.76514752  0.40343921  0.25299576  1
  Ca2+  Ca87  1  0.76240013  0.89901002  0.59413006  1
  Ca2+  Ca88  1  0.41255093  0.40641855  0.90661754  1
  Ca2+  Ca89  1  0.24876496  0.40701458  0.08253799  1
  Ca2+  Ca90  1  0.07986936  0.41465986  0.90987869  1
  Ca2+  Ca91  1  0.92628876  0.41729170  0.73820745  1
  Ca2+  Ca92  1  0.10914863  0.42490117  0.59625231  1
  Ca2+  Ca93  1  0.55970938  0.43065303  0.72244204  1
  Ca2+  Ca94  1  0.75816901  0.40778481  0.91795030  1
  Ca2+  Ca95  1  0.23910218  0.41113605  0.41599430  1
  Ca2+  Ca96  1  0.09099874  0.41473693  0.90941437  1
  Ca2+  Ca97  1  0.93045747  0.41001758  0.41569373  1
  Ca2+  Ca98  1  0.92909699  0.91078376  0.74311456  1
  Ca2+  Ca99  1  0.58348200  0.40213726  0.08169040  1
  Ca2+  Ca100  1  0.08080409  0.42351551  0.27355180  1
  Ca2+  Ca101  1  0.74992120  0.90001452  0.59410011  1
  Ca2+  Ca102  1  0.09966216  0.42289247  0.59967190  1
  Ca2+  Ca103  1  0.76475124  0.89941991  0.24735654  1
  Ca2+  Ca104  1  0.74439287  0.40699707  0.58927122  1
  Ca2+  Ca105  1  0.92467702  0.90050593  0.08417178  1
  Ca2+  Ca106  1  0.91811119  0.41254231  0.07989419  1
  Ca2+  Ca107  1  0.75226473  0.89832654  0.24865831  1
  Mn3.34+  Mn108  1  0.08171917  0.33704835  0.08918204  1
  Mn3.34+  Mn109  1  0.08734909  0.33477392  0.42020902  1
  Mn3.34+  Mn110  1  0.08410004  0.33426767  0.74956662  1
  Mn3.34+  Mn111  1  0.08524633  0.83411804  0.08034636  1
  Mn3.34+  Mn112  1  0.07903377  0.83622621  0.42597846  1
  Mn3.34+  Mn113  1  0.08808112  0.83505413  0.74645467  1
  Mn3.34+  Mn114  1  0.41598317  0.33663420  0.08376698  1
  Mn3.34+  Mn115  1  0.41577265  0.33217486  0.42219105  1
  Mn3.34+  Mn116  1  0.41750027  0.33446239  0.75086131  1
  Mn3.34+  Mn117  1  0.41709361  0.83196694  0.08162760  1
  Mn3.34+  Mn118  1  0.41982784  0.83799949  0.42717521  1
  Mn3.34+  Mn119  1  0.41494303  0.83591050  0.74863432  1
  Mn3.34+  Mn120  1  0.74949885  0.33550349  0.08417289  1
  Mn3.34+  Mn121  1  0.74698699  0.33538223  0.41767030  1
  Mn3.34+  Mn122  1  0.74529812  0.33243132  0.75519181  1
  Mn3.34+  Mn123  1  0.74974489  0.83069433  0.08313706  1
  Mn3.34+  Mn124  1  0.75477914  0.83215923  0.42036382  1
  Mn3.34+  Mn125  1  0.74646724  0.81996033  0.75129456  1
  Mn3.34+  Mn126  1  0.24968998  0.33330357  0.24974952  1
  Mn3.34+  Mn127  1  0.25339970  0.33403265  0.57896035  1
  Mn3.34+  Mn128  1  0.25066009  0.33497956  0.91361363  1
  Mn3.34+  Mn129  1  0.24917102  0.82976106  0.25599496  1
  Mn3.34+  Mn130  1  0.25084736  0.83437809  0.58433981  1
  Mn3.34+  Mn131  1  0.24408449  0.83247279  0.91151232  1
  Mn3.34+  Mn132  1  0.58037455  0.33452201  0.25537815  1
  Mn3.34+  Mn133  1  0.57560568  0.33409232  0.57582721  1
  Mn3.34+  Mn134  1  0.58280896  0.33558478  0.91515904  1
  Mn3.34+  Mn135  1  0.58114793  0.83077548  0.25397676  1
  Mn3.34+  Mn136  1  0.57443342  0.82796598  0.58321901  1
  Mn3.34+  Mn137  1  0.58298519  0.83025885  0.91246156  1
  Mn3.34+  Mn138  1  0.91937751  0.33538469  0.25048443  1
  Mn3.34+  Mn139  1  0.91920547  0.33431442  0.58010867  1
  Mn3.34+  Mn140  1  0.91796036  0.33129619  0.91372938  1
  Mn3.34+  Mn141  1  0.92128661  0.82968586  0.25233256  1
  Mn3.34+  Mn142  1  0.93123079  0.84086106  0.57314882  1
  Mn3.34+  Mn143  1  0.92584504  0.83856671  0.91268376  1
  Mn3.34+  Mn144  1  0.41819533  0.67350880  0.41858902  1
  Mn3.34+  Mn145  1  0.08122688  0.17057323  0.75275668  1
  Mn3.34+  Mn146  1  0.09449499  0.16418815  0.75351392  1
  Mn3.34+  Mn147  1  0.24886813  0.66568930  0.58115830  1
  Mn3.34+  Mn148  1  0.75505954  0.17058712  0.41960010  1
  Mn3.34+  Mn149  1  0.92062246  0.66545753  0.24828318  1
  Mn3.34+  Mn150  1  0.08049955  0.66617739  0.08198359  1
  Mn3.34+  Mn151  1  0.76176435  0.66822895  0.41669749  1
  Mn3.34+  Mn152  1  0.07512686  0.16171696  0.08555512  1
  Mn3.34+  Mn153  1  0.58907840  0.67046630  0.91310462  1
  Mn3.34+  Mn154  1  0.08056015  0.66228632  0.42488332  1
  Mn3.34+  Mn155  1  0.75318461  0.16855067  0.08646965  1
  Mn3.34+  Mn156  1  0.40964917  0.66748223  0.42161414  1
  Mn3.34+  Mn157  1  0.08721518  0.16629612  0.08316402  1
  Mn3.34+  Mn158  1  0.58053924  0.16983018  0.92096371  1
  Mn3.34+  Mn159  1  0.41600423  0.16793184  0.08881260  1
  Mn3.34+  Mn160  1  0.24622773  0.66787566  0.91543090  1
  Mn3.34+  Mn161  1  0.75358746  0.67235542  0.75315084  1
  Mn3.34+  Mn162  1  0.23615459  0.65614741  0.24869973  1
  Mn3.34+  Mn163  1  0.08588622  0.66652646  0.74711806  1
  Mn3.34+  Mn164  1  0.24979725  0.16833241  0.25154103  1
  Mn3.34+  Mn165  1  0.91331884  0.16604439  0.91128050  1
  Mn3.34+  Mn166  1  0.58025226  0.66704562  0.58351317  1
  Mn3.34+  Mn167  1  0.75114436  0.66641701  0.08162694  1
  Mn3.34+  Mn168  1  0.92460845  0.16001911  0.90819027  1
  Mn3.34+  Mn169  1  0.92118692  0.66739493  0.57750193  1
  Mn3.34+  Mn170  1  0.59097276  0.16455527  0.92055777  1
  Mn3.34+  Mn171  1  0.74139036  0.67047295  0.75692742  1
  Mn3.34+  Mn172  1  0.41378523  0.16778931  0.74787322  1
  Mn3.34+  Mn173  1  0.58679252  0.16749421  0.57787598  1
  Mn3.34+  Mn174  1  0.74290520  0.16509108  0.42195093  1
  Mn3.34+  Mn175  1  0.08827387  0.16847988  0.41590207  1
  Mn3.34+  Mn176  1  0.91934075  0.16809102  0.58119733  1
  Mn3.34+  Mn177  1  0.24904582  0.66303760  0.25085436  1
  Mn3.34+  Mn178  1  0.91644652  0.16535036  0.24838262  1
  Mn3.34+  Mn179  1  0.57434474  0.17268023  0.57791772  1
  Mn3.34+  Mn180  1  0.24580297  0.49584544  0.25596262  1
  Mn3.34+  Mn181  1  0.08399342  0.00051313  0.41631956  1
  Mn3.34+  Mn182  1  0.76012838  0.50035392  0.40578059  1
  Mn3.34+  Mn183  1  0.57409157  -0.00423913  0.24819109  1
  Mn3.34+  Mn184  1  0.08482018  0.50079424  0.08187234  1
  Mn3.34+  Mn185  1  0.91596453  0.50032970  0.57850513  1
  Mn3.34+  Mn186  1  0.23866973  0.00414842  0.90932437  1
  Mn3.34+  Mn187  1  0.90889944  0.49843646  0.91948251  1
  Mn3.34+  Mn188  1  0.08356673  -0.00007536  0.74994594  1
  Mn3.34+  Mn189  1  0.58777177  0.00134417  0.25204458  1
  Mn3.34+  Mn190  1  0.24921035  -0.00572400  0.59977244  1
  Mn3.34+  Mn191  1  0.57497177  -0.00266336  0.91850138  1
  Mn3.34+  Mn192  1  0.92093126  0.50242196  0.25363458  1
  Mn3.34+  Mn193  1  0.41408401  0.49951177  0.07289323  1
  Mn3.34+  Mn194  1  0.56481768  -0.00570361  0.57131990  1
  Mn3.34+  Mn195  1  0.42295127  0.49397933  0.42389383  1
  Mn3.34+  Mn196  1  0.73688308  -0.00808089  0.74474810  1
  Mn3.34+  Mn197  1  0.75835194  -0.00013081  0.07224411  1
  Mn3.34+  Mn198  1  0.76000009  -0.00265832  0.42057179  1
  Mn3.34+  Mn199  1  0.25086246  0.00433833  0.25633899  1
  Mn3.34+  Mn200  1  0.57570546  -0.00011540  0.56795945  1
  Mn3.34+  Mn201  1  0.57682065  0.50268104  0.24903029  1
  Mn3.34+  Mn202  1  0.25166020  0.50106074  0.91578268  1
  Mn3.34+  Mn203  1  0.74664742  0.00322587  0.42162966  1
  Mn3.34+  Mn204  1  0.22957612  -0.00211536  0.91252677  1
  Mn3.34+  Mn205  1  0.59018171  0.49625710  0.25170030  1
  Mn3.34+  Mn206  1  0.75157774  0.49956445  0.08505639  1
  Mn3.34+  Mn207  1  0.07112751  -0.00085273  0.06925403  1
  Mn3.34+  Mn208  1  0.92046058  0.00143347  0.24976209  1
  Mn3.34+  Mn209  1  0.40946431  0.50028047  0.42317578  1
  Mn3.34+  Mn210  1  0.74910880  0.50031855  0.75180080  1
  Mn3.34+  Mn211  1  0.74578252  0.00711673  0.07575691  1
  Mn3.34+  Mn212  1  0.41872038  -0.00074112  0.74398466  1
  Mn3.34+  Mn213  1  0.59516531  0.50501843  0.91832962  1
  Mn3.34+  Mn214  1  0.58459905  0.49960169  0.91656430  1
  Mn3.34+  Mn215  1  0.41442651  -0.00068053  0.41561406  1
  O2-  O216  1  0.00007523  0.14079356  -0.00770460  1
  O2-  O217  1  -0.00022654  0.15983956  0.32967470  1
  O2-  O218  1  0.00296836  0.15797687  0.67126780  1
  O2-  O219  1  0.00175736  0.66070992  0.00142837  1
  O2-  O220  1  0.00473456  0.67038276  0.33558233  1
  O2-  O221  1  -0.00014819  0.65639044  0.66300888  1
  O2-  O222  1  0.33771672  0.16151338  0.00471029  1
  O2-  O223  1  0.33373530  0.15739161  0.32144451  1
  O2-  O224  1  0.33276456  0.16962168  0.67260373  1
  O2-  O225  1  0.32796281  0.65931232  -0.00833003  1
  O2-  O226  1  0.33274162  0.65024065  0.33591047  1
  O2-  O227  1  0.32778302  0.65633377  0.65942908  1
  O2-  O228  1  0.66709510  0.13962892  0.00359383  1
  O2-  O229  1  0.66482693  0.16061225  0.34250509  1
  O2-  O230  1  0.65586673  0.17613173  0.66986615  1
  O2-  O231  1  0.66495754  0.67628070  0.00137319  1
  O2-  O232  1  0.67809241  0.65433487  0.33913581  1
  O2-  O233  1  0.66523203  0.64774912  0.67177511  1
  O2-  O234  1  0.17172860  0.14481213  0.01477313  1
  O2-  O235  1  0.17027469  0.14886315  0.33581515  1
  O2-  O236  1  0.16374074  0.17577210  0.66372119  1
  O2-  O237  1  0.15967247  0.65286372  -0.00388938  1
  O2-  O238  1  0.16832496  0.65128452  0.34190254  1
  O2-  O239  1  0.16994318  0.65202667  0.66738538  1
  O2-  O240  1  0.49607178  0.15176868  -0.00301537  1
  O2-  O241  1  0.49422110  0.17319429  0.32861877  1
  O2-  O242  1  0.50337878  0.15347414  0.66663893  1
  O2-  O243  1  0.50571424  0.65613985  -0.01146982  1
  O2-  O244  1  0.49932435  0.65091640  0.34048387  1
  O2-  O245  1  0.49594521  0.65603423  0.65326218  1
  O2-  O246  1  0.83265174  0.14569504  0.00007507  1
  O2-  O247  1  0.83410004  0.14624875  0.33249350  1
  O2-  O248  1  0.83836887  0.16692751  0.66347437  1
  O2-  O249  1  0.83520931  0.66045857  0.00868569  1
  O2-  O250  1  0.84341524  0.64431614  0.33982214  1
  O2-  O251  1  0.82582597  0.66759610  0.66001081  1
  O2-  O252  1  0.00371086  0.35433889  -0.00378874  1
  O2-  O253  1  0.00365273  0.34409571  0.33466377  1
  O2-  O254  1  0.00519814  0.35129268  0.66074818  1
  O2-  O255  1  0.00416529  0.84881575  -0.00079115  1
  O2-  O256  1  0.00716833  0.82751850  0.33113400  1
  O2-  O257  1  -0.00386067  0.83406031  0.66851539  1
  O2-  O258  1  0.33215963  0.34797382  -0.00114841  1
  O2-  O259  1  0.32788155  0.35132205  0.34110974  1
  O2-  O260  1  0.32878470  0.33987775  0.66797065  1
  O2-  O261  1  0.33239938  0.84956580  -0.00076437  1
  O2-  O262  1  0.33216983  0.83950919  0.33820849  1
  O2-  O263  1  0.33074321  0.84593669  0.66838521  1
  O2-  O264  1  0.67027572  0.35271821  -0.00488926  1
  O2-  O265  1  0.67333714  0.34893629  0.32704884  1
  O2-  O266  1  0.66906346  0.31676640  0.66620482  1
  O2-  O267  1  0.66559013  0.84434218  0.00282757  1
  O2-  O268  1  0.67035489  0.84992554  0.33428149  1
  O2-  O269  1  0.67072925  0.83752247  0.66289003  1
  O2-  O270  1  0.16444646  0.35448064  -0.00650636  1
  O2-  O271  1  0.16269112  0.34983976  0.33068481  1
  O2-  O272  1  0.16398031  0.32736462  0.65981206  1
  O2-  O273  1  0.17427834  0.85115889  0.00514749  1
  O2-  O274  1  0.16636635  0.83635795  0.33764053  1
  O2-  O275  1  0.16637777  0.84647595  0.66341143  1
  O2-  O276  1  0.49790071  0.34938039  -0.00155274  1
  O2-  O277  1  0.49536042  0.34753489  0.33434415  1
  O2-  O278  1  0.50195778  0.34245314  0.66840899  1
  O2-  O279  1  0.49970545  0.84059200  -0.00311041  1
  O2-  O280  1  0.49291863  0.83506308  0.33043156  1
  O2-  O281  1  0.49750995  0.83381513  0.66627168  1
  O2-  O282  1  0.83756705  0.34613875  0.00245037  1
  O2-  O283  1  0.84342513  0.34578054  0.34096900  1
  O2-  O284  1  0.83085112  0.34603874  0.66739874  1
  O2-  O285  1  0.83067975  0.85095341  -0.00114046  1
  O2-  O286  1  0.83549867  0.84872433  0.33596660  1
  O2-  O287  1  0.82760950  0.81581409  0.66628941  1
  O2-  O288  1  -0.00526715  0.18600759  0.15840251  1
  O2-  O289  1  -0.00054282  0.18050004  0.49612133  1
  O2-  O290  1  0.00716051  0.19657072  0.83110022  1
  O2-  O291  1  -0.00490197  0.68387004  0.16177065  1
  O2-  O292  1  -0.00293019  0.68729914  0.49564289  1
  O2-  O293  1  0.00718859  0.67532507  0.82902403  1
  O2-  O294  1  0.32304975  0.18489056  0.15870968  1
  O2-  O295  1  0.30882964  0.18777904  0.50607391  1
  O2-  O296  1  0.34332873  0.17529424  0.83046318  1
  O2-  O297  1  0.33135737  0.67620773  0.17552137  1
  O2-  O298  1  0.33228220  0.69255679  0.49889769  1
  O2-  O299  1  0.32829272  0.67343844  0.83842737  1
  O2-  O300  1  0.67134213  0.17623617  0.16088160  1
  O2-  O301  1  0.66886980  0.19694294  0.50948111  1
  O2-  O302  1  0.66920510  0.17645534  0.83819073  1
  O2-  O303  1  0.67108761  0.67727148  0.16058285  1
  O2-  O304  1  0.67133569  0.67738173  0.49798776  1
  O2-  O305  1  0.66660369  0.69782374  0.83080890  1
  O2-  O306  1  0.15853935  0.18291630  0.17468245  1
  O2-  O307  1  0.16319875  0.17764959  0.49595111  1
  O2-  O308  1  0.17286152  0.19163951  0.82391167  1
  O2-  O309  1  0.16338664  0.68045284  0.16512881  1
  O2-  O310  1  0.16329526  0.68770980  0.49688969  1
  O2-  O311  1  0.16001307  0.67676264  0.83645556  1
  O2-  O312  1  0.49675825  0.18636295  0.15838238  1
  O2-  O313  1  0.49605966  0.18835844  0.50593834  1
  O2-  O314  1  0.51018427  0.17816410  0.82784652  1
  O2-  O315  1  0.50084844  0.68324537  0.16363465  1
  O2-  O316  1  0.51265664  0.68270275  0.48704349  1
  O2-  O317  1  0.49917591  0.68133284  0.84261421  1
  O2-  O318  1  0.83352418  0.19006826  0.17359579  1
  O2-  O319  1  0.83698616  0.18154764  0.49527671  1
  O2-  O320  1  0.83548099  0.18658391  0.83269029  1
  O2-  O321  1  0.82968434  0.67032152  0.17336527  1
  O2-  O322  1  0.83534357  0.68873769  0.50261577  1
  O2-  O323  1  0.83990891  0.68477305  0.82310501  1
  O2-  O324  1  -0.00333181  0.31202228  0.16944993  1
  O2-  O325  1  -0.00044206  0.32049115  0.49816847  1
  O2-  O326  1  0.00129086  0.31581669  0.83096358  1
  O2-  O327  1  0.00150991  0.82593147  0.16592388  1
  O2-  O328  1  0.00339566  0.80213539  0.49977405  1
  O2-  O329  1  0.00252391  0.82791166  0.82819504  1
  O2-  O330  1  0.33545837  0.31599570  0.16772576  1
  O2-  O331  1  0.33229037  0.31472052  0.50369584  1
  O2-  O332  1  0.33433665  0.32203093  0.83424833  1
  O2-  O333  1  0.33069212  0.82333646  0.16583658  1
  O2-  O334  1  0.33099287  0.81587776  0.49854541  1
  O2-  O335  1  0.33211748  0.82361671  0.83774329  1
  O2-  O336  1  0.66337459  0.32638781  0.16278330  1
  O2-  O337  1  0.67106217  0.32050871  0.50848661  1
  O2-  O338  1  0.66635667  0.31015936  0.83485142  1
  O2-  O339  1  0.67373020  0.82357744  0.17275218  1
  O2-  O340  1  0.67377715  0.81982038  0.50337089  1
  O2-  O341  1  0.67432669  0.81394524  0.84384017  1
  O2-  O342  1  0.17123080  0.31941891  0.15990808  1
  O2-  O343  1  0.17190650  0.31322577  0.49799834  1
  O2-  O344  1  0.16451143  0.32122921  0.83268785  1
  O2-  O345  1  0.16918183  0.82902730  0.16762151  1
  O2-  O346  1  0.16821359  0.82051018  0.49876829  1
  O2-  O347  1  0.17012453  0.81706293  0.82720708  1
  O2-  O348  1  0.49773120  0.32121559  0.16444155  1
  O2-  O349  1  0.49820039  0.30899736  0.50263891  1
  O2-  O350  1  0.49497283  0.32043864  0.83942376  1
  O2-  O351  1  0.50315311  0.82768455  0.16269080  1
  O2-  O352  1  0.49968082  0.80398262  0.49861042  1
  O2-  O353  1  0.49541491  0.81945805  0.83858677  1
  O2-  O354  1  0.82823761  0.31991110  0.17543538  1
  O2-  O355  1  0.83096898  0.31989978  0.50637567  1
  O2-  O356  1  0.83103180  0.31502598  0.83238811  1
  O2-  O357  1  0.83100986  0.82950095  0.16915996  1
  O2-  O358  1  0.83480576  0.81861432  0.50569119  1
  O2-  O359  1  0.83080662  0.81515860  0.83508893  1
  O2-  O360  1  0.07467547  0.07858461  0.12277308  1
  O2-  O361  1  0.07416295  0.08246407  0.44371973  1
  O2-  O362  1  0.08560012  0.08090218  0.78423623  1
  O2-  O363  1  0.06336960  0.58142095  0.09194863  1
  O2-  O364  1  0.07400753  0.58162859  0.46142270  1
  O2-  O365  1  0.07888321  0.58322814  0.77244296  1
  O2-  O366  1  0.41125738  0.08443758  0.12333746  1
  O2-  O367  1  0.41170314  0.07223874  0.44582845  1
  O2-  O368  1  0.43429731  0.08077766  0.77722114  1
  O2-  O369  1  0.44054700  0.57212770  0.10103819  1
  O2-  O370  1  0.42399542  0.58001839  0.46540111  1
  O2-  O371  1  0.41366247  0.56427942  0.79597693  1
  O2-  O372  1  0.76885507  0.08151904  0.12270935  1
  O2-  O373  1  0.75609049  0.08255220  0.45708278  1
  O2-  O374  1  0.73587621  0.07376613  0.77225938  1
  O2-  O375  1  0.74517396  0.58096642  0.10440501  1
  O2-  O376  1  0.74542466  0.58127735  0.45484539  1
  O2-  O377  1  0.77236609  0.58182212  0.76593319  1
  O2-  O378  1  0.24426263  0.08270551  0.21114300  1
  O2-  O379  1  0.23589313  0.06277615  0.54854098  1
  O2-  O380  1  0.25518707  0.07778081  0.86761135  1
  O2-  O381  1  0.25930440  0.57613224  0.22741740  1
  O2-  O382  1  0.25088851  0.58703703  0.54909628  1
  O2-  O383  1  0.24098113  0.58154776  0.88694777  1
  O2-  O384  1  0.58660841  0.08130761  0.22791327  1
  O2-  O385  1  0.57788203  0.08239625  0.54951484  1
  O2-  O386  1  0.58360332  0.07847886  0.87893070  1
  O2-  O387  1  0.58453426  0.58071808  0.22009951  1
  O2-  O388  1  0.59929507  0.58383272  0.54994598  1
  O2-  O389  1  0.58987750  0.58158285  0.87064405  1
  O2-  O390  1  0.92023165  0.08058037  0.21644191  1
  O2-  O391  1  0.92563045  0.08506555  0.57425266  1
  O2-  O392  1  0.90617945  0.08516262  0.85856632  1
  O2-  O393  1  0.92062451  0.58025814  0.22174323  1
  O2-  O394  1  0.88829604  0.57967650  0.55285547  1
  O2-  O395  1  0.93737450  0.57386686  0.89049172  1
  O2-  O396  1  0.08255469  0.42339558  0.12831976  1
  O2-  O397  1  0.08629871  0.41508125  0.45863446  1
  O2-  O398  1  0.07090617  0.42264061  0.77693990  1
  O2-  O399  1  0.09633945  0.92397700  0.11630146  1
  O2-  O400  1  0.09775985  0.92083413  0.42554048  1
  O2-  O401  1  0.09204978  0.92005461  0.76959376  1
  O2-  O402  1  0.40291738  0.42451979  0.11633441  1
  O2-  O403  1  0.41033954  0.41795226  0.47083566  1
  O2-  O404  1  0.41518637  0.41501352  0.76686057  1
  O2-  O405  1  0.40151868  0.91875676  0.11216258  1
  O2-  O406  1  0.40326986  0.92331724  0.44750755  1
  O2-  O407  1  0.40780737  0.92181044  0.78136570  1
  O2-  O408  1  0.75344956  0.41986991  0.11918398  1
  O2-  O409  1  0.75886939  0.42061286  0.45467311  1
  O2-  O410  1  0.74050507  0.42016272  0.77542248  1
  O2-  O411  1  0.74498161  0.92173216  0.11618649  1
  O2-  O412  1  0.75403922  0.91836247  0.46009111  1
  O2-  O413  1  0.74795533  0.91146190  0.76814974  1
  O2-  O414  1  0.25113895  0.41755169  0.21829415  1
  O2-  O415  1  0.24086854  0.41469862  0.55719618  1
  O2-  O416  1  0.24098827  0.42188352  0.87493963  1
  O2-  O417  1  0.25326901  0.92074912  0.23003148  1
  O2-  O418  1  0.25256415  0.91907641  0.55792343  1
  O2-  O419  1  0.24974953  0.91766195  0.88643791  1
  O2-  O420  1  0.57324419  0.41819828  0.21848407  1
  O2-  O421  1  0.59964392  0.41454621  0.58242027  1
  O2-  O422  1  0.58908777  0.42318131  0.86604577  1
  O2-  O423  1  0.59096557  0.91725806  0.21593733  1
  O2-  O424  1  0.58535349  0.91265734  0.55635058  1
  O2-  O425  1  0.60566187  0.92004479  0.89392410  1
  O2-  O426  1  0.92269272  0.42417020  0.21801101  1
  O2-  O427  1  0.91218442  0.41837618  0.55371171  1
  O2-  O428  1  0.90836684  0.42088079  0.87602014  1
  O2-  O429  1  0.90524344  0.91935327  0.22466921  1
  O2-  O430  1  0.89228582  0.91763575  0.58427080  1
  O2-  O431  1  0.89232166  0.91905103  0.87953808  1
  O2-  O432  1  -0.04250836  -0.00518366  0.06417011  1
  O2-  O433  1  -0.00435926  0.01093002  0.33689876  1
  O2-  O434  1  -0.02076008  0.00369835  0.71468668  1
  O2-  O435  1  0.00823402  0.48335180  -0.01433614  1
  O2-  O436  1  -0.01783358  0.49302133  0.34451982  1
  O2-  O437  1  0.01538174  0.49802584  0.63239426  1
  O2-  O438  1  0.33032843  0.01705106  -0.01112731  1
  O2-  O439  1  0.33272393  -0.00130065  0.33559295  1
  O2-  O440  1  0.31231179  0.00414438  0.69815256  1
  O2-  O441  1  0.35282633  0.49655032  -0.02767670  1
  O2-  O442  1  0.33697084  0.48484388  0.33447826  1
  O2-  O443  1  0.32918235  0.50090563  0.66543999  1
  O2-  O444  1  0.65256000  0.00815505  0.00573823  1
  O2-  O445  1  0.66609496  -0.00797936  0.33716138  1
  O2-  O446  1  0.67340844  -0.00001045  0.64254315  1
  O2-  O447  1  0.67621987  0.48273218  -0.00370967  1
  O2-  O448  1  0.65619725  0.51960538  0.34352581  1
  O2-  O449  1  0.67996066  0.50420542  0.65532796  1
  O2-  O450  1  0.18071686  0.00906767  0.02519475  1
  O2-  O451  1  0.15769949  0.00459743  0.32351295  1
  O2-  O452  1  0.15751588  0.01552730  0.66643465  1
  O2-  O453  1  0.16485680  0.48596708  -0.00814646  1
  O2-  O454  1  0.17096067  0.48919099  0.34083028  1
  O2-  O455  1  0.17507450  0.49342037  0.66432457  1
  O2-  O456  1  0.49091270  -0.01121816  -0.01814031  1
  O2-  O457  1  0.49005712  -0.00082042  0.32722170  1
  O2-  O458  1  0.51978469  0.00982024  0.68342970  1
  O2-  O459  1  0.51021497  0.48411485  0.00467656  1
  O2-  O460  1  0.49787460  0.50457947  0.33601712  1
  O2-  O461  1  0.49187528  0.50321990  0.65649931  1
  O2-  O462  1  0.81428049  0.00838344  -0.02677121  1
  O2-  O463  1  0.82286626  0.00299470  0.32166241  1
  O2-  O464  1  0.82824607  -0.00813497  0.68386922  1
  O2-  O465  1  0.84692364  0.49132344  0.01706097  1
  O2-  O466  1  0.81421224  0.49803233  0.29701824  1
  O2-  O467  1  0.83250791  0.48836978  0.66199867  1
  O2-  O468  1  0.76602039  0.75136938  0.06846605  1
  O2-  O469  1  0.08489126  0.75022902  0.72802816  1
  O2-  O470  1  0.40912574  0.25588608  0.39203867  1
  O2-  O471  1  0.40681276  0.75560190  0.73719481  1
  O2-  O472  1  0.92673131  0.75895780  0.93436306  1
  O2-  O473  1  0.92098416  0.25307029  0.60556879  1
  O2-  O474  1  0.59497706  0.74654438  0.61157234  1
  O2-  O475  1  0.25044874  0.25772681  0.94216430  1
  O2-  O476  1  0.75936475  0.25179060  0.38699614  1
  O2-  O477  1  0.24176223  0.74395009  0.27690296  1
  O2-  O478  1  0.58843146  0.25040324  0.95699522  1
  O2-  O479  1  0.58767984  0.75325363  0.26783417  1
  O2-  O480  1  0.08033842  0.25097915  0.39273768  1
  O2-  O481  1  0.24695407  0.75178193  0.61104327  1
  O2-  O482  1  0.41348256  0.75386365  0.06450716  1
  O2-  O483  1  0.74758267  0.25077695  0.05417344  1
  O2-  O484  1  0.08666311  0.75187235  0.05988119  1
  O2-  O485  1  0.58711472  0.25635856  0.26563519  1
  O2-  O486  1  0.90173109  0.74771952  0.26792434  1
  O2-  O487  1  0.92168226  0.24306911  0.95184441  1
  O2-  O488  1  0.42545132  0.25043549  0.73090788  1
  O2-  O489  1  0.24540729  0.75142081  0.93903155  1
  O2-  O490  1  0.08516717  0.24867556  0.05098291  1
  O2-  O491  1  0.24091918  0.25109622  0.27683994  1
  O2-  O492  1  0.75343288  0.74995017  0.38699820  1
