# generated using pymatgen
data_Ca108Mn108O277
_symmetry_space_group_name_H-M   'P 1'
_cell_length_a   16.03112541
_cell_length_b   22.31171283
_cell_length_c   16.39137799
_cell_angle_alpha   90.00521582
_cell_angle_beta   90.00166383
_cell_angle_gamma   89.99265049
_symmetry_Int_Tables_number   1
_chemical_formula_structural   Ca108Mn108O277
_chemical_formula_sum   'Ca108 Mn108 O277'
_cell_volume   5862.89859714
_cell_formula_units_Z   1
loop_
 _symmetry_equiv_pos_site_id
 _symmetry_equiv_pos_as_xyz
  1  'x, y, z'
loop_
 _atom_type_symbol
 _atom_type_oxidation_number
  Ca2+  2.0
  Mn3.34+  3.34
  O2-  -2.0
loop_
 _atom_site_type_symbol
 _atom_site_label
 _atom_site_symmetry_multiplicity
 _atom_site_fract_x
 _atom_site_fract_y
 _atom_site_fract_z
 _atom_site_occupancy
  Ca2+  Ca0  1  0.08063905  0.25236820  0.25151622  1
  Ca2+  Ca1  1  0.09332080  0.25215371  0.57757126  1
  Ca2+  Ca2  1  0.07742221  0.24358359  0.91995998  1
  Ca2+  Ca3  1  0.09158786  0.74375549  0.25000769  1
  Ca2+  Ca4  1  0.08545559  0.73677052  0.57113003  1
  Ca2+  Ca5  1  0.10305468  0.73997309  0.92550160  1
  Ca2+  Ca6  1  0.40562806  0.25869187  0.25455118  1
  Ca2+  Ca7  1  0.40973289  0.25632713  0.57927914  1
  Ca2+  Ca8  1  0.40823379  0.26079834  0.91140193  1
  Ca2+  Ca9  1  0.40802713  0.75470767  0.25117333  1
  Ca2+  Ca10  1  0.41851650  0.75131566  0.57663645  1
  Ca2+  Ca11  1  0.41407858  0.73874754  0.91223121  1
  Ca2+  Ca12  1  0.75890965  0.27111603  0.25737241  1
  Ca2+  Ca13  1  0.74953027  0.25597873  0.58138730  1
  Ca2+  Ca14  1  0.75259768  0.25820366  0.90923514  1
  Ca2+  Ca15  1  0.75101860  0.75846697  0.24402317  1
  Ca2+  Ca16  1  0.74897380  0.74403177  0.56822779  1
  Ca2+  Ca17  1  0.74814464  0.73867906  0.93701785  1
  Ca2+  Ca18  1  0.24148541  0.25817628  0.07809514  1
  Ca2+  Ca19  1  0.23937597  0.25837258  0.41690859  1
  Ca2+  Ca20  1  0.24526403  0.25817260  0.74911479  1
  Ca2+  Ca21  1  0.24288223  0.73634393  0.09988361  1
  Ca2+  Ca22  1  0.25170193  0.74274324  0.40279837  1
  Ca2+  Ca23  1  0.25933132  0.74222608  0.75232730  1
  Ca2+  Ca24  1  0.59075032  0.26732317  0.07924379  1
  Ca2+  Ca25  1  0.59752998  0.25636196  0.41979058  1
  Ca2+  Ca26  1  0.59271952  0.25516354  0.75002077  1
  Ca2+  Ca27  1  0.60015378  0.74606248  0.09071853  1
  Ca2+  Ca28  1  0.58442125  0.75453726  0.41194333  1
  Ca2+  Ca29  1  0.57766621  0.74993617  0.75169356  1
  Ca2+  Ca30  1  0.91736318  0.25496611  0.08449426  1
  Ca2+  Ca31  1  0.91595597  0.25996075  0.41100795  1
  Ca2+  Ca32  1  0.90718814  0.25956297  0.75408548  1
  Ca2+  Ca33  1  0.90474346  0.73306307  0.09425341  1
  Ca2+  Ca34  1  0.91824784  0.74662939  0.41048256  1
  Ca2+  Ca35  1  0.91556427  0.74290767  0.73988592  1
  Ca2+  Ca36  1  0.77285827  0.12315478  0.89302410  1
  Ca2+  Ca37  1  0.38469036  0.60797928  0.24853038  1
  Ca2+  Ca38  1  0.22318131  0.09924276  0.75639838  1
  Ca2+  Ca39  1  0.57957326  0.59036780  0.41483847  1
  Ca2+  Ca40  1  0.08385883  0.08383595  0.24492688  1
  Ca2+  Ca41  1  0.78243489  0.56907552  0.97653565  1
  Ca2+  Ca42  1  0.20980837  0.59901506  0.08489411  1
  Ca2+  Ca43  1  0.40804184  0.59070240  0.58680172  1
  Ca2+  Ca44  1  0.43764335  0.10865355  0.58153316  1
  Ca2+  Ca45  1  0.60892438  0.10455980  0.74369355  1
  Ca2+  Ca46  1  0.21817740  0.08045183  0.07707107  1
  Ca2+  Ca47  1  0.58133316  0.09684450  0.42585233  1
  Ca2+  Ca48  1  0.07300068  0.59270265  0.58142971  1
  Ca2+  Ca49  1  0.77225229  0.56860430  0.97798172  1
  Ca2+  Ca50  1  0.59464948  0.60345285  0.08673616  1
  Ca2+  Ca51  1  0.24293263  0.09079796  0.40501183  1
  Ca2+  Ca52  1  0.57086920  0.09984482  0.42694452  1
  Ca2+  Ca53  1  0.93842473  0.09199298  0.08078910  1
  Ca2+  Ca54  1  0.56454267  0.58748731  0.74188627  1
  Ca2+  Ca55  1  0.57583061  0.58809001  0.74191490  1
  Ca2+  Ca56  1  0.61632652  0.10971346  0.74079465  1
  Ca2+  Ca57  1  0.24110479  0.59162918  0.75393480  1
  Ca2+  Ca58  1  0.90990301  0.12543260  0.77625278  1
  Ca2+  Ca59  1  0.59049471  0.58954252  0.41569950  1
  Ca2+  Ca60  1  0.94186410  0.59839505  0.41591611  1
  Ca2+  Ca61  1  0.94870971  0.09269143  0.07881844  1
  Ca2+  Ca62  1  0.21926581  0.60599702  0.40891930  1
  Ca2+  Ca63  1  0.93375804  0.08253877  0.39256734  1
  Ca2+  Ca64  1  0.76475791  0.60095885  0.22724081  1
  Ca2+  Ca65  1  0.73069790  0.10712587  0.58535948  1
  Ca2+  Ca66  1  0.39809975  0.07826676  0.25540611  1
  Ca2+  Ca67  1  0.73808284  0.10097611  0.58359226  1
  Ca2+  Ca68  1  0.75481938  0.60006589  0.22421771  1
  Ca2+  Ca69  1  0.23251511  0.09061051  0.40296057  1
  Ca2+  Ca70  1  0.09291163  0.60991573  0.24264938  1
  Ca2+  Ca71  1  0.58242182  0.07959966  0.07968080  1
  Ca2+  Ca72  1  0.58337466  0.90389759  0.40740395  1
  Ca2+  Ca73  1  0.07027297  0.41090537  0.59679965  1
  Ca2+  Ca74  1  0.24899317  0.91141956  0.38964176  1
  Ca2+  Ca75  1  0.77220385  0.41506897  0.93078344  1
  Ca2+  Ca76  1  0.40002046  0.40298367  0.91554468  1
  Ca2+  Ca77  1  0.24229956  0.90101163  0.75759880  1
  Ca2+  Ca78  1  0.41682049  0.40734616  0.26089148  1
  Ca2+  Ca79  1  0.91736250  0.43042045  0.06753107  1
  Ca2+  Ca80  1  0.06971077  0.89744588  0.57257643  1
  Ca2+  Ca81  1  0.08253013  0.89829183  0.57312768  1
  Ca2+  Ca82  1  0.74931733  0.90099703  0.57515311  1
  Ca2+  Ca83  1  0.77583366  0.40875303  0.58378937  1
  Ca2+  Ca84  1  0.74844983  0.90166475  0.91947184  1
  Ca2+  Ca85  1  0.91472799  0.90543419  0.73881136  1
  Ca2+  Ca86  1  0.92585387  0.90490937  0.09713395  1
  Ca2+  Ca87  1  0.22047662  0.41298070  0.07297287  1
  Ca2+  Ca88  1  0.07999979  0.41278865  0.24361239  1
  Ca2+  Ca89  1  0.06023219  0.41475677  0.59564200  1
  Ca2+  Ca90  1  0.58174863  0.90246010  0.74480572  1
  Ca2+  Ca91  1  0.25439713  0.41092074  0.40870554  1
  Ca2+  Ca92  1  0.23659706  0.40948269  0.75185577  1
  Ca2+  Ca93  1  0.62080954  0.41911168  0.08883942  1
  Ca2+  Ca94  1  0.58722043  0.40537131  0.74163129  1
  Ca2+  Ca95  1  0.41169691  0.90173736  0.92839053  1
  Ca2+  Ca96  1  0.91258152  0.41627665  0.41169419  1
  Ca2+  Ca97  1  0.24937891  0.91107267  0.09672142  1
  Ca2+  Ca98  1  0.58643396  0.41236207  0.41300869  1
  Ca2+  Ca99  1  0.57768405  0.90129103  0.10021155  1
  Ca2+  Ca100  1  0.41993485  0.41476642  0.58961909  1
  Ca2+  Ca101  1  0.09124828  0.91663381  0.93868765  1
  Ca2+  Ca102  1  0.92457795  0.90759614  0.74281485  1
  Ca2+  Ca103  1  0.59326577  0.90127461  0.74415055  1
  Ca2+  Ca104  1  0.23770767  0.91123416  0.09635832  1
  Ca2+  Ca105  1  0.23069018  0.90064801  0.75914394  1
  Ca2+  Ca106  1  0.91548771  0.90249784  0.09949442  1
  Ca2+  Ca107  1  0.07933730  0.91531087  0.25926870  1
  Mn3.34+  Mn108  1  0.07405874  0.33843322  0.08228491  1
  Mn3.34+  Mn109  1  0.08250329  0.33755730  0.41526266  1
  Mn3.34+  Mn110  1  0.07414092  0.33756141  0.76078883  1
  Mn3.34+  Mn111  1  0.08187889  0.83106979  0.08877868  1
  Mn3.34+  Mn112  1  0.08234235  0.82846626  0.41310560  1
  Mn3.34+  Mn113  1  0.08108944  0.82346113  0.75241948  1
  Mn3.34+  Mn114  1  0.41482847  0.33553860  0.08690538  1
  Mn3.34+  Mn115  1  0.41922342  0.33447963  0.42083086  1
  Mn3.34+  Mn116  1  0.41551341  0.33697345  0.74952449  1
  Mn3.34+  Mn117  1  0.41562805  0.82972675  0.08985530  1
  Mn3.34+  Mn118  1  0.41471888  0.82923351  0.41340853  1
  Mn3.34+  Mn119  1  0.41482782  0.83080483  0.74526668  1
  Mn3.34+  Mn120  1  0.75737388  0.33738100  0.08326965  1
  Mn3.34+  Mn121  1  0.75147680  0.33824889  0.41467401  1
  Mn3.34+  Mn122  1  0.75460370  0.34132158  0.75442561  1
  Mn3.34+  Mn123  1  0.74986666  0.83379128  0.08696444  1
  Mn3.34+  Mn124  1  0.75286263  0.83139693  0.40791561  1
  Mn3.34+  Mn125  1  0.75188742  0.82963759  0.74898668  1
  Mn3.34+  Mn126  1  0.24634926  0.33285506  0.24517070  1
  Mn3.34+  Mn127  1  0.25121196  0.33732406  0.58107376  1
  Mn3.34+  Mn128  1  0.23957614  0.33466012  0.91599160  1
  Mn3.34+  Mn129  1  0.24919734  0.82966868  0.25042393  1
  Mn3.34+  Mn130  1  0.25505255  0.82853137  0.57536256  1
  Mn3.34+  Mn131  1  0.25064148  0.82904907  0.91966939  1
  Mn3.34+  Mn132  1  0.58499390  0.33464716  0.24766768  1
  Mn3.34+  Mn133  1  0.58475625  0.33399266  0.58051019  1
  Mn3.34+  Mn134  1  0.58379375  0.33184495  0.91488764  1
  Mn3.34+  Mn135  1  0.58152178  0.83683313  0.25062167  1
  Mn3.34+  Mn136  1  0.58228058  0.82938841  0.57572706  1
  Mn3.34+  Mn137  1  0.58226867  0.82941794  0.92048936  1
  Mn3.34+  Mn138  1  0.91715857  0.33847379  0.24540250  1
  Mn3.34+  Mn139  1  0.91603807  0.33228080  0.58120093  1
  Mn3.34+  Mn140  1  0.92278021  0.33685135  0.91505405  1
  Mn3.34+  Mn141  1  0.91727825  0.83228923  0.25610827  1
  Mn3.34+  Mn142  1  0.91074249  0.82700657  0.57185567  1
  Mn3.34+  Mn143  1  0.92021714  0.83137636  0.91576772  1
  Mn3.34+  Mn144  1  0.93337461  0.65984154  0.91878201  1
  Mn3.34+  Mn145  1  0.58419658  0.66674774  0.57715889  1
  Mn3.34+  Mn146  1  0.08579187  0.17258438  0.08685214  1
  Mn3.34+  Mn147  1  0.41184973  0.66497142  0.75080131  1
  Mn3.34+  Mn148  1  0.91875127  0.66306026  0.57653117  1
  Mn3.34+  Mn149  1  0.08205618  0.16941366  0.75566943  1
  Mn3.34+  Mn150  1  0.91900288  0.16517222  0.57981903  1
  Mn3.34+  Mn151  1  0.92289994  0.66509918  0.91818612  1
  Mn3.34+  Mn152  1  0.58950955  0.16014254  0.24307530  1
  Mn3.34+  Mn153  1  0.41259570  0.17449930  0.41648079  1
  Mn3.34+  Mn154  1  0.08219646  0.16989674  0.41099071  1
  Mn3.34+  Mn155  1  0.58453266  0.16939982  0.91691958  1
  Mn3.34+  Mn156  1  0.57768872  0.16742744  0.24652531  1
  Mn3.34+  Mn157  1  0.92930573  0.15985181  0.57907919  1
  Mn3.34+  Mn158  1  0.08344833  0.66130384  0.75071984  1
  Mn3.34+  Mn159  1  0.41761724  0.17185880  0.75266238  1
  Mn3.34+  Mn160  1  0.41017800  0.16894967  0.07859409  1
  Mn3.34+  Mn161  1  0.92184763  0.66897437  0.24896683  1
  Mn3.34+  Mn162  1  0.41908357  0.66761427  0.08315672  1
  Mn3.34+  Mn163  1  0.24313993  0.16870735  0.91788395  1
  Mn3.34+  Mn164  1  0.41924704  0.16317312  0.08076677  1
  Mn3.34+  Mn165  1  0.76148678  0.65175823  0.74794904  1
  Mn3.34+  Mn166  1  0.75476270  0.66333113  0.41679872  1
  Mn3.34+  Mn167  1  0.75685542  0.16785801  0.08532126  1
  Mn3.34+  Mn168  1  0.25005139  0.66762403  0.58084876  1
  Mn3.34+  Mn169  1  0.75606023  0.16710710  0.40769132  1
  Mn3.34+  Mn170  1  0.25176276  0.66299632  0.91853560  1
  Mn3.34+  Mn171  1  0.91869432  0.16858570  0.25084970  1
  Mn3.34+  Mn172  1  0.41384209  0.66552359  0.42012990  1
  Mn3.34+  Mn173  1  0.24768915  0.16871193  0.24151572  1
  Mn3.34+  Mn174  1  0.40469784  0.16482959  0.75537633  1
  Mn3.34+  Mn175  1  0.74780822  0.16155772  0.08693298  1
  Mn3.34+  Mn176  1  0.75144077  0.65713239  0.74626619  1
  Mn3.34+  Mn177  1  0.58205654  0.66810111  0.24769376  1
  Mn3.34+  Mn178  1  0.24625413  0.17053958  0.58245787  1
  Mn3.34+  Mn179  1  0.58254289  0.66581882  0.91497777  1
  Mn3.34+  Mn180  1  0.23491882  0.50192973  0.92994848  1
  Mn3.34+  Mn181  1  0.75184845  -0.00074119  0.09611192  1
  Mn3.34+  Mn182  1  0.41431704  0.49765876  0.08522983  1
  Mn3.34+  Mn183  1  0.42106669  0.00613906  0.76454518  1
  Mn3.34+  Mn184  1  0.06875275  0.50412989  0.74222715  1
  Mn3.34+  Mn185  1  0.40991396  0.50235604  0.41313316  1
  Mn3.34+  Mn186  1  0.25820537  -0.00431976  0.58290815  1
  Mn3.34+  Mn187  1  0.08505430  0.49912817  0.41093237  1
  Mn3.34+  Mn188  1  0.42508593  -0.00690718  0.41510230  1
  Mn3.34+  Mn189  1  0.24477710  0.00588961  0.93020812  1
  Mn3.34+  Mn190  1  0.91859466  0.50052579  0.24792369  1
  Mn3.34+  Mn191  1  0.57775442  -0.00296362  0.58456221  1
  Mn3.34+  Mn192  1  0.58126406  0.50095542  0.91111682  1
  Mn3.34+  Mn193  1  0.92666645  0.00671811  0.92222578  1
  Mn3.34+  Mn194  1  0.58429430  0.49924081  0.25602572  1
  Mn3.34+  Mn195  1  0.07720609  0.00268053  0.75651197  1
  Mn3.34+  Mn196  1  0.24440312  0.00211061  0.58458165  1
  Mn3.34+  Mn197  1  0.41324073  -0.00236486  0.09410790  1
  Mn3.34+  Mn198  1  0.57076076  0.49551808  0.91299672  1
  Mn3.34+  Mn199  1  0.75609599  0.00355712  0.75008700  1
  Mn3.34+  Mn200  1  0.40250466  0.50476709  0.08187177  1
  Mn3.34+  Mn201  1  0.76263533  0.49986305  0.73772540  1
  Mn3.34+  Mn202  1  0.75477541  0.50263964  0.41486112  1
  Mn3.34+  Mn203  1  0.74760720  -0.00787960  0.37872348  1
  Mn3.34+  Mn204  1  0.92053317  -0.00334279  0.58069961  1
  Mn3.34+  Mn205  1  0.58983463  0.00000938  0.92486764  1
  Mn3.34+  Mn206  1  0.91281184  0.00045587  0.91856347  1
  Mn3.34+  Mn207  1  0.07789830  0.00060816  0.41164352  1
  Mn3.34+  Mn208  1  0.40672737  0.00006365  0.76479258  1
  Mn3.34+  Mn209  1  0.41529496  -0.00195916  0.41958801  1
  Mn3.34+  Mn210  1  0.40969547  0.50032201  0.74977894  1
  Mn3.34+  Mn211  1  0.75469858  0.00077920  0.38572403  1
  Mn3.34+  Mn212  1  0.57617991  0.00669107  0.92531848  1
  Mn3.34+  Mn213  1  0.59548749  0.49979315  0.58876245  1
  Mn3.34+  Mn214  1  0.24843591  0.49699596  0.24705477  1
  Mn3.34+  Mn215  1  0.24723672  0.50219449  0.58498315  1
  O2-  O216  1  -0.00008770  0.17510129  0.01448634  1
  O2-  O217  1  0.00692387  0.15373217  0.32511693  1
  O2-  O218  1  0.00412234  0.16776877  0.66702806  1
  O2-  O219  1  0.00768558  0.68120989  -0.00172515  1
  O2-  O220  1  0.00055502  0.66517085  0.33077738  1
  O2-  O221  1  0.00493978  0.67518377  0.66586026  1
  O2-  O222  1  0.32825737  0.15302449  0.00002050  1
  O2-  O223  1  0.32926059  0.15358804  0.33460023  1
  O2-  O224  1  0.33512571  0.14284950  0.66671009  1
  O2-  O225  1  0.33874402  0.66848782  -0.00067227  1
  O2-  O226  1  0.32749217  0.65480377  0.35164749  1
  O2-  O227  1  0.32825425  0.64696740  0.67270912  1
  O2-  O228  1  0.67486576  0.14055502  -0.00394075  1
  O2-  O229  1  0.66340181  0.14098527  0.33341792  1
  O2-  O230  1  0.67024555  0.17398906  0.66024341  1
  O2-  O231  1  0.67151520  0.64493648  -0.01944705  1
  O2-  O232  1  0.66898503  0.64433316  0.32955253  1
  O2-  O233  1  0.66541373  0.64334389  0.66417573  1
  O2-  O234  1  0.16635478  0.17092098  0.00503432  1
  O2-  O235  1  0.16377708  0.15154974  0.32374431  1
  O2-  O236  1  0.16840789  0.17238902  0.67176155  1
  O2-  O237  1  0.17404536  0.67082351  -0.00378879  1
  O2-  O238  1  0.15673975  0.67631514  0.33461174  1
  O2-  O239  1  0.16367787  0.65902491  0.66286000  1
  O2-  O240  1  0.50685799  0.15281809  0.00340992  1
  O2-  O241  1  0.49334115  0.15775146  0.32969759  1
  O2-  O242  1  0.50572125  0.15824116  0.67762447  1
  O2-  O243  1  0.51005066  0.67552290  0.00498193  1
  O2-  O244  1  0.49837215  0.64742067  0.33411508  1
  O2-  O245  1  0.49807278  0.65205146  0.66330020  1
  O2-  O246  1  0.84487820  0.15369397  0.01284498  1
  O2-  O247  1  0.84633819  0.15305956  0.34022391  1
  O2-  O248  1  0.83693308  0.15104304  0.66019879  1
  O2-  O249  1  0.84201144  0.65803992  0.00100883  1
  O2-  O250  1  0.83401342  0.64405892  0.33629201  1
  O2-  O251  1  0.83796523  0.65045286  0.66591963  1
  O2-  O252  1  -0.00229577  0.31269016  -0.00020307  1
  O2-  O253  1  -0.00034207  0.35342446  0.33388204  1
  O2-  O254  1  0.00249050  0.33314113  0.66427443  1
  O2-  O255  1  0.00296783  0.84897828  0.00173401  1
  O2-  O256  1  0.00929327  0.82500402  0.32574971  1
  O2-  O257  1  -0.00135382  0.83940910  0.66590624  1
  O2-  O258  1  0.32902607  0.34257477  0.00316416  1
  O2-  O259  1  0.33598864  0.34032327  0.33360664  1
  O2-  O260  1  0.33172815  0.35608028  0.66620983  1
  O2-  O261  1  0.32779037  0.84522716  0.00555956  1
  O2-  O262  1  0.33289580  0.84177286  0.33060952  1
  O2-  O263  1  0.32369399  0.85400601  0.66942805  1
  O2-  O264  1  0.66778316  0.34955265  -0.00275048  1
  O2-  O265  1  0.66266394  0.34651455  0.33922244  1
  O2-  O266  1  0.66606069  0.32576628  0.66947689  1
  O2-  O267  1  0.66434198  0.85243969  0.00401452  1
  O2-  O268  1  0.66398279  0.84239021  0.33568572  1
  O2-  O269  1  0.66897891  0.84317282  0.66588121  1
  O2-  O270  1  0.16070035  0.33104847  0.00450599  1
  O2-  O271  1  0.16646510  0.35329512  0.33255696  1
  O2-  O272  1  0.16049076  0.34403073  0.66270176  1
  O2-  O273  1  0.16480077  0.83838838  0.00218949  1
  O2-  O274  1  0.16741985  0.83858377  0.33519384  1
  O2-  O275  1  0.15977020  0.84752446  0.66606077  1
  O2-  O276  1  0.49449926  0.33999094  -0.00246707  1
  O2-  O277  1  0.49887755  0.33249112  0.33506748  1
  O2-  O278  1  0.50061988  0.33898848  0.66398181  1
  O2-  O279  1  0.49337768  0.83523577  -0.00039618  1
  O2-  O280  1  0.50218641  0.83876035  0.33722426  1
  O2-  O281  1  0.50540380  0.84389105  0.66791961  1
  O2-  O282  1  0.83746078  0.32664537  -0.00495111  1
  O2-  O283  1  0.83657787  0.34804406  0.33548498  1
  O2-  O284  1  0.82844488  0.33130161  0.66327330  1
  O2-  O285  1  0.83952227  0.85150239  -0.00189534  1
  O2-  O286  1  0.83622128  0.84343297  0.33406517  1
  O2-  O287  1  0.83556936  0.84995443  0.66476287  1
  O2-  O288  1  0.00071753  0.18680508  0.16688172  1
  O2-  O289  1  -0.00432310  0.18075112  0.49087313  1
  O2-  O290  1  0.00149637  0.19449064  0.82179358  1
  O2-  O291  1  -0.00083082  0.68171433  0.17428588  1
  O2-  O292  1  -0.00358002  0.68233881  0.49994597  1
  O2-  O293  1  0.00360666  0.68600670  0.83324900  1
  O2-  O294  1  0.33705294  0.18873714  0.16637919  1
  O2-  O295  1  0.33497045  0.18285893  0.50122543  1
  O2-  O296  1  0.32443506  0.18281422  0.83127479  1
  O2-  O297  1  0.34455633  0.68468504  0.16259802  1
  O2-  O298  1  0.34416559  0.67739951  0.51172334  1
  O2-  O299  1  0.33262347  0.67515389  0.82937370  1
  O2-  O300  1  0.65496242  0.18115509  0.14936512  1
  O2-  O301  1  0.66927234  0.16867697  0.48761901  1
  O2-  O302  1  0.65781043  0.18009474  0.82997462  1
  O2-  O303  1  0.66619023  0.67371432  0.17192762  1
  O2-  O304  1  0.66063363  0.67870784  0.48928858  1
  O2-  O305  1  0.65925847  0.66862708  0.81566738  1
  O2-  O306  1  0.16813998  0.19013763  0.16437414  1
  O2-  O307  1  0.17116505  0.18022172  0.48515430  1
  O2-  O308  1  0.16756019  0.18693452  0.83140546  1
  O2-  O309  1  0.15376075  0.67565077  0.16010216  1
  O2-  O310  1  0.17755933  0.68240628  0.49914192  1
  O2-  O311  1  0.16984215  0.68287695  0.82489837  1
  O2-  O312  1  0.49884537  0.19185094  0.16077658  1
  O2-  O313  1  0.50060575  0.18404026  0.48932818  1
  O2-  O314  1  0.49498402  0.18590598  0.83499807  1
  O2-  O315  1  0.50350679  0.68403047  0.16764653  1
  O2-  O316  1  0.50516277  0.68107992  0.49541226  1
  O2-  O317  1  0.50221520  0.68190535  0.82563819  1
  O2-  O318  1  0.83166178  0.18656469  0.17198205  1
  O2-  O319  1  0.82216658  0.17458140  0.51030137  1
  O2-  O320  1  0.83117264  0.19842995  0.83218850  1
  O2-  O321  1  0.82787015  0.67769064  0.17885369  1
  O2-  O322  1  0.83519434  0.67896809  0.49398659  1
  O2-  O323  1  0.83819781  0.67596474  0.83357253  1
  O2-  O324  1  0.00191816  0.31583240  0.16701697  1
  O2-  O325  1  0.00456910  0.32100085  0.50376577  1
  O2-  O326  1  -0.00241333  0.31056690  0.83775145  1
  O2-  O327  1  -0.00628543  0.81266433  0.15637495  1
  O2-  O328  1  0.00361786  0.81283387  0.50102383  1
  O2-  O329  1  -0.00925697  0.81596198  0.82319347  1
  O2-  O330  1  0.33139885  0.31284027  0.16471954  1
  O2-  O331  1  0.33336589  0.31923512  0.49686078  1
  O2-  O332  1  0.33167856  0.32860128  0.83182881  1
  O2-  O333  1  0.32409225  0.81919921  0.15999173  1
  O2-  O334  1  0.32956928  0.81395428  0.49105035  1
  O2-  O335  1  0.33210825  0.83207582  0.83275197  1
  O2-  O336  1  0.66721892  0.32811634  0.16232160  1
  O2-  O337  1  0.66917509  0.31837017  0.50384305  1
  O2-  O338  1  0.66773215  0.31797940  0.82964138  1
  O2-  O339  1  0.66425469  0.82516373  0.16391099  1
  O2-  O340  1  0.66657923  0.81930726  0.49850234  1
  O2-  O341  1  0.66311983  0.82986441  0.82824591  1
  O2-  O342  1  0.16006926  0.32121418  0.16343523  1
  O2-  O343  1  0.16683895  0.32305775  0.49953731  1
  O2-  O344  1  0.16442383  0.31744068  0.82804392  1
  O2-  O345  1  0.16507565  0.81323956  0.16350599  1
  O2-  O346  1  0.15819128  0.81629092  0.50441649  1
  O2-  O347  1  0.17173756  0.81811633  0.82781203  1
  O2-  O348  1  0.49667143  0.31200983  0.16788084  1
  O2-  O349  1  0.50149535  0.31055213  0.50057384  1
  O2-  O350  1  0.49958566  0.31458455  0.82958281  1
  O2-  O351  1  0.50263952  0.81299607  0.16307171  1
  O2-  O352  1  0.50077087  0.81723412  0.49724745  1
  O2-  O353  1  0.50298929  0.82305335  0.82788538  1
  O2-  O354  1  0.83701576  0.31892706  0.16277670  1
  O2-  O355  1  0.83487832  0.32339163  0.49938092  1
  O2-  O356  1  0.83487111  0.32620727  0.83761629  1
  O2-  O357  1  0.84084492  0.82507420  0.16010836  1
  O2-  O358  1  0.82325349  0.82211124  0.50176425  1
  O2-  O359  1  0.83558774  0.83917041  0.82848203  1
  O2-  O360  1  0.07992153  0.08461812  0.10731465  1
  O2-  O361  1  0.08945271  0.08218331  0.44021508  1
  O2-  O362  1  0.07835852  0.08545885  0.77419191  1
  O2-  O363  1  0.08381365  0.56141149  0.12099964  1
  O2-  O364  1  0.08613733  0.57380209  0.44427359  1
  O2-  O365  1  0.09517596  0.57872113  0.77579905  1
  O2-  O366  1  0.42342307  0.07964725  0.11954619  1
  O2-  O367  1  0.42991873  0.07899426  0.45912215  1
  O2-  O368  1  0.41483025  0.08469367  0.79516651  1
  O2-  O369  1  0.42636228  0.58156214  0.11639952  1
  O2-  O370  1  0.42784776  0.58094766  0.45056537  1
  O2-  O371  1  0.42670078  0.58165710  0.77681600  1
  O2-  O372  1  0.75032327  0.08211195  0.12381123  1
  O2-  O373  1  0.75461966  0.06659892  0.45411857  1
  O2-  O374  1  0.75159055  0.08509455  0.76921340  1
  O2-  O375  1  0.73196734  0.56811232  0.10419048  1
  O2-  O376  1  0.73289659  0.58061313  0.44837204  1
  O2-  O377  1  0.74918591  0.57060466  0.80092830  1
  O2-  O378  1  0.24811382  0.08725415  0.21541647  1
  O2-  O379  1  0.25471052  0.08052705  0.54263520  1
  O2-  O380  1  0.23902716  0.08413949  0.89051591  1
  O2-  O381  1  0.24917875  0.57439950  0.22040041  1
  O2-  O382  1  0.24727394  0.58170958  0.55068349  1
  O2-  O383  1  0.24595749  0.57972321  0.89399021  1
  O2-  O384  1  0.56808554  0.08365724  0.21108161  1
  O2-  O385  1  0.58687185  0.08139769  0.55791108  1
  O2-  O386  1  0.58634252  0.08157359  0.87407776  1
  O2-  O387  1  0.59195804  0.57989185  0.22181078  1
  O2-  O388  1  0.57385689  0.58165036  0.55143580  1
  O2-  O389  1  0.56655293  0.58149359  0.88074327  1
  O2-  O390  1  0.93084564  0.08769471  0.21332784  1
  O2-  O391  1  0.90971866  0.07919805  0.54290285  1
  O2-  O392  1  0.91288879  0.08646565  0.89904219  1
  O2-  O393  1  0.90551448  0.58227875  0.22500756  1
  O2-  O394  1  0.93467039  0.58566513  0.55297516  1
  O2-  O395  1  0.90750444  0.58045190  0.90265643  1
  O2-  O396  1  0.07443990  0.41690625  0.10226544  1
  O2-  O397  1  0.08195749  0.42311057  0.45769883  1
  O2-  O398  1  0.08363181  0.42295519  0.75876075  1
  O2-  O399  1  0.08954227  0.91280024  0.11706044  1
  O2-  O400  1  0.08493383  0.92002897  0.44121225  1
  O2-  O401  1  0.09322516  0.91980810  0.79448881  1
  O2-  O402  1  0.40848180  0.42127522  0.12451687  1
  O2-  O403  1  0.41738923  0.42257745  0.44820459  1
  O2-  O404  1  0.42873640  0.41999329  0.77934159  1
  O2-  O405  1  0.40206673  0.91752319  0.11050480  1
  O2-  O406  1  0.41349851  0.91251047  0.44121657  1
  O2-  O407  1  0.42394167  0.91873568  0.77827067  1
  O2-  O408  1  0.76305547  0.41585190  0.09060050  1
  O2-  O409  1  0.75264115  0.42225319  0.45003750  1
  O2-  O410  1  0.73601925  0.42858269  0.78706249  1
  O2-  O411  1  0.77471202  0.91857045  0.10681442  1
  O2-  O412  1  0.74300396  0.92168677  0.43985784  1
  O2-  O413  1  0.72971112  0.92435728  0.77729557  1
  O2-  O414  1  0.24996511  0.41730750  0.21146442  1
  O2-  O415  1  0.24921474  0.42230656  0.54897943  1
  O2-  O416  1  0.24286779  0.42160909  0.89198497  1
  O2-  O417  1  0.23296451  0.91681962  0.22901849  1
  O2-  O418  1  0.22861137  0.91720053  0.54524689  1
  O2-  O419  1  0.24959533  0.92459850  0.88797716  1
  O2-  O420  1  0.56244698  0.42039243  0.22093830  1
  O2-  O421  1  0.57551081  0.41932498  0.55367259  1
  O2-  O422  1  0.57326802  0.41516498  0.88066555  1
  O2-  O423  1  0.57804227  0.91584867  0.23350942  1
  O2-  O424  1  0.59677781  0.91462324  0.56401890  1
  O2-  O425  1  0.57413845  0.92306581  0.87975074  1
  O2-  O426  1  0.93141566  0.42110545  0.21222709  1
  O2-  O427  1  0.92513997  0.41377714  0.55827903  1
  O2-  O428  1  0.92447082  0.41225995  0.91613295  1
  O2-  O429  1  0.93983850  0.91342508  0.22759591  1
  O2-  O430  1  0.93189124  0.91199345  0.55114555  1
  O2-  O431  1  0.93760435  0.92441164  0.87616551  1
  O2-  O432  1  -0.01746608  -0.00963439  0.02619678  1
  O2-  O433  1  0.02483104  0.00820987  0.31989387  1
  O2-  O434  1  0.00620879  -0.02921663  0.66704918  1
  O2-  O435  1  -0.00642846  0.51232483  0.01624678  1
  O2-  O436  1  -0.00184754  0.49585377  0.33849114  1
  O2-  O437  1  0.02037087  0.50220947  0.63968475  1
  O2-  O438  1  0.32664586  -0.00543512  0.01632597  1
  O2-  O439  1  0.32596985  0.01883245  0.34912765  1
  O2-  O440  1  0.33842273  0.00595172  0.66968243  1
  O2-  O441  1  0.34445730  0.48578370  -0.01483616  1
  O2-  O442  1  0.33935880  0.48904409  0.32051485  1
  O2-  O443  1  0.34314553  0.50042115  0.65151668  1
  O2-  O444  1  0.65830049  -0.00104339  0.02047843  1
  O2-  O445  1  0.63229679  0.00396855  0.38962010  1
  O2-  O446  1  0.66823467  0.02109931  0.66868175  1
  O2-  O447  1  0.67431125  0.49490366  -0.01802743  1
  O2-  O448  1  0.65122581  0.50115795  0.36099551  1
  O2-  O449  1  0.65643733  0.50854852  0.69680471  1
  O2-  O450  1  0.17123223  -0.01617496  0.01474621  1
  O2-  O451  1  0.18053789  0.00195383  0.36667126  1
  O2-  O452  1  0.18054193  -0.00959089  0.68551187  1
  O2-  O453  1  0.18704335  0.50596559  0.02764870  1
  O2-  O454  1  0.17189704  0.49292001  0.33732374  1
  O2-  O455  1  0.17803397  0.49585439  0.67736098  1
  O2-  O456  1  0.50057088  -0.00575756  0.01326175  1
  O2-  O457  1  0.49386000  0.02830029  0.33568714  1
  O2-  O458  1  0.50664555  0.00707973  0.68496548  1
  O2-  O459  1  0.51200595  0.49927042  0.01614663  1
  O2-  O460  1  0.50386420  0.50557301  0.34560538  1
  O2-  O461  1  0.50447102  0.50616510  0.67603077  1
  O2-  O462  1  0.82305061  0.00398990  -0.00358081  1
  O2-  O463  1  0.86117614  0.00464909  0.35233565  1
  O2-  O464  1  0.83561270  -0.01906965  0.66707101  1
  O2-  O465  1  0.84239417  0.48884886  -0.00906540  1
  O2-  O466  1  0.83490201  0.50143160  0.33418296  1
  O2-  O467  1  0.81781046  0.48965970  0.65093016  1
  O2-  O468  1  0.25288723  0.75077613  0.26481875  1
  O2-  O469  1  0.58993819  0.25074923  0.94490045  1
  O2-  O470  1  0.58780691  0.74712408  0.61077229  1
  O2-  O471  1  0.91335267  0.24791547  0.59949486  1
  O2-  O472  1  0.89918825  0.74725176  0.93204096  1
  O2-  O473  1  0.24610688  0.25076362  0.27902860  1
  O2-  O474  1  0.74804555  0.75535496  0.06726513  1
  O2-  O475  1  0.26205447  0.74932474  0.92625427  1
  O2-  O476  1  0.59253597  0.74751042  0.27509042  1
  O2-  O477  1  0.89950597  0.74972206  0.27275369  1
  O2-  O478  1  0.89728997  0.74978676  0.60478751  1
  O2-  O479  1  0.41829640  0.74680701  0.39073223  1
  O2-  O480  1  0.25971241  0.74982341  0.61337689  1
  O2-  O481  1  0.41054208  0.74758236  0.72255166  1
  O2-  O482  1  0.08197788  0.25324787  0.39048885  1
  O2-  O483  1  0.26213508  0.25112901  0.93694592  1
  O2-  O484  1  0.75486538  0.74299775  0.72786527  1
  O2-  O485  1  0.75139909  0.74608237  0.38928436  1
  O2-  O486  1  0.39871232  0.25214215  0.72017331  1
  O2-  O487  1  0.25604999  0.25511146  0.60772573  1
  O2-  O488  1  0.91510143  0.25297748  0.27646602  1
  O2-  O489  1  0.60527586  0.74615594  0.92693303  1
  O2-  O490  1  0.75268712  0.25389226  0.39406660  1
  O2-  O491  1  0.60490421  0.24494112  0.27510554  1
  O2-  O492  1  0.74028085  0.24842283  0.05684238  1
