# generated using pymatgen
data_Ca108Mn108O277
_symmetry_space_group_name_H-M   'P 1'
_cell_length_a   16.03317675
_cell_length_b   22.31335463
_cell_length_c   16.39363069
_cell_angle_alpha   89.98848453
_cell_angle_beta   90.00359935
_cell_angle_gamma   90.00606295
_symmetry_Int_Tables_number   1
_chemical_formula_structural   Ca108Mn108O277
_chemical_formula_sum   'Ca108 Mn108 O277'
_cell_volume   5864.88611259
_cell_formula_units_Z   1
loop_
 _symmetry_equiv_pos_site_id
 _symmetry_equiv_pos_as_xyz
  1  'x, y, z'
loop_
 _atom_type_symbol
 _atom_type_oxidation_number
  Ca2+  2.0
  Mn3.34+  3.34
  O2-  -2.0
loop_
 _atom_site_type_symbol
 _atom_site_label
 _atom_site_symmetry_multiplicity
 _atom_site_fract_x
 _atom_site_fract_y
 _atom_site_fract_z
 _atom_site_occupancy
  Ca2+  Ca0  1  0.07107685  0.24480425  0.24295342  1
  Ca2+  Ca1  1  0.08626377  0.23801949  0.59273976  1
  Ca2+  Ca2  1  0.08474527  0.24794211  0.89702483  1
  Ca2+  Ca3  1  0.08243488  0.75157050  0.22306666  1
  Ca2+  Ca4  1  0.08945456  0.76942763  0.58946884  1
  Ca2+  Ca5  1  0.06998286  0.74895329  0.93833985  1
  Ca2+  Ca6  1  0.41830383  0.25533150  0.24985450  1
  Ca2+  Ca7  1  0.39943768  0.23373211  0.59023153  1
  Ca2+  Ca8  1  0.41827237  0.22764040  0.92290446  1
  Ca2+  Ca9  1  0.42215076  0.75204698  0.25602711  1
  Ca2+  Ca10  1  0.41569291  0.75419821  0.57250501  1
  Ca2+  Ca11  1  0.40666037  0.76292568  0.91999174  1
  Ca2+  Ca12  1  0.74981782  0.24309917  0.22506663  1
  Ca2+  Ca13  1  0.76484533  0.25598920  0.57966266  1
  Ca2+  Ca14  1  0.75136699  0.23525260  0.94047335  1
  Ca2+  Ca15  1  0.73933472  0.75089043  0.23985616  1
  Ca2+  Ca16  1  0.74227952  0.75646411  0.59510152  1
  Ca2+  Ca17  1  0.76684881  0.75845327  0.91900101  1
  Ca2+  Ca18  1  0.24354610  0.24619012  0.07492580  1
  Ca2+  Ca19  1  0.24935318  0.24502656  0.43163638  1
  Ca2+  Ca20  1  0.23272928  0.23349372  0.73797837  1
  Ca2+  Ca21  1  0.22848525  0.74516235  0.07678293  1
  Ca2+  Ca22  1  0.26380549  0.75288147  0.41996771  1
  Ca2+  Ca23  1  0.25180239  0.76563704  0.75484577  1
  Ca2+  Ca24  1  0.59259302  0.24657670  0.08761681  1
  Ca2+  Ca25  1  0.57741561  0.25208978  0.41731111  1
  Ca2+  Ca26  1  0.56256078  0.25162189  0.74743090  1
  Ca2+  Ca27  1  0.58036378  0.74617276  0.09468758  1
  Ca2+  Ca28  1  0.56689386  0.75177138  0.41636960  1
  Ca2+  Ca29  1  0.59301662  0.75366788  0.74828315  1
  Ca2+  Ca30  1  0.90352829  0.24523638  0.08760307  1
  Ca2+  Ca31  1  0.92110234  0.25077852  0.43230777  1
  Ca2+  Ca32  1  0.94904720  0.24191099  0.73188404  1
  Ca2+  Ca33  1  0.92961530  0.74500142  0.06864195  1
  Ca2+  Ca34  1  0.91583800  0.76511280  0.41856505  1
  Ca2+  Ca35  1  0.90891540  0.74946357  0.77578917  1
  Ca2+  Ca36  1  0.91301088  0.10774816  0.09734478  1
  Ca2+  Ca37  1  0.08881299  0.09278780  0.90777778  1
  Ca2+  Ca38  1  0.09707808  0.09798515  0.90596849  1
  Ca2+  Ca39  1  0.69977191  0.60184396  0.24652875  1
  Ca2+  Ca40  1  0.75967030  0.07813125  0.96580753  1
  Ca2+  Ca41  1  0.26239547  0.09895636  0.07371432  1
  Ca2+  Ca42  1  0.60238655  0.09987327  0.08889317  1
  Ca2+  Ca43  1  0.42180847  0.59147893  0.56806166  1
  Ca2+  Ca44  1  0.42271772  0.58560019  0.93201759  1
  Ca2+  Ca45  1  0.78920355  0.60379006  0.91690990  1
  Ca2+  Ca46  1  0.09407580  0.09223026  0.59310396  1
  Ca2+  Ca47  1  0.92649155  0.10728138  0.43042569  1
  Ca2+  Ca48  1  0.57326571  0.09854958  0.73576749  1
  Ca2+  Ca49  1  0.95339181  0.08696383  0.73867200  1
  Ca2+  Ca50  1  0.06914783  0.56290468  0.58316214  1
  Ca2+  Ca51  1  0.08232684  0.56384856  0.58420590  1
  Ca2+  Ca52  1  0.59202822  0.10026440  0.08793337  1
  Ca2+  Ca53  1  0.24260482  0.58224918  0.74042429  1
  Ca2+  Ca54  1  0.40990440  0.58589200  0.93190468  1
  Ca2+  Ca55  1  0.44224309  0.61078445  0.24933723  1
  Ca2+  Ca56  1  0.75978576  0.09204321  0.59222255  1
  Ca2+  Ca57  1  0.93645262  0.59730373  0.07455819  1
  Ca2+  Ca58  1  0.95792804  0.09316558  0.73555102  1
  Ca2+  Ca59  1  0.80075295  0.60383449  0.91199239  1
  Ca2+  Ca60  1  0.41882991  0.08811077  0.27020762  1
  Ca2+  Ca61  1  0.57014740  0.10285278  0.44549625  1
  Ca2+  Ca62  1  0.26226593  0.58835024  0.40471590  1
  Ca2+  Ca63  1  0.77194545  0.10544627  0.22349009  1
  Ca2+  Ca64  1  0.23440763  0.09095952  0.73236119  1
  Ca2+  Ca65  1  0.57306757  0.59322020  0.40242696  1
  Ca2+  Ca66  1  0.59330736  0.58544806  0.73901690  1
  Ca2+  Ca67  1  0.06412788  0.60063331  0.94570479  1
  Ca2+  Ca68  1  0.56361654  0.10082391  0.73964728  1
  Ca2+  Ca69  1  0.77180001  0.08915414  0.58976189  1
  Ca2+  Ca70  1  0.43019796  0.08817347  0.27059902  1
  Ca2+  Ca71  1  0.10676732  0.59859013  0.21780862  1
  Ca2+  Ca72  1  0.20962141  0.92980068  0.72234299  1
  Ca2+  Ca73  1  0.21918415  0.93216696  0.71954937  1
  Ca2+  Ca74  1  0.09260184  0.89694979  0.24921468  1
  Ca2+  Ca75  1  0.57998179  0.91034702  0.74882718  1
  Ca2+  Ca76  1  0.76183234  0.90792224  0.58758658  1
  Ca2+  Ca77  1  0.42623427  0.39820648  0.91505140  1
  Ca2+  Ca78  1  0.39923267  0.91673099  0.57556629  1
  Ca2+  Ca79  1  0.93473758  0.41866539  0.71303898  1
  Ca2+  Ca80  1  0.75270351  0.40446245  0.90937398  1
  Ca2+  Ca81  1  0.58171174  0.39722302  0.08551056  1
  Ca2+  Ca82  1  0.92790304  0.40756773  0.08417444  1
  Ca2+  Ca83  1  0.25602750  0.40010672  0.41876365  1
  Ca2+  Ca84  1  0.93563388  0.92410993  0.72366037  1
  Ca2+  Ca85  1  0.91839958  0.91457166  0.07934241  1
  Ca2+  Ca86  1  0.24629211  0.39487563  0.09350861  1
  Ca2+  Ca87  1  0.43796578  0.39765748  0.91404272  1
  Ca2+  Ca88  1  0.59553729  0.91171605  0.07953088  1
  Ca2+  Ca89  1  0.56221409  0.91640281  0.40957250  1
  Ca2+  Ca90  1  0.57288213  0.40509549  0.42250607  1
  Ca2+  Ca91  1  0.76888497  0.41570876  0.25741530  1
  Ca2+  Ca92  1  0.08192843  0.40650698  0.25645590  1
  Ca2+  Ca93  1  0.08015350  0.40082686  0.91551877  1
  Ca2+  Ca94  1  0.92647225  0.41354880  0.41807054  1
  Ca2+  Ca95  1  0.74968030  0.90333109  0.24215701  1
  Ca2+  Ca96  1  0.94599804  0.92446709  0.72174684  1
  Ca2+  Ca97  1  0.25795644  0.91196579  0.42135284  1
  Ca2+  Ca98  1  0.76885251  0.40741713  0.57942492  1
  Ca2+  Ca99  1  0.59007296  0.39753883  0.74518642  1
  Ca2+  Ca100  1  0.40799629  0.91098318  0.27063731  1
  Ca2+  Ca101  1  0.59174500  0.91033832  0.74931647  1
  Ca2+  Ca102  1  0.75236427  0.91849834  0.93150082  1
  Ca2+  Ca103  1  0.23610741  0.40217765  0.74205270  1
  Ca2+  Ca104  1  0.74000926  0.40587469  0.91088938  1
  Ca2+  Ca105  1  0.40906669  0.90864916  0.91561034  1
  Ca2+  Ca106  1  0.76269920  0.90415164  0.24357325  1
  Ca2+  Ca107  1  0.75902189  0.41200288  0.25899880  1
  Mn3.34+  Mn108  1  0.08133877  0.32810401  0.08187609  1
  Mn3.34+  Mn109  1  0.08610603  0.33639035  0.42145569  1
  Mn3.34+  Mn110  1  0.08394546  0.33228164  0.74521479  1
  Mn3.34+  Mn111  1  0.08413982  0.83997580  0.07986630  1
  Mn3.34+  Mn112  1  0.08676457  0.82617717  0.41597736  1
  Mn3.34+  Mn113  1  0.08183946  0.83316632  0.75386231  1
  Mn3.34+  Mn114  1  0.41654507  0.32754578  0.08886231  1
  Mn3.34+  Mn115  1  0.41570257  0.33436865  0.42422502  1
  Mn3.34+  Mn116  1  0.41077505  0.32969948  0.74356597  1
  Mn3.34+  Mn117  1  0.41255980  0.83277020  0.08768239  1
  Mn3.34+  Mn118  1  0.41382730  0.83654289  0.41904076  1
  Mn3.34+  Mn119  1  0.41354565  0.83953233  0.74901872  1
  Mn3.34+  Mn120  1  0.75125728  0.33310554  0.08737030  1
  Mn3.34+  Mn121  1  0.74789711  0.33710144  0.41944883  1
  Mn3.34+  Mn122  1  0.75404080  0.32596755  0.74850764  1
  Mn3.34+  Mn123  1  0.75173202  0.83343446  0.07960378  1
  Mn3.34+  Mn124  1  0.74746113  0.82754613  0.42119999  1
  Mn3.34+  Mn125  1  0.75263397  0.83656067  0.75636081  1
  Mn3.34+  Mn126  1  0.25049157  0.33263873  0.25257084  1
  Mn3.34+  Mn127  1  0.24918120  0.33096207  0.58247546  1
  Mn3.34+  Mn128  1  0.24871034  0.33081910  0.91449242  1
  Mn3.34+  Mn129  1  0.25061984  0.83074134  0.24494826  1
  Mn3.34+  Mn130  1  0.24853724  0.83618667  0.58122974  1
  Mn3.34+  Mn131  1  0.24387260  0.84201512  0.91851524  1
  Mn3.34+  Mn132  1  0.58052892  0.33299628  0.25265375  1
  Mn3.34+  Mn133  1  0.58103661  0.33144549  0.58094873  1
  Mn3.34+  Mn134  1  0.58630106  0.32661689  0.91394436  1
  Mn3.34+  Mn135  1  0.58077927  0.83379147  0.24650973  1
  Mn3.34+  Mn136  1  0.58044185  0.83454275  0.57799451  1
  Mn3.34+  Mn137  1  0.58105687  0.83516940  0.91976214  1
  Mn3.34+  Mn138  1  0.92007144  0.33626715  0.24872015  1
  Mn3.34+  Mn139  1  0.92384182  0.33291127  0.57923926  1
  Mn3.34+  Mn140  1  0.91682167  0.32941056  0.91299235  1
  Mn3.34+  Mn141  1  0.91975154  0.83053914  0.24955744  1
  Mn3.34+  Mn142  1  0.91894105  0.83421554  0.58040755  1
  Mn3.34+  Mn143  1  0.92109665  0.84080203  0.91496695  1
  Mn3.34+  Mn144  1  0.58021894  0.66055982  0.92056822  1
  Mn3.34+  Mn145  1  0.74937517  0.67094338  0.08975878  1
  Mn3.34+  Mn146  1  0.74067766  0.16902179  0.41195355  1
  Mn3.34+  Mn147  1  0.75620693  0.17972389  0.75479825  1
  Mn3.34+  Mn148  1  0.41258820  0.15964826  0.42992968  1
  Mn3.34+  Mn149  1  0.07841394  0.66634884  0.41776171  1
  Mn3.34+  Mn150  1  0.74821044  0.66892400  0.74741196  1
  Mn3.34+  Mn151  1  0.90768460  0.65834622  0.58336060  1
  Mn3.34+  Mn152  1  0.24597382  0.66710630  0.58138498  1
  Mn3.34+  Mn153  1  0.07829489  0.66034009  0.75779456  1
  Mn3.34+  Mn154  1  0.07989082  0.16594242  0.08317604  1
  Mn3.34+  Mn155  1  0.41781587  0.66900473  0.41673912  1
  Mn3.34+  Mn156  1  0.58231548  0.16589406  0.91702265  1
  Mn3.34+  Mn157  1  0.40620142  0.16603933  0.74978293  1
  Mn3.34+  Mn158  1  0.91726117  0.66411872  0.58474729  1
  Mn3.34+  Mn159  1  0.09046196  0.66556743  0.75528862  1
  Mn3.34+  Mn160  1  0.25643712  0.66482076  0.24419691  1
  Mn3.34+  Mn161  1  0.23746698  0.16207306  0.25191761  1
  Mn3.34+  Mn162  1  0.58311472  0.66654585  0.58237923  1
  Mn3.34+  Mn163  1  0.74670081  0.17402631  0.75641364  1
  Mn3.34+  Mn164  1  0.07882937  0.16606727  0.42120528  1
  Mn3.34+  Mn165  1  0.91853520  0.65081455  0.25153468  1
  Mn3.34+  Mn166  1  0.08665008  0.67255760  0.41612867  1
  Mn3.34+  Mn167  1  0.25136054  0.67217815  0.91871846  1
  Mn3.34+  Mn168  1  0.58103759  0.17269418  0.25137384  1
  Mn3.34+  Mn169  1  0.24752423  0.16702725  0.25384045  1
  Mn3.34+  Mn170  1  0.40601765  0.66604231  0.74930444  1
  Mn3.34+  Mn171  1  0.74243392  0.67367313  0.41894673  1
  Mn3.34+  Mn172  1  0.75121252  0.17383484  0.41143735  1
  Mn3.34+  Mn173  1  0.75370218  0.66728666  0.41866161  1
  Mn3.34+  Mn174  1  0.59095654  0.66523657  0.92236912  1
  Mn3.34+  Mn175  1  0.41940561  0.67176622  0.74540055  1
  Mn3.34+  Mn176  1  0.25372818  0.16707721  0.91518978  1
  Mn3.34+  Mn177  1  0.91677775  0.16634195  0.91755123  1
  Mn3.34+  Mn178  1  0.41488619  0.67405287  0.09209143  1
  Mn3.34+  Mn179  1  0.90464002  0.65676822  0.25132826  1
  Mn3.34+  Mn180  1  0.08579410  0.00423275  0.08125526  1
  Mn3.34+  Mn181  1  0.92612052  0.49440718  0.90935553  1
  Mn3.34+  Mn182  1  0.58961803  0.50213258  0.57529196  1
  Mn3.34+  Mn183  1  0.58548704  -0.00157900  0.58485530  1
  Mn3.34+  Mn184  1  0.91829564  0.00053794  0.92453208  1
  Mn3.34+  Mn185  1  0.07860887  0.49371140  0.08367588  1
  Mn3.34+  Mn186  1  0.41302310  0.50420350  0.09801838  1
  Mn3.34+  Mn187  1  0.73491415  0.50942876  0.07565031  1
  Mn3.34+  Mn188  1  0.57371125  0.49476013  0.25528158  1
  Mn3.34+  Mn189  1  0.07773112  -0.00660590  0.42400281  1
  Mn3.34+  Mn190  1  0.24460057  0.00032249  0.91613065  1
  Mn3.34+  Mn191  1  0.42427142  0.49925911  0.09513334  1
  Mn3.34+  Mn192  1  0.75971463  0.50353424  0.73568369  1
  Mn3.34+  Mn193  1  0.24958501  0.49572836  0.57888205  1
  Mn3.34+  Mn194  1  0.75373915  0.50174000  0.40697196  1
  Mn3.34+  Mn195  1  0.25859834  0.49901164  0.25581624  1
  Mn3.34+  Mn196  1  0.25107853  0.49788716  0.92111736  1
  Mn3.34+  Mn197  1  0.76211633  0.00193113  0.42373013  1
  Mn3.34+  Mn198  1  0.24343754  -0.00045808  0.25260945  1
  Mn3.34+  Mn199  1  0.07919449  0.50078903  0.75622427  1
  Mn3.34+  Mn200  1  0.41815137  0.49635786  0.40934863  1
  Mn3.34+  Mn201  1  0.58161019  0.00561303  0.91915387  1
  Mn3.34+  Mn202  1  0.77269528  -0.00445207  0.42084268  1
  Mn3.34+  Mn203  1  0.08870079  0.00078150  0.42482537  1
  Mn3.34+  Mn204  1  0.92225832  0.00045913  0.25328437  1
  Mn3.34+  Mn205  1  0.40237603  -0.00397205  0.08592103  1
  Mn3.34+  Mn206  1  0.59080188  0.00288779  0.25875907  1
  Mn3.34+  Mn207  1  0.23814126  0.50478514  0.91957312  1
  Mn3.34+  Mn208  1  0.41054841  0.50163613  0.74080190  1
  Mn3.34+  Mn209  1  0.42463023  0.49604388  0.73759446  1
  Mn3.34+  Mn210  1  0.74716490  0.00239361  0.75946199  1
  Mn3.34+  Mn211  1  0.41625886  0.00250244  0.74683235  1
  Mn3.34+  Mn212  1  0.41312568  -0.00889170  0.08456675  1
  Mn3.34+  Mn213  1  0.74954681  0.50393684  0.07664863  1
  Mn3.34+  Mn214  1  0.07517648  0.50159983  0.39210254  1
  Mn3.34+  Mn215  1  0.77007021  0.50914740  0.73250317  1
  O2-  O216  1  0.00278748  0.14402173  -0.00596296  1
  O2-  O217  1  0.00699547  0.19783506  0.34605420  1
  O2-  O218  1  0.00609554  0.15591332  0.66132276  1
  O2-  O219  1  -0.00358179  0.67052091  0.00494443  1
  O2-  O220  1  -0.00458090  0.68077955  0.33210316  1
  O2-  O221  1  0.00480101  0.64460085  0.66412591  1
  O2-  O222  1  0.32878000  0.17101051  0.00223208  1
  O2-  O223  1  0.33584603  0.15975830  0.33367870  1
  O2-  O224  1  0.32874695  0.15791242  0.67570060  1
  O2-  O225  1  0.33595482  0.65341623  -0.00067422  1
  O2-  O226  1  0.33936480  0.66167629  0.32939995  1
  O2-  O227  1  0.32944266  0.64143815  0.66566377  1
  O2-  O228  1  0.66799286  0.15222239  -0.00962566  1
  O2-  O229  1  0.66286873  0.14219771  0.33382208  1
  O2-  O230  1  0.66992481  0.17073979  0.66829295  1
  O2-  O231  1  0.68096247  0.63860264  -0.00523509  1
  O2-  O232  1  0.66639988  0.67897133  0.33492092  1
  O2-  O233  1  0.66014185  0.65842402  0.67109128  1
  O2-  O234  1  0.16949080  0.15066574  -0.00079597  1
  O2-  O235  1  0.16072847  0.15938218  0.33341625  1
  O2-  O236  1  0.16475744  0.16090344  0.66224629  1
  O2-  O237  1  0.16433893  0.66518471  -0.01686554  1
  O2-  O238  1  0.17460181  0.66189504  0.33709841  1
  O2-  O239  1  0.15459622  0.63930794  0.66515650  1
  O2-  O240  1  0.51102086  0.15648056  0.00269380  1
  O2-  O241  1  0.49448873  0.17038691  0.33339356  1
  O2-  O242  1  0.49799029  0.16878401  0.67411255  1
  O2-  O243  1  0.50078504  0.64917726  0.00592438  1
  O2-  O244  1  0.50376497  0.67053284  0.34350115  1
  O2-  O245  1  0.49416986  0.64090087  0.67041616  1
  O2-  O246  1  0.83840295  0.15735631  -0.00303391  1
  O2-  O247  1  0.83434854  0.15589257  0.33916735  1
  O2-  O248  1  0.83465122  0.15500062  0.67343528  1
  O2-  O249  1  0.83753208  0.65739160  0.01635551  1
  O2-  O250  1  0.83148396  0.68538069  0.33282271  1
  O2-  O251  1  0.82989623  0.64926569  0.66699049  1
  O2-  O252  1  -0.00184211  0.34845790  -0.00291628  1
  O2-  O253  1  0.00275921  0.33106164  0.33015577  1
  O2-  O254  1  -0.00148414  0.33786730  0.66862756  1
  O2-  O255  1  -0.00274011  0.85100014  0.00177723  1
  O2-  O256  1  0.00452716  0.81512980  0.32875608  1
  O2-  O257  1  0.00167209  0.83992569  0.66448725  1
  O2-  O258  1  0.33727140  0.34413643  -0.00134453  1
  O2-  O259  1  0.33462897  0.32911307  0.33873955  1
  O2-  O260  1  0.32913011  0.34847927  0.67037114  1
  O2-  O261  1  0.33506288  0.84985782  -0.00118082  1
  O2-  O262  1  0.32732331  0.83755023  0.33809052  1
  O2-  O263  1  0.32552524  0.85879423  0.67481885  1
  O2-  O264  1  0.66941406  0.34889528  -0.00115671  1
  O2-  O265  1  0.66719635  0.35989948  0.33454727  1
  O2-  O266  1  0.66901165  0.31434107  0.66657985  1
  O2-  O267  1  0.66972186  0.85000753  -0.00293319  1
  O2-  O268  1  0.66792960  0.82624585  0.32891866  1
  O2-  O269  1  0.66719092  0.84899362  0.66476475  1
  O2-  O270  1  0.16787986  0.34992729  -0.00045497  1
  O2-  O271  1  0.16593624  0.34652576  0.33447376  1
  O2-  O272  1  0.16453642  0.34368835  0.66408067  1
  O2-  O273  1  0.16326701  0.83736757  -0.00196668  1
  O2-  O274  1  0.16663984  0.80740766  0.32823053  1
  O2-  O275  1  0.16577436  0.84274509  0.66582667  1
  O2-  O276  1  0.50104272  0.33762124  0.00158973  1
  O2-  O277  1  0.50213670  0.32804183  0.34059001  1
  O2-  O278  1  0.50700307  0.33402042  0.67376719  1
  O2-  O279  1  0.49883936  0.85471195  0.00249109  1
  O2-  O280  1  0.49968452  0.83898528  0.33269180  1
  O2-  O281  1  0.49734772  0.85788120  0.66247141  1
  O2-  O282  1  0.83201421  0.35375361  0.00348964  1
  O2-  O283  1  0.83714913  0.34861599  0.33699661  1
  O2-  O284  1  0.83399421  0.34266400  0.66844075  1
  O2-  O285  1  0.83542035  0.85141588  0.00026047  1
  O2-  O286  1  0.82924252  0.82439523  0.33088381  1
  O2-  O287  1  0.83668426  0.84784618  0.67814012  1
  O2-  O288  1  -0.00115952  0.18379136  0.15260768  1
  O2-  O289  1  0.00038212  0.17855410  0.49616501  1
  O2-  O290  1  -0.00243194  0.16775884  0.83542431  1
  O2-  O291  1  -0.00250369  0.67370341  0.17589194  1
  O2-  O292  1  -0.00452408  0.68964803  0.49995343  1
  O2-  O293  1  0.01057666  0.68313850  0.83942663  1
  O2-  O294  1  0.33179049  0.17636108  0.17880006  1
  O2-  O295  1  0.33380796  0.17868304  0.49310754  1
  O2-  O296  1  0.32980556  0.18160897  0.83431050  1
  O2-  O297  1  0.33305183  0.69241744  0.16719243  1
  O2-  O298  1  0.33037561  0.67202603  0.49691712  1
  O2-  O299  1  0.34627459  0.68204172  0.84257345  1
  O2-  O300  1  0.66009883  0.17129250  0.16918506  1
  O2-  O301  1  0.66471342  0.18442085  0.49345711  1
  O2-  O302  1  0.66232766  0.19393291  0.82945668  1
  O2-  O303  1  0.66852788  0.68412613  0.16630800  1
  O2-  O304  1  0.66894737  0.69199777  0.49984920  1
  O2-  O305  1  0.66139467  0.67960559  0.83250800  1
  O2-  O306  1  0.16986041  0.18002417  0.15902131  1
  O2-  O307  1  0.15483548  0.18695072  0.49086131  1
  O2-  O308  1  0.16420439  0.17144267  0.84159569  1
  O2-  O309  1  0.17162922  0.68324333  0.17787269  1
  O2-  O310  1  0.16034114  0.69218725  0.50411857  1
  O2-  O311  1  0.18982775  0.67710382  0.81618589  1
  O2-  O312  1  0.50355257  0.18378635  0.17270320  1
  O2-  O313  1  0.49570319  0.18376159  0.49144053  1
  O2-  O314  1  0.50378694  0.17607862  0.83002492  1
  O2-  O315  1  0.49173875  0.68720685  0.17075978  1
  O2-  O316  1  0.49400416  0.67956571  0.50517124  1
  O2-  O317  1  0.50106759  0.68659910  0.83059503  1
  O2-  O318  1  0.83823127  0.17980862  0.16713403  1
  O2-  O319  1  0.82524392  0.17816259  0.50122569  1
  O2-  O320  1  0.83415405  0.18891722  0.83665277  1
  O2-  O321  1  0.83662097  0.69314703  0.16947226  1
  O2-  O322  1  0.83536875  0.68732388  0.49404664  1
  O2-  O323  1  0.82258897  0.68018537  0.83622015  1
  O2-  O324  1  -0.00596653  0.31420818  0.16345054  1
  O2-  O325  1  0.00098489  0.31838584  0.49470119  1
  O2-  O326  1  0.00003502  0.32271368  0.83347837  1
  O2-  O327  1  -0.00228948  0.82641074  0.16660814  1
  O2-  O328  1  0.00221518  0.81520235  0.49888031  1
  O2-  O329  1  -0.00733871  0.82554900  0.82431715  1
  O2-  O330  1  0.32790819  0.31209824  0.16015120  1
  O2-  O331  1  0.33279875  0.31509645  0.49883711  1
  O2-  O332  1  0.34167584  0.33133490  0.84139955  1
  O2-  O333  1  0.33628989  0.81241710  0.17264390  1
  O2-  O334  1  0.33710261  0.82455666  0.50584652  1
  O2-  O335  1  0.34039087  0.82642521  0.83513258  1
  O2-  O336  1  0.66885162  0.32816167  0.16939671  1
  O2-  O337  1  0.66534778  0.31558568  0.49867297  1
  O2-  O338  1  0.66516165  0.32135118  0.82834613  1
  O2-  O339  1  0.66562981  0.81995641  0.16483934  1
  O2-  O340  1  0.66244311  0.81185864  0.49851465  1
  O2-  O341  1  0.65930475  0.82476751  0.82751480  1
  O2-  O342  1  0.16393198  0.31970520  0.16467988  1
  O2-  O343  1  0.17114323  0.31833011  0.49394237  1
  O2-  O344  1  0.16746203  0.32872040  0.83262894  1
  O2-  O345  1  0.16493960  0.82453778  0.16738582  1
  O2-  O346  1  0.17512628  0.81467050  0.49337508  1
  O2-  O347  1  0.16964464  0.82660140  0.82676560  1
  O2-  O348  1  0.50517647  0.31108684  0.16200130  1
  O2-  O349  1  0.50010195  0.31142491  0.50166976  1
  O2-  O350  1  0.49593697  0.31755303  0.83981534  1
  O2-  O351  1  0.50210043  0.81518980  0.16800700  1
  O2-  O352  1  0.49819361  0.82330855  0.49699906  1
  O2-  O353  1  0.50302577  0.82234249  0.82603659  1
  O2-  O354  1  0.83084415  0.31901707  0.17371708  1
  O2-  O355  1  0.83025956  0.32270608  0.49839413  1
  O2-  O356  1  0.82013961  0.31630214  0.84571074  1
  O2-  O357  1  0.82774774  0.82040093  0.17122416  1
  O2-  O358  1  0.82670744  0.81444447  0.50840224  1
  O2-  O359  1  0.82795021  0.82641645  0.83946248  1
  O2-  O360  1  0.08436571  0.08189682  0.11501518  1
  O2-  O361  1  0.06613851  0.08026504  0.45121972  1
  O2-  O362  1  0.07794667  0.06331612  0.78721160  1
  O2-  O363  1  0.07263063  0.57355401  0.09394163  1
  O2-  O364  1  0.08213287  0.57654301  0.44727021  1
  O2-  O365  1  0.09508198  0.57944355  0.80157406  1
  O2-  O366  1  0.41589159  0.07244531  0.13370203  1
  O2-  O367  1  0.43119530  0.08155959  0.41660964  1
  O2-  O368  1  0.42756654  0.08269754  0.77147134  1
  O2-  O369  1  0.41921303  0.58628805  0.11411368  1
  O2-  O370  1  0.41648930  0.58136571  0.43095414  1
  O2-  O371  1  0.41942378  0.57837390  0.79464068  1
  O2-  O372  1  0.72087003  0.06797385  0.10740145  1
  O2-  O373  1  0.74327468  0.08479419  0.45136997  1
  O2-  O374  1  0.72402695  0.08510126  0.76906910  1
  O2-  O375  1  0.75277622  0.58546163  0.12446428  1
  O2-  O376  1  0.72600590  0.58201131  0.42354083  1
  O2-  O377  1  0.73676338  0.58075755  0.79137343  1
  O2-  O378  1  0.24997819  0.08061919  0.21681702  1
  O2-  O379  1  0.23222962  0.07192774  0.58901571  1
  O2-  O380  1  0.24406340  0.08092806  0.88426387  1
  O2-  O381  1  0.25588638  0.57893768  0.22240188  1
  O2-  O382  1  0.22249068  0.57720069  0.54336465  1
  O2-  O383  1  0.27406156  0.58062963  0.88054417  1
  O2-  O384  1  0.56355259  0.08274122  0.22615493  1
  O2-  O385  1  0.62060438  0.07789891  0.57112906  1
  O2-  O386  1  0.59091567  0.08317361  0.87603911  1
  O2-  O387  1  0.57044374  0.57445503  0.23691896  1
  O2-  O388  1  0.57548753  0.58197773  0.54103916  1
  O2-  O389  1  0.55812953  0.58161504  0.88287688  1
  O2-  O390  1  0.90920587  0.07407643  0.22311135  1
  O2-  O391  1  0.87112234  0.05203235  0.52548553  1
  O2-  O392  1  0.90305217  0.07713478  0.87692344  1
  O2-  O393  1  0.91084671  0.57425948  0.21167698  1
  O2-  O394  1  0.93494331  0.58207832  0.54634002  1
  O2-  O395  1  0.92878655  0.57654643  0.89564022  1
  O2-  O396  1  0.07866072  0.41437665  0.11857810  1
  O2-  O397  1  0.08471169  0.42840767  0.43590742  1
  O2-  O398  1  0.08023475  0.41922135  0.77718513  1
  O2-  O399  1  0.07218224  0.92603931  0.11862530  1
  O2-  O400  1  0.10406406  0.91274247  0.42224472  1
  O2-  O401  1  0.08063909  0.91608275  0.76163811  1
  O2-  O402  1  0.42288738  0.41684355  0.10237561  1
  O2-  O403  1  0.42414150  0.41865801  0.44414147  1
  O2-  O404  1  0.42986547  0.41726351  0.77709326  1
  O2-  O405  1  0.42310136  0.91491349  0.13296994  1
  O2-  O406  1  0.41085006  0.91871980  0.43233077  1
  O2-  O407  1  0.43850717  0.92365995  0.78128544  1
  O2-  O408  1  0.74702038  0.42395909  0.12047174  1
  O2-  O409  1  0.74251964  0.42375102  0.44851879  1
  O2-  O410  1  0.73381618  0.42358498  0.77758327  1
  O2-  O411  1  0.74915331  0.91599856  0.11073096  1
  O2-  O412  1  0.74472526  0.91497122  0.44705199  1
  O2-  O413  1  0.73557640  0.92121768  0.78647895  1
  O2-  O414  1  0.24407138  0.41801929  0.22637522  1
  O2-  O415  1  0.25176662  0.41627345  0.55492148  1
  O2-  O416  1  0.25548070  0.41986119  0.88559878  1
  O2-  O417  1  0.23792405  0.91787262  0.24635124  1
  O2-  O418  1  0.25263133  0.91777251  0.55957263  1
  O2-  O419  1  0.25955371  0.92650047  0.86530014  1
  O2-  O420  1  0.57782850  0.41668019  0.21877101  1
  O2-  O421  1  0.60158892  0.41959325  0.56344836  1
  O2-  O422  1  0.57552847  0.41072224  0.88611636  1
  O2-  O423  1  0.61232038  0.92309364  0.22529389  1
  O2-  O424  1  0.57870897  0.91956802  0.54557379  1
  O2-  O425  1  0.58003193  0.92590023  0.88400115  1
  O2-  O426  1  0.90233270  0.41792922  0.21619846  1
  O2-  O427  1  0.91329812  0.41283037  0.55504368  1
  O2-  O428  1  0.89150060  0.41714659  0.87604798  1
  O2-  O429  1  0.90183212  0.92044371  0.22284542  1
  O2-  O430  1  0.90573630  0.91425837  0.57836539  1
  O2-  O431  1  0.91078011  0.92831139  0.86803674  1
  O2-  O432  1  -0.01026102  0.00785250  0.01176756  1
  O2-  O433  1  -0.00106843  -0.00055893  0.33821614  1
  O2-  O434  1  -0.01103859  0.00693015  0.67797484  1
  O2-  O435  1  -0.00835136  0.48526248  0.00467829  1
  O2-  O436  1  -0.00077594  0.48636822  0.32469010  1
  O2-  O437  1  0.00539779  0.50569275  0.66984341  1
  O2-  O438  1  0.33291512  -0.00037337  -0.00740516  1
  O2-  O439  1  0.35440000  0.00200974  0.27406469  1
  O2-  O440  1  0.32298931  -0.00958429  0.69022927  1
  O2-  O441  1  0.32036826  0.51133395  0.01763251  1
  O2-  O442  1  0.31174931  0.49525614  0.36410889  1
  O2-  O443  1  0.33592936  0.51630397  0.65617319  1
  O2-  O444  1  0.66661230  -0.00159435  -0.01836887  1
  O2-  O445  1  0.65612074  -0.00118225  0.36002181  1
  O2-  O446  1  0.67428568  -0.01749474  0.66263124  1
  O2-  O447  1  0.67097565  0.48211384  -0.01382813  1
  O2-  O448  1  0.68541296  0.49515558  0.30296367  1
  O2-  O449  1  0.66050844  0.50729637  0.67234088  1
  O2-  O450  1  0.15746409  0.01899372  -0.01078533  1
  O2-  O451  1  0.17709707  0.00029569  0.34697718  1
  O2-  O452  1  0.16380588  0.01383106  0.66816022  1
  O2-  O453  1  0.15395140  0.48984260  -0.00607580  1
  O2-  O454  1  0.15727875  0.51431420  0.31842781  1
  O2-  O455  1  0.17165926  0.50745356  0.67246772  1
  O2-  O456  1  0.51035552  -0.00101680  0.01668710  1
  O2-  O457  1  0.49996257  -0.00857326  0.31309371  1
  O2-  O458  1  0.52437619  0.00426242  0.69635734  1
  O2-  O459  1  0.46964867  0.49641935  -0.02091591  1
  O2-  O460  1  0.52589577  0.49869642  0.36454833  1
  O2-  O461  1  0.50114612  0.51368599  0.65625885  1
  O2-  O462  1  0.83398697  -0.00832652  -0.01004947  1
  O2-  O463  1  0.81293825  -0.00459956  0.30846219  1
  O2-  O464  1  0.83556382  0.01064836  0.69144401  1
  O2-  O465  1  0.82905040  0.51098104  -0.01354565  1
  O2-  O466  1  0.83797832  0.47995191  0.34415007  1
  O2-  O467  1  0.83735056  0.48090221  0.65166190  1
  O2-  O468  1  0.40765973  0.25007363  0.73451876  1
  O2-  O469  1  0.25896099  0.74922234  0.61463612  1
  O2-  O470  1  0.74594176  0.25507613  0.37799167  1
  O2-  O471  1  0.08616278  0.74746928  0.72491873  1
  O2-  O472  1  0.42399810  0.75190604  0.05269898  1
  O2-  O473  1  0.23901368  0.25114362  0.93484750  1
  O2-  O474  1  0.23906041  0.24927077  0.27580570  1
  O2-  O475  1  0.91019155  0.74358001  0.61739312  1
  O2-  O476  1  0.25053614  0.25311465  0.60261805  1
  O2-  O477  1  0.91627475  0.76124978  0.93049482  1
  O2-  O478  1  0.74460513  0.25524097  0.07098388  1
  O2-  O479  1  0.58738563  0.24762743  0.94659902  1
  O2-  O480  1  0.58376529  0.74665278  0.94899035  1
  O2-  O481  1  0.25839020  0.75397926  0.93333997  1
  O2-  O482  1  0.09083131  0.24834485  0.04746248  1
  O2-  O483  1  0.41138018  0.75182519  0.40381879  1
  O2-  O484  1  0.08843253  0.25326464  0.73785716  1
  O2-  O485  1  0.92484657  0.24880453  0.94562488  1
  O2-  O486  1  0.74303855  0.75068412  0.05286317  1
  O2-  O487  1  0.41007087  0.75518950  0.71569773  1
  O2-  O488  1  0.07890510  0.75877871  0.07408558  1
  O2-  O489  1  0.60607382  0.25129223  0.27655029  1
  O2-  O490  1  0.74715438  0.75449347  0.73125283  1
  O2-  O491  1  0.91195823  0.25424036  0.59762131  1
  O2-  O492  1  0.57065567  0.75198115  0.61253545  1
