# generated using pymatgen
data_Ca108Mn108O277
_symmetry_space_group_name_H-M   'P 1'
_cell_length_a   16.02638177
_cell_length_b   22.30577788
_cell_length_c   16.38776828
_cell_angle_alpha   90.00183767
_cell_angle_beta   90.00046299
_cell_angle_gamma   89.99978020
_symmetry_Int_Tables_number   1
_chemical_formula_structural   Ca108Mn108O277
_chemical_formula_sum   'Ca108 Mn108 O277'
_cell_volume   5858.31434670
_cell_formula_units_Z   1
loop_
 _symmetry_equiv_pos_site_id
 _symmetry_equiv_pos_as_xyz
  1  'x, y, z'
loop_
 _atom_type_symbol
 _atom_type_oxidation_number
  Ca2+  2.0
  Mn3.34+  3.34
  O2-  -2.0
loop_
 _atom_site_type_symbol
 _atom_site_label
 _atom_site_symmetry_multiplicity
 _atom_site_fract_x
 _atom_site_fract_y
 _atom_site_fract_z
 _atom_site_occupancy
  Ca2+  Ca0  1  0.09368516  0.24953796  0.25858553  1
  Ca2+  Ca1  1  0.10660215  0.24569903  0.59833724  1
  Ca2+  Ca2  1  0.10831660  0.25127790  0.89462139  1
  Ca2+  Ca3  1  0.09119829  0.75115309  0.24262641  1
  Ca2+  Ca4  1  0.10975801  0.73991533  0.58735225  1
  Ca2+  Ca5  1  0.08800083  0.74209538  0.92519612  1
  Ca2+  Ca6  1  0.41598830  0.25283613  0.24985237  1
  Ca2+  Ca7  1  0.39842342  0.24032207  0.58995429  1
  Ca2+  Ca8  1  0.39648901  0.25780794  0.90230302  1
  Ca2+  Ca9  1  0.40661339  0.74403789  0.26638401  1
  Ca2+  Ca10  1  0.40507170  0.75650300  0.57726739  1
  Ca2+  Ca11  1  0.43113494  0.74405810  0.91045814  1
  Ca2+  Ca12  1  0.74203562  0.25825919  0.25330434  1
  Ca2+  Ca13  1  0.74640167  0.25187422  0.57540695  1
  Ca2+  Ca14  1  0.74761014  0.27004474  0.91918408  1
  Ca2+  Ca15  1  0.75086618  0.75140144  0.24614643  1
  Ca2+  Ca16  1  0.73901002  0.75084129  0.56668395  1
  Ca2+  Ca17  1  0.72433494  0.73416162  0.93183692  1
  Ca2+  Ca18  1  0.25245892  0.24758978  0.06101422  1
  Ca2+  Ca19  1  0.24002420  0.24210884  0.44005117  1
  Ca2+  Ca20  1  0.24454158  0.23937930  0.74934845  1
  Ca2+  Ca21  1  0.24142084  0.74940940  0.09400960  1
  Ca2+  Ca22  1  0.26731173  0.73937254  0.41873171  1
  Ca2+  Ca23  1  0.25519737  0.74577829  0.73969702  1
  Ca2+  Ca24  1  0.58925940  0.26073144  0.08188439  1
  Ca2+  Ca25  1  0.59073227  0.25094557  0.42623601  1
  Ca2+  Ca26  1  0.57080556  0.25649599  0.74202602  1
  Ca2+  Ca27  1  0.59140017  0.74283293  0.08288970  1
  Ca2+  Ca28  1  0.56148265  0.74666388  0.41763188  1
  Ca2+  Ca29  1  0.56366385  0.74874695  0.75114257  1
  Ca2+  Ca30  1  0.91064189  0.26546145  0.07984426  1
  Ca2+  Ca31  1  0.91902551  0.24712115  0.43429385  1
  Ca2+  Ca32  1  0.94729897  0.24858511  0.73843493  1
  Ca2+  Ca33  1  0.91581889  0.75691799  0.09424445  1
  Ca2+  Ca34  1  0.91077141  0.76056341  0.40618145  1
  Ca2+  Ca35  1  0.93563435  0.75632567  0.74663599  1
  Ca2+  Ca36  1  0.55993743  0.07157452  0.71191225  1
  Ca2+  Ca37  1  0.23909641  0.10808158  0.41788744  1
  Ca2+  Ca38  1  0.93062904  0.60498934  0.41895690  1
  Ca2+  Ca39  1  0.73121040  0.08067344  0.57226569  1
  Ca2+  Ca40  1  0.42707611  0.59251531  0.91200608  1
  Ca2+  Ca41  1  0.11849592  0.10651882  0.90489799  1
  Ca2+  Ca42  1  0.09943642  0.09155274  0.27626170  1
  Ca2+  Ca43  1  0.38179529  0.09787772  0.91773919  1
  Ca2+  Ca44  1  0.38524134  0.61071398  0.55893930  1
  Ca2+  Ca45  1  0.58440989  0.08267847  0.42571975  1
  Ca2+  Ca46  1  0.10167224  0.11375048  0.58026790  1
  Ca2+  Ca47  1  0.25313560  0.09481660  0.07963461  1
  Ca2+  Ca48  1  0.38459957  0.09560879  0.90830071  1
  Ca2+  Ca49  1  0.92489678  0.59660431  0.74647564  1
  Ca2+  Ca50  1  0.97593222  0.08962064  0.74628898  1
  Ca2+  Ca51  1  0.75301160  0.59717422  0.24150518  1
  Ca2+  Ca52  1  0.38336503  0.07715288  0.25040024  1
  Ca2+  Ca53  1  0.39445944  0.61252397  0.55535275  1
  Ca2+  Ca54  1  0.90766031  0.08437188  0.09578403  1
  Ca2+  Ca55  1  0.92946626  0.59581218  0.09132038  1
  Ca2+  Ca56  1  0.91805881  0.08668811  0.40585473  1
  Ca2+  Ca57  1  0.21475582  0.58392834  0.08980835  1
  Ca2+  Ca58  1  0.41192445  0.09234974  0.58684623  1
  Ca2+  Ca59  1  0.24916986  0.59244089  0.72941050  1
  Ca2+  Ca60  1  0.92032729  0.08188775  0.09527373  1
  Ca2+  Ca61  1  0.60612949  0.58519450  0.06144583  1
  Ca2+  Ca62  1  0.93753612  0.59760539  0.74778272  1
  Ca2+  Ca63  1  0.55863906  0.60259591  0.41932970  1
  Ca2+  Ca64  1  0.74960457  0.08314205  0.92731311  1
  Ca2+  Ca65  1  0.09880682  0.11130966  0.57117370  1
  Ca2+  Ca66  1  0.39745338  0.58163492  0.31815785  1
  Ca2+  Ca67  1  0.91756886  0.59628572  0.09104753  1
  Ca2+  Ca68  1  0.91808941  0.60495773  0.41749627  1
  Ca2+  Ca69  1  0.57175624  0.60217883  0.76331234  1
  Ca2+  Ca70  1  0.22565261  0.10573709  0.75319958  1
  Ca2+  Ca71  1  0.76304195  0.07176750  0.28231231  1
  Ca2+  Ca72  1  0.73628191  0.91102033  0.57607612  1
  Ca2+  Ca73  1  0.08826895  0.40760675  0.24411459  1
  Ca2+  Ca74  1  0.41412233  0.41039545  0.58459458  1
  Ca2+  Ca75  1  0.42486562  0.91224209  0.58549000  1
  Ca2+  Ca76  1  0.39593676  0.90932880  0.91882620  1
  Ca2+  Ca77  1  0.57175440  0.92145878  0.72341137  1
  Ca2+  Ca78  1  0.92065524  0.92285216  0.39055150  1
  Ca2+  Ca79  1  0.91640450  0.41564024  0.08399000  1
  Ca2+  Ca80  1  0.92211884  0.40108061  0.40893757  1
  Ca2+  Ca81  1  0.25500182  0.40541159  0.75684931  1
  Ca2+  Ca82  1  0.58544276  0.41091584  0.07770403  1
  Ca2+  Ca83  1  0.09517092  0.89025963  0.91110272  1
  Ca2+  Ca84  1  0.24852875  0.90947584  0.39819078  1
  Ca2+  Ca85  1  0.75716465  0.40559769  0.24772348  1
  Ca2+  Ca86  1  0.09936483  0.40798289  0.58732648  1
  Ca2+  Ca87  1  0.77354772  0.92160962  0.26252384  1
  Ca2+  Ca88  1  0.26930004  0.41259918  0.40716272  1
  Ca2+  Ca89  1  0.74639345  0.89719277  0.91062447  1
  Ca2+  Ca90  1  0.93475366  0.90473868  0.74663380  1
  Ca2+  Ca91  1  0.56124354  0.92090618  0.72370219  1
  Ca2+  Ca92  1  0.08247575  0.89895415  0.58842653  1
  Ca2+  Ca93  1  0.40994451  0.40820647  0.26153035  1
  Ca2+  Ca94  1  0.57701091  0.40640906  0.75303470  1
  Ca2+  Ca95  1  0.75911194  0.89661666  0.91152648  1
  Ca2+  Ca96  1  0.56259217  0.40478555  0.41181681  1
  Ca2+  Ca97  1  0.25694457  0.90135701  0.09234167  1
  Ca2+  Ca98  1  0.74595413  0.41926314  0.93444121  1
  Ca2+  Ca99  1  0.58433567  0.91018001  0.42336113  1
  Ca2+  Ca100  1  0.08789014  0.40658183  0.58800262  1
  Ca2+  Ca101  1  0.76420729  0.91953758  0.26621900  1
  Ca2+  Ca102  1  0.91976344  0.40196609  0.75171566  1
  Ca2+  Ca103  1  0.74513709  0.40043044  0.58649297  1
  Ca2+  Ca104  1  0.09938130  0.40971179  0.24238282  1
  Ca2+  Ca105  1  0.40054651  0.91137249  0.25043919  1
  Ca2+  Ca106  1  0.57093137  0.90696971  0.08906875  1
  Ca2+  Ca107  1  0.55974879  0.90548947  0.09060123  1
  Mn3.34+  Mn108  1  0.08855368  0.34397633  0.07571572  1
  Mn3.34+  Mn109  1  0.08646245  0.33022116  0.42048405  1
  Mn3.34+  Mn110  1  0.08726181  0.33538743  0.75693209  1
  Mn3.34+  Mn111  1  0.08274516  0.82933400  0.08345677  1
  Mn3.34+  Mn112  1  0.08376472  0.83384246  0.41942735  1
  Mn3.34+  Mn113  1  0.09151230  0.83405583  0.75232418  1
  Mn3.34+  Mn114  1  0.41274868  0.34066851  0.08408656  1
  Mn3.34+  Mn115  1  0.41416210  0.33228059  0.42087950  1
  Mn3.34+  Mn116  1  0.41446366  0.33489363  0.75068126  1
  Mn3.34+  Mn117  1  0.41269038  0.83093391  0.08573417  1
  Mn3.34+  Mn118  1  0.41460368  0.83491214  0.41708195  1
  Mn3.34+  Mn119  1  0.40961123  0.83537681  0.75279187  1
  Mn3.34+  Mn120  1  0.75057033  0.33880812  0.08588179  1
  Mn3.34+  Mn121  1  0.74797555  0.33191673  0.41524736  1
  Mn3.34+  Mn122  1  0.74978316  0.33660690  0.75368544  1
  Mn3.34+  Mn123  1  0.75059548  0.83482817  0.09075033  1
  Mn3.34+  Mn124  1  0.74987218  0.83615632  0.41866851  1
  Mn3.34+  Mn125  1  0.75236224  0.82672945  0.74836600  1
  Mn3.34+  Mn126  1  0.25310830  0.32896270  0.24191081  1
  Mn3.34+  Mn127  1  0.25550520  0.33119889  0.58414488  1
  Mn3.34+  Mn128  1  0.25083977  0.33650846  0.91912122  1
  Mn3.34+  Mn129  1  0.24505113  0.83608707  0.24952581  1
  Mn3.34+  Mn130  1  0.25111675  0.83317819  0.58377650  1
  Mn3.34+  Mn131  1  0.25232484  0.82755983  0.91436030  1
  Mn3.34+  Mn132  1  0.58028639  0.33182510  0.24800450  1
  Mn3.34+  Mn133  1  0.58023731  0.33050210  0.58303942  1
  Mn3.34+  Mn134  1  0.57686194  0.33812403  0.91597456  1
  Mn3.34+  Mn135  1  0.58111490  0.83263995  0.25402068  1
  Mn3.34+  Mn136  1  0.58237705  0.83261223  0.57963986  1
  Mn3.34+  Mn137  1  0.57891704  0.82939654  0.91313541  1
  Mn3.34+  Mn138  1  0.91975675  0.32794410  0.24803131  1
  Mn3.34+  Mn139  1  0.91486641  0.33089771  0.58264467  1
  Mn3.34+  Mn140  1  0.92131782  0.33627925  0.91555064  1
  Mn3.34+  Mn141  1  0.92618761  0.83786118  0.24749041  1
  Mn3.34+  Mn142  1  0.91751986  0.82585857  0.57841194  1
  Mn3.34+  Mn143  1  0.91836214  0.82342459  0.91725247  1
  Mn3.34+  Mn144  1  0.75177331  0.66529404  0.08552962  1
  Mn3.34+  Mn145  1  0.08540138  0.66544065  0.08553717  1
  Mn3.34+  Mn146  1  0.91545584  0.17789180  0.25271847  1
  Mn3.34+  Mn147  1  0.74999310  0.67587856  0.74495879  1
  Mn3.34+  Mn148  1  0.91596470  0.67054107  0.91717077  1
  Mn3.34+  Mn149  1  0.74966280  0.16886209  0.08543591  1
  Mn3.34+  Mn150  1  0.58217896  0.66924545  0.58245041  1
  Mn3.34+  Mn151  1  0.91470671  0.17104461  0.91772035  1
  Mn3.34+  Mn152  1  0.57888455  0.16497288  0.57870846  1
  Mn3.34+  Mn153  1  0.09153955  0.67050823  0.75358701  1
  Mn3.34+  Mn154  1  0.41546386  0.16535729  0.41794138  1
  Mn3.34+  Mn155  1  0.92159142  0.67822333  0.57798039  1
  Mn3.34+  Mn156  1  0.58708220  0.16524712  0.24809549  1
  Mn3.34+  Mn157  1  0.24660171  0.65319556  0.91205701  1
  Mn3.34+  Mn158  1  0.24562337  0.66545764  0.25403091  1
  Mn3.34+  Mn159  1  0.41191028  0.66272719  0.08692424  1
  Mn3.34+  Mn160  1  0.42209507  0.65806346  0.08941005  1
  Mn3.34+  Mn161  1  0.41299609  0.66703405  0.75182603  1
  Mn3.34+  Mn162  1  0.75028432  0.67089075  0.75484803  1
  Mn3.34+  Mn163  1  0.41486623  0.15972331  0.09054744  1
  Mn3.34+  Mn164  1  0.74359546  0.67145622  0.41630162  1
  Mn3.34+  Mn165  1  0.57659344  0.17223149  0.91942046  1
  Mn3.34+  Mn166  1  0.74798184  0.16263448  0.42109845  1
  Mn3.34+  Mn167  1  0.58487017  0.66792663  0.25078860  1
  Mn3.34+  Mn168  1  0.25137874  0.16900972  0.24322771  1
  Mn3.34+  Mn169  1  0.92551450  0.17271367  0.25157013  1
  Mn3.34+  Mn170  1  0.57581344  0.16138688  0.24633937  1
  Mn3.34+  Mn171  1  0.58834379  0.16456104  0.91755880  1
  Mn3.34+  Mn172  1  0.91424380  0.16665841  0.57856072  1
  Mn3.34+  Mn173  1  0.91999510  0.67171636  0.25039932  1
  Mn3.34+  Mn174  1  0.74385323  0.16003875  0.74781199  1
  Mn3.34+  Mn175  1  0.75732519  0.16630069  0.74562007  1
  Mn3.34+  Mn176  1  0.09469281  0.66439976  0.41798389  1
  Mn3.34+  Mn177  1  0.92872627  0.16540114  0.91580034  1
  Mn3.34+  Mn178  1  0.41544487  0.16415627  0.74964802  1
  Mn3.34+  Mn179  1  0.08734870  0.17133573  0.09016557  1
  Mn3.34+  Mn180  1  0.75781124  -0.00013831  0.74795967  1
  Mn3.34+  Mn181  1  0.58449079  0.49793708  0.93364577  1
  Mn3.34+  Mn182  1  0.92121244  0.50598450  0.58457354  1
  Mn3.34+  Mn183  1  0.56390117  -0.00283141  0.91170377  1
  Mn3.34+  Mn184  1  0.08917005  0.50358712  0.41580289  1
  Mn3.34+  Mn185  1  0.90714989  0.49971058  0.58274792  1
  Mn3.34+  Mn186  1  0.09422682  -0.00092509  0.10191197  1
  Mn3.34+  Mn187  1  0.25455058  0.00093354  0.59809231  1
  Mn3.34+  Mn188  1  0.24333725  0.49985559  0.93364502  1
  Mn3.34+  Mn189  1  0.41217492  0.00071572  0.41177320  1
  Mn3.34+  Mn190  1  0.57561059  0.00089317  0.25419835  1
  Mn3.34+  Mn191  1  0.40492794  0.49631200  0.07577935  1
  Mn3.34+  Mn192  1  0.92495700  0.50000385  0.25585301  1
  Mn3.34+  Mn193  1  0.24361893  -0.00674428  0.59978170  1
  Mn3.34+  Mn194  1  0.74051933  0.50128823  0.42036416  1
  Mn3.34+  Mn195  1  0.57607243  0.00183150  0.91166908  1
  Mn3.34+  Mn196  1  0.57206771  0.50573301  0.24370248  1
  Mn3.34+  Mn197  1  0.24205263  -0.00382070  0.91667647  1
  Mn3.34+  Mn198  1  0.92040466  0.50413973  0.92807684  1
  Mn3.34+  Mn199  1  0.24911454  0.50003536  0.58038137  1
  Mn3.34+  Mn200  1  0.75019342  0.50135224  0.75719129  1
  Mn3.34+  Mn201  1  0.09196416  0.50202743  0.75593622  1
  Mn3.34+  Mn202  1  0.41045190  0.49884984  0.75055839  1
  Mn3.34+  Mn203  1  0.93133096  0.49942993  0.92972479  1
  Mn3.34+  Mn204  1  0.92547015  0.00061080  0.91167887  1
  Mn3.34+  Mn205  1  0.25040474  0.50082480  0.25524112  1
  Mn3.34+  Mn206  1  0.58230982  0.50039392  0.24240953  1
  Mn3.34+  Mn207  1  0.59041620  0.50578569  0.58597630  1
  Mn3.34+  Mn208  1  0.75590783  0.50594334  0.41822500  1
  Mn3.34+  Mn209  1  0.73909385  0.00516891  0.08249977  1
  Mn3.34+  Mn210  1  0.08535124  -0.00385876  0.40203070  1
  Mn3.34+  Mn211  1  0.92402660  -0.00303916  0.57901756  1
  Mn3.34+  Mn212  1  0.57922136  0.50124287  0.58501331  1
  Mn3.34+  Mn213  1  0.93599044  -0.00327880  0.91184956  1
  Mn3.34+  Mn214  1  0.08438329  -0.00643079  0.09988246  1
  Mn3.34+  Mn215  1  0.91326884  0.00124785  0.57795074  1
  O2-  O216  1  -0.00484620  0.15035784  0.01650896  1
  O2-  O217  1  0.00319326  0.17397201  0.33567502  1
  O2-  O218  1  -0.00036955  0.15936965  0.65459888  1
  O2-  O219  1  -0.00375592  0.66631060  0.00218387  1
  O2-  O220  1  -0.00383470  0.66810792  0.33819700  1
  O2-  O221  1  -0.00264145  0.66361949  0.66963069  1
  O2-  O222  1  0.33639080  0.16223071  0.00696540  1
  O2-  O223  1  0.33709138  0.16778280  0.32573549  1
  O2-  O224  1  0.33762945  0.15046607  0.67454353  1
  O2-  O225  1  0.33641408  0.65366178  -0.00413612  1
  O2-  O226  1  0.32626031  0.66524897  0.32827737  1
  O2-  O227  1  0.33485698  0.65676196  0.67232326  1
  O2-  O228  1  0.66769795  0.14810106  -0.00318640  1
  O2-  O229  1  0.66463714  0.14333561  0.33518925  1
  O2-  O230  1  0.66670505  0.14715015  0.66298636  1
  O2-  O231  1  0.67059170  0.66110656  0.01083510  1
  O2-  O232  1  0.66532219  0.64466104  0.33455320  1
  O2-  O233  1  0.66874793  0.65977610  0.66612135  1
  O2-  O234  1  0.16383212  0.16441472  0.01096254  1
  O2-  O235  1  0.17397730  0.17430752  0.32460353  1
  O2-  O236  1  0.16536400  0.16186167  0.66317210  1
  O2-  O237  1  0.17242521  0.66652068  0.00338713  1
  O2-  O238  1  0.15847200  0.67918359  0.32814930  1
  O2-  O239  1  0.16782737  0.66262344  0.67786520  1
  O2-  O240  1  0.49257794  0.15504679  0.00062794  1
  O2-  O241  1  0.49943721  0.15921381  0.33339944  1
  O2-  O242  1  0.49813493  0.15739075  0.66168393  1
  O2-  O243  1  0.49984180  0.64598823  0.00896553  1
  O2-  O244  1  0.50032164  0.65913531  0.32368581  1
  O2-  O245  1  0.49841917  0.64889122  0.66428004  1
  O2-  O246  1  0.83962374  0.14285606  -0.00107921  1
  O2-  O247  1  0.83534219  0.15921909  0.33471104  1
  O2-  O248  1  0.83387232  0.14025727  0.66589865  1
  O2-  O249  1  0.84150458  0.66521300  0.00576157  1
  O2-  O250  1  0.83329181  0.65294336  0.33265685  1
  O2-  O251  1  0.84109446  0.67560868  0.67192181  1
  O2-  O252  1  -0.00488637  0.33645324  0.00836366  1
  O2-  O253  1  0.00326330  0.32539620  0.33463460  1
  O2-  O254  1  0.00456516  0.34548830  0.66145730  1
  O2-  O255  1  0.00250469  0.82700923  -0.00446321  1
  O2-  O256  1  -0.00221766  0.83405365  0.34017199  1
  O2-  O257  1  -0.00254800  0.83710977  0.66687666  1
  O2-  O258  1  0.33646481  0.32532961  -0.00054299  1
  O2-  O259  1  0.33328010  0.32775807  0.33186005  1
  O2-  O260  1  0.33554572  0.35165476  0.66274042  1
  O2-  O261  1  0.33020954  0.84012323  0.00446869  1
  O2-  O262  1  0.33463076  0.84444120  0.33185349  1
  O2-  O263  1  0.33817160  0.84942913  0.66180971  1
  O2-  O264  1  0.66818359  0.34906049  0.00156022  1
  O2-  O265  1  0.66429276  0.35234963  0.33173071  1
  O2-  O266  1  0.66296858  0.34894005  0.66928177  1
  O2-  O267  1  0.66043668  0.85475568  0.00190645  1
  O2-  O268  1  0.67286827  0.85773032  0.32742513  1
  O2-  O269  1  0.66612380  0.84541848  0.67012250  1
  O2-  O270  1  0.16384667  0.32002538  -0.00174352  1
  O2-  O271  1  0.16698676  0.33331958  0.33161943  1
  O2-  O272  1  0.17096365  0.34960946  0.66615219  1
  O2-  O273  1  0.17011204  0.82172728  -0.00320357  1
  O2-  O274  1  0.16841254  0.83248649  0.33756806  1
  O2-  O275  1  0.16716558  0.84427093  0.66599011  1
  O2-  O276  1  0.50388484  0.33486374  0.00993164  1
  O2-  O277  1  0.49417157  0.33488342  0.33345945  1
  O2-  O278  1  0.49863812  0.34643229  0.66453842  1
  O2-  O279  1  0.49611933  0.85314995  -0.00796082  1
  O2-  O280  1  0.50130112  0.85050355  0.33628694  1
  O2-  O281  1  0.49995913  0.84327005  0.66502589  1
  O2-  O282  1  0.83462474  0.34976736  0.00146000  1
  O2-  O283  1  0.83507387  0.33895196  0.33048264  1
  O2-  O284  1  0.83361391  0.35074257  0.66661240  1
  O2-  O285  1  0.82795641  0.83553944  -0.00267606  1
  O2-  O286  1  0.83514649  0.84568732  0.33871042  1
  O2-  O287  1  0.83345409  0.81302265  0.66474660  1
  O2-  O288  1  0.00407135  0.19316239  0.17001528  1
  O2-  O289  1  -0.00554587  0.17698787  0.50271356  1
  O2-  O290  1  0.00143240  0.18233954  0.83377024  1
  O2-  O291  1  -0.00590583  0.67906799  0.16319319  1
  O2-  O292  1  -0.00050372  0.68647916  0.49116693  1
  O2-  O293  1  -0.00913081  0.68280240  0.83006045  1
  O2-  O294  1  0.33522055  0.18894914  0.16357374  1
  O2-  O295  1  0.33636547  0.17906163  0.49155884  1
  O2-  O296  1  0.34119948  0.17379142  0.83279996  1
  O2-  O297  1  0.33117825  0.67785002  0.16187933  1
  O2-  O298  1  0.33828405  0.68756675  0.50364289  1
  O2-  O299  1  0.33180658  0.67981356  0.83549774  1
  O2-  O300  1  0.67022871  0.18262930  0.17321845  1
  O2-  O301  1  0.66468634  0.17515391  0.49943030  1
  O2-  O302  1  0.66856769  0.18337225  0.83103793  1
  O2-  O303  1  0.67657119  0.67808647  0.17403480  1
  O2-  O304  1  0.65773078  0.68545017  0.49242103  1
  O2-  O305  1  0.66118484  0.68167023  0.82365739  1
  O2-  O306  1  0.17093215  0.19432442  0.16552150  1
  O2-  O307  1  0.15861230  0.17533591  0.49320273  1
  O2-  O308  1  0.17252661  0.17841135  0.83254640  1
  O2-  O309  1  0.16849373  0.67345776  0.16326533  1
  O2-  O310  1  0.16677866  0.68756496  0.48845381  1
  O2-  O311  1  0.16819156  0.68446640  0.83721375  1
  O2-  O312  1  0.49958946  0.18927100  0.16238374  1
  O2-  O313  1  0.50043355  0.18478995  0.49635877  1
  O2-  O314  1  0.50308973  0.18541739  0.83353400  1
  O2-  O315  1  0.50443231  0.68478293  0.16542894  1
  O2-  O316  1  0.49779983  0.67529401  0.51000257  1
  O2-  O317  1  0.49562217  0.67395195  0.82925876  1
  O2-  O318  1  0.84543884  0.18880824  0.16233239  1
  O2-  O319  1  0.82723079  0.18166586  0.50136414  1
  O2-  O320  1  0.82856425  0.17887951  0.83570667  1
  O2-  O321  1  0.83984976  0.67699584  0.16707802  1
  O2-  O322  1  0.83777697  0.68698548  0.49188805  1
  O2-  O323  1  0.82937445  0.69256102  0.83603675  1
  O2-  O324  1  0.00184899  0.31053152  0.17085995  1
  O2-  O325  1  0.00147704  0.31775058  0.49958311  1
  O2-  O326  1  -0.00187811  0.31949805  0.82934256  1
  O2-  O327  1  0.00166727  0.82161298  0.16646856  1
  O2-  O328  1  0.00204225  0.80942958  0.50268000  1
  O2-  O329  1  0.00111720  0.81733378  0.83618898  1
  O2-  O330  1  0.33426785  0.31136572  0.16478910  1
  O2-  O331  1  0.33113991  0.31658478  0.49775458  1
  O2-  O332  1  0.32749332  0.32732253  0.82406611  1
  O2-  O333  1  0.33536472  0.82196364  0.16703892  1
  O2-  O334  1  0.33061181  0.82935854  0.49683967  1
  O2-  O335  1  0.33941108  0.81429390  0.84032341  1
  O2-  O336  1  0.66657864  0.32147241  0.16723349  1
  O2-  O337  1  0.66676146  0.32445971  0.50214345  1
  O2-  O338  1  0.66253894  0.32458543  0.83067852  1
  O2-  O339  1  0.65770602  0.82726969  0.16129914  1
  O2-  O340  1  0.66252655  0.82239567  0.49563658  1
  O2-  O341  1  0.67463751  0.81680197  0.84161144  1
  O2-  O342  1  0.15912159  0.32155821  0.17118577  1
  O2-  O343  1  0.16211556  0.31930699  0.50859061  1
  O2-  O344  1  0.17266970  0.33186945  0.83009493  1
  O2-  O345  1  0.17017200  0.82530605  0.16117024  1
  O2-  O346  1  0.16294277  0.82480569  0.50435335  1
  O2-  O347  1  0.16656695  0.81282639  0.83735747  1
  O2-  O348  1  0.49824678  0.31408624  0.16777770  1
  O2-  O349  1  0.49894514  0.31489748  0.49657816  1
  O2-  O350  1  0.49899040  0.32056015  0.82931371  1
  O2-  O351  1  0.50463032  0.82154220  0.15939289  1
  O2-  O352  1  0.49890597  0.82673620  0.50142410  1
  O2-  O353  1  0.50352654  0.81848898  0.82905096  1
  O2-  O354  1  0.83175252  0.31898890  0.17069296  1
  O2-  O355  1  0.83343524  0.32349118  0.49864499  1
  O2-  O356  1  0.83588403  0.32140499  0.83171264  1
  O2-  O357  1  0.82635420  0.82772771  0.17624425  1
  O2-  O358  1  0.82847317  0.81552882  0.50172718  1
  O2-  O359  1  0.83336770  0.81359872  0.83444235  1
  O2-  O360  1  0.06542231  0.07884293  0.13688000  1
  O2-  O361  1  0.07861712  0.06494586  0.45691739  1
  O2-  O362  1  0.09451807  0.06689079  0.78902897  1
  O2-  O363  1  0.07079622  0.58724562  0.10381315  1
  O2-  O364  1  0.06250692  0.58260256  0.44405877  1
  O2-  O365  1  0.07281796  0.58482067  0.77631791  1
  O2-  O366  1  0.39584228  0.08249764  0.11240099  1
  O2-  O367  1  0.41663146  0.07832576  0.44625844  1
  O2-  O368  1  0.43022374  0.08260191  0.78721933  1
  O2-  O369  1  0.41840864  0.57617690  0.12601544  1
  O2-  O370  1  0.43463432  0.56503795  0.45147766  1
  O2-  O371  1  0.41166051  0.58021756  0.77625780  1
  O2-  O372  1  0.77121724  0.08492282  0.12523549  1
  O2-  O373  1  0.75412734  0.08123125  0.43757890  1
  O2-  O374  1  0.75004072  0.08044159  0.79054540  1
  O2-  O375  1  0.77344840  0.58384257  0.10713197  1
  O2-  O376  1  0.76398112  0.58603470  0.44835093  1
  O2-  O377  1  0.78046482  0.58535409  0.76910458  1
  O2-  O378  1  0.24165797  0.08824610  0.22016120  1
  O2-  O379  1  0.24800620  0.07062560  0.54721921  1
  O2-  O380  1  0.25167222  0.07473216  0.88277044  1
  O2-  O381  1  0.25800528  0.58003643  0.22798731  1
  O2-  O382  1  0.25867868  0.57786422  0.56875040  1
  O2-  O383  1  0.24942252  0.56378567  0.86903153  1
  O2-  O384  1  0.56917254  0.08026228  0.21766458  1
  O2-  O385  1  0.57901547  0.08246451  0.56048553  1
  O2-  O386  1  0.58433870  0.08190283  0.87931672  1
  O2-  O387  1  0.59309077  0.58408481  0.20644057  1
  O2-  O388  1  0.59553727  0.58530180  0.55279882  1
  O2-  O389  1  0.57523137  0.56651170  0.88706439  1
  O2-  O390  1  0.92155010  0.08565732  0.22832711  1
  O2-  O391  1  0.91355683  0.08149824  0.54402560  1
  O2-  O392  1  0.91791054  0.08202554  0.87551619  1
  O2-  O393  1  0.91518056  0.58230856  0.22982025  1
  O2-  O394  1  0.91136900  0.58638738  0.55215271  1
  O2-  O395  1  0.91681476  0.58109911  0.87846494  1
  O2-  O396  1  0.06316575  0.42025273  0.11760406  1
  O2-  O397  1  0.08452305  0.42144066  0.45170159  1
  O2-  O398  1  0.07521670  0.42043170  0.76191728  1
  O2-  O399  1  0.10172916  0.91350685  0.07532011  1
  O2-  O400  1  0.07382921  0.92586617  0.45095297  1
  O2-  O401  1  0.07069900  0.91218108  0.77949773  1
  O2-  O402  1  0.43388489  0.42519646  0.12787707  1
  O2-  O403  1  0.41294124  0.41199272  0.44141822  1
  O2-  O404  1  0.42169045  0.41873168  0.77229314  1
  O2-  O405  1  0.42074246  0.91423450  0.11105678  1
  O2-  O406  1  0.41442115  0.92312822  0.44589634  1
  O2-  O407  1  0.43374478  0.91479794  0.78441922  1
  O2-  O408  1  0.75239479  0.41673133  0.11502570  1
  O2-  O409  1  0.75384297  0.41992427  0.44659061  1
  O2-  O410  1  0.75485772  0.42174771  0.79021566  1
  O2-  O411  1  0.73779600  0.92197145  0.11816913  1
  O2-  O412  1  0.75373115  0.91677578  0.44219152  1
  O2-  O413  1  0.76622499  0.91679842  0.77942011  1
  O2-  O414  1  0.23850729  0.41942399  0.22400862  1
  O2-  O415  1  0.23887271  0.41918544  0.54486726  1
  O2-  O416  1  0.25119155  0.42673627  0.89549852  1
  O2-  O417  1  0.25436199  0.91640158  0.23013532  1
  O2-  O418  1  0.24447442  0.92276560  0.55092915  1
  O2-  O419  1  0.23861024  0.91503091  0.90770549  1
  O2-  O420  1  0.57781578  0.41751930  0.21962409  1
  O2-  O421  1  0.57708381  0.41993102  0.54828081  1
  O2-  O422  1  0.58981653  0.42622709  0.88744891  1
  O2-  O423  1  0.56912023  0.92089080  0.22337662  1
  O2-  O424  1  0.58887862  0.91569622  0.56729413  1
  O2-  O425  1  0.60036636  0.91836252  0.86938271  1
  O2-  O426  1  0.93502209  0.41791342  0.22969151  1
  O2-  O427  1  0.93020373  0.42040023  0.54830374  1
  O2-  O428  1  0.92386433  0.42203668  0.88354038  1
  O2-  O429  1  0.91172026  0.91731719  0.24033081  1
  O2-  O430  1  0.92124712  0.91440059  0.55623359  1
  O2-  O431  1  0.90016021  0.91543315  0.89011069  1
  O2-  O432  1  -0.00178123  0.01247013  0.01476256  1
  O2-  O433  1  -0.00339723  0.01030967  0.34765747  1
  O2-  O434  1  -0.02111810  -0.00152861  0.67972618  1
  O2-  O435  1  -0.01946291  0.51083548  0.03306427  1
  O2-  O436  1  -0.01403451  0.49368619  0.35715897  1
  O2-  O437  1  -0.00858329  0.50739441  0.68114936  1
  O2-  O438  1  0.34837844  0.00500683  -0.03529453  1
  O2-  O439  1  0.34182154  -0.00284304  0.32855110  1
  O2-  O440  1  0.35635480  -0.00041788  0.63363139  1
  O2-  O441  1  0.33342188  0.52246031  -0.00797940  1
  O2-  O442  1  0.33649315  0.48554163  0.31911709  1
  O2-  O443  1  0.33268586  0.49044732  0.66030623  1
  O2-  O444  1  0.68362440  -0.00378393  -0.02967779  1
  O2-  O445  1  0.67416254  -0.00574712  0.30526719  1
  O2-  O446  1  0.65662958  -0.00379952  0.69297224  1
  O2-  O447  1  0.66113001  0.49345401  0.00631850  1
  O2-  O448  1  0.67109701  0.50292554  0.32392511  1
  O2-  O449  1  0.66629692  0.48727926  0.67341545  1
  O2-  O450  1  0.17263298  0.01860105  0.01416920  1
  O2-  O451  1  0.17155668  0.01319142  0.34538235  1
  O2-  O452  1  0.14040845  0.00727927  0.63158034  1
  O2-  O453  1  0.16919371  0.50821283  0.00315855  1
  O2-  O454  1  0.15273739  0.48490692  0.31861134  1
  O2-  O455  1  0.15983663  0.48876212  0.65683031  1
  O2-  O456  1  0.51326524  -0.01725313  0.01101100  1
  O2-  O457  1  0.51518767  0.00202143  0.35819996  1
  O2-  O458  1  0.49758880  -0.00863452  0.66946969  1
  O2-  O459  1  0.50502472  0.50354238  0.01106804  1
  O2-  O460  1  0.50370955  0.49491260  0.33333159  1
  O2-  O461  1  0.50320327  0.50078967  0.67425183  1
  O2-  O462  1  0.83923820  0.01462490  -0.00253861  1
  O2-  O463  1  0.83365449  -0.00486505  0.32441177  1
  O2-  O464  1  0.80859870  -0.00169418  0.63464587  1
  O2-  O465  1  0.82989047  0.48685778  -0.00532375  1
  O2-  O466  1  0.82707181  0.49246326  0.32472100  1
  O2-  O467  1  0.83541530  0.49372789  0.67396370  1
  O2-  O468  1  0.59351706  0.24708549  0.28059396  1
  O2-  O469  1  0.90723731  0.75195906  0.26528293  1
  O2-  O470  1  0.41646365  0.74982697  0.72468299  1
  O2-  O471  1  0.25520489  0.75609560  0.60206164  1
  O2-  O472  1  0.74682924  0.24836427  0.72155421  1
  O2-  O473  1  0.90161430  0.24786470  0.60742118  1
  O2-  O474  1  0.74539883  0.75134295  0.38592736  1
  O2-  O475  1  0.59475291  0.75153481  0.27788594  1
  O2-  O476  1  0.74859241  0.24999838  0.05581723  1
  O2-  O477  1  0.41624491  0.25108671  0.72817482  1
  O2-  O478  1  0.25243328  0.75030322  0.25256227  1
  O2-  O479  1  0.74010703  0.24780664  0.39295765  1
  O2-  O480  1  0.59472998  0.24858771  0.60620651  1
  O2-  O481  1  0.41990602  0.75673101  0.40110433  1
  O2-  O482  1  0.25448713  0.25456508  0.60795841  1
  O2-  O483  1  0.09088125  0.25770763  0.73542988  1
  O2-  O484  1  0.59832132  0.25195149  0.94261264  1
  O2-  O485  1  0.74618853  0.75279546  0.07068682  1
  O2-  O486  1  0.25301315  0.25481693  0.91686817  1
  O2-  O487  1  0.58537982  0.75014069  0.60970391  1
  O2-  O488  1  0.57803018  0.75404929  0.94463975  1
  O2-  O489  1  0.42130437  0.74680231  0.05619761  1
  O2-  O490  1  0.90501531  0.25087393  0.94431671  1
  O2-  O491  1  0.08389928  0.74864960  0.07781291  1
  O2-  O492  1  0.08405129  0.75090547  0.72754044  1
