# generated using pymatgen
data_Ca108Mn108O277
_symmetry_space_group_name_H-M   'P 1'
_cell_length_a   16.02850727
_cell_length_b   22.30784859
_cell_length_c   16.39186089
_cell_angle_alpha   90.00125909
_cell_angle_beta   90.00060771
_cell_angle_gamma   89.99797714
_symmetry_Int_Tables_number   1
_chemical_formula_structural   Ca108Mn108O277
_chemical_formula_sum   'Ca108 Mn108 O277'
_cell_volume   5861.09858112
_cell_formula_units_Z   1
loop_
 _symmetry_equiv_pos_site_id
 _symmetry_equiv_pos_as_xyz
  1  'x, y, z'
loop_
 _atom_type_symbol
 _atom_type_oxidation_number
  Ca2+  2.0
  Mn3.34+  3.34
  O2-  -2.0
loop_
 _atom_site_type_symbol
 _atom_site_label
 _atom_site_symmetry_multiplicity
 _atom_site_fract_x
 _atom_site_fract_y
 _atom_site_fract_z
 _atom_site_occupancy
  Ca2+  Ca0  1  0.10370044  0.24530528  0.24954483  1
  Ca2+  Ca1  1  0.08596669  0.24929420  0.58129031  1
  Ca2+  Ca2  1  0.09837769  0.25435762  0.91727063  1
  Ca2+  Ca3  1  0.06438602  0.74915529  0.26065109  1
  Ca2+  Ca4  1  0.07158925  0.74733891  0.58226727  1
  Ca2+  Ca5  1  0.09288004  0.75451311  0.90129766  1
  Ca2+  Ca6  1  0.39690039  0.24108340  0.25653562  1
  Ca2+  Ca7  1  0.41778286  0.24588687  0.59432004  1
  Ca2+  Ca8  1  0.40400882  0.25116577  0.89891682  1
  Ca2+  Ca9  1  0.40837862  0.74839051  0.24649859  1
  Ca2+  Ca10  1  0.39997926  0.75340902  0.58709296  1
  Ca2+  Ca11  1  0.42156287  0.74851653  0.91334393  1
  Ca2+  Ca12  1  0.74537209  0.23702513  0.24804023  1
  Ca2+  Ca13  1  0.74699828  0.25403299  0.57907742  1
  Ca2+  Ca14  1  0.74777389  0.25489039  0.91260009  1
  Ca2+  Ca15  1  0.77307715  0.75840878  0.24333631  1
  Ca2+  Ca16  1  0.77768502  0.74532229  0.60041673  1
  Ca2+  Ca17  1  0.73536752  0.74565442  0.88547004  1
  Ca2+  Ca18  1  0.24290706  0.24496351  0.08510812  1
  Ca2+  Ca19  1  0.24701598  0.23507911  0.40499743  1
  Ca2+  Ca20  1  0.26531349  0.22963099  0.75062511  1
  Ca2+  Ca21  1  0.26297000  0.75535634  0.07676007  1
  Ca2+  Ca22  1  0.24676689  0.75377475  0.42188041  1
  Ca2+  Ca23  1  0.24882808  0.75482995  0.75278135  1
  Ca2+  Ca24  1  0.57535108  0.25932940  0.08552244  1
  Ca2+  Ca25  1  0.58128547  0.24696367  0.42379036  1
  Ca2+  Ca26  1  0.55988611  0.25161914  0.73868251  1
  Ca2+  Ca27  1  0.56438859  0.75026540  0.06145741  1
  Ca2+  Ca28  1  0.56925516  0.76127652  0.40915747  1
  Ca2+  Ca29  1  0.58865021  0.74793057  0.76360245  1
  Ca2+  Ca30  1  0.92548262  0.25240485  0.08493404  1
  Ca2+  Ca31  1  0.91620781  0.24773867  0.42989036  1
  Ca2+  Ca32  1  0.92105863  0.26002248  0.73970401  1
  Ca2+  Ca33  1  0.91938188  0.75792224  0.09930031  1
  Ca2+  Ca34  1  0.93393536  0.74942646  0.42012637  1
  Ca2+  Ca35  1  0.90640193  0.73968723  0.73230975  1
  Ca2+  Ca36  1  0.63640333  0.09081654  0.11388391  1
  Ca2+  Ca37  1  0.76131356  0.58855245  0.61977327  1
  Ca2+  Ca38  1  0.75513875  0.07866786  0.93613314  1
  Ca2+  Ca39  1  0.12614839  0.09641806  0.25005359  1
  Ca2+  Ca40  1  0.29536036  0.60824876  0.08796140  1
  Ca2+  Ca41  1  0.25355117  0.59312678  0.74988222  1
  Ca2+  Ca42  1  0.26101239  0.10929742  0.40532071  1
  Ca2+  Ca43  1  0.15172227  0.09821892  0.90861350  1
  Ca2+  Ca44  1  0.27895049  0.61205186  0.41507233  1
  Ca2+  Ca45  1  0.88351075  0.08404716  0.09159104  1
  Ca2+  Ca46  1  0.61853106  0.58572152  0.75858039  1
  Ca2+  Ca47  1  0.40811648  0.58673008  0.58895703  1
  Ca2+  Ca48  1  0.89518658  0.08135301  0.08908030  1
  Ca2+  Ca49  1  0.09892979  0.10323362  0.56790530  1
  Ca2+  Ca50  1  0.42436436  0.59561778  0.93307288  1
  Ca2+  Ca51  1  0.92022942  0.58482973  0.09954260  1
  Ca2+  Ca52  1  0.05630968  0.60261026  0.58040021  1
  Ca2+  Ca53  1  0.38455539  0.09871869  0.25885367  1
  Ca2+  Ca54  1  0.75781653  0.58284614  0.61428011  1
  Ca2+  Ca55  1  0.62509647  0.09019371  0.10986143  1
  Ca2+  Ca56  1  0.55510038  0.09140578  0.73180612  1
  Ca2+  Ca57  1  0.55743600  0.10695521  0.41119506  1
  Ca2+  Ca58  1  0.08946016  0.10601033  0.56497958  1
  Ca2+  Ca59  1  0.13129292  0.10025423  0.25690507  1
  Ca2+  Ca60  1  0.90751925  0.58594140  0.09918101  1
  Ca2+  Ca61  1  0.92934998  0.60513470  0.41537037  1
  Ca2+  Ca62  1  0.07547079  0.59436510  0.26768043  1
  Ca2+  Ca63  1  0.16014252  0.09400919  0.90774081  1
  Ca2+  Ca64  1  0.56089242  0.58740783  0.40599054  1
  Ca2+  Ca65  1  0.93299946  0.09162817  0.41088748  1
  Ca2+  Ca66  1  0.41458008  0.10729246  0.57869497  1
  Ca2+  Ca67  1  0.89690729  0.59948871  0.74098918  1
  Ca2+  Ca68  1  0.10511298  0.59515071  0.91172973  1
  Ca2+  Ca69  1  0.76836636  0.58834430  0.25517018  1
  Ca2+  Ca70  1  0.41951149  0.58727807  0.58939285  1
  Ca2+  Ca71  1  0.54824687  0.58885221  0.40723453  1
  Ca2+  Ca72  1  0.72554857  0.91375935  0.24398299  1
  Ca2+  Ca73  1  0.90735242  0.90334968  0.75040307  1
  Ca2+  Ca74  1  0.09367995  0.91672928  0.25347032  1
  Ca2+  Ca75  1  0.25002564  0.39700937  0.41464280  1
  Ca2+  Ca76  1  0.25462830  0.91194435  0.75033267  1
  Ca2+  Ca77  1  0.72879978  0.42465996  0.61540600  1
  Ca2+  Ca78  1  0.09466378  0.90831745  0.58375262  1
  Ca2+  Ca79  1  0.56874188  0.39944899  0.43015541  1
  Ca2+  Ca80  1  0.40053780  0.90942483  0.91910344  1
  Ca2+  Ca81  1  0.73637829  0.40885050  0.24741562  1
  Ca2+  Ca82  1  0.57549546  0.42142648  0.73083928  1
  Ca2+  Ca83  1  0.74001032  0.90630463  0.59438515  1
  Ca2+  Ca84  1  0.90635773  0.91529816  0.08214236  1
  Ca2+  Ca85  1  0.25859017  0.39933013  0.75294478  1
  Ca2+  Ca86  1  0.74442618  0.40971666  0.90389271  1
  Ca2+  Ca87  1  0.74853291  0.41061725  0.24954333  1
  Ca2+  Ca88  1  0.73559311  0.40758857  0.90918495  1
  Ca2+  Ca89  1  0.08834928  0.91254347  0.91427062  1
  Ca2+  Ca90  1  0.41327868  0.90822219  0.59236854  1
  Ca2+  Ca91  1  0.09922849  0.91393001  0.91409964  1
  Ca2+  Ca92  1  0.26253321  0.39574612  0.41653128  1
  Ca2+  Ca93  1  0.57995998  0.41636597  0.07434122  1
  Ca2+  Ca94  1  0.08324190  0.91634780  0.25211460  1
  Ca2+  Ca95  1  0.58064977  0.91069479  0.39687007  1
  Ca2+  Ca96  1  0.92171047  0.90861904  0.40502607  1
  Ca2+  Ca97  1  0.92234165  0.40264608  0.41524678  1
  Ca2+  Ca98  1  0.90745737  0.40881181  0.08465578  1
  Ca2+  Ca99  1  0.92007000  0.40727839  0.08562558  1
  Ca2+  Ca100  1  0.89543345  0.91899342  0.08603616  1
  Ca2+  Ca101  1  0.25375166  0.91285630  0.07993210  1
  Ca2+  Ca102  1  0.08403182  0.39878395  0.24868948  1
  Ca2+  Ca103  1  0.43659667  0.91342113  0.24933421  1
  Ca2+  Ca104  1  0.07913684  0.40426602  0.58263766  1
  Ca2+  Ca105  1  0.41985390  0.38888201  0.24886897  1
  Ca2+  Ca106  1  0.09202175  0.40450390  0.58184019  1
  Ca2+  Ca107  1  0.58425949  0.90251705  0.74686952  1
  Mn3.34+  Mn108  1  0.08773150  0.33497072  0.07848020  1
  Mn3.34+  Mn109  1  0.08264076  0.32616457  0.41585842  1
  Mn3.34+  Mn110  1  0.08678344  0.32776246  0.75588239  1
  Mn3.34+  Mn111  1  0.08818663  0.83391590  0.08669016  1
  Mn3.34+  Mn112  1  0.09031085  0.83533188  0.42068698  1
  Mn3.34+  Mn113  1  0.08156656  0.83602321  0.74595688  1
  Mn3.34+  Mn114  1  0.41080737  0.33693454  0.07495762  1
  Mn3.34+  Mn115  1  0.41809473  0.32027941  0.42172103  1
  Mn3.34+  Mn116  1  0.41541226  0.33518606  0.74884421  1
  Mn3.34+  Mn117  1  0.41985896  0.84251236  0.08656152  1
  Mn3.34+  Mn118  1  0.40856511  0.83093918  0.41813100  1
  Mn3.34+  Mn119  1  0.41724307  0.83278096  0.75006253  1
  Mn3.34+  Mn120  1  0.74617274  0.33176890  0.08494894  1
  Mn3.34+  Mn121  1  0.74956708  0.33124577  0.42102686  1
  Mn3.34+  Mn122  1  0.74745289  0.33552556  0.74858896  1
  Mn3.34+  Mn123  1  0.73530458  0.84713865  0.07622657  1
  Mn3.34+  Mn124  1  0.74952773  0.83334151  0.41967446  1
  Mn3.34+  Mn125  1  0.74968478  0.83204923  0.75073589  1
  Mn3.34+  Mn126  1  0.25244033  0.32806552  0.24076467  1
  Mn3.34+  Mn127  1  0.25534835  0.32859256  0.58638981  1
  Mn3.34+  Mn128  1  0.25190981  0.34245022  0.91723375  1
  Mn3.34+  Mn129  1  0.25277313  0.83895876  0.24705228  1
  Mn3.34+  Mn130  1  0.24852776  0.83392718  0.58291920  1
  Mn3.34+  Mn131  1  0.25204221  0.83327707  0.91423813  1
  Mn3.34+  Mn132  1  0.58236999  0.32808457  0.24991947  1
  Mn3.34+  Mn133  1  0.58117833  0.33515841  0.58430135  1
  Mn3.34+  Mn134  1  0.57142222  0.33836296  0.91239292  1
  Mn3.34+  Mn135  1  0.58374343  0.83241081  0.24116923  1
  Mn3.34+  Mn136  1  0.58175970  0.83420272  0.57631103  1
  Mn3.34+  Mn137  1  0.58399460  0.83248364  0.91594961  1
  Mn3.34+  Mn138  1  0.91487617  0.32918683  0.25061915  1
  Mn3.34+  Mn139  1  0.91193073  0.33445516  0.58628877  1
  Mn3.34+  Mn140  1  0.92254728  0.33241924  0.90900805  1
  Mn3.34+  Mn141  1  0.91709646  0.83744133  0.24985096  1
  Mn3.34+  Mn142  1  0.91676724  0.83418129  0.57803970  1
  Mn3.34+  Mn143  1  0.91381039  0.83552771  0.91553278  1
  Mn3.34+  Mn144  1  0.24923608  0.66751143  0.58273467  1
  Mn3.34+  Mn145  1  0.92511543  0.16636064  0.91366775  1
  Mn3.34+  Mn146  1  0.75151511  0.67976741  0.41387761  1
  Mn3.34+  Mn147  1  0.58383960  0.67978955  0.58143655  1
  Mn3.34+  Mn148  1  0.57233339  0.16046590  0.91259510  1
  Mn3.34+  Mn149  1  0.41506915  0.66543201  0.75562458  1
  Mn3.34+  Mn150  1  0.08134429  0.66972260  0.08422050  1
  Mn3.34+  Mn151  1  0.09443574  0.66326216  0.08783105  1
  Mn3.34+  Mn152  1  0.57660653  0.66944621  0.23955393  1
  Mn3.34+  Mn153  1  0.25546455  0.66877059  0.91341940  1
  Mn3.34+  Mn154  1  0.41714502  0.16444443  0.07989279  1
  Mn3.34+  Mn155  1  0.40675442  0.15977963  0.07974643  1
  Mn3.34+  Mn156  1  0.91424295  0.16223315  0.91103715  1
  Mn3.34+  Mn157  1  0.25242254  0.67312013  0.25170400  1
  Mn3.34+  Mn158  1  0.92404214  0.67128874  0.91663329  1
  Mn3.34+  Mn159  1  0.91361139  0.66632764  0.91423467  1
  Mn3.34+  Mn160  1  0.74286285  0.67366731  0.41655644  1
  Mn3.34+  Mn161  1  0.90666838  0.16066970  0.24916914  1
  Mn3.34+  Mn162  1  0.58265048  0.16746248  0.57832478  1
  Mn3.34+  Mn163  1  0.74490424  0.16356418  0.74286745  1
  Mn3.34+  Mn164  1  0.91881730  0.16542249  0.25287933  1
  Mn3.34+  Mn165  1  0.08349895  0.16664710  0.08404074  1
  Mn3.34+  Mn166  1  0.75812113  0.15726201  0.74456147  1
  Mn3.34+  Mn167  1  0.57873671  0.16523503  0.25313011  1
  Mn3.34+  Mn168  1  0.73528231  0.65470395  0.07893029  1
  Mn3.34+  Mn169  1  0.57913119  0.66502794  0.91114204  1
  Mn3.34+  Mn170  1  0.08558422  0.66759983  0.74564101  1
  Mn3.34+  Mn171  1  0.58502018  0.16701329  0.91539006  1
  Mn3.34+  Mn172  1  0.74796524  0.16768717  0.42084525  1
  Mn3.34+  Mn173  1  0.25512327  0.17033411  0.58186133  1
  Mn3.34+  Mn174  1  0.08533046  0.16667404  0.74860012  1
  Mn3.34+  Mn175  1  0.91744029  0.16747175  0.58036085  1
  Mn3.34+  Mn176  1  0.56542827  0.66542096  0.23639751  1
  Mn3.34+  Mn177  1  0.74391028  0.66121746  0.07856927  1
  Mn3.34+  Mn178  1  0.08879682  0.66924442  0.41845481  1
  Mn3.34+  Mn179  1  0.57534118  0.67341395  0.57898842  1
  Mn3.34+  Mn180  1  0.75290473  0.50377065  0.42315081  1
  Mn3.34+  Mn181  1  0.58712768  -0.00333449  0.92772037  1
  Mn3.34+  Mn182  1  0.59058901  0.50408418  0.93096771  1
  Mn3.34+  Mn183  1  0.91360190  0.50410326  0.91738953  1
  Mn3.34+  Mn184  1  0.91865287  0.49746228  0.57816374  1
  Mn3.34+  Mn185  1  0.91473938  -0.00060072  0.91972035  1
  Mn3.34+  Mn186  1  0.09669926  0.00510275  0.07257594  1
  Mn3.34+  Mn187  1  0.90280173  0.00564805  0.58744811  1
  Mn3.34+  Mn188  1  0.41107163  0.49404155  0.42448051  1
  Mn3.34+  Mn189  1  0.39805674  -0.00482425  0.41745790  1
  Mn3.34+  Mn190  1  0.07477996  0.49266805  0.75619776  1
  Mn3.34+  Mn191  1  0.74388235  -0.00261587  0.75311381  1
  Mn3.34+  Mn192  1  0.10313435  0.49789281  0.07835930  1
  Mn3.34+  Mn193  1  0.58508949  0.00127890  0.58405074  1
  Mn3.34+  Mn194  1  0.41464515  -0.00268514  0.41711872  1
  Mn3.34+  Mn195  1  0.08985824  0.50267673  0.41585202  1
  Mn3.34+  Mn196  1  0.57672396  0.00180134  0.92597413  1
  Mn3.34+  Mn197  1  0.25552730  0.50163827  0.92421621  1
  Mn3.34+  Mn198  1  0.91456392  -0.00196593  0.58572944  1
  Mn3.34+  Mn199  1  0.92521550  0.49624115  0.25983461  1
  Mn3.34+  Mn200  1  0.73804873  0.49786492  0.42278698  1
  Mn3.34+  Mn201  1  0.75324422  0.00654578  0.41257127  1
  Mn3.34+  Mn202  1  0.56063844  0.49843531  0.24714726  1
  Mn3.34+  Mn203  1  0.41702834  0.49793583  0.07695121  1
  Mn3.34+  Mn204  1  0.42032392  0.50284738  0.74704161  1
  Mn3.34+  Mn205  1  0.08787953  0.00665003  0.73931067  1
  Mn3.34+  Mn206  1  0.25083391  -0.00095766  0.57668997  1
  Mn3.34+  Mn207  1  0.26333762  0.50496161  0.24240822  1
  Mn3.34+  Mn208  1  0.08647547  0.49782324  0.75730752  1
  Mn3.34+  Mn209  1  0.25317318  0.49941126  0.58342875  1
  Mn3.34+  Mn210  1  0.41080283  0.00128147  0.73904922  1
  Mn3.34+  Mn211  1  0.08698076  -0.00375818  0.40375564  1
  Mn3.34+  Mn212  1  0.39797782  0.00312092  0.07066358  1
  Mn3.34+  Mn213  1  0.74203393  -0.00076897  0.41262975  1
  Mn3.34+  Mn214  1  0.92777554  0.49789492  0.91770015  1
  Mn3.34+  Mn215  1  0.25312130  0.49919799  0.24017129  1
  O2-  O216  1  -0.00892156  0.14247633  0.01033825  1
  O2-  O217  1  0.00118941  0.15494847  0.32722185  1
  O2-  O218  1  0.00641593  0.15113604  0.65863601  1
  O2-  O219  1  0.00088635  0.63728650  -0.00273183  1
  O2-  O220  1  0.00913279  0.66332379  0.33802349  1
  O2-  O221  1  -0.00169480  0.65670459  0.67923553  1
  O2-  O222  1  0.33294718  0.17432144  -0.00242915  1
  O2-  O223  1  0.34193266  0.17533461  0.34198333  1
  O2-  O224  1  0.33424117  0.16279074  0.65837431  1
  O2-  O225  1  0.33671390  0.66892808  -0.00970886  1
  O2-  O226  1  0.32655108  0.68866987  0.33425878  1
  O2-  O227  1  0.33434267  0.64946727  0.66831162  1
  O2-  O228  1  0.66261249  0.14968984  -0.00459103  1
  O2-  O229  1  0.65876578  0.17212523  0.33459413  1
  O2-  O230  1  0.66386306  0.14376316  0.66685897  1
  O2-  O231  1  0.66208269  0.67064363  -0.00575509  1
  O2-  O232  1  0.66010008  0.65399365  0.33562403  1
  O2-  O233  1  0.66585995  0.66173263  0.65684197  1
  O2-  O234  1  0.15902956  0.16986976  0.00002485  1
  O2-  O235  1  0.15853461  0.16946985  0.33688764  1
  O2-  O236  1  0.16544029  0.15263836  0.66677484  1
  O2-  O237  1  0.17339258  0.65165741  0.00675984  1
  O2-  O238  1  0.17211990  0.65564429  0.33564472  1
  O2-  O239  1  0.16295083  0.64466042  0.66201054  1
  O2-  O240  1  0.50366700  0.14082723  0.00979556  1
  O2-  O241  1  0.50177978  0.18442420  0.32753771  1
  O2-  O242  1  0.50239847  0.16407698  0.65724162  1
  O2-  O243  1  0.49620482  0.67192200  -0.01075205  1
  O2-  O244  1  0.49916323  0.66162787  0.33468820  1
  O2-  O245  1  0.49804518  0.65353005  0.66499271  1
  O2-  O246  1  0.83263820  0.15502971  -0.00527818  1
  O2-  O247  1  0.83139467  0.14802490  0.33562805  1
  O2-  O248  1  0.83631970  0.15600958  0.66363384  1
  O2-  O249  1  0.83788781  0.64939150  0.00335910  1
  O2-  O250  1  0.82707029  0.66204124  0.33141808  1
  O2-  O251  1  0.83136368  0.66013280  0.65857517  1
  O2-  O252  1  -0.00657663  0.34861518  0.00288675  1
  O2-  O253  1  0.00153132  0.34066611  0.33351260  1
  O2-  O254  1  0.00449121  0.34447259  0.66295524  1
  O2-  O255  1  0.00053171  0.86116227  0.00565245  1
  O2-  O256  1  0.00694823  0.85087343  0.32901865  1
  O2-  O257  1  -0.00151557  0.85563460  0.66257866  1
  O2-  O258  1  0.32966948  0.31749071  -0.00644701  1
  O2-  O259  1  0.33523419  0.32977205  0.33420738  1
  O2-  O260  1  0.33500390  0.34533312  0.66237559  1
  O2-  O261  1  0.33106145  0.83862820  0.00295422  1
  O2-  O262  1  0.33066620  0.81762345  0.33020729  1
  O2-  O263  1  0.33247316  0.84599964  0.66725053  1
  O2-  O264  1  0.66591267  0.34641900  -0.00040282  1
  O2-  O265  1  0.66586953  0.34608378  0.33366823  1
  O2-  O266  1  0.66088214  0.34510816  0.67179258  1
  O2-  O267  1  0.66924468  0.81229629  -0.00270323  1
  O2-  O268  1  0.66592014  0.83541755  0.33562638  1
  O2-  O269  1  0.66283732  0.83834650  0.66384833  1
  O2-  O270  1  0.17026240  0.32351233  -0.00259715  1
  O2-  O271  1  0.16928531  0.33973566  0.33615058  1
  O2-  O272  1  0.16653890  0.35035628  0.66389599  1
  O2-  O273  1  0.16619749  0.84857751  -0.00145323  1
  O2-  O274  1  0.16421867  0.84203977  0.32549191  1
  O2-  O275  1  0.17089855  0.85107679  0.66973831  1
  O2-  O276  1  0.50220881  0.34976374  0.00425904  1
  O2-  O277  1  0.50221082  0.32488455  0.33715084  1
  O2-  O278  1  0.50260210  0.34021097  0.66904741  1
  O2-  O279  1  0.49214263  0.83054208  -0.00519848  1
  O2-  O280  1  0.49480353  0.83749082  0.33610181  1
  O2-  O281  1  0.49936365  0.84360291  0.66214003  1
  O2-  O282  1  0.82743190  0.34262361  -0.00154341  1
  O2-  O283  1  0.82843537  0.35378646  0.33055224  1
  O2-  O284  1  0.82525513  0.34533284  0.66099003  1
  O2-  O285  1  0.83756393  0.84548785  0.00671039  1
  O2-  O286  1  0.82945070  0.84833140  0.32979795  1
  O2-  O287  1  0.83057234  0.84418434  0.66123092  1
  O2-  O288  1  -0.00296655  0.18129854  0.16896988  1
  O2-  O289  1  0.00208584  0.17761890  0.50453930  1
  O2-  O290  1  -0.00106801  0.18305526  0.83089811  1
  O2-  O291  1  -0.00893048  0.67439618  0.15372098  1
  O2-  O292  1  0.00804900  0.67637230  0.49621657  1
  O2-  O293  1  0.00971988  0.68202373  0.83833959  1
  O2-  O294  1  0.33252370  0.17654979  0.16079233  1
  O2-  O295  1  0.33009007  0.18119481  0.50273378  1
  O2-  O296  1  0.31714331  0.17102530  0.85543908  1
  O2-  O297  1  0.32107511  0.69213439  0.16636123  1
  O2-  O298  1  0.33811314  0.67755966  0.51412817  1
  O2-  O299  1  0.32991701  0.68465583  0.82841059  1
  O2-  O300  1  0.65162242  0.18573988  0.16646253  1
  O2-  O301  1  0.66791468  0.18350324  0.49751308  1
  O2-  O302  1  0.67128143  0.18068689  0.83270702  1
  O2-  O303  1  0.67008003  0.68519431  0.17143346  1
  O2-  O304  1  0.66256616  0.69539316  0.49533005  1
  O2-  O305  1  0.65678790  0.67058009  0.82927742  1
  O2-  O306  1  0.15891390  0.17737820  0.16369529  1
  O2-  O307  1  0.16466619  0.18003001  0.50604616  1
  O2-  O308  1  0.16006216  0.18243469  0.83238051  1
  O2-  O309  1  0.15643783  0.68832744  0.17916760  1
  O2-  O310  1  0.17322591  0.68074144  0.49962370  1
  O2-  O311  1  0.16965008  0.67562864  0.83101948  1
  O2-  O312  1  0.49445810  0.17693191  0.16830135  1
  O2-  O313  1  0.50374209  0.18216187  0.50116352  1
  O2-  O314  1  0.50331321  0.17888067  0.82970040  1
  O2-  O315  1  0.49455472  0.69045530  0.15622138  1
  O2-  O316  1  0.49904963  0.69009677  0.49764655  1
  O2-  O317  1  0.49667653  0.67824101  0.82899597  1
  O2-  O318  1  0.83959019  0.18078292  0.16166124  1
  O2-  O319  1  0.83742603  0.17933670  0.49675039  1
  O2-  O320  1  0.83062330  0.18593081  0.83049034  1
  O2-  O321  1  0.82906651  0.68392081  0.15317393  1
  O2-  O322  1  0.83559876  0.68691749  0.48962027  1
  O2-  O323  1  0.83987206  0.68180079  0.83122041  1
  O2-  O324  1  -0.00566148  0.32452787  0.16646377  1
  O2-  O325  1  0.00439916  0.31890789  0.50004830  1
  O2-  O326  1  0.00408152  0.31078890  0.83311788  1
  O2-  O327  1  0.00522825  0.82429316  0.16749650  1
  O2-  O328  1  -0.00136158  0.82726591  0.49373337  1
  O2-  O329  1  0.00906568  0.82801095  0.84269729  1
  O2-  O330  1  0.33764194  0.32129216  0.16597143  1
  O2-  O331  1  0.32289657  0.31355757  0.49086211  1
  O2-  O332  1  0.32949283  0.32487212  0.83034495  1
  O2-  O333  1  0.33374726  0.82011504  0.16644809  1
  O2-  O334  1  0.32974414  0.81415372  0.50120721  1
  O2-  O335  1  0.33373585  0.82147674  0.83565479  1
  O2-  O336  1  0.67155929  0.31242312  0.17280066  1
  O2-  O337  1  0.66511807  0.31859993  0.49630116  1
  O2-  O338  1  0.67142875  0.32358298  0.84223061  1
  O2-  O339  1  0.67272044  0.81807860  0.16796764  1
  O2-  O340  1  0.66591160  0.80990093  0.49904481  1
  O2-  O341  1  0.66248547  0.82591409  0.82669618  1
  O2-  O342  1  0.16008371  0.32684242  0.17083472  1
  O2-  O343  1  0.16441984  0.32069797  0.49986514  1
  O2-  O344  1  0.17481008  0.31319070  0.82700472  1
  O2-  O345  1  0.16931735  0.81060269  0.16706131  1
  O2-  O346  1  0.16001995  0.81877359  0.51023433  1
  O2-  O347  1  0.16714869  0.82545649  0.83306532  1
  O2-  O348  1  0.50053372  0.32051592  0.17243530  1
  O2-  O349  1  0.50040824  0.31502385  0.50136791  1
  O2-  O350  1  0.50042529  0.32185243  0.82866337  1
  O2-  O351  1  0.49736382  0.81782012  0.16619673  1
  O2-  O352  1  0.49384012  0.81209497  0.50188370  1
  O2-  O353  1  0.50018616  0.82451605  0.82749566  1
  O2-  O354  1  0.83253884  0.31270580  0.16242396  1
  O2-  O355  1  0.84067072  0.32459949  0.49285607  1
  O2-  O356  1  0.82777712  0.32238021  0.83737318  1
  O2-  O357  1  0.83910263  0.82632107  0.16420526  1
  O2-  O358  1  0.83354111  0.81371692  0.49550731  1
  O2-  O359  1  0.84197505  0.81823393  0.82752582  1
  O2-  O360  1  0.07551170  0.08200298  0.12404153  1
  O2-  O361  1  0.07764052  0.07208848  0.43820883  1
  O2-  O362  1  0.08448435  0.08462886  0.78759439  1
  O2-  O363  1  0.07335353  0.58056414  0.12660368  1
  O2-  O364  1  0.08603814  0.58358322  0.44120765  1
  O2-  O365  1  0.08393080  0.57973680  0.78033550  1
  O2-  O366  1  0.41662775  0.07789860  0.12079408  1
  O2-  O367  1  0.41145235  0.07784821  0.44017082  1
  O2-  O368  1  0.42397963  0.07145703  0.77209860  1
  O2-  O369  1  0.41432098  0.56303745  0.13263766  1
  O2-  O370  1  0.42256608  0.57641800  0.45182813  1
  O2-  O371  1  0.40651743  0.57995412  0.79022714  1
  O2-  O372  1  0.76013219  0.07703724  0.12405647  1
  O2-  O373  1  0.74097467  0.08191611  0.44345515  1
  O2-  O374  1  0.74751735  0.07841649  0.79021158  1
  O2-  O375  1  0.77037813  0.57556484  0.12272831  1
  O2-  O376  1  0.73267901  0.58549234  0.45513009  1
  O2-  O377  1  0.76117950  0.57090545  0.75094970  1
  O2-  O378  1  0.25548743  0.08245558  0.25752812  1
  O2-  O379  1  0.24018054  0.08221097  0.54714267  1
  O2-  O380  1  0.27464379  0.06951756  0.87879145  1
  O2-  O381  1  0.24290614  0.58522013  0.21517859  1
  O2-  O382  1  0.26658807  0.58167669  0.54828093  1
  O2-  O383  1  0.25575172  0.58273466  0.88636249  1
  O2-  O384  1  0.57814069  0.08542127  0.23882201  1
  O2-  O385  1  0.56536369  0.08104188  0.55113658  1
  O2-  O386  1  0.59051685  0.07740476  0.86927101  1
  O2-  O387  1  0.58697124  0.58347234  0.23074008  1
  O2-  O388  1  0.57000438  0.58729749  0.54011561  1
  O2-  O389  1  0.56546028  0.57915390  0.89149703  1
  O2-  O390  1  0.91789547  0.07854136  0.22387912  1
  O2-  O391  1  0.93060919  0.08158533  0.54701244  1
  O2-  O392  1  0.90377309  0.08108692  0.88401681  1
  O2-  O393  1  0.91820604  0.57743073  0.23139955  1
  O2-  O394  1  0.90099844  0.57302353  0.54263672  1
  O2-  O395  1  0.92620689  0.58069186  0.87120882  1
  O2-  O396  1  0.05925207  0.42163514  0.11695427  1
  O2-  O397  1  0.09633832  0.42071531  0.44711333  1
  O2-  O398  1  0.08460953  0.41170361  0.77822927  1
  O2-  O399  1  0.10163976  0.92221265  0.11675999  1
  O2-  O400  1  0.08543671  0.92006447  0.44497699  1
  O2-  O401  1  0.09101548  0.92415958  0.77876872  1
  O2-  O402  1  0.42865414  0.42564275  0.12232827  1
  O2-  O403  1  0.40079365  0.41184315  0.42774243  1
  O2-  O404  1  0.41776807  0.42360057  0.76729844  1
  O2-  O405  1  0.40134878  0.92916485  0.12208037  1
  O2-  O406  1  0.42230562  0.91763074  0.45255623  1
  O2-  O407  1  0.40838118  0.92403181  0.78084587  1
  O2-  O408  1  0.77079698  0.41891756  0.11964621  1
  O2-  O409  1  0.74834061  0.41756354  0.45086127  1
  O2-  O410  1  0.73715019  0.41752645  0.77086665  1
  O2-  O411  1  0.76356041  0.92428258  0.11775837  1
  O2-  O412  1  0.74568086  0.92397223  0.45418797  1
  O2-  O413  1  0.75170529  0.91725392  0.77214384  1
  O2-  O414  1  0.26515973  0.41534352  0.24604404  1
  O2-  O415  1  0.23589544  0.41675602  0.54641331  1
  O2-  O416  1  0.24264283  0.42713365  0.88367010  1
  O2-  O417  1  0.23125563  0.91560146  0.21749330  1
  O2-  O418  1  0.25492675  0.91710929  0.55510139  1
  O2-  O419  1  0.24202471  0.91412873  0.89037545  1
  O2-  O420  1  0.60279496  0.41971381  0.21344525  1
  O2-  O421  1  0.59002500  0.41553557  0.56180887  1
  O2-  O422  1  0.59287702  0.42759466  0.87588327  1
  O2-  O423  1  0.58152776  0.91197618  0.23622789  1
  O2-  O424  1  0.58809125  0.92251853  0.54196642  1
  O2-  O425  1  0.57541860  0.91759871  0.88964247  1
  O2-  O426  1  0.90559521  0.41738637  0.21986177  1
  O2-  O427  1  0.94297005  0.41820794  0.55083203  1
  O2-  O428  1  0.90522888  0.41784602  0.89119240  1
  O2-  O429  1  0.93864230  0.92249907  0.21506399  1
  O2-  O430  1  0.89932825  0.92105885  0.54174471  1
  O2-  O431  1  0.92632302  0.91923589  0.88400751  1
  O2-  O432  1  -0.01110101  -0.01180043  0.01774381  1
  O2-  O433  1  0.00158253  -0.01059371  0.33978130  1
  O2-  O434  1  -0.00438685  -0.00772431  0.66713534  1
  O2-  O435  1  -0.00493028  0.51194804  0.01528456  1
  O2-  O436  1  -0.01119980  0.49805954  0.35775432  1
  O2-  O437  1  0.01077075  0.50762422  0.65245163  1
  O2-  O438  1  0.32429240  -0.01976068  0.00080857  1
  O2-  O439  1  0.33851066  -0.00150916  0.32651415  1
  O2-  O440  1  0.33566864  -0.00762005  0.65844165  1
  O2-  O441  1  0.33768393  0.52107029  0.00360349  1
  O2-  O442  1  0.31987219  0.50644512  0.34878609  1
  O2-  O443  1  0.33844136  0.51718326  0.66711285  1
  O2-  O444  1  0.66203809  0.02456833  0.00877440  1
  O2-  O445  1  0.66577904  -0.01203725  0.33909454  1
  O2-  O446  1  0.65945871  -0.01028475  0.67378195  1
  O2-  O447  1  0.67630473  0.47693916  -0.00972104  1
  O2-  O448  1  0.67288124  0.50444644  0.32137176  1
  O2-  O449  1  0.66624793  0.51523155  0.65897949  1
  O2-  O450  1  0.14313747  0.00164086  -0.04011697  1
  O2-  O451  1  0.15083256  -0.00037771  0.31205173  1
  O2-  O452  1  0.15097146  0.00171814  0.63561055  1
  O2-  O453  1  0.16207131  0.51940588  -0.01752179  1
  O2-  O454  1  0.15290206  0.49866261  0.31029820  1
  O2-  O455  1  0.17123027  0.49014994  0.67253328  1
  O2-  O456  1  0.49070575  -0.00548151  0.00298564  1
  O2-  O457  1  0.50197253  -0.00617120  0.34736958  1
  O2-  O458  1  0.49994258  -0.00916466  0.67083118  1
  O2-  O459  1  0.50701982  0.49826612  0.01059948  1
  O2-  O460  1  0.51751733  0.49461218  0.36706578  1
  O2-  O461  1  0.50071557  0.52116857  0.67812439  1
  O2-  O462  1  0.84040410  0.00833234  0.01305588  1
  O2-  O463  1  0.85141434  -0.00286850  0.36807322  1
  O2-  O464  1  0.82860420  -0.00828485  0.67275814  1
  O2-  O465  1  0.84483975  0.49658364  0.01110602  1
  O2-  O466  1  0.82541545  0.49524207  0.32862802  1
  O2-  O467  1  0.82509617  0.49458270  0.63253369  1
  O2-  O468  1  0.91911873  0.75856377  0.27044316  1
  O2-  O469  1  0.08728005  0.75144785  0.72590231  1
  O2-  O470  1  0.08794406  0.75333300  0.39717293  1
  O2-  O471  1  0.76232372  0.25153509  0.39134051  1
  O2-  O472  1  0.07688610  0.24849853  0.71955550  1
  O2-  O473  1  0.23643945  0.75035820  0.93678575  1
  O2-  O474  1  0.74794958  0.75394224  0.73688578  1
  O2-  O475  1  0.06796017  0.24947808  0.06411730  1
  O2-  O476  1  0.59786858  0.24932746  0.60627400  1
  O2-  O477  1  0.43556178  0.24678608  0.06049072  1
  O2-  O478  1  0.24669639  0.25176634  0.25759433  1
  O2-  O479  1  0.92877017  0.75341636  0.95328882  1
  O2-  O480  1  0.58120958  0.24869305  0.94384702  1
  O2-  O481  1  0.41446093  0.74753667  0.72540910  1
  O2-  O482  1  0.24729421  0.74913226  0.61444450  1
  O2-  O483  1  0.92716502  0.75756979  0.60099371  1
  O2-  O484  1  0.23945127  0.25089826  0.61422934  1
  O2-  O485  1  0.58002518  0.74835480  0.27193978  1
  O2-  O486  1  0.07343165  0.74915500  0.04702574  1
  O2-  O487  1  0.91406498  0.25046853  0.60336380  1
  O2-  O488  1  0.57929844  0.74966094  0.91309183  1
  O2-  O489  1  0.91557650  0.24806046  0.94510411  1
  O2-  O490  1  0.41150635  0.25502567  0.73805467  1
  O2-  O491  1  0.90817075  0.24606834  0.28338662  1
  O2-  O492  1  0.75160939  0.24777261  0.72527438  1
