# generated using pymatgen
data_Ca108Mn108O277
_symmetry_space_group_name_H-M   'P 1'
_cell_length_a   16.01591581
_cell_length_b   22.29078254
_cell_length_c   16.37966619
_cell_angle_alpha   90.00141684
_cell_angle_beta   90.00021106
_cell_angle_gamma   90.00227536
_symmetry_Int_Tables_number   1
_chemical_formula_structural   Ca108Mn108O277
_chemical_formula_sum   'Ca108 Mn108 O277'
_cell_volume   5847.66034132
_cell_formula_units_Z   1
loop_
 _symmetry_equiv_pos_site_id
 _symmetry_equiv_pos_as_xyz
  1  'x, y, z'
loop_
 _atom_type_symbol
 _atom_type_oxidation_number
  Ca2+  2.0
  Mn3.34+  3.34
  O2-  -2.0
loop_
 _atom_site_type_symbol
 _atom_site_label
 _atom_site_symmetry_multiplicity
 _atom_site_fract_x
 _atom_site_fract_y
 _atom_site_fract_z
 _atom_site_occupancy
  Ca2+  Ca0  1  0.07858873  0.25012762  0.26010224  1
  Ca2+  Ca1  1  0.09941844  0.23675144  0.58294348  1
  Ca2+  Ca2  1  0.07559854  0.24709697  0.91062461  1
  Ca2+  Ca3  1  0.09371112  0.74817743  0.25053265  1
  Ca2+  Ca4  1  0.08445242  0.74271553  0.58457560  1
  Ca2+  Ca5  1  0.07394259  0.76547846  0.91268672  1
  Ca2+  Ca6  1  0.40008775  0.26857602  0.25717668  1
  Ca2+  Ca7  1  0.40006849  0.23979774  0.60260889  1
  Ca2+  Ca8  1  0.41538008  0.23583922  0.88117329  1
  Ca2+  Ca9  1  0.40800347  0.76022738  0.24436796  1
  Ca2+  Ca10  1  0.42535888  0.74021934  0.59604346  1
  Ca2+  Ca11  1  0.42747143  0.75261202  0.90209116  1
  Ca2+  Ca12  1  0.77227510  0.24679629  0.26504025  1
  Ca2+  Ca13  1  0.74765637  0.23039156  0.57431758  1
  Ca2+  Ca14  1  0.75872919  0.24437418  0.90530616  1
  Ca2+  Ca15  1  0.74904274  0.75276010  0.24104683  1
  Ca2+  Ca16  1  0.73644721  0.74871540  0.59189127  1
  Ca2+  Ca17  1  0.75247089  0.75933861  0.90978495  1
  Ca2+  Ca18  1  0.22820981  0.24496423  0.07667660  1
  Ca2+  Ca19  1  0.23481386  0.25259667  0.43004108  1
  Ca2+  Ca20  1  0.25143558  0.24232250  0.73614017  1
  Ca2+  Ca21  1  0.24248687  0.76211171  0.08681818  1
  Ca2+  Ca22  1  0.23721336  0.75421263  0.42112090  1
  Ca2+  Ca23  1  0.24683351  0.74648962  0.73221305  1
  Ca2+  Ca24  1  0.59735658  0.25089374  0.06559247  1
  Ca2+  Ca25  1  0.60192358  0.25654349  0.42508248  1
  Ca2+  Ca26  1  0.57507232  0.24214323  0.74963841  1
  Ca2+  Ca27  1  0.57549328  0.75307827  0.07024193  1
  Ca2+  Ca28  1  0.57277167  0.75410029  0.44009341  1
  Ca2+  Ca29  1  0.57401953  0.74392589  0.73942174  1
  Ca2+  Ca30  1  0.92229995  0.24756071  0.08027128  1
  Ca2+  Ca31  1  0.91350496  0.24746760  0.41403929  1
  Ca2+  Ca32  1  0.92221804  0.24559560  0.75903804  1
  Ca2+  Ca33  1  0.92804168  0.75508878  0.07135050  1
  Ca2+  Ca34  1  0.93651076  0.74868663  0.42607113  1
  Ca2+  Ca35  1  0.92724492  0.75465844  0.75668638  1
  Ca2+  Ca36  1  0.24522529  0.59377566  0.08765269  1
  Ca2+  Ca37  1  0.92027593  0.09702950  0.75145526  1
  Ca2+  Ca38  1  0.56813306  0.59783416  0.75350388  1
  Ca2+  Ca39  1  0.58924497  0.58705434  0.42715997  1
  Ca2+  Ca40  1  0.60132968  0.58315600  0.05544112  1
  Ca2+  Ca41  1  0.77952150  0.10987336  0.25490980  1
  Ca2+  Ca42  1  0.91969459  0.59069538  0.73339716  1
  Ca2+  Ca43  1  0.07299183  0.09368003  0.91491439  1
  Ca2+  Ca44  1  0.09250291  0.60080107  0.58013399  1
  Ca2+  Ca45  1  0.25490190  0.10203785  0.73263033  1
  Ca2+  Ca46  1  0.61748982  0.08549695  0.06462527  1
  Ca2+  Ca47  1  0.40260968  0.08124450  0.25646723  1
  Ca2+  Ca48  1  0.59067848  0.58318080  0.05720549  1
  Ca2+  Ca49  1  0.41396327  0.10245876  0.60070544  1
  Ca2+  Ca50  1  0.61373314  0.10888696  0.44647882  1
  Ca2+  Ca51  1  0.23235360  0.59383573  0.08827250  1
  Ca2+  Ca52  1  0.75359844  0.58500568  0.92264208  1
  Ca2+  Ca53  1  0.22819788  0.09577370  0.44855274  1
  Ca2+  Ca54  1  0.57659385  0.58742078  0.42733411  1
  Ca2+  Ca55  1  0.93103859  0.59012210  0.73390484  1
  Ca2+  Ca56  1  0.90345324  0.11031921  0.42011279  1
  Ca2+  Ca57  1  0.76928493  0.58286101  0.24715359  1
  Ca2+  Ca58  1  0.22786621  0.08965984  0.08040181  1
  Ca2+  Ca59  1  0.94300538  0.59091183  0.43319007  1
  Ca2+  Ca60  1  0.57056534  0.11050631  0.74286571  1
  Ca2+  Ca61  1  0.06973215  0.10512238  0.25219425  1
  Ca2+  Ca62  1  0.06700317  0.58691113  0.91329996  1
  Ca2+  Ca63  1  0.22545759  0.59096301  0.42588202  1
  Ca2+  Ca64  1  0.41859885  0.58296355  0.26151904  1
  Ca2+  Ca65  1  0.05477218  0.58604702  0.91384677  1
  Ca2+  Ca66  1  0.40715544  0.58331577  0.26117071  1
  Ca2+  Ca67  1  0.62394524  0.11020286  0.44568192  1
  Ca2+  Ca68  1  0.91318147  0.09533146  0.07523072  1
  Ca2+  Ca69  1  0.91481809  0.58614445  0.07244317  1
  Ca2+  Ca70  1  0.07366576  0.58951588  0.26977851  1
  Ca2+  Ca71  1  0.38983289  0.07962741  0.25563731  1
  Ca2+  Ca72  1  0.93205172  0.91471629  0.75845114  1
  Ca2+  Ca73  1  0.06888318  0.40225638  0.91824403  1
  Ca2+  Ca74  1  0.23748854  0.39271166  0.08598166  1
  Ca2+  Ca75  1  0.39616237  0.91385772  0.25917474  1
  Ca2+  Ca76  1  0.23838061  0.90765361  0.74517705  1
  Ca2+  Ca77  1  0.57501624  0.91074780  0.41828972  1
  Ca2+  Ca78  1  0.24158937  0.91051056  0.08001067  1
  Ca2+  Ca79  1  0.42157613  0.39360523  0.91659610  1
  Ca2+  Ca80  1  0.58186600  0.90385414  0.75430998  1
  Ca2+  Ca81  1  0.75918940  0.39341631  0.57611325  1
  Ca2+  Ca82  1  0.60650977  0.91329988  0.07597636  1
  Ca2+  Ca83  1  0.41542007  0.40391383  0.57200500  1
  Ca2+  Ca84  1  0.59471592  0.90373999  0.75467557  1
  Ca2+  Ca85  1  0.92185448  0.90699906  0.42245388  1
  Ca2+  Ca86  1  0.92602155  0.40268810  0.75426509  1
  Ca2+  Ca87  1  0.74688155  0.90649086  0.24986764  1
  Ca2+  Ca88  1  0.23170975  0.40467097  0.42155017  1
  Ca2+  Ca89  1  0.59407433  0.91175676  0.07598211  1
  Ca2+  Ca90  1  0.10984754  0.91427748  0.25217964  1
  Ca2+  Ca91  1  0.58773706  0.91097333  0.41773045  1
  Ca2+  Ca92  1  0.76891518  0.91120177  0.58789310  1
  Ca2+  Ca93  1  0.40287497  0.40338526  0.57129493  1
  Ca2+  Ca94  1  0.75932773  0.90465023  0.24877384  1
  Ca2+  Ca95  1  0.58386007  0.40428745  0.76585182  1
  Ca2+  Ca96  1  0.58525554  0.40090512  0.41260130  1
  Ca2+  Ca97  1  0.39676403  0.90786605  0.58275486  1
  Ca2+  Ca98  1  0.59988741  0.40892362  0.07594642  1
  Ca2+  Ca99  1  0.41087107  0.90292268  0.91711284  1
  Ca2+  Ca100  1  0.58710950  0.40906336  0.07552119  1
  Ca2+  Ca101  1  0.09149058  0.91940500  0.58541186  1
  Ca2+  Ca102  1  0.91624964  0.40504162  0.75766863  1
  Ca2+  Ca103  1  0.75936205  0.40226577  0.25497897  1
  Ca2+  Ca104  1  0.24815881  0.39530778  0.08581673  1
  Ca2+  Ca105  1  0.07898629  0.91792291  0.58711741  1
  Ca2+  Ca106  1  0.59665775  0.40378180  0.76652138  1
  Ca2+  Ca107  1  0.09742845  0.91328474  0.25107029  1
  Mn3.34+  Mn108  1  0.07233908  0.33110934  0.08815990  1
  Mn3.34+  Mn109  1  0.07329973  0.33738294  0.41910139  1
  Mn3.34+  Mn110  1  0.08784380  0.33137428  0.74878184  1
  Mn3.34+  Mn111  1  0.07820194  0.83755078  0.07928090  1
  Mn3.34+  Mn112  1  0.08602150  0.83432174  0.41996650  1
  Mn3.34+  Mn113  1  0.08389194  0.83407210  0.75440509  1
  Mn3.34+  Mn114  1  0.41823193  0.32311812  0.08436070  1
  Mn3.34+  Mn115  1  0.41604350  0.33837426  0.41306731  1
  Mn3.34+  Mn116  1  0.41142906  0.33141158  0.75029070  1
  Mn3.34+  Mn117  1  0.41471749  0.83415273  0.08274350  1
  Mn3.34+  Mn118  1  0.40905146  0.83473844  0.41991402  1
  Mn3.34+  Mn119  1  0.41122085  0.83311591  0.75078394  1
  Mn3.34+  Mn120  1  0.76119305  0.33340668  0.08708134  1
  Mn3.34+  Mn121  1  0.75808985  0.32908668  0.41796381  1
  Mn3.34+  Mn122  1  0.75316234  0.32978029  0.75022312  1
  Mn3.34+  Mn123  1  0.76272418  0.84013325  0.07931081  1
  Mn3.34+  Mn124  1  0.75513355  0.82814983  0.42118199  1
  Mn3.34+  Mn125  1  0.75713420  0.83433152  0.75269386  1
  Mn3.34+  Mn126  1  0.24323161  0.32952287  0.25557901  1
  Mn3.34+  Mn127  1  0.24092799  0.33341905  0.58465788  1
  Mn3.34+  Mn128  1  0.24723971  0.32728544  0.91014846  1
  Mn3.34+  Mn129  1  0.25174632  0.83634007  0.24888367  1
  Mn3.34+  Mn130  1  0.24826591  0.83648742  0.57929242  1
  Mn3.34+  Mn131  1  0.24578441  0.83799223  0.91439959  1
  Mn3.34+  Mn132  1  0.58468471  0.32991258  0.24668207  1
  Mn3.34+  Mn133  1  0.58415416  0.32623559  0.58368155  1
  Mn3.34+  Mn134  1  0.58771569  0.33149558  0.91687011  1
  Mn3.34+  Mn135  1  0.58176996  0.83472145  0.24734430  1
  Mn3.34+  Mn136  1  0.58320238  0.83349905  0.58361302  1
  Mn3.34+  Mn137  1  0.58734563  0.83333501  0.91542929  1
  Mn3.34+  Mn138  1  0.92331652  0.34068572  0.24987501  1
  Mn3.34+  Mn139  1  0.92447547  0.33406391  0.57753186  1
  Mn3.34+  Mn140  1  0.91309716  0.33468884  0.92128637  1
  Mn3.34+  Mn141  1  0.92121571  0.82620325  0.24826245  1
  Mn3.34+  Mn142  1  0.91818874  0.83625040  0.58185954  1
  Mn3.34+  Mn143  1  0.91504252  0.84480857  0.91805175  1
  Mn3.34+  Mn144  1  0.91444585  0.66814322  0.91259186  1
  Mn3.34+  Mn145  1  0.58248988  0.66762246  0.24643859  1
  Mn3.34+  Mn146  1  0.40254333  0.66056637  0.43231743  1
  Mn3.34+  Mn147  1  0.08000900  0.16861643  0.42159014  1
  Mn3.34+  Mn148  1  0.58902100  0.17730569  0.24480530  1
  Mn3.34+  Mn149  1  0.41097971  0.17779334  0.07731954  1
  Mn3.34+  Mn150  1  0.74275068  0.66127866  0.74713381  1
  Mn3.34+  Mn151  1  0.24312630  0.16534615  0.24772653  1
  Mn3.34+  Mn152  1  0.08737007  0.66902668  0.74385095  1
  Mn3.34+  Mn153  1  0.91776924  0.66542678  0.24664762  1
  Mn3.34+  Mn154  1  0.41999894  0.17282209  0.42092681  1
  Mn3.34+  Mn155  1  0.41460600  0.66796274  0.08135336  1
  Mn3.34+  Mn156  1  0.24613715  0.16461815  0.90916375  1
  Mn3.34+  Mn157  1  0.07682377  0.16633903  0.08453124  1
  Mn3.34+  Mn158  1  0.08385773  0.16610876  0.74737904  1
  Mn3.34+  Mn159  1  0.59327064  0.66273998  0.24473434  1
  Mn3.34+  Mn160  1  0.40694518  0.16555575  0.42208308  1
  Mn3.34+  Mn161  1  0.75275429  0.67518697  0.42225423  1
  Mn3.34+  Mn162  1  0.91245148  0.16139516  0.91285887  1
  Mn3.34+  Mn163  1  0.24591102  0.67054627  0.90933140  1
  Mn3.34+  Mn164  1  0.75722576  0.16263615  0.08260073  1
  Mn3.34+  Mn165  1  0.24724054  0.66887272  0.25262209  1
  Mn3.34+  Mn166  1  0.25916066  0.66440958  0.90797601  1
  Mn3.34+  Mn167  1  0.42010800  0.17189320  0.07888604  1
  Mn3.34+  Mn168  1  0.76497036  0.66778485  0.42405126  1
  Mn3.34+  Mn169  1  0.75263436  0.66650483  0.74590850  1
  Mn3.34+  Mn170  1  0.41456341  0.66807021  0.42864780  1
  Mn3.34+  Mn171  1  0.08354930  0.66997517  0.42277435  1
  Mn3.34+  Mn172  1  0.07790872  0.66824578  0.08674862  1
  Mn3.34+  Mn173  1  0.58934355  0.16646884  0.91160962  1
  Mn3.34+  Mn174  1  0.58093093  0.66498898  0.91299394  1
  Mn3.34+  Mn175  1  0.91884018  0.15476972  0.58364756  1
  Mn3.34+  Mn176  1  0.75726732  0.66915724  0.08221783  1
  Mn3.34+  Mn177  1  0.74839354  0.16913060  0.74572718  1
  Mn3.34+  Mn178  1  0.58004207  0.17146634  0.24303764  1
  Mn3.34+  Mn179  1  0.41237103  0.66768482  0.74197121  1
  Mn3.34+  Mn180  1  0.06657962  0.49675893  0.08530757  1
  Mn3.34+  Mn181  1  0.09215780  0.49607781  0.74675024  1
  Mn3.34+  Mn182  1  0.58244090  0.50352629  0.58845384  1
  Mn3.34+  Mn183  1  0.41723624  0.49867302  0.08810263  1
  Mn3.34+  Mn184  1  0.58849017  0.00463503  0.25342869  1
  Mn3.34+  Mn185  1  0.07073874  0.00002022  0.06553608  1
  Mn3.34+  Mn186  1  0.08512489  0.00239948  0.73649554  1
  Mn3.34+  Mn187  1  0.76541245  0.49442503  0.07142368  1
  Mn3.34+  Mn188  1  0.91953050  0.49835777  0.58716421  1
  Mn3.34+  Mn189  1  0.24879942  0.49565308  0.89708926  1
  Mn3.34+  Mn190  1  0.91101857  -0.00163246  0.23859814  1
  Mn3.34+  Mn191  1  0.24584750  0.48919234  0.26611189  1
  Mn3.34+  Mn192  1  0.23530109  0.49459436  0.26470040  1
  Mn3.34+  Mn193  1  0.40932740  0.00042764  0.08149266  1
  Mn3.34+  Mn194  1  0.39361011  0.49908986  0.75376156  1
  Mn3.34+  Mn195  1  0.75342368  0.49709766  0.75756929  1
  Mn3.34+  Mn196  1  0.40623804  0.00115052  0.75024034  1
  Mn3.34+  Mn197  1  0.58213532  0.49572468  0.25833430  1
  Mn3.34+  Mn198  1  0.40288453  0.50576469  0.75543354  1
  Mn3.34+  Mn199  1  0.92259999  0.00219696  0.23844261  1
  Mn3.34+  Mn200  1  0.60021509  0.00340800  0.92118876  1
  Mn3.34+  Mn201  1  0.08891054  0.00267794  0.40861365  1
  Mn3.34+  Mn202  1  0.75353662  0.00551822  0.75904624  1
  Mn3.34+  Mn203  1  0.41808129  0.00660231  0.75848942  1
  Mn3.34+  Mn204  1  0.58593723  0.00004103  0.58935768  1
  Mn3.34+  Mn205  1  0.59296272  0.49797586  0.58870257  1
  Mn3.34+  Mn206  1  0.75764370  0.00131673  0.42210897  1
  Mn3.34+  Mn207  1  0.24172543  0.00149606  0.91684556  1
  Mn3.34+  Mn208  1  0.76348828  0.00012035  0.76027532  1
  Mn3.34+  Mn209  1  0.24362494  0.50055682  0.59107521  1
  Mn3.34+  Mn210  1  0.42024601  0.00513199  0.07933733  1
  Mn3.34+  Mn211  1  0.92443832  0.49672868  0.26435022  1
  Mn3.34+  Mn212  1  0.40831076  0.49296455  0.09336225  1
  Mn3.34+  Mn213  1  0.24968372  0.49934577  0.91121513  1
  Mn3.34+  Mn214  1  0.40418587  -0.00130201  0.41290305  1
  Mn3.34+  Mn215  1  0.75755700  0.49738859  0.41586090  1
  O2-  O216  1  -0.00136079  0.15898612  -0.00005931  1
  O2-  O217  1  0.00014959  0.16638631  0.33993438  1
  O2-  O218  1  -0.00535669  0.17119747  0.67010751  1
  O2-  O219  1  -0.00128380  0.65316849  -0.00258183  1
  O2-  O220  1  -0.00321709  0.66597975  0.33286005  1
  O2-  O221  1  0.00184713  0.66238057  0.67095678  1
  O2-  O222  1  0.32721311  0.16165428  0.00078496  1
  O2-  O223  1  0.33699046  0.15403562  0.32872298  1
  O2-  O224  1  0.33210945  0.16543489  0.66420439  1
  O2-  O225  1  0.32211792  0.65557890  0.00805226  1
  O2-  O226  1  0.33610938  0.65146314  0.33624975  1
  O2-  O227  1  0.33476372  0.68172391  0.66809037  1
  O2-  O228  1  0.67058878  0.17114471  0.00439350  1
  O2-  O229  1  0.66499252  0.16302212  0.33087124  1
  O2-  O230  1  0.66286977  0.17358461  0.67465393  1
  O2-  O231  1  0.67070464  0.66423478  0.00149715  1
  O2-  O232  1  0.67337986  0.65762516  0.33659536  1
  O2-  O233  1  0.66178952  0.66300399  0.67044372  1
  O2-  O234  1  0.16370554  0.15522379  0.00095301  1
  O2-  O235  1  0.16720329  0.15423707  0.33186121  1
  O2-  O236  1  0.16542272  0.16698096  0.67539006  1
  O2-  O237  1  0.16330988  0.64780171  -0.00386043  1
  O2-  O238  1  0.16394232  0.65817477  0.33014221  1
  O2-  O239  1  0.16280058  0.67491979  0.66421183  1
  O2-  O240  1  0.50686481  0.16594719  0.00263541  1
  O2-  O241  1  0.49796645  0.15827778  0.33208822  1
  O2-  O242  1  0.49918208  0.17621737  0.66239817  1
  O2-  O243  1  0.50766728  0.65749150  0.00733905  1
  O2-  O244  1  0.49839749  0.65034844  0.33803346  1
  O2-  O245  1  0.49806133  0.66431088  0.67511770  1
  O2-  O246  1  0.83601913  0.17147572  0.00262304  1
  O2-  O247  1  0.84284864  0.17385239  0.33149514  1
  O2-  O248  1  0.83891011  0.17065598  0.66646168  1
  O2-  O249  1  0.83580373  0.66017159  -0.00143203  1
  O2-  O250  1  0.83437568  0.67328117  0.33114363  1
  O2-  O251  1  0.83979584  0.66476855  0.67191190  1
  O2-  O252  1  0.00129532  0.33656268  -0.00241937  1
  O2-  O253  1  -0.00392617  0.32007632  0.33254947  1
  O2-  O254  1  -0.00711269  0.33487791  0.67475974  1
  O2-  O255  1  -0.00231325  0.83293835  -0.00113396  1
  O2-  O256  1  -0.00050467  0.84559707  0.33533199  1
  O2-  O257  1  0.00260691  0.83818869  0.66423668  1
  O2-  O258  1  0.33254998  0.33645326  0.00432651  1
  O2-  O259  1  0.32873061  0.34365704  0.33423278  1
  O2-  O260  1  0.33953558  0.34357446  0.65916514  1
  O2-  O261  1  0.33302738  0.84314245  0.00164279  1
  O2-  O262  1  0.33663989  0.83894996  0.32761771  1
  O2-  O263  1  0.32947658  0.83391693  0.66615543  1
  O2-  O264  1  0.66511611  0.33751502  0.00833890  1
  O2-  O265  1  0.66765583  0.33586278  0.33196532  1
  O2-  O266  1  0.66358603  0.33832001  0.66956569  1
  O2-  O267  1  0.66651379  0.83441147  0.00790139  1
  O2-  O268  1  0.67061472  0.84347299  0.33417687  1
  O2-  O269  1  0.66884619  0.84760975  0.66507825  1
  O2-  O270  1  0.16770939  0.33999446  0.00123052  1
  O2-  O271  1  0.16618820  0.33565765  0.33521552  1
  O2-  O272  1  0.16940301  0.33093468  0.67147583  1
  O2-  O273  1  0.17017293  0.84142811  0.00527268  1
  O2-  O274  1  0.16429408  0.84280998  0.32845253  1
  O2-  O275  1  0.16531609  0.83257322  0.66421045  1
  O2-  O276  1  0.50463678  0.33677893  0.00392409  1
  O2-  O277  1  0.50629321  0.32792684  0.33513518  1
  O2-  O278  1  0.50179522  0.34550149  0.66907796  1
  O2-  O279  1  0.50332072  0.84771600  0.00227268  1
  O2-  O280  1  0.50095035  0.85040991  0.33639395  1
  O2-  O281  1  0.50002296  0.85090446  0.66828471  1
  O2-  O282  1  0.83073156  0.31801645  0.00024141  1
  O2-  O283  1  0.83440669  0.33259594  0.32906382  1
  O2-  O284  1  0.83610253  0.33802792  0.67027347  1
  O2-  O285  1  0.83273203  0.81728888  -0.00177426  1
  O2-  O286  1  0.83125418  0.82509441  0.32844234  1
  O2-  O287  1  0.83452864  0.83135167  0.66253506  1
  O2-  O288  1  0.00291063  0.17787534  0.16283644  1
  O2-  O289  1  -0.00045265  0.17854779  0.50506768  1
  O2-  O290  1  -0.00123350  0.16795523  0.83440055  1
  O2-  O291  1  -0.00033986  0.68158209  0.17055434  1
  O2-  O292  1  0.00359671  0.68066116  0.49916518  1
  O2-  O293  1  -0.00312276  0.66941627  0.83018103  1
  O2-  O294  1  0.33536532  0.18278541  0.16710350  1
  O2-  O295  1  0.33063964  0.17159113  0.50103748  1
  O2-  O296  1  0.31859695  0.17549585  0.82939266  1
  O2-  O297  1  0.33282390  0.66702438  0.17247612  1
  O2-  O298  1  0.32419793  0.68547061  0.50140672  1
  O2-  O299  1  0.33693071  0.68362041  0.83087760  1
  O2-  O300  1  0.66933915  0.18621849  0.16044034  1
  O2-  O301  1  0.65678872  0.18668756  0.50004725  1
  O2-  O302  1  0.66906705  0.17707553  0.83214114  1
  O2-  O303  1  0.66919840  0.68698850  0.15642935  1
  O2-  O304  1  0.66552922  0.68206583  0.49165674  1
  O2-  O305  1  0.66894188  0.67504352  0.83433533  1
  O2-  O306  1  0.16609574  0.17247701  0.16416859  1
  O2-  O307  1  0.16662349  0.17425656  0.49309212  1
  O2-  O308  1  0.15730871  0.17277011  0.83795330  1
  O2-  O309  1  0.17269715  0.67295370  0.15795538  1
  O2-  O310  1  0.16556947  0.68010447  0.49524105  1
  O2-  O311  1  0.15671035  0.66985442  0.83787887  1
  O2-  O312  1  0.49591776  0.19154951  0.16590876  1
  O2-  O313  1  0.50005129  0.17781639  0.49878386  1
  O2-  O314  1  0.51128417  0.17384235  0.83359786  1
  O2-  O315  1  0.49042606  0.66738822  0.17172358  1
  O2-  O316  1  0.50520746  0.67498210  0.49505364  1
  O2-  O317  1  0.50430691  0.67497521  0.83265381  1
  O2-  O318  1  0.82783218  0.18528200  0.15928773  1
  O2-  O319  1  0.84991833  0.18231094  0.51004650  1
  O2-  O320  1  0.83923246  0.17475075  0.82837064  1
  O2-  O321  1  0.83378467  0.68708894  0.16780830  1
  O2-  O322  1  0.83803572  0.69250617  0.50209490  1
  O2-  O323  1  0.82856515  0.67481001  0.83220842  1
  O2-  O324  1  -0.00133671  0.31343525  0.17035119  1
  O2-  O325  1  0.00163363  0.31113448  0.50290494  1
  O2-  O326  1  -0.00395888  0.32907393  0.83150666  1
  O2-  O327  1  0.00780527  0.82167555  0.17454593  1
  O2-  O328  1  0.00116789  0.81897091  0.50331213  1
  O2-  O329  1  -0.00322436  0.83109045  0.82907429  1
  O2-  O330  1  0.32651456  0.32006911  0.15804622  1
  O2-  O331  1  0.33497790  0.33232658  0.49858523  1
  O2-  O332  1  0.33947705  0.32480364  0.84020696  1
  O2-  O333  1  0.33331769  0.82738935  0.16569605  1
  O2-  O334  1  0.33419106  0.81644953  0.50704009  1
  O2-  O335  1  0.33664159  0.82510082  0.83694995  1
  O2-  O336  1  0.66677761  0.31423587  0.16389324  1
  O2-  O337  1  0.66787708  0.32380400  0.50284911  1
  O2-  O338  1  0.66281559  0.32714231  0.82828401  1
  O2-  O339  1  0.67331474  0.82120956  0.16586435  1
  O2-  O340  1  0.66443824  0.82268445  0.49567584  1
  O2-  O341  1  0.66185287  0.82523785  0.82509866  1
  O2-  O342  1  0.16927202  0.32294106  0.16124807  1
  O2-  O343  1  0.16859093  0.32942317  0.49731539  1
  O2-  O344  1  0.15750597  0.32897362  0.84165460  1
  O2-  O345  1  0.16570946  0.82822770  0.16863963  1
  O2-  O346  1  0.16319259  0.81749891  0.50640577  1
  O2-  O347  1  0.17145832  0.82434295  0.82715674  1
  O2-  O348  1  0.50233828  0.30825862  0.16351615  1
  O2-  O349  1  0.49778349  0.31993067  0.50500205  1
  O2-  O350  1  0.50354280  0.32632330  0.83047326  1
  O2-  O351  1  0.50305464  0.83260708  0.16079491  1
  O2-  O352  1  0.50184752  0.83015703  0.49909017  1
  O2-  O353  1  0.50010324  0.83413090  0.83071310  1
  O2-  O354  1  0.83446332  0.31485090  0.17282871  1
  O2-  O355  1  0.83235590  0.31800148  0.50772676  1
  O2-  O356  1  0.83850310  0.33207977  0.82706369  1
  O2-  O357  1  0.83316860  0.81608068  0.16881134  1
  O2-  O358  1  0.83675223  0.81482894  0.50200168  1
  O2-  O359  1  0.83724130  0.82304734  0.83036537  1
  O2-  O360  1  0.08189381  0.07752310  0.11125329  1
  O2-  O361  1  0.08249731  0.08165970  0.43099854  1
  O2-  O362  1  0.07788590  0.07859450  0.77142833  1
  O2-  O363  1  0.09373723  0.57870665  0.11763840  1
  O2-  O364  1  0.08086520  0.58846067  0.44001173  1
  O2-  O365  1  0.07232386  0.57802743  0.77729194  1
  O2-  O366  1  0.42154234  0.08527484  0.11710369  1
  O2-  O367  1  0.42138182  0.08247581  0.43686942  1
  O2-  O368  1  0.41835790  0.08590518  0.75371765  1
  O2-  O369  1  0.40279239  0.57951499  0.11436054  1
  O2-  O370  1  0.43020771  0.58089031  0.44312401  1
  O2-  O371  1  0.42027193  0.58471269  0.77362344  1
  O2-  O372  1  0.75445350  0.08444992  0.11265099  1
  O2-  O373  1  0.75233748  0.08240211  0.43208971  1
  O2-  O374  1  0.75780867  0.08696846  0.76181697  1
  O2-  O375  1  0.74122458  0.57660059  0.11308517  1
  O2-  O376  1  0.74209572  0.58100382  0.44115041  1
  O2-  O377  1  0.75717733  0.57844691  0.78407438  1
  O2-  O378  1  0.26521404  0.08400485  0.21585971  1
  O2-  O379  1  0.27185150  0.07783417  0.57650657  1
  O2-  O380  1  0.23810159  0.08027546  0.88743694  1
  O2-  O381  1  0.25288256  0.57480617  0.21851507  1
  O2-  O382  1  0.23519502  0.57227435  0.55277874  1
  O2-  O383  1  0.24591744  0.58141579  0.89007617  1
  O2-  O384  1  0.57006839  0.08524279  0.21236398  1
  O2-  O385  1  0.56582196  0.07706622  0.56389271  1
  O2-  O386  1  0.59061149  0.08273816  0.90013274  1
  O2-  O387  1  0.58740383  0.57651383  0.20338927  1
  O2-  O388  1  0.58908443  0.58218285  0.55845993  1
  O2-  O389  1  0.59992324  0.58305639  0.90973864  1
  O2-  O390  1  0.92034522  0.08379738  0.22207825  1
  O2-  O391  1  0.91578722  0.08130046  0.56548368  1
  O2-  O392  1  0.91835520  0.08142398  0.89787947  1
  O2-  O393  1  0.91372277  0.57414458  0.21364254  1
  O2-  O394  1  0.93377903  0.57600993  0.56708904  1
  O2-  O395  1  0.92167347  0.58139256  0.87684539  1
  O2-  O396  1  0.09967729  0.41646202  0.09561271  1
  O2-  O397  1  0.08726671  0.41443342  0.42634235  1
  O2-  O398  1  0.06828882  0.41702684  0.77185409  1
  O2-  O399  1  0.08849605  0.92541261  0.11574670  1
  O2-  O400  1  0.07665009  0.92201664  0.45050074  1
  O2-  O401  1  0.08746001  0.91980058  0.76057486  1
  O2-  O402  1  0.42373547  0.41199437  0.09640203  1
  O2-  O403  1  0.43197895  0.41914491  0.44070535  1
  O2-  O404  1  0.42814773  0.41949798  0.77728917  1
  O2-  O405  1  0.41293069  0.91900527  0.10757833  1
  O2-  O406  1  0.43126889  0.92115339  0.44986050  1
  O2-  O407  1  0.41341398  0.92035180  0.77389689  1
  O2-  O408  1  0.73411187  0.42153917  0.11783574  1
  O2-  O409  1  0.74089246  0.41637091  0.43657457  1
  O2-  O410  1  0.74036064  0.41522480  0.76076443  1
  O2-  O411  1  0.73598396  0.92279200  0.11968661  1
  O2-  O412  1  0.75353092  0.91867657  0.44573614  1
  O2-  O413  1  0.73891619  0.91812258  0.77413440  1
  O2-  O414  1  0.25103037  0.41360317  0.21922936  1
  O2-  O415  1  0.26502267  0.42293933  0.55425244  1
  O2-  O416  1  0.25725122  0.41314555  0.91044956  1
  O2-  O417  1  0.24391917  0.91811259  0.22193377  1
  O2-  O418  1  0.23407074  0.91604359  0.57001569  1
  O2-  O419  1  0.26045171  0.92210148  0.88617799  1
  O2-  O420  1  0.58885859  0.41763088  0.21175030  1
  O2-  O421  1  0.57544406  0.41807495  0.55799172  1
  O2-  O422  1  0.57397610  0.41715388  0.89915094  1
  O2-  O423  1  0.60431492  0.92000182  0.22081041  1
  O2-  O424  1  0.59247716  0.92110882  0.55235743  1
  O2-  O425  1  0.58368370  0.92226258  0.88876713  1
  O2-  O426  1  0.90314682  0.42410136  0.22429615  1
  O2-  O427  1  0.90104122  0.41875065  0.57749015  1
  O2-  O428  1  0.92554883  0.41836852  0.89171678  1
  O2-  O429  1  0.89855149  0.91528069  0.23061175  1
  O2-  O430  1  0.92901038  0.91791057  0.55623675  1
  O2-  O431  1  0.90876476  0.92105015  0.89527195  1
  O2-  O432  1  -0.01326315  0.01541680  0.00595568  1
  O2-  O433  1  -0.00796972  -0.00948767  0.33399753  1
  O2-  O434  1  0.00362912  -0.01019773  0.66914929  1
  O2-  O435  1  0.00789454  0.51775554  -0.00810668  1
  O2-  O436  1  -0.00294689  0.51947397  0.33455276  1
  O2-  O437  1  -0.00952010  0.50248584  0.68636095  1
  O2-  O438  1  0.32782141  -0.00118162  -0.00077442  1
  O2-  O439  1  0.34562663  0.00286437  0.31125368  1
  O2-  O440  1  0.33389247  -0.00618691  0.66844539  1
  O2-  O441  1  0.33551849  0.50745613  -0.00224856  1
  O2-  O442  1  0.33803616  0.51653780  0.32942061  1
  O2-  O443  1  0.34389264  0.49376264  0.64818955  1
  O2-  O444  1  0.65392627  -0.00597853  0.02166836  1
  O2-  O445  1  0.66166235  -0.01131358  0.35135130  1
  O2-  O446  1  0.66263603  -0.00880323  0.67867683  1
  O2-  O447  1  0.66272285  0.49742832  0.02259415  1
  O2-  O448  1  0.65754240  0.50763343  0.35036652  1
  O2-  O449  1  0.65928432  0.49962538  0.68696135  1
  O2-  O450  1  0.17082739  0.00189266  0.01284696  1
  O2-  O451  1  0.15122399  -0.00495338  0.31748952  1
  O2-  O452  1  0.16707443  -0.00695251  0.67012426  1
  O2-  O453  1  0.17352910  0.51000536  0.00585137  1
  O2-  O454  1  0.16940828  0.51148374  0.35355708  1
  O2-  O455  1  0.15756417  0.50973493  0.65755186  1
  O2-  O456  1  0.50084761  -0.00924796  -0.00179593  1
  O2-  O457  1  0.50160301  -0.00500222  0.33836753  1
  O2-  O458  1  0.50334586  -0.01005208  0.67544251  1
  O2-  O459  1  0.51392159  0.50225443  0.02469116  1
  O2-  O460  1  0.50395332  0.52870786  0.33193939  1
  O2-  O461  1  0.50409977  0.49934478  0.68184502  1
  O2-  O462  1  0.84282435  0.01313141  0.00415458  1
  O2-  O463  1  0.82178960  -0.00198728  0.31989719  1
  O2-  O464  1  0.83863243  -0.01256965  0.67681032  1
  O2-  O465  1  0.83506561  0.52211741  -0.00074462  1
  O2-  O466  1  0.82342137  0.50529415  0.31723463  1
  O2-  O467  1  0.84514328  0.50525725  0.68670226  1
  O2-  O468  1  0.75643136  0.25082604  0.74991774  1
  O2-  O469  1  0.41305847  0.25310622  0.74031237  1
  O2-  O470  1  0.42294882  0.74778166  0.39375999  1
  O2-  O471  1  0.24995829  0.24777927  0.26781119  1
  O2-  O472  1  0.07692460  0.75167755  0.75046667  1
  O2-  O473  1  0.74390025  0.75162523  0.73917682  1
  O2-  O474  1  0.08586423  0.24917828  0.06345341  1
  O2-  O475  1  0.08844920  0.75022267  0.06544504  1
  O2-  O476  1  0.92341799  0.74870993  0.92001083  1
  O2-  O477  1  0.75191618  0.25196285  0.40627133  1
  O2-  O478  1  0.42881156  0.75346892  0.74500794  1
  O2-  O479  1  0.92283410  0.24986873  0.91836387  1
  O2-  O480  1  0.58555723  0.25070633  0.92738353  1
  O2-  O481  1  0.24939532  0.75160308  0.93652419  1
  O2-  O482  1  0.42105937  0.75255119  0.07440806  1
  O2-  O483  1  0.40416500  0.25253022  0.39909061  1
  O2-  O484  1  0.08663217  0.75356692  0.39251500  1
  O2-  O485  1  0.57474146  0.75184226  0.26954277  1
  O2-  O486  1  0.09252775  0.24990827  0.40495800  1
  O2-  O487  1  0.07984407  0.24966316  0.75055176  1
  O2-  O488  1  0.58017516  0.75538031  0.59783683  1
  O2-  O489  1  0.57749046  0.75014824  0.93084411  1
  O2-  O490  1  0.25283082  0.75322932  0.26076540  1
  O2-  O491  1  0.24314558  0.24815655  0.93335101  1
  O2-  O492  1  0.25213225  0.25507371  0.58840802  1
