# generated using pymatgen
data_Ca108Mn108O277
_symmetry_space_group_name_H-M   'P 1'
_cell_length_a   16.02688794
_cell_length_b   22.30536412
_cell_length_c   16.38802373
_cell_angle_alpha   90.00092399
_cell_angle_beta   89.99906978
_cell_angle_gamma   89.99804699
_symmetry_Int_Tables_number   1
_chemical_formula_structural   Ca108Mn108O277
_chemical_formula_sum   'Ca108 Mn108 O277'
_cell_volume   5858.48201835
_cell_formula_units_Z   1
loop_
 _symmetry_equiv_pos_site_id
 _symmetry_equiv_pos_as_xyz
  1  'x, y, z'
loop_
 _atom_type_symbol
 _atom_type_oxidation_number
  Ca2+  2.0
  Mn3.34+  3.34
  O2-  -2.0
loop_
 _atom_site_type_symbol
 _atom_site_label
 _atom_site_symmetry_multiplicity
 _atom_site_fract_x
 _atom_site_fract_y
 _atom_site_fract_z
 _atom_site_occupancy
  Ca2+  Ca0  1  0.08204974  0.25203206  0.23517727  1
  Ca2+  Ca1  1  0.09197169  0.25502202  0.58652370  1
  Ca2+  Ca2  1  0.09642492  0.25386802  0.92898522  1
  Ca2+  Ca3  1  0.08324128  0.74375377  0.25016143  1
  Ca2+  Ca4  1  0.08662172  0.74392384  0.58723532  1
  Ca2+  Ca5  1  0.06198746  0.75000888  0.91663511  1
  Ca2+  Ca6  1  0.41117503  0.25348659  0.24592908  1
  Ca2+  Ca7  1  0.42091566  0.24978272  0.57896443  1
  Ca2+  Ca8  1  0.40918774  0.25445040  0.92294454  1
  Ca2+  Ca9  1  0.39822861  0.74861298  0.25734450  1
  Ca2+  Ca10  1  0.41117363  0.73306079  0.57173189  1
  Ca2+  Ca11  1  0.40879303  0.75458857  0.91088208  1
  Ca2+  Ca12  1  0.75410755  0.25138302  0.27315529  1
  Ca2+  Ca13  1  0.73777177  0.25545836  0.56403585  1
  Ca2+  Ca14  1  0.73852287  0.25543139  0.91376866  1
  Ca2+  Ca15  1  0.76671648  0.74158339  0.25348421  1
  Ca2+  Ca16  1  0.74785349  0.74657248  0.58620789  1
  Ca2+  Ca17  1  0.77445999  0.75344728  0.90702558  1
  Ca2+  Ca18  1  0.24857299  0.25384170  0.08076199  1
  Ca2+  Ca19  1  0.26514205  0.26192562  0.41236618  1
  Ca2+  Ca20  1  0.26202627  0.25044341  0.75499958  1
  Ca2+  Ca21  1  0.25014827  0.74469351  0.10878797  1
  Ca2+  Ca22  1  0.26073891  0.73853098  0.40453087  1
  Ca2+  Ca23  1  0.25290594  0.74756490  0.74025219  1
  Ca2+  Ca24  1  0.56533669  0.26520011  0.07706112  1
  Ca2+  Ca25  1  0.59356669  0.25901608  0.42482321  1
  Ca2+  Ca26  1  0.58075104  0.25979317  0.74855683  1
  Ca2+  Ca27  1  0.57425951  0.75099663  0.09511183  1
  Ca2+  Ca28  1  0.56875554  0.73886906  0.42276988  1
  Ca2+  Ca29  1  0.57768686  0.75465567  0.73706480  1
  Ca2+  Ca30  1  0.93510025  0.24667290  0.08692781  1
  Ca2+  Ca31  1  0.88637989  0.24839299  0.41323377  1
  Ca2+  Ca32  1  0.90800898  0.25681989  0.74901494  1
  Ca2+  Ca33  1  0.92500323  0.74427348  0.08061829  1
  Ca2+  Ca34  1  0.91504766  0.74112218  0.40565959  1
  Ca2+  Ca35  1  0.91879785  0.74861824  0.75799963  1
  Ca2+  Ca36  1  0.11681479  0.06596006  0.95755246  1
  Ca2+  Ca37  1  0.58387184  0.08502506  0.06421467  1
  Ca2+  Ca38  1  0.39400025  0.61255299  0.24656147  1
  Ca2+  Ca39  1  0.55281526  0.60403462  0.08283465  1
  Ca2+  Ca40  1  0.92608097  0.59296890  0.40607697  1
  Ca2+  Ca41  1  0.26595072  0.60387349  0.41511504  1
  Ca2+  Ca42  1  0.06632310  0.10763383  0.23654860  1
  Ca2+  Ca43  1  0.41830325  0.58913567  0.92329784  1
  Ca2+  Ca44  1  0.74581072  0.08243602  0.92698279  1
  Ca2+  Ca45  1  0.59506821  0.10101526  0.42200109  1
  Ca2+  Ca46  1  0.77677193  0.59289465  0.25803989  1
  Ca2+  Ca47  1  0.09266748  0.60369748  0.26242160  1
  Ca2+  Ca48  1  0.93329027  0.06440152  0.72532761  1
  Ca2+  Ca49  1  0.93754283  0.09148040  0.07645913  1
  Ca2+  Ca50  1  0.25454536  0.07690487  0.75675753  1
  Ca2+  Ca51  1  0.59130153  0.57680381  0.71541855  1
  Ca2+  Ca52  1  0.05233692  0.60499639  0.91100434  1
  Ca2+  Ca53  1  0.77976589  0.59719775  0.91212954  1
  Ca2+  Ca54  1  0.41029977  0.09612992  0.58909316  1
  Ca2+  Ca55  1  0.89857955  0.11069664  0.41193062  1
  Ca2+  Ca56  1  0.91773250  0.60759860  0.08900948  1
  Ca2+  Ca57  1  0.77300569  0.59198596  0.90865671  1
  Ca2+  Ca58  1  0.25436864  0.10694643  0.43376821  1
  Ca2+  Ca59  1  0.26205566  0.61057026  0.10168753  1
  Ca2+  Ca60  1  0.40311260  0.09611324  0.25061102  1
  Ca2+  Ca61  1  0.56120615  0.59521743  0.43296745  1
  Ca2+  Ca62  1  0.76790791  0.58965231  0.26136490  1
  Ca2+  Ca63  1  0.92100011  0.60377166  0.75424452  1
  Ca2+  Ca64  1  0.94545718  0.06277456  0.72813806  1
  Ca2+  Ca65  1  0.40281145  0.61446969  0.25154155  1
  Ca2+  Ca66  1  0.74734398  0.09672017  0.57098679  1
  Ca2+  Ca67  1  0.39920154  0.08134695  0.91888312  1
  Ca2+  Ca68  1  0.78539860  0.10938027  0.26093921  1
  Ca2+  Ca69  1  0.75947839  0.09685447  0.57061660  1
  Ca2+  Ca70  1  0.24167231  0.10858178  0.43506908  1
  Ca2+  Ca71  1  0.73647915  0.58204683  0.58704996  1
  Ca2+  Ca72  1  0.92656619  0.90407831  0.07445409  1
  Ca2+  Ca73  1  0.60397075  0.42460141  0.72995730  1
  Ca2+  Ca74  1  0.91522367  0.40734570  0.74811011  1
  Ca2+  Ca75  1  0.41868978  0.90761935  0.61049583  1
  Ca2+  Ca76  1  0.25119155  0.40682250  0.74781066  1
  Ca2+  Ca77  1  0.91668689  0.39673914  0.08809004  1
  Ca2+  Ca78  1  0.06583705  0.91993136  0.61151459  1
  Ca2+  Ca79  1  0.23735157  0.41751579  0.40920250  1
  Ca2+  Ca80  1  0.43086995  0.41665844  0.58830102  1
  Ca2+  Ca81  1  0.59338654  0.42562317  0.73182118  1
  Ca2+  Ca82  1  0.40094487  0.40475059  0.24667554  1
  Ca2+  Ca83  1  0.74357494  0.41271187  0.91944809  1
  Ca2+  Ca84  1  0.57628533  0.89703143  0.42602301  1
  Ca2+  Ca85  1  0.08057772  0.41120199  0.27107057  1
  Ca2+  Ca86  1  0.41345191  0.90697795  0.90110657  1
  Ca2+  Ca87  1  0.92497258  0.89453378  0.42861752  1
  Ca2+  Ca88  1  0.05881483  0.92543795  0.61307690  1
  Ca2+  Ca89  1  0.23298820  0.91984144  0.05691407  1
  Ca2+  Ca90  1  0.09097471  0.41011214  0.57822749  1
  Ca2+  Ca91  1  0.41219344  0.41158470  0.92289292  1
  Ca2+  Ca92  1  0.22238471  0.91927602  0.05728371  1
  Ca2+  Ca93  1  0.41428057  0.89364326  0.24429269  1
  Ca2+  Ca94  1  0.08164532  0.91624040  0.91180376  1
  Ca2+  Ca95  1  0.23786208  0.89294989  0.41869282  1
  Ca2+  Ca96  1  0.58574676  0.90040643  0.42277192  1
  Ca2+  Ca97  1  0.73810194  0.89678648  0.23561051  1
  Ca2+  Ca98  1  0.75064917  0.89567802  0.23711298  1
  Ca2+  Ca99  1  0.91147451  0.90600822  0.75415292  1
  Ca2+  Ca100  1  0.75588406  0.41004000  0.91762784  1
  Ca2+  Ca101  1  0.76091075  0.91020004  0.59827398  1
  Ca2+  Ca102  1  0.25307105  0.91005894  0.76049205  1
  Ca2+  Ca103  1  0.72256444  0.42949113  0.56970166  1
  Ca2+  Ca104  1  0.91483797  0.41076163  0.41082586  1
  Ca2+  Ca105  1  0.41224848  0.40479229  0.24763227  1
  Ca2+  Ca106  1  0.23846748  0.40714780  0.74861844  1
  Ca2+  Ca107  1  0.76145409  0.41539347  0.26768598  1
  Mn3.34+  Mn108  1  0.08732140  0.33441578  0.08331927  1
  Mn3.34+  Mn109  1  0.08085811  0.33290914  0.42103641  1
  Mn3.34+  Mn110  1  0.08087042  0.33019323  0.75454263  1
  Mn3.34+  Mn111  1  0.08141503  0.83391164  0.08486641  1
  Mn3.34+  Mn112  1  0.08152742  0.83226877  0.42095954  1
  Mn3.34+  Mn113  1  0.08528292  0.83350557  0.75464187  1
  Mn3.34+  Mn114  1  0.41312868  0.33619625  0.08103755  1
  Mn3.34+  Mn115  1  0.42090927  0.33755780  0.42124966  1
  Mn3.34+  Mn116  1  0.41846683  0.33783939  0.75326113  1
  Mn3.34+  Mn117  1  0.41721580  0.82955812  0.08171440  1
  Mn3.34+  Mn118  1  0.41223863  0.82839964  0.41983516  1
  Mn3.34+  Mn119  1  0.41866360  0.83362791  0.75151667  1
  Mn3.34+  Mn120  1  0.74825182  0.33120192  0.09189735  1
  Mn3.34+  Mn121  1  0.74812551  0.34098504  0.41982809  1
  Mn3.34+  Mn122  1  0.75223629  0.33460793  0.74848796  1
  Mn3.34+  Mn123  1  0.74420440  0.83146758  0.07200954  1
  Mn3.34+  Mn124  1  0.75253109  0.82624261  0.42001418  1
  Mn3.34+  Mn125  1  0.74616979  0.83233411  0.75352817  1
  Mn3.34+  Mn126  1  0.24379609  0.33276881  0.24823679  1
  Mn3.34+  Mn127  1  0.25231053  0.33687325  0.57647969  1
  Mn3.34+  Mn128  1  0.24688913  0.33454450  0.92011749  1
  Mn3.34+  Mn129  1  0.24333102  0.83152611  0.24757131  1
  Mn3.34+  Mn130  1  0.24842186  0.83057015  0.58300305  1
  Mn3.34+  Mn131  1  0.24843218  0.83325243  0.91204408  1
  Mn3.34+  Mn132  1  0.58709113  0.33466610  0.24922395  1
  Mn3.34+  Mn133  1  0.58201158  0.33780742  0.58000588  1
  Mn3.34+  Mn134  1  0.57992928  0.33392463  0.91727578  1
  Mn3.34+  Mn135  1  0.58041617  0.82662827  0.24582658  1
  Mn3.34+  Mn136  1  0.58455717  0.83199273  0.58956592  1
  Mn3.34+  Mn137  1  0.58767317  0.83407001  0.91556799  1
  Mn3.34+  Mn138  1  0.91688092  0.32883270  0.24938265  1
  Mn3.34+  Mn139  1  0.91813929  0.33185876  0.57913061  1
  Mn3.34+  Mn140  1  0.92083264  0.32921023  0.91631775  1
  Mn3.34+  Mn141  1  0.92090113  0.82697350  0.24807727  1
  Mn3.34+  Mn142  1  0.91592231  0.82915055  0.58483676  1
  Mn3.34+  Mn143  1  0.91604718  0.83320181  0.91590262  1
  Mn3.34+  Mn144  1  0.75036542  0.17028221  0.08640442  1
  Mn3.34+  Mn145  1  0.75154597  0.66564902  0.74540218  1
  Mn3.34+  Mn146  1  0.42454353  0.15981658  0.75313995  1
  Mn3.34+  Mn147  1  0.57462351  0.16780189  0.24788845  1
  Mn3.34+  Mn148  1  0.75885707  0.17646081  0.08481595  1
  Mn3.34+  Mn149  1  0.91979787  0.16407528  0.58229569  1
  Mn3.34+  Mn150  1  0.25021183  0.16273604  0.92066991  1
  Mn3.34+  Mn151  1  0.41559365  0.66496839  0.74076284  1
  Mn3.34+  Mn152  1  0.75238049  0.16592976  0.75669152  1
  Mn3.34+  Mn153  1  0.41262918  0.16662102  0.08091040  1
  Mn3.34+  Mn154  1  0.74140476  0.16097261  0.75809612  1
  Mn3.34+  Mn155  1  0.24884208  0.16995578  0.24292208  1
  Mn3.34+  Mn156  1  0.57991680  0.68080293  0.91463026  1
  Mn3.34+  Mn157  1  0.08320168  0.66807817  0.08920068  1
  Mn3.34+  Mn158  1  0.41679147  0.17321583  0.41787850  1
  Mn3.34+  Mn159  1  0.08806501  0.16075402  0.75347895  1
  Mn3.34+  Mn160  1  0.08510071  0.18132055  0.41635843  1
  Mn3.34+  Mn161  1  0.58654906  0.16227957  0.24573301  1
  Mn3.34+  Mn162  1  0.08459855  0.65618808  0.42838178  1
  Mn3.34+  Mn163  1  0.92463631  0.15844494  0.90867588  1
  Mn3.34+  Mn164  1  0.75168827  0.66049567  0.42497370  1
  Mn3.34+  Mn165  1  0.74534397  0.66615021  0.08905241  1
  Mn3.34+  Mn166  1  0.58623489  0.66792784  0.25034848  1
  Mn3.34+  Mn167  1  0.91783977  0.66900475  0.58015828  1
  Mn3.34+  Mn168  1  0.58325386  0.16669369  0.58216641  1
  Mn3.34+  Mn169  1  0.08301758  0.66647402  0.74344974  1
  Mn3.34+  Mn170  1  0.57865955  0.16403173  0.91744987  1
  Mn3.34+  Mn171  1  0.07283361  0.17916828  0.41924358  1
  Mn3.34+  Mn172  1  0.24049274  0.66719572  0.91424052  1
  Mn3.34+  Mn173  1  0.24776298  0.66324999  0.58212706  1
  Mn3.34+  Mn174  1  0.58809489  0.67430465  0.91346065  1
  Mn3.34+  Mn175  1  0.58144670  0.66329435  0.58164384  1
  Mn3.34+  Mn176  1  0.25425761  0.66095807  0.91174240  1
  Mn3.34+  Mn177  1  0.41453355  0.16481766  0.75130757  1
  Mn3.34+  Mn178  1  0.08834568  0.17277171  0.75052545  1
  Mn3.34+  Mn179  1  0.08753943  0.16539178  0.08293243  1
  Mn3.34+  Mn180  1  0.57717613  -0.00227127  0.24394401  1
  Mn3.34+  Mn181  1  0.08608676  0.50167156  0.75072182  1
  Mn3.34+  Mn182  1  0.24682940  0.49995072  0.91624446  1
  Mn3.34+  Mn183  1  0.59077166  0.49727150  0.25078243  1
  Mn3.34+  Mn184  1  0.92574428  0.49554768  0.91581015  1
  Mn3.34+  Mn185  1  0.08286900  0.50177364  0.08424569  1
  Mn3.34+  Mn186  1  0.40892462  -0.00298052  0.42949460  1
  Mn3.34+  Mn187  1  0.40749456  0.50831183  0.74197186  1
  Mn3.34+  Mn188  1  0.24590164  0.49738042  0.25474137  1
  Mn3.34+  Mn189  1  0.91753180  0.50116417  0.58112422  1
  Mn3.34+  Mn190  1  0.25653579  -0.00358093  0.59233539  1
  Mn3.34+  Mn191  1  0.41962817  0.00310868  0.42709756  1
  Mn3.34+  Mn192  1  0.73549215  -0.00314339  0.74423208  1
  Mn3.34+  Mn193  1  0.42643769  -0.00364468  0.08138126  1
  Mn3.34+  Mn194  1  0.75952787  -0.00495601  0.41674810  1
  Mn3.34+  Mn195  1  0.23158468  -0.00336157  0.25238517  1
  Mn3.34+  Mn196  1  0.74861671  0.49843725  0.08062778  1
  Mn3.34+  Mn197  1  0.57739126  0.50328049  0.25009116  1
  Mn3.34+  Mn198  1  0.41236290  0.00219690  0.08294824  1
  Mn3.34+  Mn199  1  0.57625391  0.00209053  0.60376822  1
  Mn3.34+  Mn200  1  0.08144397  0.00455725  0.42882047  1
  Mn3.34+  Mn201  1  0.24387915  0.00393032  0.24905849  1
  Mn3.34+  Mn202  1  0.91271515  0.00018513  0.92674878  1
  Mn3.34+  Mn203  1  0.24743307  0.50490286  0.58923893  1
  Mn3.34+  Mn204  1  0.58148279  0.50391068  0.91841382  1
  Mn3.34+  Mn205  1  0.93853335  -0.00765644  0.24793637  1
  Mn3.34+  Mn206  1  0.58524362  -0.00115409  0.91293933  1
  Mn3.34+  Mn207  1  0.24646823  0.00168914  0.59030301  1
  Mn3.34+  Mn208  1  0.74869687  0.00030087  0.41690599  1
  Mn3.34+  Mn209  1  0.92542269  0.49801550  0.25663008  1
  Mn3.34+  Mn210  1  0.09397373  0.49410527  0.08187298  1
  Mn3.34+  Mn211  1  0.74838342  0.00289246  0.08227784  1
  Mn3.34+  Mn212  1  0.92640388  -0.00022856  0.24456070  1
  Mn3.34+  Mn213  1  0.41571998  0.49787644  0.41684499  1
  Mn3.34+  Mn214  1  0.92653339  0.50676991  0.58496115  1
  Mn3.34+  Mn215  1  0.41238868  0.49861835  0.07337633  1
  O2-  O216  1  0.00295967  0.16489604  -0.00086867  1
  O2-  O217  1  -0.00105452  0.17352956  0.33429574  1
  O2-  O218  1  0.00236572  0.17103597  0.66796225  1
  O2-  O219  1  0.00078522  0.65959900  0.00847503  1
  O2-  O220  1  0.00941359  0.66915988  0.34626993  1
  O2-  O221  1  -0.00263289  0.65899300  0.66477846  1
  O2-  O222  1  0.33705566  0.15422898  -0.00516153  1
  O2-  O223  1  0.32565080  0.15262504  0.33678454  1
  O2-  O224  1  0.33192994  0.15904276  0.67330333  1
  O2-  O225  1  0.33322568  0.65510668  -0.00792578  1
  O2-  O226  1  0.33130061  0.66702359  0.33337873  1
  O2-  O227  1  0.33565682  0.65896640  0.66295948  1
  O2-  O228  1  0.67197565  0.15888291  0.00197125  1
  O2-  O229  1  0.66634607  0.14962390  0.32294666  1
  O2-  O230  1  0.67298955  0.14764961  0.66364323  1
  O2-  O231  1  0.66064380  0.66210611  0.00299348  1
  O2-  O232  1  0.67326947  0.64458899  0.33059923  1
  O2-  O233  1  0.66910490  0.65812754  0.66584111  1
  O2-  O234  1  0.16564324  0.15879405  -0.00485350  1
  O2-  O235  1  0.16051432  0.16043476  0.33174863  1
  O2-  O236  1  0.16680242  0.19307356  0.67274202  1
  O2-  O237  1  0.16796937  0.64603870  -0.00105157  1
  O2-  O238  1  0.16171269  0.66642431  0.34971228  1
  O2-  O239  1  0.16905770  0.66301177  0.66875259  1
  O2-  O240  1  0.49877897  0.14931394  0.00039976  1
  O2-  O241  1  0.49538896  0.14118562  0.33565956  1
  O2-  O242  1  0.49974177  0.15390244  0.66363399  1
  O2-  O243  1  0.49825782  0.67497288  -0.00437645  1
  O2-  O244  1  0.50680306  0.64836970  0.32587613  1
  O2-  O245  1  0.50929572  0.66011920  0.67511536  1
  O2-  O246  1  0.83671705  0.16869483  -0.00091901  1
  O2-  O247  1  0.83821470  0.17632275  0.33473640  1
  O2-  O248  1  0.84207363  0.14823663  0.67630417  1
  O2-  O249  1  0.82259360  0.66062911  0.00318162  1
  O2-  O250  1  0.83510208  0.65575795  0.34180000  1
  O2-  O251  1  0.83073231  0.64538467  0.66151328  1
  O2-  O252  1  -0.00531092  0.33112161  0.00575952  1
  O2-  O253  1  0.00184609  0.32328418  0.33381500  1
  O2-  O254  1  0.00130834  0.32042780  0.66610490  1
  O2-  O255  1  0.00343659  0.84601210  -0.00564922  1
  O2-  O256  1  -0.00477533  0.83353384  0.34026004  1
  O2-  O257  1  -0.00142530  0.84272206  0.66909715  1
  O2-  O258  1  0.33562659  0.34399894  -0.00621565  1
  O2-  O259  1  0.32975099  0.34808983  0.33726234  1
  O2-  O260  1  0.32999799  0.34385616  0.66721465  1
  O2-  O261  1  0.33140691  0.84648357  0.00131089  1
  O2-  O262  1  0.33073028  0.84597623  0.33348196  1
  O2-  O263  1  0.32348733  0.84605879  0.67076347  1
  O2-  O264  1  0.67409904  0.33963184  -0.00568021  1
  O2-  O265  1  0.67425049  0.34769910  0.32554885  1
  O2-  O266  1  0.66971261  0.34889744  0.66596579  1
  O2-  O267  1  0.66749537  0.79640181  -0.00425056  1
  O2-  O268  1  0.66759788  0.84990090  0.33455542  1
  O2-  O269  1  0.67374660  0.84100401  0.66024924  1
  O2-  O270  1  0.16558273  0.34130284  -0.00015739  1
  O2-  O271  1  0.16489339  0.34011215  0.33784182  1
  O2-  O272  1  0.16679532  0.33438774  0.66358741  1
  O2-  O273  1  0.16272459  0.84424602  -0.00736306  1
  O2-  O274  1  0.16268875  0.83487533  0.33472239  1
  O2-  O275  1  0.16068488  0.85332380  0.65841878  1
  O2-  O276  1  0.49888683  0.34666440  -0.00269124  1
  O2-  O277  1  0.49554663  0.35395760  0.32987280  1
  O2-  O278  1  0.50441095  0.34790237  0.67265018  1
  O2-  O279  1  0.49740260  0.81011249  -0.00088149  1
  O2-  O280  1  0.50122556  0.84781509  0.33378633  1
  O2-  O281  1  0.50046549  0.83857278  0.66674759  1
  O2-  O282  1  0.83162491  0.32701858  -0.00112354  1
  O2-  O283  1  0.83723760  0.33648710  0.33483593  1
  O2-  O284  1  0.84152822  0.34019042  0.67130270  1
  O2-  O285  1  0.83834027  0.83443194  0.00531302  1
  O2-  O286  1  0.83006463  0.84907158  0.33215867  1
  O2-  O287  1  0.83689512  0.84587221  0.66728084  1
  O2-  O288  1  0.00773608  0.18070914  0.16161578  1
  O2-  O289  1  -0.00501396  0.19000292  0.49928933  1
  O2-  O290  1  0.00457097  0.19497298  0.82654659  1
  O2-  O291  1  0.00451787  0.67698694  0.16547709  1
  O2-  O292  1  -0.00176927  0.68714223  0.49952097  1
  O2-  O293  1  0.00337891  0.67822609  0.82361532  1
  O2-  O294  1  0.34043707  0.17900459  0.17445926  1
  O2-  O295  1  0.33200350  0.18490332  0.49203557  1
  O2-  O296  1  0.33360731  0.18073218  0.83454761  1
  O2-  O297  1  0.34291737  0.67939017  0.16366968  1
  O2-  O298  1  0.31972940  0.67655159  0.50150725  1
  O2-  O299  1  0.33314142  0.68036307  0.83362821  1
  O2-  O300  1  0.66574385  0.19052881  0.16171678  1
  O2-  O301  1  0.66537424  0.17158725  0.50642298  1
  O2-  O302  1  0.66496957  0.18402746  0.84027679  1
  O2-  O303  1  0.66648672  0.68810120  0.16775080  1
  O2-  O304  1  0.66545310  0.67805067  0.49887335  1
  O2-  O305  1  0.67191977  0.68723747  0.83802406  1
  O2-  O306  1  0.16784191  0.18290818  0.16735737  1
  O2-  O307  1  0.16904825  0.19337250  0.49107950  1
  O2-  O308  1  0.16912122  0.18477115  0.83263949  1
  O2-  O309  1  0.16506989  0.67541442  0.16679688  1
  O2-  O310  1  0.16280552  0.68509294  0.50087842  1
  O2-  O311  1  0.16103718  0.67782757  0.83794336  1
  O2-  O312  1  0.50140141  0.18408619  0.16504160  1
  O2-  O313  1  0.50025868  0.17821099  0.49766370  1
  O2-  O314  1  0.49572250  0.18152110  0.83574021  1
  O2-  O315  1  0.50227396  0.67803349  0.17535049  1
  O2-  O316  1  0.50438163  0.67297026  0.50437368  1
  O2-  O317  1  0.49926971  0.68979557  0.83508517  1
  O2-  O318  1  0.83459664  0.18883086  0.16704116  1
  O2-  O319  1  0.83097501  0.18222705  0.51867345  1
  O2-  O320  1  0.83250414  0.19084040  0.83702131  1
  O2-  O321  1  0.82716872  0.67343626  0.16497769  1
  O2-  O322  1  0.83329332  0.68475829  0.50117062  1
  O2-  O323  1  0.83022970  0.67095898  0.82871526  1
  O2-  O324  1  -0.00264451  0.31653817  0.16726469  1
  O2-  O325  1  0.00094583  0.30755361  0.49853974  1
  O2-  O326  1  -0.00178412  0.31205160  0.83267993  1
  O2-  O327  1  -0.00659965  0.81975683  0.15780214  1
  O2-  O328  1  -0.00070019  0.81339038  0.50185542  1
  O2-  O329  1  0.00061322  0.82432749  0.83218407  1
  O2-  O330  1  0.33473001  0.32390473  0.17442272  1
  O2-  O331  1  0.33760171  0.31493545  0.50500240  1
  O2-  O332  1  0.33175688  0.32425399  0.82961488  1
  O2-  O333  1  0.33526029  0.82019480  0.16759524  1
  O2-  O334  1  0.33344816  0.82369651  0.50214733  1
  O2-  O335  1  0.33475539  0.82137272  0.83546586  1
  O2-  O336  1  0.66564019  0.30757129  0.16505398  1
  O2-  O337  1  0.66701012  0.33334740  0.50383507  1
  O2-  O338  1  0.66661107  0.32206296  0.83218024  1
  O2-  O339  1  0.66991074  0.81720484  0.16777480  1
  O2-  O340  1  0.66008184  0.82607508  0.49250413  1
  O2-  O341  1  0.66624808  0.81241047  0.83269106  1
  O2-  O342  1  0.16220624  0.32247399  0.17210677  1
  O2-  O343  1  0.16750476  0.31492127  0.49835777  1
  O2-  O344  1  0.17284140  0.31649648  0.82458892  1
  O2-  O345  1  0.17163692  0.82419928  0.15662256  1
  O2-  O346  1  0.16879567  0.81804151  0.49698641  1
  O2-  O347  1  0.17237643  0.81983170  0.82795760  1
  O2-  O348  1  0.49144519  0.32389565  0.17493441  1
  O2-  O349  1  0.49943313  0.31911040  0.50394964  1
  O2-  O350  1  0.50182038  0.32758848  0.83345753  1
  O2-  O351  1  0.49163048  0.81161697  0.17371697  1
  O2-  O352  1  0.50580206  0.82596712  0.49511641  1
  O2-  O353  1  0.49791114  0.81718340  0.83656182  1
  O2-  O354  1  0.83481203  0.31055120  0.16814666  1
  O2-  O355  1  0.83429414  0.31914168  0.50278638  1
  O2-  O356  1  0.82993470  0.31710889  0.83666159  1
  O2-  O357  1  0.82517380  0.82000037  0.17120369  1
  O2-  O358  1  0.83437275  0.82104295  0.49985633  1
  O2-  O359  1  0.83814119  0.82494227  0.82826264  1
  O2-  O360  1  0.07738354  0.08430518  0.10253374  1
  O2-  O361  1  0.10209815  0.09027168  0.44915688  1
  O2-  O362  1  0.07581209  0.08052200  0.77932670  1
  O2-  O363  1  0.08763817  0.57903047  0.12389754  1
  O2-  O364  1  0.07655685  0.58090261  0.43221774  1
  O2-  O365  1  0.07098556  0.58139632  0.77537587  1
  O2-  O366  1  0.42460260  0.08023896  0.11998606  1
  O2-  O367  1  0.39658888  0.08494261  0.44920870  1
  O2-  O368  1  0.40879703  0.07939383  0.77992945  1
  O2-  O369  1  0.41677433  0.57261755  0.12003375  1
  O2-  O370  1  0.41234720  0.57571724  0.42069962  1
  O2-  O371  1  0.43273732  0.58245344  0.78351257  1
  O2-  O372  1  0.74775508  0.08482998  0.12475238  1
  O2-  O373  1  0.75423218  0.08284977  0.43545803  1
  O2-  O374  1  0.74829192  0.07809727  0.78980340  1
  O2-  O375  1  0.74046243  0.57801128  0.12266438  1
  O2-  O376  1  0.76096209  0.58166286  0.44633041  1
  O2-  O377  1  0.73960245  0.58441910  0.77983508  1
  O2-  O378  1  0.23918839  0.08450765  0.22684623  1
  O2-  O379  1  0.26216650  0.08244709  0.56141360  1
  O2-  O380  1  0.25008341  0.08295115  0.89008831  1
  O2-  O381  1  0.26254467  0.57529405  0.23040526  1
  O2-  O382  1  0.24346163  0.58023458  0.55012728  1
  O2-  O383  1  0.25565901  0.58138262  0.88235812  1
  O2-  O384  1  0.57726335  0.08167469  0.20650642  1
  O2-  O385  1  0.58755257  0.07966818  0.55506440  1
  O2-  O386  1  0.59334214  0.08127948  0.88818295  1
  O2-  O387  1  0.58622003  0.58185040  0.21033901  1
  O2-  O388  1  0.59322466  0.58216026  0.56709008  1
  O2-  O389  1  0.58286163  0.58675535  0.89265165  1
  O2-  O390  1  0.92397147  0.07848110  0.21405728  1
  O2-  O391  1  0.89465538  0.07773313  0.55225181  1
  O2-  O392  1  0.91070865  0.07165802  0.86221766  1
  O2-  O393  1  0.91113341  0.57173059  0.21715934  1
  O2-  O394  1  0.92085502  0.58523912  0.54465972  1
  O2-  O395  1  0.91506003  0.57533352  0.88638002  1
  O2-  O396  1  0.06825272  0.41799689  0.12274248  1
  O2-  O397  1  0.07798679  0.41207707  0.43769783  1
  O2-  O398  1  0.09684735  0.41847941  0.77579021  1
  O2-  O399  1  0.08603641  0.91503106  0.10345848  1
  O2-  O400  1  0.07721019  0.92232682  0.46285689  1
  O2-  O401  1  0.08664897  0.91496989  0.77030417  1
  O2-  O402  1  0.41262678  0.42047024  0.11194535  1
  O2-  O403  1  0.40068141  0.41965461  0.45414069  1
  O2-  O404  1  0.40453017  0.42772241  0.78627269  1
  O2-  O405  1  0.42475382  0.91765141  0.11357371  1
  O2-  O406  1  0.42973003  0.91605900  0.44436368  1
  O2-  O407  1  0.41029065  0.91429471  0.76545243  1
  O2-  O408  1  0.77334460  0.41767393  0.11158520  1
  O2-  O409  1  0.77351661  0.42066450  0.43842616  1
  O2-  O410  1  0.74644036  0.41770262  0.78314308  1
  O2-  O411  1  0.76083542  0.92030806  0.10667003  1
  O2-  O412  1  0.74799342  0.91539827  0.44905282  1
  O2-  O413  1  0.75162258  0.91706892  0.76305488  1
  O2-  O414  1  0.25495205  0.41689172  0.22603487  1
  O2-  O415  1  0.23504429  0.42621874  0.54529142  1
  O2-  O416  1  0.25351368  0.41891251  0.88202176  1
  O2-  O417  1  0.25623734  0.91941939  0.21350900  1
  O2-  O418  1  0.25388502  0.91848759  0.54914317  1
  O2-  O419  1  0.25304244  0.91377569  0.89755486  1
  O2-  O420  1  0.58487551  0.41948674  0.21176927  1
  O2-  O421  1  0.57631494  0.41882082  0.57627119  1
  O2-  O422  1  0.59552993  0.42255130  0.88427831  1
  O2-  O423  1  0.59644769  0.91299412  0.22289289  1
  O2-  O424  1  0.58377237  0.92181185  0.55944937  1
  O2-  O425  1  0.56139983  0.91857679  0.90630956  1
  O2-  O426  1  0.92027507  0.41957117  0.22712539  1
  O2-  O427  1  0.94262697  0.42061083  0.54874489  1
  O2-  O428  1  0.89515882  0.41688930  0.88847956  1
  O2-  O429  1  0.90466772  0.91522453  0.21889430  1
  O2-  O430  1  0.92370888  0.91343447  0.56083051  1
  O2-  O431  1  0.92300531  0.92222418  0.89466679  1
  O2-  O432  1  -0.00182801  0.00661508  -0.01092850  1
  O2-  O433  1  0.00379305  0.01326301  0.33851834  1
  O2-  O434  1  -0.00925491  -0.01534217  0.68348364  1
  O2-  O435  1  -0.00888742  0.50184419  0.01223869  1
  O2-  O436  1  0.00107485  0.49689698  0.32866122  1
  O2-  O437  1  -0.01397724  0.48756044  0.68543518  1
  O2-  O438  1  0.32951422  -0.01197353  0.00502777  1
  O2-  O439  1  0.34648838  0.00199394  0.31893740  1
  O2-  O440  1  0.31656707  0.00174057  0.69044830  1
  O2-  O441  1  0.34752029  0.50148358  -0.02353587  1
  O2-  O442  1  0.34084322  0.48547198  0.32288021  1
  O2-  O443  1  0.33091389  0.47625711  0.66430389  1
  O2-  O444  1  0.66638951  0.01445958  -0.00048571  1
  O2-  O445  1  0.67146780  -0.00442395  0.32828613  1
  O2-  O446  1  0.69373209  0.00636687  0.62246658  1
  O2-  O447  1  0.68435100  0.49765421  -0.02841445  1
  O2-  O448  1  0.69278435  0.51074540  0.29791078  1
  O2-  O449  1  0.66252835  0.49464179  0.67145903  1
  O2-  O450  1  0.15898588  -0.01912436  -0.01115203  1
  O2-  O451  1  0.18480525  0.00229709  0.35981181  1
  O2-  O452  1  0.15171312  -0.00458728  0.65595485  1
  O2-  O453  1  0.16481974  0.50798359  -0.00437882  1
  O2-  O454  1  0.16179125  0.49309222  0.32065071  1
  O2-  O455  1  0.16752787  0.48255928  0.66844127  1
  O2-  O456  1  0.49296394  0.01631120  -0.01197143  1
  O2-  O457  1  0.51130202  0.00351591  0.35206958  1
  O2-  O458  1  0.45881154  0.00289965  0.58629126  1
  O2-  O459  1  0.50149155  0.51504968  0.00017568  1
  O2-  O460  1  0.50427100  0.49285477  0.33840012  1
  O2-  O461  1  0.49963677  0.49354566  0.68846873  1
  O2-  O462  1  0.83990894  0.02474630  0.00861364  1
  O2-  O463  1  0.83630181  0.00661988  0.32586125  1
  O2-  O464  1  0.83635971  0.00523610  0.69282878  1
  O2-  O465  1  0.82873720  0.50651781  -0.01787121  1
  O2-  O466  1  0.83906166  0.50191080  0.32176708  1
  O2-  O467  1  0.81866182  0.49337215  0.63904437  1
  O2-  O468  1  0.58923446  0.74832501  0.28373548  1
  O2-  O469  1  0.41076936  0.74885231  0.72538391  1
  O2-  O470  1  0.08710402  0.74964000  0.05906745  1
  O2-  O471  1  0.74801921  0.74834713  0.39192155  1
  O2-  O472  1  0.58714297  0.25017684  0.60632057  1
  O2-  O473  1  0.42268760  0.25251856  0.38587636  1
  O2-  O474  1  0.25113005  0.74742384  0.94278760  1
  O2-  O475  1  0.42298271  0.24813679  0.72787964  1
  O2-  O476  1  0.41511296  0.25196865  0.06155180  1
  O2-  O477  1  0.75923565  0.74970649  0.72641524  1
  O2-  O478  1  0.25443429  0.25049473  0.93909738  1
  O2-  O479  1  0.58874458  0.75083182  0.59928964  1
  O2-  O480  1  0.24589568  0.75460569  0.26157148  1
  O2-  O481  1  0.91411115  0.75051854  0.26535039  1
  O2-  O482  1  0.90658699  0.74819312  0.61467356  1
  O2-  O483  1  0.57682484  0.24795823  0.28485353  1
  O2-  O484  1  0.73572419  0.25856799  0.40929539  1
  O2-  O485  1  0.57740574  0.25004626  0.93931934  1
  O2-  O486  1  0.24801253  0.75106463  0.60584026  1
  O2-  O487  1  0.25310123  0.25033552  0.27388680  1
  O2-  O488  1  0.08872608  0.75100096  0.72744795  1
  O2-  O489  1  0.41888483  0.75224270  0.40065818  1
  O2-  O490  1  0.74251350  0.24798202  0.72104771  1
  O2-  O491  1  0.91888873  0.75450730  0.93034473  1
  O2-  O492  1  0.09542758  0.25129093  0.06635480  1
