# generated using pymatgen
data_Ca108Mn108O277
_symmetry_space_group_name_H-M   'P 1'
_cell_length_a   16.03179096
_cell_length_b   22.31621290
_cell_length_c   16.39406713
_cell_angle_alpha   90.00138622
_cell_angle_beta   89.99990297
_cell_angle_gamma   90.00444435
_symmetry_Int_Tables_number   1
_chemical_formula_structural   Ca108Mn108O277
_chemical_formula_sum   'Ca108 Mn108 O277'
_cell_volume   5865.28669102
_cell_formula_units_Z   1
loop_
 _symmetry_equiv_pos_site_id
 _symmetry_equiv_pos_as_xyz
  1  'x, y, z'
loop_
 _atom_type_symbol
 _atom_type_oxidation_number
  Ca2+  2.0
  Mn3.34+  3.34
  O2-  -2.0
loop_
 _atom_site_type_symbol
 _atom_site_label
 _atom_site_symmetry_multiplicity
 _atom_site_fract_x
 _atom_site_fract_y
 _atom_site_fract_z
 _atom_site_occupancy
  Ca2+  Ca0  1  0.09832825  0.27152047  0.25877308  1
  Ca2+  Ca1  1  0.10716612  0.25208576  0.57583689  1
  Ca2+  Ca2  1  0.08630904  0.26674861  0.91402570  1
  Ca2+  Ca3  1  0.09638356  0.72929887  0.26905657  1
  Ca2+  Ca4  1  0.08289003  0.74491365  0.56242914  1
  Ca2+  Ca5  1  0.07837550  0.74194570  0.90267583  1
  Ca2+  Ca6  1  0.40725315  0.25671119  0.26875109  1
  Ca2+  Ca7  1  0.41992310  0.24713543  0.57582961  1
  Ca2+  Ca8  1  0.41980934  0.26414286  0.90915931  1
  Ca2+  Ca9  1  0.38472976  0.72243493  0.27473747  1
  Ca2+  Ca10  1  0.40209246  0.75022253  0.55071222  1
  Ca2+  Ca11  1  0.40954123  0.74615768  0.91376477  1
  Ca2+  Ca12  1  0.74187866  0.25830716  0.25448235  1
  Ca2+  Ca13  1  0.72009104  0.23852739  0.58782137  1
  Ca2+  Ca14  1  0.75063700  0.26176309  0.90725434  1
  Ca2+  Ca15  1  0.76471108  0.75605816  0.26373597  1
  Ca2+  Ca16  1  0.76589297  0.74517762  0.55769800  1
  Ca2+  Ca17  1  0.75837017  0.73916716  0.91336159  1
  Ca2+  Ca18  1  0.24900826  0.26094299  0.08959342  1
  Ca2+  Ca19  1  0.26489782  0.23708984  0.43556922  1
  Ca2+  Ca20  1  0.26221709  0.23616026  0.72890837  1
  Ca2+  Ca21  1  0.25026163  0.75139020  0.09694181  1
  Ca2+  Ca22  1  0.24182865  0.74147385  0.41106626  1
  Ca2+  Ca23  1  0.23520396  0.74450446  0.74339599  1
  Ca2+  Ca24  1  0.58542034  0.26396890  0.08207877  1
  Ca2+  Ca25  1  0.56399575  0.24791899  0.42959036  1
  Ca2+  Ca26  1  0.57806773  0.24420599  0.73723694  1
  Ca2+  Ca27  1  0.58251941  0.74858323  0.07512320  1
  Ca2+  Ca28  1  0.58461749  0.75258417  0.41348058  1
  Ca2+  Ca29  1  0.58741291  0.74499684  0.76283973  1
  Ca2+  Ca30  1  0.91211544  0.27496476  0.07532432  1
  Ca2+  Ca31  1  0.92327802  0.25829515  0.42042024  1
  Ca2+  Ca32  1  0.90860010  0.25192712  0.75778634  1
  Ca2+  Ca33  1  0.90665293  0.74487656  0.08148877  1
  Ca2+  Ca34  1  0.92382844  0.74282693  0.41470566  1
  Ca2+  Ca35  1  0.92489515  0.74974391  0.74064259  1
  Ca2+  Ca36  1  0.74791083  0.09895241  0.90650789  1
  Ca2+  Ca37  1  0.41253718  0.10884992  0.57510993  1
  Ca2+  Ca38  1  0.22077996  0.59871802  0.41260436  1
  Ca2+  Ca39  1  0.93316067  0.60519153  0.41763314  1
  Ca2+  Ca40  1  0.58258896  0.10470729  0.44594487  1
  Ca2+  Ca41  1  0.24221178  0.58802787  0.74391692  1
  Ca2+  Ca42  1  0.07809643  0.09500227  0.89856254  1
  Ca2+  Ca43  1  0.77541018  0.59230312  0.25876963  1
  Ca2+  Ca44  1  0.60192746  0.58741602  0.75544917  1
  Ca2+  Ca45  1  0.58931245  0.08504944  0.08059338  1
  Ca2+  Ca46  1  0.72865463  0.59297190  0.91006317  1
  Ca2+  Ca47  1  0.89786319  0.07073283  0.40520740  1
  Ca2+  Ca48  1  0.42254724  0.08762450  0.29718394  1
  Ca2+  Ca49  1  0.92263875  0.09020702  0.74405258  1
  Ca2+  Ca50  1  0.09071780  0.09503839  0.89756889  1
  Ca2+  Ca51  1  0.39901557  0.58404959  0.59172887  1
  Ca2+  Ca52  1  0.76341587  0.59105987  0.26179742  1
  Ca2+  Ca53  1  0.60584396  0.59242628  0.42179002  1
  Ca2+  Ca54  1  0.12574417  0.09670652  0.58807843  1
  Ca2+  Ca55  1  0.39016135  0.58722948  0.58823164  1
  Ca2+  Ca56  1  0.91028291  0.07582298  0.08024560  1
  Ca2+  Ca57  1  0.91234551  0.59351781  0.75605084  1
  Ca2+  Ca58  1  0.25268909  0.09300766  0.08694228  1
  Ca2+  Ca59  1  0.47932275  0.59093084  0.91088260  1
  Ca2+  Ca60  1  0.23320610  0.58543604  0.09569795  1
  Ca2+  Ca61  1  0.56108309  0.10279880  0.71583767  1
  Ca2+  Ca62  1  0.41752554  0.11836842  0.87425659  1
  Ca2+  Ca63  1  0.59294189  0.59114078  0.42071639  1
  Ca2+  Ca64  1  0.23121822  0.59778973  0.41165100  1
  Ca2+  Ca65  1  0.07426025  0.07659206  0.26783488  1
  Ca2+  Ca66  1  0.08171982  0.60008784  0.57971712  1
  Ca2+  Ca67  1  0.88793717  0.06988425  0.40759716  1
  Ca2+  Ca68  1  0.41845857  0.09464920  0.29736876  1
  Ca2+  Ca69  1  0.24574657  0.58333315  0.09437012  1
  Ca2+  Ca70  1  0.23899648  0.09207286  0.08834804  1
  Ca2+  Ca71  1  0.08582067  0.07624203  0.26912205  1
  Ca2+  Ca72  1  0.25379217  0.41349936  0.72423653  1
  Ca2+  Ca73  1  0.61855797  0.91153769  0.42480550  1
  Ca2+  Ca74  1  0.58805050  0.90734917  0.73340216  1
  Ca2+  Ca75  1  0.60642119  0.91323236  0.42359850  1
  Ca2+  Ca76  1  0.75433353  0.89030483  0.91865694  1
  Ca2+  Ca77  1  0.92190619  0.40597040  0.40218861  1
  Ca2+  Ca78  1  0.74513865  0.40046171  0.57376931  1
  Ca2+  Ca79  1  0.58649743  0.41462248  0.06692235  1
  Ca2+  Ca80  1  0.42088536  0.89093947  0.91555642  1
  Ca2+  Ca81  1  0.91206600  0.41246819  0.75876161  1
  Ca2+  Ca82  1  0.06647731  0.42747855  0.93844294  1
  Ca2+  Ca83  1  0.24338740  0.40309874  0.43284490  1
  Ca2+  Ca84  1  0.90100652  0.41300903  0.75820196  1
  Ca2+  Ca85  1  0.57521304  0.90715374  0.73378699  1
  Ca2+  Ca86  1  0.23725019  0.89506781  0.08873393  1
  Ca2+  Ca87  1  0.26058345  0.90783628  0.41832382  1
  Ca2+  Ca88  1  0.07151236  0.90853672  0.25205966  1
  Ca2+  Ca89  1  0.23069799  0.90817445  0.74975018  1
  Ca2+  Ca90  1  0.08303339  0.89469251  0.91414774  1
  Ca2+  Ca91  1  0.74936160  0.40622869  0.26324467  1
  Ca2+  Ca92  1  0.74743385  0.41772521  0.91717646  1
  Ca2+  Ca93  1  0.42431813  0.90164652  0.25010254  1
  Ca2+  Ca94  1  0.59158742  0.40894513  0.75546490  1
  Ca2+  Ca95  1  0.59080569  0.89333980  0.08845570  1
  Ca2+  Ca96  1  0.24139908  0.90361313  0.74740061  1
  Ca2+  Ca97  1  0.06706966  0.91563686  0.58461898  1
  Ca2+  Ca98  1  0.91089726  0.89536445  0.09370356  1
  Ca2+  Ca99  1  0.60240415  0.41099688  0.75558914  1
  Ca2+  Ca100  1  0.26226572  0.41367905  0.73039737  1
  Ca2+  Ca101  1  0.74430398  0.89287356  0.92253091  1
  Ca2+  Ca102  1  0.41588065  0.40224322  0.58251584  1
  Ca2+  Ca103  1  0.89004933  0.91234713  0.40617876  1
  Ca2+  Ca104  1  0.22524606  0.41533487  0.08280711  1
  Ca2+  Ca105  1  0.23506452  0.41118566  0.08135534  1
  Ca2+  Ca106  1  0.07516608  0.91385094  0.59074769  1
  Ca2+  Ca107  1  0.25134748  0.90599284  0.41409379  1
  Mn3.34+  Mn108  1  0.07501776  0.34148574  0.08737167  1
  Mn3.34+  Mn109  1  0.08474134  0.33387542  0.41866197  1
  Mn3.34+  Mn110  1  0.08188255  0.33831965  0.75111027  1
  Mn3.34+  Mn111  1  0.07832338  0.82851475  0.08748133  1
  Mn3.34+  Mn112  1  0.08013900  0.83439607  0.41741381  1
  Mn3.34+  Mn113  1  0.07566643  0.83443320  0.74967292  1
  Mn3.34+  Mn114  1  0.41774542  0.33675441  0.08660187  1
  Mn3.34+  Mn115  1  0.41700153  0.33164013  0.41652153  1
  Mn3.34+  Mn116  1  0.41926378  0.33336575  0.75345948  1
  Mn3.34+  Mn117  1  0.41605314  0.82963050  0.08638756  1
  Mn3.34+  Mn118  1  0.42134477  0.83264551  0.41471618  1
  Mn3.34+  Mn119  1  0.41524017  0.82681285  0.74773626  1
  Mn3.34+  Mn120  1  0.75088248  0.33782527  0.08655169  1
  Mn3.34+  Mn121  1  0.74735285  0.33051059  0.41855421  1
  Mn3.34+  Mn122  1  0.75067491  0.33238516  0.74837224  1
  Mn3.34+  Mn123  1  0.74922519  0.82551890  0.09088432  1
  Mn3.34+  Mn124  1  0.75733514  0.82864905  0.41705592  1
  Mn3.34+  Mn125  1  0.75541736  0.83302604  0.74389920  1
  Mn3.34+  Mn126  1  0.25355089  0.33956701  0.25511810  1
  Mn3.34+  Mn127  1  0.25148698  0.33188069  0.58059136  1
  Mn3.34+  Mn128  1  0.25045342  0.33769336  0.90953325  1
  Mn3.34+  Mn129  1  0.24845101  0.83138949  0.24878335  1
  Mn3.34+  Mn130  1  0.25297185  0.83305692  0.57983469  1
  Mn3.34+  Mn131  1  0.24944798  0.82340956  0.92034527  1
  Mn3.34+  Mn132  1  0.57681237  0.33851226  0.25006722  1
  Mn3.34+  Mn133  1  0.58158938  0.33402015  0.57836810  1
  Mn3.34+  Mn134  1  0.58298592  0.33572838  0.91737545  1
  Mn3.34+  Mn135  1  0.58707342  0.83582983  0.24989079  1
  Mn3.34+  Mn136  1  0.58455485  0.82780413  0.58052746  1
  Mn3.34+  Mn137  1  0.58209957  0.81893340  0.91467405  1
  Mn3.34+  Mn138  1  0.91827886  0.33679679  0.24689208  1
  Mn3.34+  Mn139  1  0.91810779  0.33356533  0.58003962  1
  Mn3.34+  Mn140  1  0.91670133  0.33880598  0.91993615  1
  Mn3.34+  Mn141  1  0.91777395  0.83430146  0.25089411  1
  Mn3.34+  Mn142  1  0.91327001  0.83366094  0.58268977  1
  Mn3.34+  Mn143  1  0.91844430  0.82508524  0.91541137  1
  Mn3.34+  Mn144  1  0.41754636  0.66899438  0.75773970  1
  Mn3.34+  Mn145  1  0.91744866  0.66908707  0.57988522  1
  Mn3.34+  Mn146  1  0.74273378  0.17046326  0.41712767  1
  Mn3.34+  Mn147  1  0.75589578  0.16896899  0.08152341  1
  Mn3.34+  Mn148  1  0.25106065  0.17583751  0.90966284  1
  Mn3.34+  Mn149  1  0.07954077  0.17482754  0.08313128  1
  Mn3.34+  Mn150  1  0.58390776  0.17243430  0.90977483  1
  Mn3.34+  Mn151  1  0.92287643  0.66834780  0.24935346  1
  Mn3.34+  Mn152  1  0.58224393  0.67664292  0.58769134  1
  Mn3.34+  Mn153  1  0.24905922  0.66093148  0.90888745  1
  Mn3.34+  Mn154  1  0.42185971  0.66064347  0.08151699  1
  Mn3.34+  Mn155  1  0.08685505  0.16762488  0.42231357  1
  Mn3.34+  Mn156  1  0.59168319  0.67107161  0.58635140  1
  Mn3.34+  Mn157  1  0.41693244  0.17405696  0.07985313  1
  Mn3.34+  Mn158  1  0.90838470  0.16649564  0.24930805  1
  Mn3.34+  Mn159  1  0.74234164  0.16313086  0.08561493  1
  Mn3.34+  Mn160  1  0.74829627  0.66551082  0.08240547  1
  Mn3.34+  Mn161  1  0.42759530  0.16910319  0.08244331  1
  Mn3.34+  Mn162  1  0.75639841  0.66320698  0.74854998  1
  Mn3.34+  Mn163  1  0.74564895  0.16609405  0.74939976  1
  Mn3.34+  Mn164  1  0.07551775  0.65669283  0.08135363  1
  Mn3.34+  Mn165  1  0.90342783  0.16318087  0.57986112  1
  Mn3.34+  Mn166  1  0.58646059  0.66883511  0.24455826  1
  Mn3.34+  Mn167  1  0.91369216  0.17096849  0.91431546  1
  Mn3.34+  Mn168  1  0.40935614  0.66555426  0.07998614  1
  Mn3.34+  Mn169  1  0.06666221  0.65025456  0.08299107  1
  Mn3.34+  Mn170  1  0.91334172  0.65907905  0.91312778  1
  Mn3.34+  Mn171  1  0.24622443  0.17084802  0.25280025  1
  Mn3.34+  Mn172  1  0.24759950  0.66629694  0.58333228  1
  Mn3.34+  Mn173  1  0.06912915  0.16976245  0.08642364  1
  Mn3.34+  Mn174  1  0.91754524  0.16870548  0.58151869  1
  Mn3.34+  Mn175  1  0.08326275  0.16499123  0.74686982  1
  Mn3.34+  Mn176  1  0.57341316  0.66180724  0.24262107  1
  Mn3.34+  Mn177  1  0.07943473  0.66513935  0.74978187  1
  Mn3.34+  Mn178  1  0.91694154  0.17215031  0.25292806  1
  Mn3.34+  Mn179  1  0.59015376  0.16424549  0.25070400  1
  Mn3.34+  Mn180  1  0.23899386  0.49672063  0.26298466  1
  Mn3.34+  Mn181  1  0.75419318  0.00104195  0.73853802  1
  Mn3.34+  Mn182  1  0.59119684  0.50036555  0.59258790  1
  Mn3.34+  Mn183  1  0.90853683  0.00048061  0.90418107  1
  Mn3.34+  Mn184  1  0.26141656  -0.00011772  0.60145995  1
  Mn3.34+  Mn185  1  0.90541873  0.50249248  0.58557353  1
  Mn3.34+  Mn186  1  0.07811033  0.49409418  0.40754960  1
  Mn3.34+  Mn187  1  0.42322448  -0.00468130  0.42246386  1
  Mn3.34+  Mn188  1  0.42218980  0.50383429  0.74699688  1
  Mn3.34+  Mn189  1  0.58584807  0.50126542  0.24345655  1
  Mn3.34+  Mn190  1  0.58758052  0.00756448  0.90889491  1
  Mn3.34+  Mn191  1  0.41594330  -0.00352517  0.09688395  1
  Mn3.34+  Mn192  1  0.75962662  0.50423125  0.07126995  1
  Mn3.34+  Mn193  1  0.58444275  0.00131559  0.58834693  1
  Mn3.34+  Mn194  1  0.43745811  0.50229251  0.08582406  1
  Mn3.34+  Mn195  1  0.75606319  0.49856356  0.40985772  1
  Mn3.34+  Mn196  1  0.42734225  0.49711794  0.08978358  1
  Mn3.34+  Mn197  1  0.74819648  -0.00143100  0.09366587  1
  Mn3.34+  Mn198  1  0.24863799  0.50101640  0.91751904  1
  Mn3.34+  Mn199  1  0.92908739  0.50210282  0.25422346  1
  Mn3.34+  Mn200  1  0.43004196  0.00291199  0.09838345  1
  Mn3.34+  Mn201  1  0.42817623  0.49317817  0.40024690  1
  Mn3.34+  Mn202  1  0.91871451  -0.00520932  0.90466609  1
  Mn3.34+  Mn203  1  0.26646841  0.00351740  0.90973266  1
  Mn3.34+  Mn204  1  0.90798448  -0.00262403  0.59873486  1
  Mn3.34+  Mn205  1  0.25409468  0.00723581  0.91097209  1
  Mn3.34+  Mn206  1  0.41865367  -0.00380438  0.74523925  1
  Mn3.34+  Mn207  1  0.41868867  0.49932703  0.40186719  1
  Mn3.34+  Mn208  1  0.91837339  0.49628268  0.58334529  1
  Mn3.34+  Mn209  1  0.57337093  0.00142705  0.90791015  1
  Mn3.34+  Mn210  1  0.77131191  0.49869490  0.07268100  1
  Mn3.34+  Mn211  1  0.08480568  0.00335710  0.42135771  1
  Mn3.34+  Mn212  1  0.07655018  -0.00132966  0.08283111  1
  Mn3.34+  Mn213  1  0.25586794  -0.00236583  0.25268551  1
  Mn3.34+  Mn214  1  0.08022584  0.50370761  0.75218242  1
  Mn3.34+  Mn215  1  0.59499993  0.00254888  0.26758430  1
  O2-  O216  1  -0.00294444  0.14086057  -0.00082478  1
  O2-  O217  1  -0.00820472  0.14758551  0.34097261  1
  O2-  O218  1  -0.00012249  0.14918768  0.65971941  1
  O2-  O219  1  -0.00186200  0.67190472  -0.00318711  1
  O2-  O220  1  0.00325104  0.65953985  0.32293124  1
  O2-  O221  1  -0.00284047  0.64955361  0.67022977  1
  O2-  O222  1  0.33132160  0.14081177  -0.00321965  1
  O2-  O223  1  0.32973521  0.16173924  0.32621205  1
  O2-  O224  1  0.35742122  0.17797061  0.66518523  1
  O2-  O225  1  0.33262154  0.63626210  -0.00221165  1
  O2-  O226  1  0.31817185  0.65765256  0.35244496  1
  O2-  O227  1  0.33622985  0.65703824  0.67034349  1
  O2-  O228  1  0.66429044  0.14415432  -0.00135402  1
  O2-  O229  1  0.66867243  0.18909318  0.33155672  1
  O2-  O230  1  0.66120803  0.16580516  0.67937578  1
  O2-  O231  1  0.67518136  0.69481750  0.00524241  1
  O2-  O232  1  0.66928815  0.64872297  0.32442939  1
  O2-  O233  1  0.67425001  0.68468966  0.66550666  1
  O2-  O234  1  0.16576855  0.14288699  -0.00354349  1
  O2-  O235  1  0.15327311  0.15277612  0.32253690  1
  O2-  O236  1  0.15917460  0.17704954  0.67006934  1
  O2-  O237  1  0.16054359  0.64915118  0.00158727  1
  O2-  O238  1  0.17017025  0.66557146  0.33886551  1
  O2-  O239  1  0.16619915  0.65412106  0.66798603  1
  O2-  O240  1  0.50231264  0.14471384  -0.00418952  1
  O2-  O241  1  0.51186051  0.16075533  0.33180008  1
  O2-  O242  1  0.47961556  0.18060390  0.67137716  1
  O2-  O243  1  0.49904530  0.66937785  0.00064515  1
  O2-  O244  1  0.51009987  0.64829131  0.33648118  1
  O2-  O245  1  0.50750326  0.66285648  0.67383260  1
  O2-  O246  1  0.83404695  0.14090504  0.00224252  1
  O2-  O247  1  0.83226865  0.18465943  0.33817634  1
  O2-  O248  1  0.83408078  0.15053014  0.66888702  1
  O2-  O249  1  0.82723723  0.66320087  -0.00273315  1
  O2-  O250  1  0.84351590  0.65556129  0.32938463  1
  O2-  O251  1  0.83727221  0.67392409  0.66979318  1
  O2-  O252  1  -0.00086468  0.34381467  -0.00147650  1
  O2-  O253  1  -0.00454356  0.33040583  0.33502996  1
  O2-  O254  1  -0.01088544  0.34852287  0.67766189  1
  O2-  O255  1  -0.00487953  0.84177315  0.00256230  1
  O2-  O256  1  -0.00338407  0.85070382  0.34009089  1
  O2-  O257  1  -0.00706614  0.85528625  0.67074338  1
  O2-  O258  1  0.32545207  0.35901884  0.00531932  1
  O2-  O259  1  0.33342958  0.34500644  0.33657142  1
  O2-  O260  1  0.33785738  0.33319133  0.66805298  1
  O2-  O261  1  0.33065569  0.84961023  0.00242948  1
  O2-  O262  1  0.33505348  0.84968465  0.32981570  1
  O2-  O263  1  0.32560524  0.84426182  0.67457558  1
  O2-  O264  1  0.66815594  0.34940352  -0.00068381  1
  O2-  O265  1  0.66964010  0.32813802  0.32863049  1
  O2-  O266  1  0.66701542  0.34611555  0.66756974  1
  O2-  O267  1  0.66716840  0.82603958  -0.00287519  1
  O2-  O268  1  0.66429421  0.84121377  0.33990215  1
  O2-  O269  1  0.65724201  0.83088977  0.67613544  1
  O2-  O270  1  0.16270884  0.35339811  -0.00875017  1
  O2-  O271  1  0.16648766  0.34857356  0.33419364  1
  O2-  O272  1  0.17003308  0.33789088  0.66978618  1
  O2-  O273  1  0.16079474  0.83501974  -0.00107045  1
  O2-  O274  1  0.16834898  0.85364450  0.33485647  1
  O2-  O275  1  0.16064263  0.85219515  0.65938437  1
  O2-  O276  1  0.50419056  0.34210187  0.00462538  1
  O2-  O277  1  0.50258760  0.32102094  0.33431949  1
  O2-  O278  1  0.50647113  0.35052272  0.67296700  1
  O2-  O279  1  0.50365369  0.83228123  -0.00062813  1
  O2-  O280  1  0.50899738  0.85897160  0.34269683  1
  O2-  O281  1  0.50252775  0.82218254  0.66868946  1
  O2-  O282  1  0.82919916  0.34840135  -0.00427429  1
  O2-  O283  1  0.83408023  0.32057586  0.33399267  1
  O2-  O284  1  0.83221123  0.35427118  0.66605956  1
  O2-  O285  1  0.82869362  0.82736204  0.00049995  1
  O2-  O286  1  0.82932459  0.84219715  0.32665238  1
  O2-  O287  1  0.82856122  0.81739051  0.66104018  1
  O2-  O288  1  0.00418366  0.19949332  0.18091857  1
  O2-  O289  1  -0.00585714  0.18247737  0.49849718  1
  O2-  O290  1  0.00303161  0.18226603  0.83297934  1
  O2-  O291  1  -0.00411174  0.68687393  0.15882581  1
  O2-  O292  1  0.00315460  0.67137111  0.50642068  1
  O2-  O293  1  -0.00373674  0.67813342  0.82704634  1
  O2-  O294  1  0.32511686  0.17509526  0.15826052  1
  O2-  O295  1  0.34479429  0.17696250  0.50724085  1
  O2-  O296  1  0.33345756  0.19238114  0.84053638  1
  O2-  O297  1  0.32425682  0.67109539  0.15324997  1
  O2-  O298  1  0.33535638  0.66722655  0.51238104  1
  O2-  O299  1  0.32916529  0.69013529  0.82628467  1
  O2-  O300  1  0.66282259  0.18802150  0.16343703  1
  O2-  O301  1  0.66279587  0.18209319  0.48846765  1
  O2-  O302  1  0.67668301  0.18342999  0.84304422  1
  O2-  O303  1  0.66295266  0.68671618  0.16414066  1
  O2-  O304  1  0.65738463  0.68181091  0.49447359  1
  O2-  O305  1  0.67821208  0.68409775  0.82346125  1
  O2-  O306  1  0.17530056  0.17822376  0.15567674  1
  O2-  O307  1  0.16305521  0.17589036  0.49826091  1
  O2-  O308  1  0.15702085  0.18396335  0.84049559  1
  O2-  O309  1  0.16126446  0.68046357  0.15036835  1
  O2-  O310  1  0.17180472  0.67175304  0.50320924  1
  O2-  O311  1  0.16465825  0.68171864  0.82922303  1
  O2-  O312  1  0.50006260  0.18893935  0.17243969  1
  O2-  O313  1  0.49318647  0.17757945  0.50163204  1
  O2-  O314  1  0.50497442  0.18992668  0.83576792  1
  O2-  O315  1  0.49325314  0.69048936  0.16668159  1
  O2-  O316  1  0.49948048  0.67929620  0.50990599  1
  O2-  O317  1  0.49382469  0.69058998  0.83337057  1
  O2-  O318  1  0.83619157  0.19092528  0.16302531  1
  O2-  O319  1  0.82834358  0.18856461  0.49780295  1
  O2-  O320  1  0.83263823  0.17755272  0.83432106  1
  O2-  O321  1  0.82383504  0.68354034  0.17198542  1
  O2-  O322  1  0.84728998  0.67977702  0.49742283  1
  O2-  O323  1  0.83695869  0.68178363  0.82543222  1
  O2-  O324  1  0.00072659  0.31784793  0.16874972  1
  O2-  O325  1  0.00283463  0.31635587  0.50273337  1
  O2-  O326  1  -0.00260667  0.31667915  0.83081950  1
  O2-  O327  1  -0.00343867  0.81306012  0.16403246  1
  O2-  O328  1  0.01341196  0.83306739  0.51246070  1
  O2-  O329  1  0.00506009  0.82255206  0.84067550  1
  O2-  O330  1  0.32838659  0.32623358  0.16211459  1
  O2-  O331  1  0.33283992  0.32758144  0.49992502  1
  O2-  O332  1  0.33194386  0.31734190  0.82816921  1
  O2-  O333  1  0.33055961  0.82527735  0.16565107  1
  O2-  O334  1  0.32514056  0.82203305  0.48604006  1
  O2-  O335  1  0.33500425  0.82294814  0.83366974  1
  O2-  O336  1  0.66448920  0.31822956  0.16678083  1
  O2-  O337  1  0.66919737  0.31998464  0.50373599  1
  O2-  O338  1  0.66507451  0.31939346  0.82605778  1
  O2-  O339  1  0.66340879  0.81214797  0.16322682  1
  O2-  O340  1  0.66636694  0.81409505  0.50084066  1
  O2-  O341  1  0.67109872  0.81553641  0.83803381  1
  O2-  O342  1  0.16935465  0.32898879  0.15707965  1
  O2-  O343  1  0.17190968  0.32448022  0.49489715  1
  O2-  O344  1  0.16860483  0.31726574  0.82621849  1
  O2-  O345  1  0.16531487  0.81728531  0.16626289  1
  O2-  O346  1  0.17154030  0.82862491  0.49630442  1
  O2-  O347  1  0.17111915  0.81971907  0.82759932  1
  O2-  O348  1  0.49647035  0.31129428  0.16927259  1
  O2-  O349  1  0.49309571  0.32697551  0.50669676  1
  O2-  O350  1  0.50690861  0.31913487  0.82705988  1
  O2-  O351  1  0.50174534  0.82516286  0.16765041  1
  O2-  O352  1  0.50401433  0.81776300  0.49810323  1
  O2-  O353  1  0.49931706  0.81388592  0.83297269  1
  O2-  O354  1  0.83110602  0.31652640  0.17195791  1
  O2-  O355  1  0.83052781  0.31368739  0.50122719  1
  O2-  O356  1  0.83774658  0.32752821  0.82767819  1
  O2-  O357  1  0.83732669  0.81728741  0.16326511  1
  O2-  O358  1  0.84740364  0.81785218  0.49090050  1
  O2-  O359  1  0.82709645  0.82143851  0.83801144  1
  O2-  O360  1  0.09398249  0.08102683  0.12890619  1
  O2-  O361  1  0.07440115  0.08394421  0.44947866  1
  O2-  O362  1  0.06849090  0.07693924  0.77121760  1
  O2-  O363  1  0.09924033  0.57372808  0.11676765  1
  O2-  O364  1  0.09272060  0.56801644  0.45299063  1
  O2-  O365  1  0.08121067  0.58264715  0.77538137  1
  O2-  O366  1  0.40739127  0.08154434  0.13257637  1
  O2-  O367  1  0.44200691  0.07546987  0.43086758  1
  O2-  O368  1  0.42618448  0.07421203  0.75711230  1
  O2-  O369  1  0.41228640  0.58021986  0.13056234  1
  O2-  O370  1  0.44783717  0.56637128  0.46897813  1
  O2-  O371  1  0.43594374  0.58236675  0.77793569  1
  O2-  O372  1  0.75250713  0.08350542  0.12547375  1
  O2-  O373  1  0.75764715  0.09172224  0.42713785  1
  O2-  O374  1  0.75013249  0.08001546  0.77620482  1
  O2-  O375  1  0.74950685  0.57713670  0.12751123  1
  O2-  O376  1  0.73950068  0.57529904  0.43995930  1
  O2-  O377  1  0.75365892  0.58591843  0.76905225  1
  O2-  O378  1  0.24113335  0.08092101  0.22259915  1
  O2-  O379  1  0.26580369  0.07019742  0.55881799  1
  O2-  O380  1  0.23937511  0.08661018  0.87045214  1
  O2-  O381  1  0.23850010  0.57160701  0.22774752  1
  O2-  O382  1  0.25703242  0.57966309  0.55727349  1
  O2-  O383  1  0.25884574  0.58009799  0.87779071  1
  O2-  O384  1  0.56262648  0.07690600  0.21394215  1
  O2-  O385  1  0.55778186  0.07836010  0.57723784  1
  O2-  O386  1  0.57943424  0.08599480  0.86847794  1
  O2-  O387  1  0.59221631  0.58341198  0.20639709  1
  O2-  O388  1  0.59313637  0.58234524  0.55881941  1
  O2-  O389  1  0.60279107  0.57280734  0.87944255  1
  O2-  O390  1  0.94144854  0.08441424  0.21154454  1
  O2-  O391  1  0.90083194  0.07942231  0.54608937  1
  O2-  O392  1  0.92750477  0.08203240  0.87910600  1
  O2-  O393  1  0.90916606  0.58276966  0.21909592  1
  O2-  O394  1  0.91551919  0.58194680  0.55526488  1
  O2-  O395  1  0.89871131  0.58284880  0.88994624  1
  O2-  O396  1  0.08694090  0.42029706  0.09984643  1
  O2-  O397  1  0.07398772  0.41563108  0.43951295  1
  O2-  O398  1  0.06152501  0.42593950  0.78848110  1
  O2-  O399  1  0.08859532  0.91712867  0.10949552  1
  O2-  O400  1  0.10386716  0.92321339  0.45027731  1
  O2-  O401  1  0.10027192  0.91893479  0.78308499  1
  O2-  O402  1  0.44011785  0.41733631  0.12026997  1
  O2-  O403  1  0.40883298  0.41797133  0.44591236  1
  O2-  O404  1  0.40647092  0.42259088  0.76262000  1
  O2-  O405  1  0.43141002  0.91519092  0.09989727  1
  O2-  O406  1  0.39734044  0.91648351  0.44183089  1
  O2-  O407  1  0.44166642  0.91833192  0.78610649  1
  O2-  O408  1  0.75119179  0.42641069  0.12900514  1
  O2-  O409  1  0.76974997  0.41787988  0.42959966  1
  O2-  O410  1  0.74551843  0.41482221  0.77958598  1
  O2-  O411  1  0.74519942  0.91421100  0.07097563  1
  O2-  O412  1  0.74725297  0.91023951  0.44630029  1
  O2-  O413  1  0.72930783  0.92169953  0.78711772  1
  O2-  O414  1  0.25030281  0.42212371  0.21875159  1
  O2-  O415  1  0.26508495  0.41707224  0.58399783  1
  O2-  O416  1  0.24579375  0.42163378  0.86844450  1
  O2-  O417  1  0.25349734  0.91783113  0.21998268  1
  O2-  O418  1  0.25751567  0.92432849  0.55118709  1
  O2-  O419  1  0.25220925  0.91925203  0.88926149  1
  O2-  O420  1  0.59830525  0.42139355  0.21553666  1
  O2-  O421  1  0.59048978  0.42143022  0.56341116  1
  O2-  O422  1  0.59183717  0.41525164  0.88782697  1
  O2-  O423  1  0.58893269  0.92681648  0.21473720  1
  O2-  O424  1  0.58985471  0.91965360  0.55919262  1
  O2-  O425  1  0.59061589  0.91722152  0.88914192  1
  O2-  O426  1  0.90285804  0.41988550  0.24813355  1
  O2-  O427  1  0.90536150  0.42020166  0.53882353  1
  O2-  O428  1  0.92319748  0.41848545  0.89038939  1
  O2-  O429  1  0.93110132  0.91456665  0.22147357  1
  O2-  O430  1  0.92474932  0.92144838  0.55100858  1
  O2-  O431  1  0.89582143  0.91242550  0.90524564  1
  O2-  O432  1  0.00954830  0.01248000  -0.01930424  1
  O2-  O433  1  -0.00157226  0.01550612  0.34155759  1
  O2-  O434  1  0.01676489  0.00736856  0.61115081  1
  O2-  O435  1  0.00457570  0.51167750  -0.01016016  1
  O2-  O436  1  -0.02994954  0.50478394  0.37116114  1
  O2-  O437  1  0.00506908  0.50407974  0.66436796  1
  O2-  O438  1  0.33308917  0.01240528  0.01105440  1
  O2-  O439  1  0.32485225  0.00409891  0.35103022  1
  O2-  O440  1  0.31021288  -0.01504898  0.70508522  1
  O2-  O441  1  0.31821497  0.50173435  0.03480046  1
  O2-  O442  1  0.33939347  0.50367273  0.31988872  1
  O2-  O443  1  0.33135490  0.51462254  0.68450226  1
  O2-  O444  1  0.66157460  0.01097925  0.00214070  1
  O2-  O445  1  0.62997649  0.00329926  0.37667497  1
  O2-  O446  1  0.64942295  -0.00356115  0.69070125  1
  O2-  O447  1  0.67157388  0.48714193  0.00440633  1
  O2-  O448  1  0.67196184  0.51298518  0.32639961  1
  O2-  O449  1  0.63814557  0.49538997  0.69616596  1
  O2-  O450  1  0.17423248  0.01867606  0.00261513  1
  O2-  O451  1  0.15161000  -0.00390202  0.31707103  1
  O2-  O452  1  0.16362204  -0.01737292  0.64908943  1
  O2-  O453  1  0.17121964  0.49191000  0.00336337  1
  O2-  O454  1  0.19053051  0.49663714  0.37070635  1
  O2-  O455  1  0.18438270  0.49729477  0.71725529  1
  O2-  O456  1  0.49959738  0.00802543  0.00224581  1
  O2-  O457  1  0.47698625  -0.00458606  0.30803740  1
  O2-  O458  1  0.50275996  -0.01828814  0.67130118  1
  O2-  O459  1  0.49758597  0.50673659  -0.00768988  1
  O2-  O460  1  0.51846663  0.52057528  0.33796580  1
  O2-  O461  1  0.47833490  0.50999659  0.63427264  1
  O2-  O462  1  0.83887814  0.00907461  0.00170361  1
  O2-  O463  1  0.83957710  -0.00494938  0.36416280  1
  O2-  O464  1  0.86747737  0.00145385  0.71182200  1
  O2-  O465  1  0.83358313  0.49671540  -0.01968637  1
  O2-  O466  1  0.82162446  0.50729738  0.30995119  1
  O2-  O467  1  0.84166567  0.48519057  0.68051052  1
  O2-  O468  1  0.39918960  0.74893234  0.05621777  1
  O2-  O469  1  0.25270216  0.25159763  0.58793864  1
  O2-  O470  1  0.08154588  0.75637283  0.40608445  1
  O2-  O471  1  0.08484525  0.24875435  0.39440347  1
  O2-  O472  1  0.90882349  0.25194644  0.94251958  1
  O2-  O473  1  0.74871835  0.24762151  0.04653013  1
  O2-  O474  1  0.91532862  0.75088873  0.27647624  1
  O2-  O475  1  0.93882583  0.75201046  0.59925809  1
  O2-  O476  1  0.07971840  0.75080186  0.72153692  1
  O2-  O477  1  0.24635642  0.25329731  0.26534178  1
  O2-  O478  1  0.57819130  0.25613243  0.59880190  1
  O2-  O479  1  0.24455631  0.25264538  0.95114834  1
  O2-  O480  1  0.24958206  0.75458121  0.27137313  1
  O2-  O481  1  0.91607409  0.24833984  0.61704546  1
  O2-  O482  1  0.57305365  0.74780690  0.27904741  1
  O2-  O483  1  0.24963500  0.75017643  0.60346046  1
  O2-  O484  1  0.41046093  0.25200737  0.40916379  1
  O2-  O485  1  0.40026982  0.25555329  0.04761430  1
  O2-  O486  1  0.76209049  0.25065432  0.72542887  1
  O2-  O487  1  0.91878915  0.74704539  0.93163083  1
  O2-  O488  1  0.75261023  0.75034569  0.39936915  1
  O2-  O489  1  0.58980251  0.25017447  0.94701457  1
  O2-  O490  1  0.42176238  0.75507714  0.39734569  1
  O2-  O491  1  0.25575015  0.74163539  0.95062651  1
  O2-  O492  1  0.08862575  0.25583373  0.05188470  1
