# generated using pymatgen
data_Ca108Mn108O277
_symmetry_space_group_name_H-M   'P 1'
_cell_length_a   16.02935607
_cell_length_b   22.30917142
_cell_length_c   16.38897363
_cell_angle_alpha   90.00723567
_cell_angle_beta   89.99741472
_cell_angle_gamma   89.99923571
_symmetry_Int_Tables_number   1
_chemical_formula_structural   Ca108Mn108O277
_chemical_formula_sum   'Ca108 Mn108 O277'
_cell_volume   5860.72399732
_cell_formula_units_Z   1
loop_
 _symmetry_equiv_pos_site_id
 _symmetry_equiv_pos_as_xyz
  1  'x, y, z'
loop_
 _atom_type_symbol
 _atom_type_oxidation_number
  Ca2+  2.0
  Mn3.34+  3.34
  O2-  -2.0
loop_
 _atom_site_type_symbol
 _atom_site_label
 _atom_site_symmetry_multiplicity
 _atom_site_fract_x
 _atom_site_fract_y
 _atom_site_fract_z
 _atom_site_occupancy
  Ca2+  Ca0  1  0.08259317  0.25659527  0.24876551  1
  Ca2+  Ca1  1  0.05764448  0.23682845  0.59702125  1
  Ca2+  Ca2  1  0.06937094  0.25036783  0.90385302  1
  Ca2+  Ca3  1  0.07456736  0.74765902  0.22913382  1
  Ca2+  Ca4  1  0.08989056  0.73874793  0.61085839  1
  Ca2+  Ca5  1  0.08738702  0.75241945  0.89520310  1
  Ca2+  Ca6  1  0.41239192  0.25054361  0.23508420  1
  Ca2+  Ca7  1  0.42506902  0.25247622  0.58611651  1
  Ca2+  Ca8  1  0.42171553  0.26301086  0.92484170  1
  Ca2+  Ca9  1  0.44493909  0.75356863  0.25008404  1
  Ca2+  Ca10  1  0.42637695  0.75450069  0.58883270  1
  Ca2+  Ca11  1  0.42137766  0.75574673  0.90871844  1
  Ca2+  Ca12  1  0.75760784  0.24983930  0.24969513  1
  Ca2+  Ca13  1  0.76948138  0.23963161  0.58831845  1
  Ca2+  Ca14  1  0.75584688  0.25542536  0.91418659  1
  Ca2+  Ca15  1  0.73091761  0.74830018  0.24037757  1
  Ca2+  Ca16  1  0.73752317  0.74579512  0.60403134  1
  Ca2+  Ca17  1  0.73908593  0.74818013  0.90122706  1
  Ca2+  Ca18  1  0.24717858  0.24837455  0.08881824  1
  Ca2+  Ca19  1  0.24108861  0.25558045  0.41289970  1
  Ca2+  Ca20  1  0.21998038  0.24826347  0.74362191  1
  Ca2+  Ca21  1  0.23977419  0.75679907  0.07213351  1
  Ca2+  Ca22  1  0.26811526  0.74298378  0.42784925  1
  Ca2+  Ca23  1  0.23906146  0.74306530  0.75531272  1
  Ca2+  Ca24  1  0.57609048  0.26582738  0.08414215  1
  Ca2+  Ca25  1  0.57875791  0.25417245  0.41986863  1
  Ca2+  Ca26  1  0.58675331  0.25421401  0.74195895  1
  Ca2+  Ca27  1  0.59399018  0.74963080  0.08645274  1
  Ca2+  Ca28  1  0.57753961  0.74786471  0.40488890  1
  Ca2+  Ca29  1  0.59267549  0.74160636  0.75146382  1
  Ca2+  Ca30  1  0.92326343  0.25892309  0.07826689  1
  Ca2+  Ca31  1  0.92592583  0.25427520  0.42800181  1
  Ca2+  Ca32  1  0.93413481  0.23807877  0.74021593  1
  Ca2+  Ca33  1  0.90708110  0.75271368  0.07851766  1
  Ca2+  Ca34  1  0.91441434  0.75271632  0.41177224  1
  Ca2+  Ca35  1  0.90792833  0.74984966  0.75264235  1
  Ca2+  Ca36  1  0.42283154  0.61124145  0.89065973  1
  Ca2+  Ca37  1  0.08471384  0.58896755  0.25583756  1
  Ca2+  Ca38  1  0.58456835  0.08307148  0.73663814  1
  Ca2+  Ca39  1  0.42009271  0.61314845  0.57708713  1
  Ca2+  Ca40  1  0.40646973  0.07286888  0.93006555  1
  Ca2+  Ca41  1  0.41345880  0.60846598  0.89321651  1
  Ca2+  Ca42  1  0.74205686  0.07940487  0.91881554  1
  Ca2+  Ca43  1  0.92454452  0.59794132  0.40721582  1
  Ca2+  Ca44  1  0.09270648  0.10875925  0.23274376  1
  Ca2+  Ca45  1  0.92905863  0.10233079  0.07997070  1
  Ca2+  Ca46  1  0.75492244  0.08101541  0.91825017  1
  Ca2+  Ca47  1  0.24349654  0.58579530  0.07418109  1
  Ca2+  Ca48  1  0.54739979  0.05120337  0.07474369  1
  Ca2+  Ca49  1  0.45777382  0.61034926  0.25392083  1
  Ca2+  Ca50  1  0.60016055  0.59259371  0.73578523  1
  Ca2+  Ca51  1  0.71804693  0.60448885  0.24397165  1
  Ca2+  Ca52  1  0.08292409  0.10631947  0.23640613  1
  Ca2+  Ca53  1  0.61044637  0.09533094  0.42508764  1
  Ca2+  Ca54  1  0.60218899  0.59158913  0.07604679  1
  Ca2+  Ca55  1  0.89389421  0.10535861  0.44751383  1
  Ca2+  Ca56  1  0.92209946  0.09447016  0.73140942  1
  Ca2+  Ca57  1  0.27645897  0.07897917  0.07358996  1
  Ca2+  Ca58  1  0.90326940  0.10750534  0.45108388  1
  Ca2+  Ca59  1  0.44677075  0.60860676  0.25498442  1
  Ca2+  Ca60  1  0.07823655  0.10641127  0.90140065  1
  Ca2+  Ca61  1  0.23618126  0.60315019  0.75205380  1
  Ca2+  Ca62  1  0.42896577  0.08333554  0.60410870  1
  Ca2+  Ca63  1  0.06055045  0.08875231  0.60515029  1
  Ca2+  Ca64  1  0.91172792  0.59661672  0.40644361  1
  Ca2+  Ca65  1  0.57467075  0.61685042  0.42208916  1
  Ca2+  Ca66  1  0.42948250  0.61030968  0.57975227  1
  Ca2+  Ca67  1  0.89046145  0.58350441  0.07772615  1
  Ca2+  Ca68  1  0.25537122  0.59661370  0.41304405  1
  Ca2+  Ca69  1  0.24228380  0.08443358  0.40407379  1
  Ca2+  Ca70  1  0.91614598  0.10213385  0.07970711  1
  Ca2+  Ca71  1  0.08308491  0.59435442  0.90304302  1
  Ca2+  Ca72  1  0.09628478  0.89990539  0.24335745  1
  Ca2+  Ca73  1  0.07221614  0.91347697  0.59525026  1
  Ca2+  Ca74  1  0.44385231  0.41212534  0.59890627  1
  Ca2+  Ca75  1  0.26304238  0.89970176  0.41856068  1
  Ca2+  Ca76  1  0.90439277  0.90307984  0.07532744  1
  Ca2+  Ca77  1  0.23306686  0.40821648  0.75980060  1
  Ca2+  Ca78  1  0.08354915  0.90075631  0.24424573  1
  Ca2+  Ca79  1  0.24656840  0.40255203  0.08368775  1
  Ca2+  Ca80  1  0.59846664  0.90554760  0.39606930  1
  Ca2+  Ca81  1  0.89482632  0.90050173  0.43262540  1
  Ca2+  Ca82  1  0.72647332  0.42077168  0.60716082  1
  Ca2+  Ca83  1  0.91470851  0.39830212  0.41581118  1
  Ca2+  Ca84  1  0.59341475  0.41743073  0.74673565  1
  Ca2+  Ca85  1  0.74316264  0.42297616  0.93914326  1
  Ca2+  Ca86  1  0.25030873  0.89940603  0.41844640  1
  Ca2+  Ca87  1  0.42447125  0.92502056  0.93546179  1
  Ca2+  Ca88  1  0.74444308  0.90601341  0.91843605  1
  Ca2+  Ca89  1  0.42312506  0.90974597  0.59367751  1
  Ca2+  Ca90  1  0.43293640  0.41017104  0.59721662  1
  Ca2+  Ca91  1  0.43338103  0.92126963  0.93394115  1
  Ca2+  Ca92  1  0.24575809  0.90841782  0.76088283  1
  Ca2+  Ca93  1  0.08085087  0.40710598  0.91523827  1
  Ca2+  Ca94  1  0.26848408  0.91972433  0.05606342  1
  Ca2+  Ca95  1  0.90566071  0.90250528  0.43059091  1
  Ca2+  Ca96  1  0.75403492  0.42302618  0.93885401  1
  Ca2+  Ca97  1  0.23241890  0.41637727  0.39744102  1
  Ca2+  Ca98  1  0.58861562  0.90759772  0.75357191  1
  Ca2+  Ca99  1  0.91501307  0.91098763  0.74631857  1
  Ca2+  Ca100  1  0.59014335  0.39746757  0.42072332  1
  Ca2+  Ca101  1  0.24294937  0.41580393  0.39966744  1
  Ca2+  Ca102  1  0.92374302  0.40673749  0.75625774  1
  Ca2+  Ca103  1  0.41460253  0.40174971  0.24702933  1
  Ca2+  Ca104  1  0.08086777  0.40640279  0.59513968  1
  Ca2+  Ca105  1  0.74427713  0.39656039  0.23606043  1
  Ca2+  Ca106  1  0.45114157  0.91388788  0.23174780  1
  Ca2+  Ca107  1  0.09061262  0.40740635  0.24357287  1
  Mn3.34+  Mn108  1  0.08220390  0.33421982  0.08108691  1
  Mn3.34+  Mn109  1  0.08006168  0.33370227  0.41871852  1
  Mn3.34+  Mn110  1  0.08074726  0.33508823  0.75222064  1
  Mn3.34+  Mn111  1  0.08372879  0.83111345  0.07064438  1
  Mn3.34+  Mn112  1  0.08281043  0.82602881  0.42003150  1
  Mn3.34+  Mn113  1  0.08266879  0.83545960  0.75425845  1
  Mn3.34+  Mn114  1  0.41765271  0.33144111  0.07913421  1
  Mn3.34+  Mn115  1  0.41670245  0.33402429  0.41684432  1
  Mn3.34+  Mn116  1  0.41325061  0.33240456  0.75878525  1
  Mn3.34+  Mn117  1  0.42047027  0.83591678  0.08539099  1
  Mn3.34+  Mn118  1  0.42410970  0.83111685  0.42004384  1
  Mn3.34+  Mn119  1  0.41786532  0.83508766  0.75332011  1
  Mn3.34+  Mn120  1  0.75032315  0.33814230  0.08541131  1
  Mn3.34+  Mn121  1  0.75090651  0.32945407  0.41973367  1
  Mn3.34+  Mn122  1  0.75269365  0.34017415  0.75701913  1
  Mn3.34+  Mn123  1  0.74446178  0.83482406  0.08014374  1
  Mn3.34+  Mn124  1  0.74354683  0.82956443  0.42117851  1
  Mn3.34+  Mn125  1  0.74850518  0.83646610  0.74794953  1
  Mn3.34+  Mn126  1  0.24924280  0.33341137  0.24408131  1
  Mn3.34+  Mn127  1  0.24920771  0.33649333  0.58151777  1
  Mn3.34+  Mn128  1  0.24911465  0.33171100  0.91500265  1
  Mn3.34+  Mn129  1  0.25889359  0.83080034  0.24063080  1
  Mn3.34+  Mn130  1  0.24908241  0.83268673  0.58870045  1
  Mn3.34+  Mn131  1  0.25321936  0.83421128  0.91255901  1
  Mn3.34+  Mn132  1  0.58249996  0.32928502  0.24891674  1
  Mn3.34+  Mn133  1  0.59030475  0.32887215  0.58309210  1
  Mn3.34+  Mn134  1  0.58088448  0.33645585  0.91402132  1
  Mn3.34+  Mn135  1  0.59198942  0.83453671  0.24447613  1
  Mn3.34+  Mn136  1  0.58746259  0.83460026  0.58109932  1
  Mn3.34+  Mn137  1  0.58339440  0.83353283  0.91507241  1
  Mn3.34+  Mn138  1  0.91734441  0.32956286  0.24599283  1
  Mn3.34+  Mn139  1  0.91276421  0.33535672  0.58599317  1
  Mn3.34+  Mn140  1  0.91510298  0.33141062  0.91529338  1
  Mn3.34+  Mn141  1  0.90799837  0.83156105  0.24510332  1
  Mn3.34+  Mn142  1  0.91424765  0.83514571  0.58933540  1
  Mn3.34+  Mn143  1  0.91582789  0.83494773  0.91272691  1
  Mn3.34+  Mn144  1  0.25185642  0.16031492  0.90941340  1
  Mn3.34+  Mn145  1  0.74840859  0.16203793  0.08922692  1
  Mn3.34+  Mn146  1  0.74704493  0.66530647  0.08114785  1
  Mn3.34+  Mn147  1  0.08596055  0.66949373  0.42294436  1
  Mn3.34+  Mn148  1  0.58536637  0.16816407  0.91448838  1
  Mn3.34+  Mn149  1  0.24642091  0.66821836  0.24618701  1
  Mn3.34+  Mn150  1  0.58827986  0.16627994  0.58371334  1
  Mn3.34+  Mn151  1  0.07837618  0.66159637  0.07837954  1
  Mn3.34+  Mn152  1  0.25059121  0.17231440  0.91248172  1
  Mn3.34+  Mn153  1  0.58172751  0.16010506  0.24211676  1
  Mn3.34+  Mn154  1  0.75031571  0.16114569  0.74944185  1
  Mn3.34+  Mn155  1  0.91394845  0.67149797  0.24184052  1
  Mn3.34+  Mn156  1  0.42186295  0.15747128  0.41616793  1
  Mn3.34+  Mn157  1  0.25355131  0.16856687  0.24453315  1
  Mn3.34+  Mn158  1  0.90490395  0.66022597  0.90927454  1
  Mn3.34+  Mn159  1  0.25171887  0.16496026  0.58632916  1
  Mn3.34+  Mn160  1  0.41516594  0.16472647  0.75561969  1
  Mn3.34+  Mn161  1  0.91474486  0.66522519  0.91022603  1
  Mn3.34+  Mn162  1  0.91960627  0.66752974  0.59084430  1
  Mn3.34+  Mn163  1  0.59023001  0.66797313  0.91033693  1
  Mn3.34+  Mn164  1  0.59318135  0.15678456  0.24076746  1
  Mn3.34+  Mn165  1  0.41863982  0.66952575  0.07885059  1
  Mn3.34+  Mn166  1  0.57551797  0.16297598  0.91189110  1
  Mn3.34+  Mn167  1  0.91287396  0.16819300  0.90827888  1
  Mn3.34+  Mn168  1  0.74902360  0.67302572  0.42109557  1
  Mn3.34+  Mn169  1  0.91227938  0.17183774  0.25073972  1
  Mn3.34+  Mn170  1  0.74658669  0.17421763  0.41541256  1
  Mn3.34+  Mn171  1  0.25686339  0.66330816  0.24484868  1
  Mn3.34+  Mn172  1  0.90903972  0.66319959  0.58904917  1
  Mn3.34+  Mn173  1  0.40941425  0.16419285  0.41318434  1
  Mn3.34+  Mn174  1  0.24670176  0.66927823  0.91543151  1
  Mn3.34+  Mn175  1  0.58787128  0.67070470  0.58351148  1
  Mn3.34+  Mn176  1  0.24182558  0.16010146  0.58381302  1
  Mn3.34+  Mn177  1  0.08172409  0.16872060  0.41720473  1
  Mn3.34+  Mn178  1  0.41820777  0.16159442  0.08553039  1
  Mn3.34+  Mn179  1  0.24788633  0.67078536  0.58557037  1
  Mn3.34+  Mn180  1  0.08961112  0.00145353  0.06626481  1
  Mn3.34+  Mn181  1  0.41668119  0.50448756  0.41621686  1
  Mn3.34+  Mn182  1  0.22528896  0.50709946  0.59623454  1
  Mn3.34+  Mn183  1  0.06696470  0.00123319  0.42438750  1
  Mn3.34+  Mn184  1  0.90484991  0.49489456  0.23796407  1
  Mn3.34+  Mn185  1  0.75015784  0.49948476  0.42700211  1
  Mn3.34+  Mn186  1  0.74354343  0.00095591  0.41340655  1
  Mn3.34+  Mn187  1  0.07789785  0.50114711  0.42336183  1
  Mn3.34+  Mn188  1  0.91645824  0.49861817  0.23808889  1
  Mn3.34+  Mn189  1  0.90405861  -0.00094656  0.24944717  1
  Mn3.34+  Mn190  1  0.41729555  0.50030949  0.07910367  1
  Mn3.34+  Mn191  1  0.43253315  0.50031298  0.41539016  1
  Mn3.34+  Mn192  1  0.26578340  0.00241282  0.24718393  1
  Mn3.34+  Mn193  1  0.23918587  0.50969413  0.58970648  1
  Mn3.34+  Mn194  1  0.42155628  0.49889772  0.74335255  1
  Mn3.34+  Mn195  1  0.07993778  0.49969216  0.07429202  1
  Mn3.34+  Mn196  1  0.08172656  -0.00386137  0.74203491  1
  Mn3.34+  Mn197  1  0.74360240  -0.00078543  0.08337093  1
  Mn3.34+  Mn198  1  0.58966446  0.49541618  0.24255573  1
  Mn3.34+  Mn199  1  0.91659882  0.49904111  0.92158410  1
  Mn3.34+  Mn200  1  0.41479901  0.00161881  0.74641512  1
  Mn3.34+  Mn201  1  0.44068052  0.00417110  0.40764695  1
  Mn3.34+  Mn202  1  0.89155346  0.00279402  0.25206847  1
  Mn3.34+  Mn203  1  0.91948452  0.50673967  0.60612876  1
  Mn3.34+  Mn204  1  0.43088457  -0.00170040  0.41181620  1
  Mn3.34+  Mn205  1  0.90688301  0.50068854  0.60183854  1
  Mn3.34+  Mn206  1  0.75552794  -0.00221886  0.72995744  1
  Mn3.34+  Mn207  1  0.42749928  0.49481456  0.07884342  1
  Mn3.34+  Mn208  1  0.24736186  0.50149476  0.91577040  1
  Mn3.34+  Mn209  1  0.08014058  -0.00439980  0.06405538  1
  Mn3.34+  Mn210  1  0.58880872  0.50490163  0.91532278  1
  Mn3.34+  Mn211  1  0.24963232  -0.00159946  0.58666081  1
  Mn3.34+  Mn212  1  0.08263542  0.00596591  0.42426090  1
  Mn3.34+  Mn213  1  0.73700938  0.50685372  0.42766691  1
  Mn3.34+  Mn214  1  0.59311921  -0.00432722  0.58279580  1
  Mn3.34+  Mn215  1  0.91642493  -0.00015566  0.90512111  1
  O2-  O216  1  -0.00729773  0.15625191  -0.00772504  1
  O2-  O217  1  -0.00148199  0.14029812  0.33692068  1
  O2-  O218  1  -0.00482530  0.16048413  0.66301646  1
  O2-  O219  1  -0.01053128  0.64608180  -0.00323181  1
  O2-  O220  1  0.00183014  0.66417004  0.33487807  1
  O2-  O221  1  0.00045000  0.65781689  0.66390747  1
  O2-  O222  1  0.33547709  0.16419083  -0.00447737  1
  O2-  O223  1  0.33197837  0.14419958  0.33294626  1
  O2-  O224  1  0.33585399  0.16117099  0.66894887  1
  O2-  O225  1  0.33562389  0.65671006  -0.00162953  1
  O2-  O226  1  0.33644231  0.65793366  0.32917700  1
  O2-  O227  1  0.32993964  0.65600231  0.66279379  1
  O2-  O228  1  0.67306659  0.15455858  -0.00210677  1
  O2-  O229  1  0.66743101  0.16790912  0.33082167  1
  O2-  O230  1  0.66619510  0.16786173  0.67096607  1
  O2-  O231  1  0.66683979  0.65641986  -0.00087350  1
  O2-  O232  1  0.67368657  0.66912903  0.34003372  1
  O2-  O233  1  0.66563727  0.66108797  0.65994147  1
  O2-  O234  1  0.17163164  0.18303091  -0.00400740  1
  O2-  O235  1  0.16609465  0.15338932  0.33195556  1
  O2-  O236  1  0.16021017  0.15603313  0.66022893  1
  O2-  O237  1  0.16523105  0.64738865  -0.00046009  1
  O2-  O238  1  0.16554955  0.65314581  0.33563581  1
  O2-  O239  1  0.16923323  0.66120101  0.66243286  1
  O2-  O240  1  0.50033750  0.14364746  -0.00375086  1
  O2-  O241  1  0.50757013  0.14207078  0.33582280  1
  O2-  O242  1  0.49714546  0.15892926  0.66961163  1
  O2-  O243  1  0.49885134  0.65182807  -0.00262376  1
  O2-  O244  1  0.49879222  0.67270354  0.33600714  1
  O2-  O245  1  0.50300643  0.66582807  0.66336474  1
  O2-  O246  1  0.82872135  0.15347984  -0.00136045  1
  O2-  O247  1  0.83304630  0.16588958  0.33539573  1
  O2-  O248  1  0.83272063  0.17143028  0.67890671  1
  O2-  O249  1  0.83585423  0.65556659  -0.00007716  1
  O2-  O250  1  0.83745763  0.66070692  0.33587398  1
  O2-  O251  1  0.82736029  0.66304137  0.66337288  1
  O2-  O252  1  0.00471330  0.33310468  -0.00624207  1
  O2-  O253  1  0.00151506  0.35283826  0.33040294  1
  O2-  O254  1  -0.00355286  0.34960011  0.66774322  1
  O2-  O255  1  -0.00821147  0.84292832  0.00388364  1
  O2-  O256  1  -0.00066678  0.84859633  0.33522453  1
  O2-  O257  1  0.00175113  0.84694248  0.66837811  1
  O2-  O258  1  0.32672814  0.32814551  0.00345011  1
  O2-  O259  1  0.32848225  0.35084603  0.33462559  1
  O2-  O260  1  0.34121069  0.34339935  0.66022297  1
  O2-  O261  1  0.33935398  0.83131423  -0.00155391  1
  O2-  O262  1  0.33513331  0.83728323  0.33789976  1
  O2-  O263  1  0.33506086  0.84605665  0.66763424  1
  O2-  O264  1  0.67353080  0.33867452  -0.00518413  1
  O2-  O265  1  0.66822931  0.32412926  0.33624353  1
  O2-  O266  1  0.66737123  0.33899778  0.67227549  1
  O2-  O267  1  0.66491472  0.84588283  -0.00300544  1
  O2-  O268  1  0.66885780  0.82505412  0.33535821  1
  O2-  O269  1  0.66558036  0.85001443  0.66593862  1
  O2-  O270  1  0.16727244  0.32267137  0.00130025  1
  O2-  O271  1  0.16420446  0.34358371  0.32956113  1
  O2-  O272  1  0.16853346  0.34698259  0.66826674  1
  O2-  O273  1  0.17668508  0.84816940  0.00411423  1
  O2-  O274  1  0.16434212  0.84656607  0.33359404  1
  O2-  O275  1  0.16400412  0.85258364  0.66609900  1
  O2-  O276  1  0.49874607  0.34130305  0.00042632  1
  O2-  O277  1  0.50002743  0.34646440  0.33691462  1
  O2-  O278  1  0.50157438  0.33749816  0.67004017  1
  O2-  O279  1  0.49265262  0.83587899  -0.00722590  1
  O2-  O280  1  0.50071968  0.83456557  0.33339583  1
  O2-  O281  1  0.49849299  0.84349619  0.66594068  1
  O2-  O282  1  0.82770264  0.33815791  -0.00474411  1
  O2-  O283  1  0.82894228  0.33896602  0.33146409  1
  O2-  O284  1  0.82834183  0.35162462  0.66534931  1
  O2-  O285  1  0.83058967  0.84408551  -0.00400967  1
  O2-  O286  1  0.83732583  0.83530094  0.34167891  1
  O2-  O287  1  0.83779642  0.84353776  0.67375833  1
  O2-  O288  1  -0.00114426  0.17482058  0.17150422  1
  O2-  O289  1  -0.00306999  0.17528189  0.49121865  1
  O2-  O290  1  -0.00690748  0.17399071  0.83436612  1
  O2-  O291  1  -0.00077397  0.67763874  0.16446649  1
  O2-  O292  1  -0.00723524  0.68075324  0.49763913  1
  O2-  O293  1  0.00023355  0.67711684  0.84058300  1
  O2-  O294  1  0.32985963  0.17991132  0.16132330  1
  O2-  O295  1  0.33421044  0.18015548  0.50700702  1
  O2-  O296  1  0.33183398  0.19387282  0.83216844  1
  O2-  O297  1  0.33565057  0.68638005  0.16073936  1
  O2-  O298  1  0.33765933  0.68022383  0.50983848  1
  O2-  O299  1  0.33199276  0.68191225  0.84013014  1
  O2-  O300  1  0.67009221  0.19416788  0.16252045  1
  O2-  O301  1  0.66233597  0.18631180  0.49269818  1
  O2-  O302  1  0.66385034  0.18586063  0.83094545  1
  O2-  O303  1  0.66861750  0.67590811  0.15747945  1
  O2-  O304  1  0.66409053  0.68662039  0.49539923  1
  O2-  O305  1  0.66120343  0.67242413  0.83012778  1
  O2-  O306  1  0.16244481  0.18543085  0.17820796  1
  O2-  O307  1  0.17245136  0.18255936  0.49074251  1
  O2-  O308  1  0.16288349  0.18140103  0.83812268  1
  O2-  O309  1  0.16564017  0.67535660  0.16515139  1
  O2-  O310  1  0.17060291  0.68713026  0.49513983  1
  O2-  O311  1  0.16773905  0.66982270  0.83862081  1
  O2-  O312  1  0.50231993  0.17583478  0.16231700  1
  O2-  O313  1  0.49670361  0.17754867  0.49947655  1
  O2-  O314  1  0.49674690  0.19257970  0.82950532  1
  O2-  O315  1  0.49519542  0.68117527  0.15932800  1
  O2-  O316  1  0.49955606  0.68518719  0.50624586  1
  O2-  O317  1  0.49850003  0.68285526  0.84131875  1
  O2-  O318  1  0.84036956  0.18724648  0.15326201  1
  O2-  O319  1  0.83145568  0.18898202  0.48927709  1
  O2-  O320  1  0.81883909  0.17896312  0.84102212  1
  O2-  O321  1  0.83264492  0.68123359  0.16454464  1
  O2-  O322  1  0.84135430  0.68392657  0.49642604  1
  O2-  O323  1  0.83065161  0.68181441  0.83252809  1
  O2-  O324  1  0.00421661  0.31662806  0.16506820  1
  O2-  O325  1  0.00177998  0.32753485  0.50427334  1
  O2-  O326  1  -0.00471769  0.32426104  0.83244423  1
  O2-  O327  1  0.00282386  0.82786306  0.17100036  1
  O2-  O328  1  -0.00715614  0.81934006  0.49199554  1
  O2-  O329  1  -0.00603822  0.82175490  0.82931597  1
  O2-  O330  1  0.33194075  0.32125752  0.16670879  1
  O2-  O331  1  0.33651139  0.33164432  0.50043896  1
  O2-  O332  1  0.32563840  0.31121972  0.82910602  1
  O2-  O333  1  0.33904992  0.80890377  0.15926825  1
  O2-  O334  1  0.33456493  0.81741785  0.49772881  1
  O2-  O335  1  0.33335014  0.80982758  0.82723215  1
  O2-  O336  1  0.67122535  0.31625427  0.16715689  1
  O2-  O337  1  0.66757032  0.31374326  0.49944549  1
  O2-  O338  1  0.66960952  0.31213815  0.82961820  1
  O2-  O339  1  0.66936756  0.82067442  0.16239159  1
  O2-  O340  1  0.66156803  0.81360587  0.49655114  1
  O2-  O341  1  0.66580258  0.83137395  0.83489078  1
  O2-  O342  1  0.16609538  0.31582731  0.16477148  1
  O2-  O343  1  0.17544090  0.32719659  0.48717533  1
  O2-  O344  1  0.16324564  0.31700967  0.83585343  1
  O2-  O345  1  0.15996461  0.82149009  0.16956398  1
  O2-  O346  1  0.17573017  0.81938672  0.49016252  1
  O2-  O347  1  0.17411755  0.82891958  0.82904344  1
  O2-  O348  1  0.49333235  0.32633530  0.17291171  1
  O2-  O349  1  0.49960900  0.32234768  0.50596535  1
  O2-  O350  1  0.50141959  0.31631056  0.83062474  1
  O2-  O351  1  0.50161781  0.82388970  0.16457883  1
  O2-  O352  1  0.50002843  0.81423814  0.50157680  1
  O2-  O353  1  0.50341716  0.81283778  0.82661657  1
  O2-  O354  1  0.83059499  0.31171524  0.16351735  1
  O2-  O355  1  0.83879428  0.32194555  0.49495747  1
  O2-  O356  1  0.83649130  0.31431796  0.82689019  1
  O2-  O357  1  0.83590099  0.82076794  0.15879559  1
  O2-  O358  1  0.83557973  0.81914014  0.49632295  1
  O2-  O359  1  0.83005643  0.82316038  0.83628005  1
  O2-  O360  1  0.06578807  0.07927940  0.10752813  1
  O2-  O361  1  0.09306506  0.08576442  0.45018595  1
  O2-  O362  1  0.06278823  0.06566353  0.78303527  1
  O2-  O363  1  0.07591617  0.57586735  0.11998330  1
  O2-  O364  1  0.05884126  0.58232891  0.43391095  1
  O2-  O365  1  0.10970570  0.56563349  0.78090369  1
  O2-  O366  1  0.41041141  0.08168249  0.09881621  1
  O2-  O367  1  0.40383446  0.07753461  0.46420987  1
  O2-  O368  1  0.43128889  0.07847195  0.78713158  1
  O2-  O369  1  0.41520607  0.57777615  0.12725583  1
  O2-  O370  1  0.41305939  0.58541826  0.44110144  1
  O2-  O371  1  0.41858336  0.57722104  0.76448472  1
  O2-  O372  1  0.78344093  0.07508318  0.11631567  1
  O2-  O373  1  0.76019232  0.08216355  0.44445655  1
  O2-  O374  1  0.74160342  0.07311622  0.78384202  1
  O2-  O375  1  0.75524245  0.58349366  0.11439721  1
  O2-  O376  1  0.77307616  0.58513402  0.44554288  1
  O2-  O377  1  0.73687757  0.56293738  0.75204084  1
  O2-  O378  1  0.22859453  0.08254419  0.21092457  1
  O2-  O379  1  0.24912285  0.07968898  0.54471542  1
  O2-  O380  1  0.25386210  0.07923375  0.89747584  1
  O2-  O381  1  0.25012908  0.58116627  0.22231007  1
  O2-  O382  1  0.25410403  0.58549514  0.54673546  1
  O2-  O383  1  0.27537378  0.58208276  0.88957198  1
  O2-  O384  1  0.60223881  0.07897265  0.20794670  1
  O2-  O385  1  0.57975422  0.08136623  0.55874982  1
  O2-  O386  1  0.59961388  0.08469103  0.87767405  1
  O2-  O387  1  0.58065785  0.57565507  0.21283368  1
  O2-  O388  1  0.56201121  0.58781497  0.55396336  1
  O2-  O389  1  0.56287586  0.58203855  0.87912759  1
  O2-  O390  1  0.91621126  0.08280499  0.21669856  1
  O2-  O391  1  0.95365463  0.05061526  0.53530611  1
  O2-  O392  1  0.89605241  0.08228224  0.88178930  1
  O2-  O393  1  0.92069313  0.58337447  0.23152875  1
  O2-  O394  1  0.91475685  0.57601758  0.54017388  1
  O2-  O395  1  0.92318482  0.57859748  0.88749880  1
  O2-  O396  1  0.09998072  0.42095997  0.10660865  1
  O2-  O397  1  0.08925722  0.41941312  0.44586703  1
  O2-  O398  1  0.08255075  0.41433431  0.78100566  1
  O2-  O399  1  0.07954664  0.91946834  0.11195654  1
  O2-  O400  1  0.08636915  0.91870201  0.44744464  1
  O2-  O401  1  0.08517935  0.92414884  0.78328166  1
  O2-  O402  1  0.40041131  0.41553842  0.11021487  1
  O2-  O403  1  0.43978109  0.42307772  0.45885178  1
  O2-  O404  1  0.41349963  0.41878812  0.76166697  1
  O2-  O405  1  0.40712405  0.91592365  0.10133378  1
  O2-  O406  1  0.39957936  0.91992306  0.45442092  1
  O2-  O407  1  0.41576000  0.92344912  0.78913996  1
  O2-  O408  1  0.75036250  0.41701997  0.09937392  1
  O2-  O409  1  0.73442172  0.41922712  0.45165610  1
  O2-  O410  1  0.75046921  0.41720537  0.79495940  1
  O2-  O411  1  0.76256093  0.91982191  0.09979097  1
  O2-  O412  1  0.75781499  0.91962139  0.43795774  1
  O2-  O413  1  0.75099921  0.92456250  0.78124783  1
  O2-  O414  1  0.23875811  0.41499925  0.22731965  1
  O2-  O415  1  0.23927704  0.42906204  0.53996070  1
  O2-  O416  1  0.23006514  0.42037558  0.89782168  1
  O2-  O417  1  0.23482016  0.91960946  0.21956802  1
  O2-  O418  1  0.24902128  0.91628504  0.54973137  1
  O2-  O419  1  0.28058713  0.91270110  0.89731626  1
  O2-  O420  1  0.60031567  0.41375454  0.24451641  1
  O2-  O421  1  0.58226632  0.41251106  0.56242114  1
  O2-  O422  1  0.60451349  0.42384882  0.88510569  1
  O2-  O423  1  0.58816537  0.91401271  0.24932869  1
  O2-  O424  1  0.56920607  0.91715303  0.54352409  1
  O2-  O425  1  0.56562509  0.91412763  0.89101376  1
  O2-  O426  1  0.90037742  0.41270436  0.22143363  1
  O2-  O427  1  0.91447999  0.42954624  0.54632112  1
  O2-  O428  1  0.90368327  0.41765852  0.89284838  1
  O2-  O429  1  0.91817681  0.91893488  0.22283251  1
  O2-  O430  1  0.92724504  0.91562663  0.55798454  1
  O2-  O431  1  0.90909020  0.91848826  0.89120152  1
  O2-  O432  1  -0.00655679  0.01767874  -0.00622032  1
  O2-  O433  1  0.01102671  0.00165063  0.31116742  1
  O2-  O434  1  0.00725117  -0.00709806  0.67006580  1
  O2-  O435  1  0.01629328  0.49573665  -0.02504038  1
  O2-  O436  1  0.00828856  0.49750110  0.31795763  1
  O2-  O437  1  0.00409425  0.48206206  0.66283201  1
  O2-  O438  1  0.34725507  -0.00610149  -0.01118424  1
  O2-  O439  1  0.31805792  -0.00276276  0.36057107  1
  O2-  O440  1  0.34480713  -0.00560970  0.65346109  1
  O2-  O441  1  0.32759866  0.50133793  0.00623571  1
  O2-  O442  1  0.33344099  0.47960492  0.34255461  1
  O2-  O443  1  0.34335677  0.49568499  0.64666290  1
  O2-  O444  1  0.66858238  0.02201710  0.00451536  1
  O2-  O445  1  0.63068004  0.00227232  0.39586672  1
  O2-  O446  1  0.65056908  -0.00293030  0.68846040  1
  O2-  O447  1  0.67131712  0.50445238  -0.01665475  1
  O2-  O448  1  0.66712065  0.50943761  0.33186611  1
  O2-  O449  1  0.65493052  0.49727887  0.69006398  1
  O2-  O450  1  0.19749585  0.00354202  0.03343264  1
  O2-  O451  1  0.16404259  0.00021304  0.33556390  1
  O2-  O452  1  0.16510210  -0.00636403  0.66992528  1
  O2-  O453  1  0.17137323  0.51157647  0.00515550  1
  O2-  O454  1  0.17881826  0.50581395  0.36657953  1
  O2-  O455  1  0.18134215  0.48957462  0.69232387  1
  O2-  O456  1  0.49084925  0.00418478  -0.02528475  1
  O2-  O457  1  0.48213895  -0.00571471  0.30462530  1
  O2-  O458  1  0.49873586  0.00355932  0.66422574  1
  O2-  O459  1  0.50456342  0.51131141  -0.00506840  1
  O2-  O460  1  0.49136639  0.51061215  0.31235771  1
  O2-  O461  1  0.50154496  0.49014792  0.66598502  1
  O2-  O462  1  0.82805486  0.00570951  -0.01257591  1
  O2-  O463  1  0.85698542  -0.00055223  0.36638532  1
  O2-  O464  1  0.86138307  0.00276605  0.70866849  1
  O2-  O465  1  0.83152136  0.50054331  -0.01106007  1
  O2-  O466  1  0.84073961  0.50313649  0.34317719  1
  O2-  O467  1  0.81651071  0.48987300  0.65759515  1
  O2-  O468  1  0.75199425  0.75099081  0.05728872  1
  O2-  O469  1  0.56383265  0.24120841  0.27061692  1
  O2-  O470  1  0.57265864  0.24830106  0.60297561  1
  O2-  O471  1  0.26275266  0.24909757  0.27759870  1
  O2-  O472  1  0.07864366  0.25551562  0.73006528  1
  O2-  O473  1  0.59204838  0.74944477  0.94019877  1
  O2-  O474  1  0.58683469  0.75358157  0.25505181  1
  O2-  O475  1  0.57888910  0.24683268  0.94790550  1
  O2-  O476  1  0.07980290  0.24987808  0.39009768  1
  O2-  O477  1  0.08975612  0.75674904  0.74304729  1
  O2-  O478  1  0.91851979  0.74774882  0.93901871  1
  O2-  O479  1  0.42814795  0.24814050  0.06873672  1
  O2-  O480  1  0.58836512  0.75463636  0.61287508  1
  O2-  O481  1  0.92136033  0.75242421  0.61005368  1
  O2-  O482  1  0.91240541  0.24891883  0.93846698  1
  O2-  O483  1  0.74350783  0.75760073  0.73953160  1
  O2-  O484  1  0.08535675  0.74794186  0.06041056  1
  O2-  O485  1  0.23762249  0.74762052  0.27817751  1
  O2-  O486  1  0.23279739  0.74984945  0.93693756  1
  O2-  O487  1  0.41599369  0.24628628  0.39192891  1
  O2-  O488  1  0.93131880  0.25149097  0.28245227  1
  O2-  O489  1  0.91617592  0.25768381  0.60260890  1
  O2-  O490  1  0.92477622  0.75186092  0.26927899  1
  O2-  O491  1  0.24548344  0.75311845  0.61348458  1
  O2-  O492  1  0.24979127  0.24864398  0.60122639  1
