# generated using pymatgen
data_Ca108Mn108O277
_symmetry_space_group_name_H-M   'P 1'
_cell_length_a   16.00161564
_cell_length_b   22.26974467
_cell_length_c   16.36899696
_cell_angle_alpha   90.00016427
_cell_angle_beta   90.00004516
_cell_angle_gamma   89.99972453
_symmetry_Int_Tables_number   1
_chemical_formula_structural   Ca108Mn108O277
_chemical_formula_sum   'Ca108 Mn108 O277'
_cell_volume   5833.12308029
_cell_formula_units_Z   1
loop_
 _symmetry_equiv_pos_site_id
 _symmetry_equiv_pos_as_xyz
  1  'x, y, z'
loop_
 _atom_type_symbol
 _atom_type_oxidation_number
  Ca2+  2.0
  Mn3.34+  3.34
  O2-  -2.0
loop_
 _atom_site_type_symbol
 _atom_site_label
 _atom_site_symmetry_multiplicity
 _atom_site_fract_x
 _atom_site_fract_y
 _atom_site_fract_z
 _atom_site_occupancy
  Ca2+  Ca0  1  0.09188913  0.25211680  0.24809113  1
  Ca2+  Ca1  1  0.07773108  0.25099071  0.59341147  1
  Ca2+  Ca2  1  0.08265314  0.24779970  0.90918895  1
  Ca2+  Ca3  1  0.09463959  0.75627138  0.25627903  1
  Ca2+  Ca4  1  0.07616420  0.75108744  0.58373052  1
  Ca2+  Ca5  1  0.08600314  0.75040492  0.90923046  1
  Ca2+  Ca6  1  0.41977266  0.24973392  0.24445579  1
  Ca2+  Ca7  1  0.42948129  0.24279416  0.58901720  1
  Ca2+  Ca8  1  0.41814948  0.24607795  0.91561535  1
  Ca2+  Ca9  1  0.40752262  0.75126175  0.26596144  1
  Ca2+  Ca10  1  0.42398832  0.74945856  0.57348170  1
  Ca2+  Ca11  1  0.41443284  0.74909500  0.90922860  1
  Ca2+  Ca12  1  0.74101234  0.24890356  0.24557406  1
  Ca2+  Ca13  1  0.73867299  0.24831784  0.57506280  1
  Ca2+  Ca14  1  0.74900890  0.25209473  0.92668018  1
  Ca2+  Ca15  1  0.74578039  0.76015484  0.25306304  1
  Ca2+  Ca16  1  0.74819744  0.75645365  0.58434618  1
  Ca2+  Ca17  1  0.74893633  0.75333951  0.91433314  1
  Ca2+  Ca18  1  0.26122119  0.25061835  0.07350459  1
  Ca2+  Ca19  1  0.25591582  0.25452074  0.41248830  1
  Ca2+  Ca20  1  0.25453254  0.24269455  0.76416407  1
  Ca2+  Ca21  1  0.24917930  0.75894665  0.08367948  1
  Ca2+  Ca22  1  0.25918172  0.75229424  0.41226141  1
  Ca2+  Ca23  1  0.24904184  0.74850368  0.75615244  1
  Ca2+  Ca24  1  0.58503750  0.24924539  0.07597306  1
  Ca2+  Ca25  1  0.58616891  0.24926627  0.42227647  1
  Ca2+  Ca26  1  0.57235857  0.24902058  0.75208578  1
  Ca2+  Ca27  1  0.58261524  0.75746971  0.07677857  1
  Ca2+  Ca28  1  0.56829880  0.75562426  0.42714517  1
  Ca2+  Ca29  1  0.57792439  0.75388215  0.74372849  1
  Ca2+  Ca30  1  0.90532613  0.25083891  0.06803371  1
  Ca2+  Ca31  1  0.90814415  0.24826288  0.42286548  1
  Ca2+  Ca32  1  0.92616394  0.25116116  0.76071517  1
  Ca2+  Ca33  1  0.91869297  0.75404234  0.07377235  1
  Ca2+  Ca34  1  0.92376300  0.75152818  0.42933965  1
  Ca2+  Ca35  1  0.92264442  0.74838627  0.74604290  1
  Ca2+  Ca36  1  0.57620713  0.10239239  0.42720276  1
  Ca2+  Ca37  1  0.09116708  0.09112316  0.58991904  1
  Ca2+  Ca38  1  0.41986228  0.10193971  0.90729939  1
  Ca2+  Ca39  1  0.74304280  0.10010731  0.92281687  1
  Ca2+  Ca40  1  0.75653630  0.57859783  0.24850676  1
  Ca2+  Ca41  1  0.76723035  0.59002873  0.91127208  1
  Ca2+  Ca42  1  0.58074573  0.10304988  0.08959631  1
  Ca2+  Ca43  1  0.26468476  0.09401461  0.08309148  1
  Ca2+  Ca44  1  0.77766421  0.59062609  0.91037187  1
  Ca2+  Ca45  1  0.74917386  0.10139359  0.24659377  1
  Ca2+  Ca46  1  0.08853066  0.59233215  0.26399528  1
  Ca2+  Ca47  1  0.92433625  0.09796051  0.76604318  1
  Ca2+  Ca48  1  0.91848313  0.59987747  0.76852786  1
  Ca2+  Ca49  1  0.57514676  0.59323752  0.74495022  1
  Ca2+  Ca50  1  0.25348689  0.09346322  0.08315458  1
  Ca2+  Ca51  1  0.08385454  0.09850180  0.90534908  1
  Ca2+  Ca52  1  0.07605828  0.60080121  0.56527760  1
  Ca2+  Ca53  1  0.91243692  0.09340834  0.08508322  1
  Ca2+  Ca54  1  0.74827577  0.59068892  0.58215975  1
  Ca2+  Ca55  1  0.08146262  0.59501186  0.90784872  1
  Ca2+  Ca56  1  0.25389901  0.58970822  0.08249785  1
  Ca2+  Ca57  1  0.90373152  0.09487073  0.41555908  1
  Ca2+  Ca58  1  0.07818628  0.09061468  0.58922696  1
  Ca2+  Ca59  1  0.56075685  0.58868256  0.43241949  1
  Ca2+  Ca60  1  0.73814056  0.10192242  0.24622027  1
  Ca2+  Ca61  1  0.40784132  0.59026875  0.25794970  1
  Ca2+  Ca62  1  0.26307444  0.59335425  0.41579605  1
  Ca2+  Ca63  1  0.58792086  0.59305654  0.74550002  1
  Ca2+  Ca64  1  0.26639158  0.59048538  0.08152729  1
  Ca2+  Ca65  1  0.25173069  0.59306819  0.41541656  1
  Ca2+  Ca66  1  0.42557911  0.09741859  0.25145891  1
  Ca2+  Ca67  1  0.58538340  0.10533778  0.43029683  1
  Ca2+  Ca68  1  0.26608448  0.08973075  0.42104454  1
  Ca2+  Ca69  1  0.40448779  0.59190651  0.91065310  1
  Ca2+  Ca70  1  0.74087906  0.10330569  0.56862772  1
  Ca2+  Ca71  1  0.58218160  0.58690926  0.07869133  1
  Ca2+  Ca72  1  0.41506057  0.41058719  0.56940917  1
  Ca2+  Ca73  1  0.07826426  0.40725368  0.91323455  1
  Ca2+  Ca74  1  0.41008825  0.40543242  0.90902708  1
  Ca2+  Ca75  1  0.42438341  0.91012570  0.91425498  1
  Ca2+  Ca76  1  0.58047426  0.91064131  0.08410573  1
  Ca2+  Ca77  1  0.40464434  0.91232018  0.25183271  1
  Ca2+  Ca78  1  0.42580472  0.91215145  0.56465044  1
  Ca2+  Ca79  1  0.91049127  0.41037607  0.41277068  1
  Ca2+  Ca80  1  0.26574610  0.40615789  0.08446669  1
  Ca2+  Ca81  1  0.76067636  0.90959242  0.24781422  1
  Ca2+  Ca82  1  0.42685425  0.41015839  0.56886908  1
  Ca2+  Ca83  1  0.73705032  0.40727188  0.57463256  1
  Ca2+  Ca84  1  0.07883700  0.90925190  0.91476555  1
  Ca2+  Ca85  1  0.08836736  0.40593337  0.57513081  1
  Ca2+  Ca86  1  0.10101208  0.40460949  0.57410245  1
  Ca2+  Ca87  1  0.09049831  0.40858197  0.24980346  1
  Ca2+  Ca88  1  0.25951893  0.40878334  0.76555806  1
  Ca2+  Ca89  1  0.75216717  0.90749393  0.91322429  1
  Ca2+  Ca90  1  0.90833303  0.40674481  0.77320901  1
  Ca2+  Ca91  1  0.25360256  0.91137868  0.75125707  1
  Ca2+  Ca92  1  0.41169419  0.90999366  0.91461491  1
  Ca2+  Ca93  1  0.41616310  0.91256559  0.25198504  1
  Ca2+  Ca94  1  0.93064307  0.91250060  0.09618884  1
  Ca2+  Ca95  1  0.07768252  0.40873297  0.24923458  1
  Ca2+  Ca96  1  0.89902291  0.41287655  0.41668281  1
  Ca2+  Ca97  1  0.75019920  0.40929601  0.23701132  1
  Ca2+  Ca98  1  0.25889549  0.91110507  0.42053309  1
  Ca2+  Ca99  1  0.91955351  0.90840249  0.42255073  1
  Ca2+  Ca100  1  0.07963184  0.90825958  0.57616029  1
  Ca2+  Ca101  1  0.24154450  0.91126431  0.75169996  1
  Ca2+  Ca102  1  0.91684639  0.90571165  0.75410295  1
  Ca2+  Ca103  1  0.90116959  0.41133675  0.07710958  1
  Ca2+  Ca104  1  0.91828032  0.91197115  0.09273802  1
  Ca2+  Ca105  1  0.74794866  0.91026608  0.24703225  1
  Ca2+  Ca106  1  0.25624786  0.40918169  0.08127741  1
  Ca2+  Ca107  1  0.58074488  0.90777289  0.74837449  1
  Mn3.34+  Mn108  1  0.08072777  0.33192839  0.07960133  1
  Mn3.34+  Mn109  1  0.08710350  0.33442515  0.41545623  1
  Mn3.34+  Mn110  1  0.08437669  0.33043487  0.75249291  1
  Mn3.34+  Mn111  1  0.08926334  0.83592372  0.08721590  1
  Mn3.34+  Mn112  1  0.08432811  0.83353446  0.41547492  1
  Mn3.34+  Mn113  1  0.08106044  0.83206023  0.74827058  1
  Mn3.34+  Mn114  1  0.42781281  0.33275768  0.08439654  1
  Mn3.34+  Mn115  1  0.42151096  0.34126984  0.40995985  1
  Mn3.34+  Mn116  1  0.42190580  0.33155064  0.75120332  1
  Mn3.34+  Mn117  1  0.41443590  0.83019385  0.08414671  1
  Mn3.34+  Mn118  1  0.41798593  0.83413947  0.41899834  1
  Mn3.34+  Mn119  1  0.41830803  0.83141728  0.74468107  1
  Mn3.34+  Mn120  1  0.74302589  0.33916102  0.07951258  1
  Mn3.34+  Mn121  1  0.74169785  0.33766632  0.41392608  1
  Mn3.34+  Mn122  1  0.74399365  0.33671970  0.75403884  1
  Mn3.34+  Mn123  1  0.74896159  0.83366469  0.08131562  1
  Mn3.34+  Mn124  1  0.74680559  0.83263149  0.42345664  1
  Mn3.34+  Mn125  1  0.74967033  0.82887322  0.74697885  1
  Mn3.34+  Mn126  1  0.25900021  0.33235420  0.25348769  1
  Mn3.34+  Mn127  1  0.25502200  0.32745583  0.58325947  1
  Mn3.34+  Mn128  1  0.25126638  0.33159509  0.91448049  1
  Mn3.34+  Mn129  1  0.24517521  0.83449524  0.24906117  1
  Mn3.34+  Mn130  1  0.24999455  0.83496724  0.58027626  1
  Mn3.34+  Mn131  1  0.24731954  0.83097014  0.92003389  1
  Mn3.34+  Mn132  1  0.58074845  0.33123577  0.24873825  1
  Mn3.34+  Mn133  1  0.58452154  0.32891206  0.58459681  1
  Mn3.34+  Mn134  1  0.58600634  0.32907423  0.91592422  1
  Mn3.34+  Mn135  1  0.58207721  0.83603976  0.25348409  1
  Mn3.34+  Mn136  1  0.58657335  0.83606912  0.58028867  1
  Mn3.34+  Mn137  1  0.58511857  0.83307030  0.91425580  1
  Mn3.34+  Mn138  1  0.91308959  0.32735545  0.24755341  1
  Mn3.34+  Mn139  1  0.91132243  0.32989340  0.58804199  1
  Mn3.34+  Mn140  1  0.91048294  0.33389702  0.91705266  1
  Mn3.34+  Mn141  1  0.92189486  0.83406995  0.25395861  1
  Mn3.34+  Mn142  1  0.91269996  0.83335323  0.58333394  1
  Mn3.34+  Mn143  1  0.91743521  0.83051572  0.91500511  1
  Mn3.34+  Mn144  1  0.57198214  0.66401621  0.25121869  1
  Mn3.34+  Mn145  1  0.41492562  0.67105700  0.08151161  1
  Mn3.34+  Mn146  1  0.07357804  0.66533583  0.07847604  1
  Mn3.34+  Mn147  1  0.41687495  0.16154636  0.42079089  1
  Mn3.34+  Mn148  1  0.92176798  0.66921551  0.25519465  1
  Mn3.34+  Mn149  1  0.92296857  0.66943774  0.58236621  1
  Mn3.34+  Mn150  1  0.57471801  0.66733421  0.58058686  1
  Mn3.34+  Mn151  1  0.07517709  0.16352352  0.08453561  1
  Mn3.34+  Mn152  1  0.75163001  0.16949176  0.75336762  1
  Mn3.34+  Mn153  1  0.25568360  0.16629610  0.25132461  1
  Mn3.34+  Mn154  1  0.42402781  0.16909722  0.08000862  1
  Mn3.34+  Mn155  1  0.07842404  0.16222122  0.41131470  1
  Mn3.34+  Mn156  1  0.25045592  0.66897178  0.25518260  1
  Mn3.34+  Mn157  1  0.76035690  0.66002450  0.08039319  1
  Mn3.34+  Mn158  1  0.08520600  0.67119163  0.07854787  1
  Mn3.34+  Mn159  1  0.25068562  0.66232376  0.90741907  1
  Mn3.34+  Mn160  1  0.26011358  0.16448086  0.58929141  1
  Mn3.34+  Mn161  1  0.41386185  0.66481975  0.74936432  1
  Mn3.34+  Mn162  1  0.08079690  0.66820715  0.75356852  1
  Mn3.34+  Mn163  1  0.58355182  0.67022821  0.25169900  1
  Mn3.34+  Mn164  1  0.08994370  0.16808409  0.41150232  1
  Mn3.34+  Mn165  1  0.92157831  0.66919821  0.25507194  1
  Mn3.34+  Mn166  1  0.73852278  0.17291177  0.74951622  1
  Mn3.34+  Mn167  1  0.75765546  0.65953195  0.42111139  1
  Mn3.34+  Mn168  1  0.24632896  0.66837996  0.58714073  1
  Mn3.34+  Mn169  1  0.91382092  0.16009667  0.24939616  1
  Mn3.34+  Mn170  1  0.42089554  0.16492280  0.74938048  1
  Mn3.34+  Mn171  1  0.74985872  0.66502365  0.08145987  1
  Mn3.34+  Mn172  1  0.91127274  0.16633355  0.58236373  1
  Mn3.34+  Mn173  1  0.25694936  0.66402845  0.58678671  1
  Mn3.34+  Mn174  1  0.08687546  0.16676742  0.75488277  1
  Mn3.34+  Mn175  1  0.57958049  0.66878709  0.91496673  1
  Mn3.34+  Mn176  1  0.08581171  0.16782264  0.08582598  1
  Mn3.34+  Mn177  1  0.74599401  0.66540486  0.42172400  1
  Mn3.34+  Mn178  1  0.75341665  0.67212506  0.74746280  1
  Mn3.34+  Mn179  1  0.74770383  0.17072426  0.07682497  1
  Mn3.34+  Mn180  1  0.24918289  0.00598916  0.92313884  1
  Mn3.34+  Mn181  1  0.58497822  0.49597843  0.25643973  1
  Mn3.34+  Mn182  1  0.08153648  0.00153364  0.74696020  1
  Mn3.34+  Mn183  1  0.08379872  0.50391126  0.41496853  1
  Mn3.34+  Mn184  1  0.90803642  0.50452530  0.58043285  1
  Mn3.34+  Mn185  1  0.41576311  0.49930279  0.74331676  1
  Mn3.34+  Mn186  1  0.91217299  0.50085188  0.25736509  1
  Mn3.34+  Mn187  1  0.58044619  0.00016023  0.58830702  1
  Mn3.34+  Mn188  1  0.25570652  0.00164481  0.58855028  1
  Mn3.34+  Mn189  1  0.08711787  -0.00148425  0.08235873  1
  Mn3.34+  Mn190  1  0.74787812  0.00281754  0.07848896  1
  Mn3.34+  Mn191  1  0.74526331  0.49597740  0.74928596  1
  Mn3.34+  Mn192  1  0.25977858  0.49845535  0.26315097  1
  Mn3.34+  Mn193  1  0.42004839  0.00653069  0.74025638  1
  Mn3.34+  Mn194  1  0.07816091  -0.00148269  0.39862980  1
  Mn3.34+  Mn195  1  0.57639162  0.00312777  0.25662009  1
  Mn3.34+  Mn196  1  0.58380168  0.49961399  0.58750073  1
  Mn3.34+  Mn197  1  0.58514357  0.00659877  0.92105430  1
  Mn3.34+  Mn198  1  0.74138269  0.00248129  0.74722388  1
  Mn3.34+  Mn199  1  0.08163992  0.49797322  0.07435706  1
  Mn3.34+  Mn200  1  0.58328402  0.49716248  0.92152633  1
  Mn3.34+  Mn201  1  0.08247780  0.49871556  0.75467824  1
  Mn3.34+  Mn202  1  0.57331345  0.49583113  0.26079363  1
  Mn3.34+  Mn203  1  0.75737331  0.00129143  0.41941034  1
  Mn3.34+  Mn204  1  0.09327444  0.50346352  0.75407575  1
  Mn3.34+  Mn205  1  0.07120248  0.50215675  0.07618960  1
  Mn3.34+  Mn206  1  0.41824524  0.00157244  0.08049980  1
  Mn3.34+  Mn207  1  0.25603558  0.49987855  0.58503450  1
  Mn3.34+  Mn208  1  0.24785840  0.00036506  0.25945918  1
  Mn3.34+  Mn209  1  0.75212062  -0.00216778  0.74861527  1
  Mn3.34+  Mn210  1  0.74673088  -0.00349348  0.41930539  1
  Mn3.34+  Mn211  1  0.59413968  0.49253391  0.92192448  1
  Mn3.34+  Mn212  1  0.91877130  0.50040614  0.57834613  1
  Mn3.34+  Mn213  1  0.91582961  0.00396245  0.92089117  1
  Mn3.34+  Mn214  1  0.41618202  0.49762875  0.08007611  1
  Mn3.34+  Mn215  1  0.91402833  -0.00102508  0.58329311  1
  O2-  O216  1  -0.00021611  0.16369090  0.00197136  1
  O2-  O217  1  -0.00574364  0.17211918  0.33170329  1
  O2-  O218  1  0.00195052  0.16101346  0.66112803  1
  O2-  O219  1  0.00005752  0.67302157  -0.00751894  1
  O2-  O220  1  0.00851056  0.67665522  0.33330031  1
  O2-  O221  1  0.00113827  0.66445840  0.66844116  1
  O2-  O222  1  0.33154180  0.16054200  0.01169262  1
  O2-  O223  1  0.33432106  0.16885246  0.33543497  1
  O2-  O224  1  0.33436702  0.17645763  0.66784387  1
  O2-  O225  1  0.32965883  0.66659843  0.00310454  1
  O2-  O226  1  0.33068148  0.66161356  0.33246222  1
  O2-  O227  1  0.33436993  0.66924250  0.66860472  1
  O2-  O228  1  0.66879689  0.16378065  0.00285874  1
  O2-  O229  1  0.66790206  0.16380243  0.33322651  1
  O2-  O230  1  0.67141229  0.17167677  0.66457012  1
  O2-  O231  1  0.66447471  0.66270112  -0.00247198  1
  O2-  O232  1  0.66971928  0.66328291  0.33107113  1
  O2-  O233  1  0.66389135  0.66489217  0.67125703  1
  O2-  O234  1  0.16816214  0.16169128  0.00616114  1
  O2-  O235  1  0.17225116  0.16610929  0.33211063  1
  O2-  O236  1  0.15998897  0.16789050  0.65633389  1
  O2-  O237  1  0.17209832  0.66272389  0.00071516  1
  O2-  O238  1  0.17131553  0.66412253  0.33373742  1
  O2-  O239  1  0.16286653  0.66616347  0.66444472  1
  O2-  O240  1  0.49909003  0.16417936  0.00301201  1
  O2-  O241  1  0.49607646  0.17068680  0.34147285  1
  O2-  O242  1  0.49666957  0.17063667  0.67118991  1
  O2-  O243  1  0.49932800  0.66788602  0.00228848  1
  O2-  O244  1  0.49787477  0.66377074  0.33610113  1
  O2-  O245  1  0.50532898  0.66403403  0.67542147  1
  O2-  O246  1  0.83181416  0.16332458  0.00582152  1
  O2-  O247  1  0.83481770  0.17155647  0.32711889  1
  O2-  O248  1  0.83219174  0.16691623  0.66959835  1
  O2-  O249  1  0.83312948  0.67196150  -0.00884207  1
  O2-  O250  1  0.82812404  0.66870599  0.32992517  1
  O2-  O251  1  0.83418443  0.66758186  0.66526786  1
  O2-  O252  1  -0.00012947  0.33480626  -0.00043430  1
  O2-  O253  1  -0.00259315  0.33466965  0.33172675  1
  O2-  O254  1  0.00554808  0.33855022  0.66253775  1
  O2-  O255  1  -0.00329352  0.83109190  0.00216931  1
  O2-  O256  1  -0.00098193  0.81952259  0.33773513  1
  O2-  O257  1  -0.00071169  0.83475100  0.66567200  1
  O2-  O258  1  0.32977124  0.33715622  0.00458356  1
  O2-  O259  1  0.33519515  0.32171195  0.33748256  1
  O2-  O260  1  0.33498747  0.33413118  0.66495306  1
  O2-  O261  1  0.33972784  0.83065155  -0.00639940  1
  O2-  O262  1  0.33523512  0.83589098  0.32904155  1
  O2-  O263  1  0.32791400  0.83773047  0.67071053  1
  O2-  O264  1  0.66658962  0.32695283  -0.00013159  1
  O2-  O265  1  0.66798472  0.32074054  0.32911104  1
  O2-  O266  1  0.67212692  0.32733390  0.66342774  1
  O2-  O267  1  0.66482112  0.83412213  -0.00080959  1
  O2-  O268  1  0.67526136  0.83474810  0.32656372  1
  O2-  O269  1  0.66305698  0.82591739  0.67028841  1
  O2-  O270  1  0.17038275  0.33791304  0.00381035  1
  O2-  O271  1  0.16113717  0.33513423  0.32382033  1
  O2-  O272  1  0.16297559  0.33396184  0.66187829  1
  O2-  O273  1  0.16187039  0.83109848  -0.00294522  1
  O2-  O274  1  0.16925460  0.82513708  0.33670737  1
  O2-  O275  1  0.17024596  0.83791942  0.66995008  1
  O2-  O276  1  0.49581579  0.33205682  -0.00396708  1
  O2-  O277  1  0.49998772  0.31697535  0.33384793  1
  O2-  O278  1  0.49366859  0.33545757  0.65911577  1
  O2-  O279  1  0.49791362  0.83253342  -0.00101927  1
  O2-  O280  1  0.49308779  0.83443283  0.32679242  1
  O2-  O281  1  0.50242980  0.83428490  0.66673158  1
  O2-  O282  1  0.83644481  0.33091598  0.00560685  1
  O2-  O283  1  0.83522867  0.32670113  0.33870436  1
  O2-  O284  1  0.83063428  0.32908286  0.66920863  1
  O2-  O285  1  0.83719305  0.83054658  0.00074026  1
  O2-  O286  1  0.83056518  0.83167829  0.32849926  1
  O2-  O287  1  0.83701900  0.82659334  0.67122453  1
  O2-  O288  1  -0.00251539  0.17306011  0.16881383  1
  O2-  O289  1  0.00184890  0.16529570  0.50204575  1
  O2-  O290  1  0.00258872  0.16788740  0.82748161  1
  O2-  O291  1  0.00235101  0.67082452  0.16766599  1
  O2-  O292  1  0.00214897  0.67455088  0.50645902  1
  O2-  O293  1  0.00213009  0.67033982  0.83124101  1
  O2-  O294  1  0.32991039  0.16492701  0.16595759  1
  O2-  O295  1  0.32795913  0.17850077  0.49517134  1
  O2-  O296  1  0.34109135  0.16980327  0.83054720  1
  O2-  O297  1  0.33074817  0.66855561  0.16290356  1
  O2-  O298  1  0.32687968  0.66630461  0.49732146  1
  O2-  O299  1  0.33977201  0.67035820  0.83590763  1
  O2-  O300  1  0.67482583  0.16660018  0.16735859  1
  O2-  O301  1  0.66607791  0.16732911  0.49394115  1
  O2-  O302  1  0.66950878  0.17284831  0.83543404  1
  O2-  O303  1  0.66600058  0.66566054  0.16663981  1
  O2-  O304  1  0.66499956  0.66751923  0.50425971  1
  O2-  O305  1  0.66840215  0.66672750  0.83262333  1
  O2-  O306  1  0.16930629  0.16703491  0.16482439  1
  O2-  O307  1  0.16567859  0.16908164  0.50378956  1
  O2-  O308  1  0.16010758  0.17016880  0.83300631  1
  O2-  O309  1  0.16763306  0.66446959  0.16435144  1
  O2-  O310  1  0.17032712  0.66904766  0.49962709  1
  O2-  O311  1  0.16267596  0.67075303  0.83546943  1
  O2-  O312  1  0.49642897  0.16851877  0.16544899  1
  O2-  O313  1  0.49785478  0.17354106  0.49195948  1
  O2-  O314  1  0.49354306  0.17027297  0.83057537  1
  O2-  O315  1  0.49875080  0.67063539  0.16059785  1
  O2-  O316  1  0.50422124  0.66949869  0.49974522  1
  O2-  O317  1  0.50222487  0.66529330  0.83049551  1
  O2-  O318  1  0.83496953  0.16941721  0.16929976  1
  O2-  O319  1  0.83576266  0.17050151  0.50217288  1
  O2-  O320  1  0.83060572  0.17106263  0.82884486  1
  O2-  O321  1  0.83241724  0.67196580  0.17262063  1
  O2-  O322  1  0.83415328  0.66947443  0.50612986  1
  O2-  O323  1  0.82722415  0.67402379  0.83237617  1
  O2-  O324  1  0.00425754  0.33077475  0.17181462  1
  O2-  O325  1  -0.00093399  0.33763086  0.49951999  1
  O2-  O326  1  0.00098528  0.33191480  0.83158734  1
  O2-  O327  1  -0.00694324  0.82623852  0.16179940  1
  O2-  O328  1  0.00103259  0.82755150  0.49899477  1
  O2-  O329  1  0.00049081  0.82794767  0.83426957  1
  O2-  O330  1  0.32667967  0.33268024  0.16018824  1
  O2-  O331  1  0.33814384  0.32231311  0.50138175  1
  O2-  O332  1  0.33332548  0.33253548  0.83141045  1
  O2-  O333  1  0.33843340  0.82697831  0.17115535  1
  O2-  O334  1  0.33241784  0.83124673  0.50061678  1
  O2-  O335  1  0.33392302  0.83695938  0.83329039  1
  O2-  O336  1  0.66915504  0.32421856  0.17239787  1
  O2-  O337  1  0.67139256  0.32529139  0.50222203  1
  O2-  O338  1  0.66792288  0.31954659  0.83138559  1
  O2-  O339  1  0.66868553  0.83432188  0.16976023  1
  O2-  O340  1  0.66593158  0.82277421  0.50027046  1
  O2-  O341  1  0.66845754  0.82743835  0.83238810  1
  O2-  O342  1  0.16486411  0.33748770  0.16738335  1
  O2-  O343  1  0.16304068  0.32749369  0.50767452  1
  O2-  O344  1  0.16572102  0.33248920  0.83322669  1
  O2-  O345  1  0.16732714  0.82350880  0.16718221  1
  O2-  O346  1  0.16502122  0.82714582  0.49973379  1
  O2-  O347  1  0.16962184  0.83510221  0.83071604  1
  O2-  O348  1  0.50076092  0.31991600  0.16898689  1
  O2-  O349  1  0.49342913  0.32778317  0.50239575  1
  O2-  O350  1  0.49573387  0.32943857  0.83617890  1
  O2-  O351  1  0.49936620  0.82913795  0.16554909  1
  O2-  O352  1  0.49755249  0.82849165  0.50424173  1
  O2-  O353  1  0.49640555  0.83493223  0.83637579  1
  O2-  O354  1  0.83409220  0.32647275  0.16808024  1
  O2-  O355  1  0.83502134  0.32963431  0.49466755  1
  O2-  O356  1  0.83527497  0.32405416  0.82624720  1
  O2-  O357  1  0.83400356  0.82901523  0.16843975  1
  O2-  O358  1  0.83756083  0.82790406  0.49561011  1
  O2-  O359  1  0.83225332  0.82181450  0.83410493  1
  O2-  O360  1  0.08502209  0.07972004  0.09571841  1
  O2-  O361  1  0.08507756  0.07850775  0.43668542  1
  O2-  O362  1  0.07743437  0.08249426  0.75631818  1
  O2-  O363  1  0.08809900  0.58268961  0.09765596  1
  O2-  O364  1  0.09931921  0.58116586  0.42918505  1
  O2-  O365  1  0.07996438  0.58490872  0.76192706  1
  O2-  O366  1  0.40983178  0.08261819  0.09797681  1
  O2-  O367  1  0.42214625  0.08218631  0.42110204  1
  O2-  O368  1  0.41601476  0.08187540  0.76506915  1
  O2-  O369  1  0.41046459  0.57957229  0.10062131  1
  O2-  O370  1  0.40738020  0.57873251  0.41954273  1
  O2-  O371  1  0.43081501  0.58066593  0.76741000  1
  O2-  O372  1  0.75278394  0.08275552  0.10025394  1
  O2-  O373  1  0.75008010  0.08282658  0.42779718  1
  O2-  O374  1  0.75270955  0.08382395  0.76139594  1
  O2-  O375  1  0.74539819  0.57904366  0.09747553  1
  O2-  O376  1  0.74516756  0.57896734  0.42847922  1
  O2-  O377  1  0.74459011  0.57818779  0.77118495  1
  O2-  O378  1  0.25358822  0.08076306  0.23095612  1
  O2-  O379  1  0.23521783  0.07997108  0.56404958  1
  O2-  O380  1  0.24963984  0.08154259  0.91323611  1
  O2-  O381  1  0.24986597  0.58085588  0.23156243  1
  O2-  O382  1  0.24483616  0.58013984  0.56561988  1
  O2-  O383  1  0.25172879  0.58379114  0.91820388  1
  O2-  O384  1  0.59091191  0.07992284  0.23682477  1
  O2-  O385  1  0.59029384  0.07546226  0.55796028  1
  O2-  O386  1  0.58425924  0.08120996  0.90875002  1
  O2-  O387  1  0.58566829  0.57997716  0.23190013  1
  O2-  O388  1  0.59045551  0.58220221  0.57423063  1
  O2-  O389  1  0.58378056  0.58158942  0.90261312  1
  O2-  O390  1  0.90267792  0.08206300  0.23751874  1
  O2-  O391  1  0.92107509  0.08142876  0.56801895  1
  O2-  O392  1  0.91572163  0.08009370  0.90091987  1
  O2-  O393  1  0.91537607  0.58046661  0.23733957  1
  O2-  O394  1  0.91512615  0.58621325  0.57543591  1
  O2-  O395  1  0.90026751  0.57461910  0.89788539  1
  O2-  O396  1  0.08416586  0.41618470  0.09747288  1
  O2-  O397  1  0.07601331  0.41988786  0.42881601  1
  O2-  O398  1  0.08361969  0.41620446  0.75693074  1
  O2-  O399  1  0.06650334  0.91727930  0.08854994  1
  O2-  O400  1  0.08304810  0.92095223  0.43160998  1
  O2-  O401  1  0.08868929  0.91873874  0.76272569  1
  O2-  O402  1  0.40384087  0.41646574  0.08809128  1
  O2-  O403  1  0.41501492  0.41936429  0.43701794  1
  O2-  O404  1  0.40947347  0.41832875  0.75943892  1
  O2-  O405  1  0.42444678  0.92011126  0.09724534  1
  O2-  O406  1  0.40749021  0.91710569  0.42161308  1
  O2-  O407  1  0.41346234  0.92263115  0.76837925  1
  O2-  O408  1  0.76076141  0.41759085  0.09968269  1
  O2-  O409  1  0.76807723  0.42053084  0.43052615  1
  O2-  O410  1  0.75945901  0.41739851  0.75197065  1
  O2-  O411  1  0.75531961  0.92007798  0.09852766  1
  O2-  O412  1  0.75529152  0.91496443  0.41735711  1
  O2-  O413  1  0.75122533  0.91577913  0.76455406  1
  O2-  O414  1  0.23901431  0.41915577  0.23426504  1
  O2-  O415  1  0.24211327  0.41865892  0.57517530  1
  O2-  O416  1  0.25055661  0.41677909  0.90862965  1
  O2-  O417  1  0.26249511  0.91784734  0.24449006  1
  O2-  O418  1  0.24946308  0.91888732  0.57420293  1
  O2-  O419  1  0.25744226  0.92153255  0.89842599  1
  O2-  O420  1  0.58924937  0.41436650  0.24334892  1
  O2-  O421  1  0.57604458  0.41794138  0.57303958  1
  O2-  O422  1  0.57804230  0.41294157  0.90844371  1
  O2-  O423  1  0.58603134  0.92048617  0.23541838  1
  O2-  O424  1  0.57513991  0.91823312  0.57988255  1
  O2-  O425  1  0.57545968  0.91995742  0.90478985  1
  O2-  O426  1  0.92523088  0.41903630  0.24134656  1
  O2-  O427  1  0.91823764  0.41720741  0.57149172  1
  O2-  O428  1  0.92528308  0.41646494  0.90613770  1
  O2-  O429  1  0.89872935  0.92263031  0.22670231  1
  O2-  O430  1  0.92302227  0.91689058  0.57199709  1
  O2-  O431  1  0.91526069  0.92026197  0.90472219  1
  O2-  O432  1  -0.00296386  -0.00033810  0.00471940  1
  O2-  O433  1  -0.01057199  0.00324917  0.34665847  1
  O2-  O434  1  0.00280968  0.00447801  0.65991719  1
  O2-  O435  1  -0.00423554  0.50181322  -0.00533393  1
  O2-  O436  1  0.00407482  0.49644640  0.32735203  1
  O2-  O437  1  0.00026947  0.50174562  0.66703269  1
  O2-  O438  1  0.33635195  0.00141986  -0.00263203  1
  O2-  O439  1  0.33490163  -0.00001317  0.32336165  1
  O2-  O440  1  0.33020076  -0.00721493  0.67465383  1
  O2-  O441  1  0.32853200  0.50438546  0.01334169  1
  O2-  O442  1  0.33271834  0.51442298  0.33704561  1
  O2-  O443  1  0.33573258  0.49438276  0.66333909  1
  O2-  O444  1  0.66691049  -0.00080007  -0.00089800  1
  O2-  O445  1  0.66821438  0.00108526  0.32812283  1
  O2-  O446  1  0.66393759  0.00194424  0.66463748  1
  O2-  O447  1  0.67301749  0.51324275  -0.00250820  1
  O2-  O448  1  0.67139446  0.50733331  0.32575686  1
  O2-  O449  1  0.66761959  0.50872193  0.66651239  1
  O2-  O450  1  0.16663862  0.00494385  0.00031115  1
  O2-  O451  1  0.17268653  0.00449304  0.34298740  1
  O2-  O452  1  0.16434553  -0.00078814  0.66307682  1
  O2-  O453  1  0.17403445  0.50450382  0.00662766  1
  O2-  O454  1  0.16203612  0.50236167  0.32456436  1
  O2-  O455  1  0.16313906  0.49944581  0.66063563  1
  O2-  O456  1  0.49842653  -0.00261760  -0.00434927  1
  O2-  O457  1  0.49440300  0.00285555  0.32283490  1
  O2-  O458  1  0.50018564  -0.00402572  0.66687015  1
  O2-  O459  1  0.49857412  0.50753239  0.00017679  1
  O2-  O460  1  0.49639355  0.51147700  0.33460772  1
  O2-  O461  1  0.50201666  0.50505723  0.66847673  1
  O2-  O462  1  0.83538163  -0.00085881  0.00424158  1
  O2-  O463  1  0.83032029  0.00161757  0.33024375  1
  O2-  O464  1  0.83706581  0.00447666  0.66988070  1
  O2-  O465  1  0.83364431  0.50758565  -0.00606759  1
  O2-  O466  1  0.83398519  0.49547479  0.32910951  1
  O2-  O467  1  0.83192045  0.50386951  0.66794680  1
  O2-  O468  1  0.58467650  0.75046357  0.91916379  1
  O2-  O469  1  0.41664957  0.75362520  0.41378319  1
  O2-  O470  1  0.58307337  0.25147829  0.58433524  1
  O2-  O471  1  0.91603262  0.75073875  0.58548943  1
  O2-  O472  1  0.91834126  0.25388215  0.91815051  1
  O2-  O473  1  0.75029256  0.74819766  0.41232763  1
  O2-  O474  1  0.41192304  0.25094106  0.08320262  1
  O2-  O475  1  0.92116743  0.24872683  0.58299957  1
  O2-  O476  1  0.58267853  0.74970293  0.58613136  1
  O2-  O477  1  0.08065690  0.24960156  0.74433625  1
  O2-  O478  1  0.08147858  0.25129588  0.41596177  1
  O2-  O479  1  0.24897338  0.25235641  0.91868784  1
  O2-  O480  1  0.08575281  0.25097882  0.08491252  1
  O2-  O481  1  0.08523344  0.74992434  0.74718899  1
  O2-  O482  1  0.58255187  0.25130808  0.91876273  1
  O2-  O483  1  0.58723986  0.75300511  0.24927806  1
  O2-  O484  1  0.25005872  0.74811065  0.91745659  1
  O2-  O485  1  0.41632758  0.25080751  0.74718524  1
  O2-  O486  1  0.24977143  0.75253220  0.58641000  1
  O2-  O487  1  0.08439230  0.75365117  0.08331472  1
  O2-  O488  1  0.75218895  0.25075749  0.08286030  1
  O2-  O489  1  0.41741953  0.74804939  0.75168477  1
  O2-  O490  1  0.24607249  0.24911852  0.25006934  1
  O2-  O491  1  0.25090100  0.75062856  0.24975787  1
  O2-  O492  1  0.74780670  0.74782851  0.08375683  1
