# generated using pymatgen
data_Ca108Mn108O277
_symmetry_space_group_name_H-M   'P 1'
_cell_length_a   16.01308852
_cell_length_b   22.28659306
_cell_length_c   16.37808943
_cell_angle_alpha   90.00308993
_cell_angle_beta   90.00207421
_cell_angle_gamma   89.99962833
_symmetry_Int_Tables_number   1
_chemical_formula_structural   Ca108Mn108O277
_chemical_formula_sum   'Ca108 Mn108 O277'
_cell_volume   5844.96648062
_cell_formula_units_Z   1
loop_
 _symmetry_equiv_pos_site_id
 _symmetry_equiv_pos_as_xyz
  1  'x, y, z'
loop_
 _atom_type_symbol
 _atom_type_oxidation_number
  Ca2+  2.0
  Mn3.34+  3.34
  O2-  -2.0
loop_
 _atom_site_type_symbol
 _atom_site_label
 _atom_site_symmetry_multiplicity
 _atom_site_fract_x
 _atom_site_fract_y
 _atom_site_fract_z
 _atom_site_occupancy
  Ca2+  Ca0  1  0.06532570  0.24177175  0.26867409  1
  Ca2+  Ca1  1  0.06840254  0.22941310  0.56699054  1
  Ca2+  Ca2  1  0.08046389  0.23343898  0.91401506  1
  Ca2+  Ca3  1  0.07414510  0.75500283  0.26993442  1
  Ca2+  Ca4  1  0.06488889  0.74811986  0.56793983  1
  Ca2+  Ca5  1  0.09617847  0.74638716  0.90488315  1
  Ca2+  Ca6  1  0.42991225  0.26300335  0.25906846  1
  Ca2+  Ca7  1  0.41079036  0.24808338  0.59643209  1
  Ca2+  Ca8  1  0.40629767  0.24518251  0.89897470  1
  Ca2+  Ca9  1  0.44624339  0.74940104  0.25779658  1
  Ca2+  Ca10  1  0.42944244  0.75887591  0.56894369  1
  Ca2+  Ca11  1  0.41948173  0.74530342  0.92241574  1
  Ca2+  Ca12  1  0.75601802  0.26940905  0.25410785  1
  Ca2+  Ca13  1  0.75964945  0.24494966  0.60721713  1
  Ca2+  Ca14  1  0.75920448  0.25399266  0.89696202  1
  Ca2+  Ca15  1  0.72900934  0.73645817  0.25198872  1
  Ca2+  Ca16  1  0.74928799  0.74104185  0.55997759  1
  Ca2+  Ca17  1  0.72886401  0.73848680  0.93322153  1
  Ca2+  Ca18  1  0.24447730  0.25723042  0.05822205  1
  Ca2+  Ca19  1  0.22779738  0.24780064  0.43398421  1
  Ca2+  Ca20  1  0.25484149  0.25072256  0.76418023  1
  Ca2+  Ca21  1  0.25480206  0.75479087  0.06238275  1
  Ca2+  Ca22  1  0.24285204  0.75658095  0.42008013  1
  Ca2+  Ca23  1  0.24687425  0.74890017  0.77420524  1
  Ca2+  Ca24  1  0.59119196  0.27039374  0.07165015  1
  Ca2+  Ca25  1  0.58840788  0.26419311  0.41602347  1
  Ca2+  Ca26  1  0.60329276  0.24815393  0.75930663  1
  Ca2+  Ca27  1  0.60061856  0.74524401  0.09188267  1
  Ca2+  Ca28  1  0.59750278  0.74893397  0.40515714  1
  Ca2+  Ca29  1  0.59027931  0.75277950  0.75459860  1
  Ca2+  Ca30  1  0.91365607  0.25714093  0.06871527  1
  Ca2+  Ca31  1  0.92668748  0.25445821  0.41646664  1
  Ca2+  Ca32  1  0.89859573  0.24312234  0.76198523  1
  Ca2+  Ca33  1  0.89094462  0.75048076  0.08144325  1
  Ca2+  Ca34  1  0.91033921  0.74102743  0.42662836  1
  Ca2+  Ca35  1  0.92691535  0.74089215  0.73784558  1
  Ca2+  Ca36  1  0.75094578  0.59178596  0.93466811  1
  Ca2+  Ca37  1  0.91448087  0.11391355  0.75719479  1
  Ca2+  Ca38  1  0.43706495  0.58266202  0.57523023  1
  Ca2+  Ca39  1  0.76892122  0.10571360  0.89760553  1
  Ca2+  Ca40  1  0.05106604  0.59788528  0.57292931  1
  Ca2+  Ca41  1  0.60252081  0.59576723  0.39274347  1
  Ca2+  Ca42  1  0.44638985  0.58692492  0.57394420  1
  Ca2+  Ca43  1  0.75856240  0.10652908  0.89610688  1
  Ca2+  Ca44  1  0.24423907  0.59292822  0.40753930  1
  Ca2+  Ca45  1  0.59130224  0.07937165  0.07036289  1
  Ca2+  Ca46  1  0.22333227  0.10090013  0.43038469  1
  Ca2+  Ca47  1  0.08914264  0.60490888  0.90679363  1
  Ca2+  Ca48  1  0.23983937  0.10746491  0.76556441  1
  Ca2+  Ca49  1  0.22272887  0.60243425  0.77220506  1
  Ca2+  Ca50  1  0.92821018  0.09461761  0.07680901  1
  Ca2+  Ca51  1  0.39397701  0.58529287  0.92273278  1
  Ca2+  Ca52  1  0.61691956  0.58112975  0.73614766  1
  Ca2+  Ca53  1  0.09392882  0.58800696  0.26635140  1
  Ca2+  Ca54  1  0.75445059  0.10278582  0.60345707  1
  Ca2+  Ca55  1  0.74694734  0.59582983  0.94215487  1
  Ca2+  Ca56  1  0.42731572  0.08013984  0.25994592  1
  Ca2+  Ca57  1  0.58503768  0.09992951  0.74447991  1
  Ca2+  Ca58  1  0.22855668  0.59940508  0.77960978  1
  Ca2+  Ca59  1  0.91816731  0.59230182  0.73537865  1
  Ca2+  Ca60  1  0.23371363  0.10004935  0.06083763  1
  Ca2+  Ca61  1  0.94534335  0.11069477  0.43037678  1
  Ca2+  Ca62  1  0.93458077  0.10890317  0.42952319  1
  Ca2+  Ca63  1  0.22142803  0.09922922  0.06141222  1
  Ca2+  Ca64  1  0.06071049  0.59615497  0.57041660  1
  Ca2+  Ca65  1  0.24971559  0.10463595  0.76292440  1
  Ca2+  Ca66  1  0.60736082  0.59491955  0.11049826  1
  Ca2+  Ca67  1  0.08100155  0.58736395  0.26583212  1
  Ca2+  Ca68  1  0.93937649  0.09546936  0.07783800  1
  Ca2+  Ca69  1  0.61674796  0.59562321  0.10702804  1
  Ca2+  Ca70  1  0.61202327  0.57860434  0.74452570  1
  Ca2+  Ca71  1  0.42709822  0.08376793  0.59678957  1
  Ca2+  Ca72  1  0.44102546  0.41521573  0.24109414  1
  Ca2+  Ca73  1  0.74738944  0.90819004  0.25176661  1
  Ca2+  Ca74  1  0.25041332  0.40801131  0.75990987  1
  Ca2+  Ca75  1  0.25640670  0.40612778  0.40777359  1
  Ca2+  Ca76  1  0.43020370  0.90224501  0.91594475  1
  Ca2+  Ca77  1  0.08232141  0.40737407  0.92075177  1
  Ca2+  Ca78  1  0.92607779  0.89558570  0.75232752  1
  Ca2+  Ca79  1  0.75111886  0.90327064  0.92084582  1
  Ca2+  Ca80  1  0.75135917  0.41038357  0.91646265  1
  Ca2+  Ca81  1  0.25690043  0.89876202  0.41626645  1
  Ca2+  Ca82  1  0.90614084  0.40857050  0.07192739  1
  Ca2+  Ca83  1  0.41599611  0.40682192  0.92245139  1
  Ca2+  Ca84  1  0.23794870  0.40620520  0.76109661  1
  Ca2+  Ca85  1  0.59097479  0.41809028  0.39811111  1
  Ca2+  Ca86  1  0.58069617  0.91025781  0.72631315  1
  Ca2+  Ca87  1  0.90311612  0.41235794  0.74908997  1
  Ca2+  Ca88  1  0.73674787  0.90811159  0.25169654  1
  Ca2+  Ca89  1  0.44011030  0.91235842  0.57561223  1
  Ca2+  Ca90  1  0.40678728  0.41068274  0.92433758  1
  Ca2+  Ca91  1  0.07746606  0.89724114  0.24223297  1
  Ca2+  Ca92  1  0.73358130  0.90255495  0.56941422  1
  Ca2+  Ca93  1  0.06293374  0.40533211  0.58745887  1
  Ca2+  Ca94  1  0.09433077  0.40193794  0.24175123  1
  Ca2+  Ca95  1  0.74232772  0.43014582  0.60895206  1
  Ca2+  Ca96  1  0.23583513  0.90678381  0.74548475  1
  Ca2+  Ca97  1  0.44738844  0.41061839  0.58359209  1
  Ca2+  Ca98  1  0.76383452  0.90268292  0.92056419  1
  Ca2+  Ca99  1  0.41742652  0.90259231  0.91649102  1
  Ca2+  Ca100  1  0.75059724  0.42872215  0.60275391  1
  Ca2+  Ca101  1  0.08349214  0.89548996  0.58331735  1
  Ca2+  Ca102  1  0.58525616  0.90290355  0.09180439  1
  Ca2+  Ca103  1  0.43531669  0.41284348  0.58575506  1
  Ca2+  Ca104  1  0.24751953  0.90745929  0.74556477  1
  Ca2+  Ca105  1  0.24461625  0.40571866  0.40763291  1
  Ca2+  Ca106  1  0.90826569  0.40705049  0.42594091  1
  Ca2+  Ca107  1  0.08168037  0.40328261  0.24362432  1
  Mn3.34+  Mn108  1  0.08354872  0.33266290  0.08219682  1
  Mn3.34+  Mn109  1  0.08018435  0.33114403  0.41957873  1
  Mn3.34+  Mn110  1  0.07728425  0.32690491  0.75017122  1
  Mn3.34+  Mn111  1  0.07911876  0.83297365  0.08127256  1
  Mn3.34+  Mn112  1  0.07830964  0.82977671  0.41621613  1
  Mn3.34+  Mn113  1  0.08073496  0.82908024  0.75280896  1
  Mn3.34+  Mn114  1  0.41681348  0.33326120  0.08647191  1
  Mn3.34+  Mn115  1  0.42059834  0.33445564  0.41719338  1
  Mn3.34+  Mn116  1  0.42277933  0.33282491  0.75116083  1
  Mn3.34+  Mn117  1  0.41443273  0.83054881  0.09347427  1
  Mn3.34+  Mn118  1  0.42112718  0.83512015  0.41198476  1
  Mn3.34+  Mn119  1  0.41782665  0.83656820  0.74662878  1
  Mn3.34+  Mn120  1  0.74747957  0.34500239  0.08457327  1
  Mn3.34+  Mn121  1  0.75128529  0.33806313  0.41862351  1
  Mn3.34+  Mn122  1  0.74842186  0.33541271  0.75210310  1
  Mn3.34+  Mn123  1  0.75148039  0.83038302  0.08678768  1
  Mn3.34+  Mn124  1  0.75180646  0.83234309  0.41480733  1
  Mn3.34+  Mn125  1  0.75338207  0.82526391  0.74965755  1
  Mn3.34+  Mn126  1  0.25371870  0.32630538  0.24098033  1
  Mn3.34+  Mn127  1  0.24856562  0.33046597  0.58436702  1
  Mn3.34+  Mn128  1  0.24748194  0.33074075  0.91802702  1
  Mn3.34+  Mn129  1  0.25061660  0.82800223  0.24531580  1
  Mn3.34+  Mn130  1  0.25222741  0.83669571  0.57918267  1
  Mn3.34+  Mn131  1  0.24542987  0.83080360  0.92114258  1
  Mn3.34+  Mn132  1  0.58967405  0.33971595  0.24522843  1
  Mn3.34+  Mn133  1  0.59093923  0.33529974  0.58119792  1
  Mn3.34+  Mn134  1  0.58534737  0.33385638  0.91503792  1
  Mn3.34+  Mn135  1  0.58016652  0.83733934  0.25123409  1
  Mn3.34+  Mn136  1  0.58607515  0.83260280  0.57800711  1
  Mn3.34+  Mn137  1  0.58432120  0.82839565  0.91595496  1
  Mn3.34+  Mn138  1  0.91249166  0.33167589  0.24626972  1
  Mn3.34+  Mn139  1  0.91283794  0.33664364  0.58286490  1
  Mn3.34+  Mn140  1  0.91714824  0.33045856  0.91430141  1
  Mn3.34+  Mn141  1  0.91590738  0.83603118  0.24826359  1
  Mn3.34+  Mn142  1  0.91177115  0.83015363  0.57955496  1
  Mn3.34+  Mn143  1  0.92504951  0.82866529  0.91901214  1
  Mn3.34+  Mn144  1  0.75726964  0.17084501  0.08423832  1
  Mn3.34+  Mn145  1  0.74086270  0.16013819  0.42200449  1
  Mn3.34+  Mn146  1  0.59398123  0.66711507  0.57493051  1
  Mn3.34+  Mn147  1  0.91833043  0.16456604  0.25004320  1
  Mn3.34+  Mn148  1  0.41446251  0.16377866  0.42396580  1
  Mn3.34+  Mn149  1  0.75491326  0.66256177  0.75206398  1
  Mn3.34+  Mn150  1  0.42195341  0.17107630  0.07968046  1
  Mn3.34+  Mn151  1  0.42823542  0.66975215  0.75428635  1
  Mn3.34+  Mn152  1  0.07608822  0.16689324  0.74915487  1
  Mn3.34+  Mn153  1  0.24219941  0.67336550  0.58106975  1
  Mn3.34+  Mn154  1  0.24483643  0.17327501  0.25737984  1
  Mn3.34+  Mn155  1  0.07457996  0.66697351  0.08317040  1
  Mn3.34+  Mn156  1  0.42454409  0.66573188  0.08375213  1
  Mn3.34+  Mn157  1  0.74565566  0.16528762  0.08618803  1
  Mn3.34+  Mn158  1  0.89836136  0.66553828  0.24990526  1
  Mn3.34+  Mn159  1  0.25026663  0.67754972  0.24916257  1
  Mn3.34+  Mn160  1  0.25592503  0.66653847  0.58191160  1
  Mn3.34+  Mn161  1  0.25934252  0.67143516  0.24827460  1
  Mn3.34+  Mn162  1  0.58149374  0.16801290  0.91073102  1
  Mn3.34+  Mn163  1  0.41777101  0.16806447  0.75155290  1
  Mn3.34+  Mn164  1  0.58298301  0.16055308  0.58470149  1
  Mn3.34+  Mn165  1  0.41346639  0.17745741  0.07838464  1
  Mn3.34+  Mn166  1  0.58085619  0.16202398  0.24975311  1
  Mn3.34+  Mn167  1  0.91379921  0.66786725  0.25005125  1
  Mn3.34+  Mn168  1  0.75243001  0.16620787  0.42092632  1
  Mn3.34+  Mn169  1  0.08708549  0.66680907  0.08073720  1
  Mn3.34+  Mn170  1  0.24482299  0.16578884  0.58514853  1
  Mn3.34+  Mn171  1  0.07898552  0.17655247  0.08751233  1
  Mn3.34+  Mn172  1  0.42465568  0.66871860  0.41357122  1
  Mn3.34+  Mn173  1  0.41482842  0.66277051  0.75484037  1
  Mn3.34+  Mn174  1  0.42521643  0.15908547  0.42614369  1
  Mn3.34+  Mn175  1  0.59026104  0.15592273  0.24998555  1
  Mn3.34+  Mn176  1  0.41135077  0.65985046  0.08256840  1
  Mn3.34+  Mn177  1  0.91681350  0.66906964  0.90921994  1
  Mn3.34+  Mn178  1  0.24952068  0.17609134  0.24438627  1
  Mn3.34+  Mn179  1  0.90454968  0.66402710  0.57704197  1
  Mn3.34+  Mn180  1  0.40842386  -0.00498030  0.09443005  1
  Mn3.34+  Mn181  1  0.92828983  -0.00446076  0.58256205  1
  Mn3.34+  Mn182  1  0.08762772  0.00115682  0.42079810  1
  Mn3.34+  Mn183  1  0.42242555  0.00323898  0.74480985  1
  Mn3.34+  Mn184  1  0.75376095  -0.00441044  0.74555225  1
  Mn3.34+  Mn185  1  0.75440917  -0.00125576  0.08023088  1
  Mn3.34+  Mn186  1  0.40557106  0.49955332  0.07328098  1
  Mn3.34+  Mn187  1  0.07707760  0.49876489  0.41459033  1
  Mn3.34+  Mn188  1  0.08012148  -0.00323236  0.08672966  1
  Mn3.34+  Mn189  1  0.25717559  -0.00557770  0.24703703  1
  Mn3.34+  Mn190  1  0.09523733  0.50275061  0.06435275  1
  Mn3.34+  Mn191  1  0.58438499  0.49722612  0.92808398  1
  Mn3.34+  Mn192  1  0.92533736  -0.00162213  0.91891266  1
  Mn3.34+  Mn193  1  0.07017461  0.49923022  0.74828992  1
  Mn3.34+  Mn194  1  0.26126349  0.50000654  0.24184951  1
  Mn3.34+  Mn195  1  0.24118147  0.50110993  0.58098693  1
  Mn3.34+  Mn196  1  0.24788699  0.00324464  0.91663500  1
  Mn3.34+  Mn197  1  0.91474450  0.00107737  0.25525743  1
  Mn3.34+  Mn198  1  0.91436869  0.00061384  0.57862853  1
  Mn3.34+  Mn199  1  0.25142786  0.49678892  0.58147473  1
  Mn3.34+  Mn200  1  0.42298248  0.00071464  0.09397671  1
  Mn3.34+  Mn201  1  0.24547117  0.00187726  0.58892748  1
  Mn3.34+  Mn202  1  0.73868241  0.00098633  0.74682499  1
  Mn3.34+  Mn203  1  0.89011780  0.49929258  0.24294519  1
  Mn3.34+  Mn204  1  0.74131304  0.00010122  0.40066706  1
  Mn3.34+  Mn205  1  0.24377625  0.00111307  0.24571690  1
  Mn3.34+  Mn206  1  0.58316467  0.00133266  0.91505952  1
  Mn3.34+  Mn207  1  0.42088502  0.50274680  0.39898874  1
  Mn3.34+  Mn208  1  0.43205220  -0.00485589  0.39933855  1
  Mn3.34+  Mn209  1  0.23497113  -0.00322722  0.91940173  1
  Mn3.34+  Mn210  1  0.07532388  -0.00556725  0.41826022  1
  Mn3.34+  Mn211  1  0.43501693  0.49740821  0.75009059  1
  Mn3.34+  Mn212  1  0.91639883  0.50234777  0.92535039  1
  Mn3.34+  Mn213  1  0.74625716  0.50558040  0.40762814  1
  Mn3.34+  Mn214  1  0.90155252  0.50015177  0.24232597  1
  Mn3.34+  Mn215  1  0.08134431  0.00210807  0.75623096  1
  O2-  O216  1  -0.00375238  0.17082366  0.01221597  1
  O2-  O217  1  -0.00419098  0.16298609  0.32903674  1
  O2-  O218  1  0.00144533  0.18585504  0.67384305  1
  O2-  O219  1  -0.00220892  0.67376865  -0.00218518  1
  O2-  O220  1  0.00193977  0.65793268  0.32097218  1
  O2-  O221  1  0.00014664  0.66473955  0.65989419  1
  O2-  O222  1  0.32429580  0.16445709  0.00808272  1
  O2-  O223  1  0.33388588  0.15611134  0.33019479  1
  O2-  O224  1  0.33260628  0.15551124  0.66825373  1
  O2-  O225  1  0.33889680  0.66332571  0.00019155  1
  O2-  O226  1  0.33083499  0.66567171  0.34031406  1
  O2-  O227  1  0.33796661  0.65457865  0.66574891  1
  O2-  O228  1  0.66845733  0.15566570  -0.00265315  1
  O2-  O229  1  0.66548575  0.16114656  0.33873255  1
  O2-  O230  1  0.65902347  0.17051027  0.66272756  1
  O2-  O231  1  0.66290242  0.65361615  0.00090507  1
  O2-  O232  1  0.66095887  0.66979043  0.32796872  1
  O2-  O233  1  0.66276081  0.66444523  0.67235978  1
  O2-  O234  1  0.16151428  0.17460728  0.00913064  1
  O2-  O235  1  0.17243640  0.17234365  0.33806013  1
  O2-  O236  1  0.17032637  0.16613900  0.67112498  1
  O2-  O237  1  0.16120948  0.67339909  -0.00217692  1
  O2-  O238  1  0.16484906  0.66555993  0.32861491  1
  O2-  O239  1  0.16704364  0.66011269  0.66571310  1
  O2-  O240  1  0.50555932  0.16343216  0.00043917  1
  O2-  O241  1  0.49402670  0.15849927  0.32970517  1
  O2-  O242  1  0.49824400  0.16775714  0.66311581  1
  O2-  O243  1  0.49850512  0.65248913  0.00194710  1
  O2-  O244  1  0.50583436  0.66884611  0.34315542  1
  O2-  O245  1  0.49875226  0.65503437  0.66443828  1
  O2-  O246  1  0.83627101  0.15302656  0.00276751  1
  O2-  O247  1  0.83611387  0.15406273  0.33732351  1
  O2-  O248  1  0.83690704  0.17118842  0.66639207  1
  O2-  O249  1  0.83079129  0.67335752  -0.01738256  1
  O2-  O250  1  0.83216426  0.66756112  0.33494211  1
  O2-  O251  1  0.83394773  0.67308504  0.67072062  1
  O2-  O252  1  -0.00280659  0.33730199  0.00319342  1
  O2-  O253  1  0.00462723  0.34471866  0.32923154  1
  O2-  O254  1  -0.00115232  0.32751182  0.66301139  1
  O2-  O255  1  -0.00127261  0.80396316  0.00154421  1
  O2-  O256  1  0.00321293  0.83888051  0.32783981  1
  O2-  O257  1  0.00322189  0.83036187  0.66659944  1
  O2-  O258  1  0.33890959  0.33374008  -0.00452403  1
  O2-  O259  1  0.33148069  0.33892723  0.33286084  1
  O2-  O260  1  0.33678807  0.34846978  0.66614876  1
  O2-  O261  1  0.33954900  0.83959844  -0.00694574  1
  O2-  O262  1  0.32662417  0.82588343  0.33814334  1
  O2-  O263  1  0.33009779  0.84987928  0.66762833  1
  O2-  O264  1  0.67002930  0.33774734  -0.00519068  1
  O2-  O265  1  0.66434040  0.33760792  0.33602619  1
  O2-  O266  1  0.67288308  0.33408852  0.66091047  1
  O2-  O267  1  0.66853461  0.84578207  -0.00173346  1
  O2-  O268  1  0.67098263  0.83981016  0.32786712  1
  O2-  O269  1  0.66581180  0.83000345  0.67147584  1
  O2-  O270  1  0.16044119  0.33037388  -0.00477075  1
  O2-  O271  1  0.16775446  0.33763840  0.33400919  1
  O2-  O272  1  0.16761505  0.33955912  0.67201681  1
  O2-  O273  1  0.16369642  0.82164332  0.00040636  1
  O2-  O274  1  0.16755414  0.83013890  0.33341414  1
  O2-  O275  1  0.16845254  0.83552324  0.66896242  1
  O2-  O276  1  0.49483439  0.33141442  -0.00261003  1
  O2-  O277  1  0.50029836  0.33714269  0.33233320  1
  O2-  O278  1  0.49866091  0.33340562  0.65985820  1
  O2-  O279  1  0.49950682  0.84251937  -0.00390540  1
  O2-  O280  1  0.50096185  0.83070299  0.33285599  1
  O2-  O281  1  0.49858851  0.83806819  0.66528610  1
  O2-  O282  1  0.83368795  0.33993396  -0.00305109  1
  O2-  O283  1  0.84070629  0.34055162  0.33844352  1
  O2-  O284  1  0.83261328  0.33493495  0.66513106  1
  O2-  O285  1  0.83057004  0.83458953  -0.00450859  1
  O2-  O286  1  0.82768831  0.84345698  0.32625808  1
  O2-  O287  1  0.83711371  0.83575129  0.67081770  1
  O2-  O288  1  -0.00498060  0.17940373  0.16507013  1
  O2-  O289  1  -0.01761572  0.18430699  0.49228280  1
  O2-  O290  1  0.00374270  0.18035119  0.82572247  1
  O2-  O291  1  0.00083322  0.67642970  0.17036420  1
  O2-  O292  1  -0.00395619  0.67199365  0.50561582  1
  O2-  O293  1  -0.00087655  0.68317449  0.83708486  1
  O2-  O294  1  0.33320428  0.18263958  0.16847663  1
  O2-  O295  1  0.33128143  0.17172754  0.50424970  1
  O2-  O296  1  0.33284867  0.17215589  0.82405633  1
  O2-  O297  1  0.33498690  0.68045143  0.16295334  1
  O2-  O298  1  0.33466835  0.66858064  0.50013742  1
  O2-  O299  1  0.33399260  0.67016453  0.83402570  1
  O2-  O300  1  0.66025236  0.17391551  0.15889620  1
  O2-  O301  1  0.66325194  0.18127982  0.50629397  1
  O2-  O302  1  0.66589600  0.17138185  0.83898565  1
  O2-  O303  1  0.66315817  0.67298478  0.16967341  1
  O2-  O304  1  0.65940748  0.67480547  0.49303586  1
  O2-  O305  1  0.67238399  0.67694582  0.82332919  1
  O2-  O306  1  0.16830014  0.18543761  0.16527991  1
  O2-  O307  1  0.17074344  0.17441540  0.50465438  1
  O2-  O308  1  0.16550961  0.18422117  0.81723328  1
  O2-  O309  1  0.16382922  0.68415069  0.16689468  1
  O2-  O310  1  0.16584132  0.66912766  0.49908401  1
  O2-  O311  1  0.16571063  0.67731593  0.82634039  1
  O2-  O312  1  0.49609806  0.18200478  0.16829924  1
  O2-  O313  1  0.50158539  0.18628051  0.50896801  1
  O2-  O314  1  0.50474068  0.17578274  0.82574126  1
  O2-  O315  1  0.50193925  0.67155454  0.16176621  1
  O2-  O316  1  0.49328030  0.66907835  0.50883836  1
  O2-  O317  1  0.50595799  0.66892625  0.83198155  1
  O2-  O318  1  0.83883390  0.17264049  0.16437564  1
  O2-  O319  1  0.82793571  0.17452864  0.50343422  1
  O2-  O320  1  0.83109885  0.17260975  0.83600361  1
  O2-  O321  1  0.83145419  0.67645665  0.16649729  1
  O2-  O322  1  0.83225865  0.67498858  0.50101427  1
  O2-  O323  1  0.83454218  0.68478047  0.82708747  1
  O2-  O324  1  0.00492394  0.32197537  0.16864004  1
  O2-  O325  1  -0.00179212  0.32779564  0.50189580  1
  O2-  O326  1  0.00229048  0.32419140  0.83562523  1
  O2-  O327  1  0.00238455  0.82015640  0.16846685  1
  O2-  O328  1  0.00394249  0.82981338  0.50585684  1
  O2-  O329  1  -0.00253045  0.81251708  0.82955463  1
  O2-  O330  1  0.33597992  0.30306371  0.16345949  1
  O2-  O331  1  0.33326073  0.33725659  0.49737170  1
  O2-  O332  1  0.33178796  0.32919919  0.82954545  1
  O2-  O333  1  0.33291575  0.80663142  0.16898623  1
  O2-  O334  1  0.33351816  0.83098961  0.50129252  1
  O2-  O335  1  0.33253534  0.83835211  0.82936446  1
  O2-  O336  1  0.66902989  0.32426716  0.16595431  1
  O2-  O337  1  0.66706241  0.32292897  0.49949054  1
  O2-  O338  1  0.66888481  0.33053271  0.83607145  1
  O2-  O339  1  0.66824397  0.82904528  0.16636541  1
  O2-  O340  1  0.66983605  0.82430021  0.50154559  1
  O2-  O341  1  0.67029863  0.82717420  0.83650239  1
  O2-  O342  1  0.15997768  0.31259754  0.17004237  1
  O2-  O343  1  0.17140081  0.33209493  0.49241054  1
  O2-  O344  1  0.16952944  0.32746454  0.82831606  1
  O2-  O345  1  0.16296955  0.80794039  0.16977037  1
  O2-  O346  1  0.16856524  0.82631181  0.50086619  1
  O2-  O347  1  0.17205090  0.82549892  0.82615265  1
  O2-  O348  1  0.49951794  0.31987612  0.16750519  1
  O2-  O349  1  0.49869294  0.32153581  0.50673549  1
  O2-  O350  1  0.49153822  0.32739689  0.84164315  1
  O2-  O351  1  0.50679387  0.82528709  0.16126050  1
  O2-  O352  1  0.49729576  0.83177283  0.50304587  1
  O2-  O353  1  0.49726722  0.82848044  0.83475706  1
  O2-  O354  1  0.83795156  0.32500661  0.16053735  1
  O2-  O355  1  0.83573986  0.32128577  0.50203513  1
  O2-  O356  1  0.83459258  0.33325481  0.83212699  1
  O2-  O357  1  0.82821757  0.82863841  0.17155037  1
  O2-  O358  1  0.82786561  0.82689026  0.50362080  1
  O2-  O359  1  0.83181794  0.81986702  0.83720368  1
  O2-  O360  1  0.08931830  0.08242589  0.10768239  1
  O2-  O361  1  0.07925850  0.08114355  0.44007922  1
  O2-  O362  1  0.09428197  0.08456787  0.76930629  1
  O2-  O363  1  0.08439346  0.57560867  0.12583596  1
  O2-  O364  1  0.09418502  0.57773982  0.43819717  1
  O2-  O365  1  0.08405826  0.57727041  0.77426268  1
  O2-  O366  1  0.41546316  0.08301122  0.11412504  1
  O2-  O367  1  0.41594094  0.07478812  0.44952976  1
  O2-  O368  1  0.41558042  0.08379858  0.75985127  1
  O2-  O369  1  0.41707367  0.57872166  0.10647745  1
  O2-  O370  1  0.41119549  0.58007925  0.43968567  1
  O2-  O371  1  0.41578031  0.57947928  0.77282188  1
  O2-  O372  1  0.74686908  0.08108587  0.10314981  1
  O2-  O373  1  0.75239706  0.07638871  0.45307850  1
  O2-  O374  1  0.74468038  0.08220254  0.76268253  1
  O2-  O375  1  0.73737213  0.57808851  0.07751998  1
  O2-  O376  1  0.74290673  0.57415013  0.44258031  1
  O2-  O377  1  0.74852685  0.58046697  0.78582354  1
  O2-  O378  1  0.25685594  0.08263664  0.21292142  1
  O2-  O379  1  0.25693712  0.08174328  0.56403568  1
  O2-  O380  1  0.24079340  0.08478981  0.90173986  1
  O2-  O381  1  0.23121192  0.58415884  0.23412810  1
  O2-  O382  1  0.25308995  0.58193437  0.56093528  1
  O2-  O383  1  0.25558215  0.56560130  0.88573255  1
  O2-  O384  1  0.57043703  0.07866835  0.21153509  1
  O2-  O385  1  0.57699756  0.08432650  0.57715705  1
  O2-  O386  1  0.59548687  0.08238673  0.89435385  1
  O2-  O387  1  0.59400063  0.57896960  0.24014499  1
  O2-  O388  1  0.57824087  0.58401824  0.57118410  1
  O2-  O389  1  0.58946804  0.56724533  0.87408403  1
  O2-  O390  1  0.92089315  0.07970609  0.21382669  1
  O2-  O391  1  0.90978659  0.08002636  0.55777362  1
  O2-  O392  1  0.90269186  0.07566659  0.88961648  1
  O2-  O393  1  0.92615265  0.58325797  0.22271402  1
  O2-  O394  1  0.92209126  0.58307662  0.58033802  1
  O2-  O395  1  0.91248616  0.57947185  0.88466408  1
  O2-  O396  1  0.08008696  0.42628560  0.11192861  1
  O2-  O397  1  0.08926218  0.41750907  0.43707052  1
  O2-  O398  1  0.09468801  0.42016544  0.77404434  1
  O2-  O399  1  0.08612183  0.91749233  0.10856267  1
  O2-  O400  1  0.09733865  0.91521047  0.43415527  1
  O2-  O401  1  0.09027687  0.91879258  0.76663379  1
  O2-  O402  1  0.41355109  0.42137358  0.10510596  1
  O2-  O403  1  0.41548441  0.42516589  0.44669328  1
  O2-  O404  1  0.40445720  0.41739269  0.77391246  1
  O2-  O405  1  0.41979705  0.91392073  0.09330621  1
  O2-  O406  1  0.40314017  0.92158846  0.43881437  1
  O2-  O407  1  0.41930252  0.92450375  0.78173539  1
  O2-  O408  1  0.76526779  0.42144068  0.08860740  1
  O2-  O409  1  0.75046526  0.43095213  0.45746012  1
  O2-  O410  1  0.75919530  0.41779390  0.75555125  1
  O2-  O411  1  0.74608994  0.91821314  0.10399804  1
  O2-  O412  1  0.74926400  0.92298930  0.43472714  1
  O2-  O413  1  0.75302480  0.91721285  0.77934323  1
  O2-  O414  1  0.23393873  0.41561849  0.23809748  1
  O2-  O415  1  0.24371557  0.41549480  0.56322361  1
  O2-  O416  1  0.26304104  0.41673166  0.89146446  1
  O2-  O417  1  0.23717303  0.91438956  0.23847059  1
  O2-  O418  1  0.23953739  0.92000403  0.56562517  1
  O2-  O419  1  0.25499895  0.91720842  0.89359212  1
  O2-  O420  1  0.57547731  0.41723731  0.24439458  1
  O2-  O421  1  0.57777875  0.42059237  0.55264263  1
  O2-  O422  1  0.56452569  0.41858555  0.90503757  1
  O2-  O423  1  0.60343919  0.91995078  0.22295440  1
  O2-  O424  1  0.58781979  0.91321003  0.58259326  1
  O2-  O425  1  0.57175298  0.91955543  0.89159741  1
  O2-  O426  1  0.93121723  0.41680150  0.22031163  1
  O2-  O427  1  0.90674113  0.41862220  0.56567497  1
  O2-  O428  1  0.92246123  0.42217835  0.89484091  1
  O2-  O429  1  0.91345231  0.92012871  0.23103503  1
  O2-  O430  1  0.91977490  0.91446821  0.57757877  1
  O2-  O431  1  0.90116411  0.91879382  0.88788255  1
  O2-  O432  1  -0.01192861  0.01432117  0.01731002  1
  O2-  O433  1  0.00044151  0.00523917  0.33476552  1
  O2-  O434  1  -0.00304776  -0.00095105  0.67428434  1
  O2-  O435  1  0.00106308  0.49609646  -0.00100802  1
  O2-  O436  1  0.00671079  0.50188294  0.31119629  1
  O2-  O437  1  0.00608946  0.50167281  0.66064632  1
  O2-  O438  1  0.33566293  0.00406909  0.00020470  1
  O2-  O439  1  0.33196588  0.01001492  0.33626428  1
  O2-  O440  1  0.33162293  -0.00608033  0.67293429  1
  O2-  O441  1  0.34956642  0.49221115  -0.01850463  1
  O2-  O442  1  0.31499351  0.49240188  0.35553000  1
  O2-  O443  1  0.33179835  0.49796839  0.66781339  1
  O2-  O444  1  0.66536965  -0.00318599  0.00039316  1
  O2-  O445  1  0.67616200  -0.00788567  0.31934245  1
  O2-  O446  1  0.66535494  0.00030539  0.66317623  1
  O2-  O447  1  0.67100732  0.50555192  -0.01497199  1
  O2-  O448  1  0.65822548  0.49987925  0.35323239  1
  O2-  O449  1  0.67100499  0.50416215  0.66861201  1
  O2-  O450  1  0.17550562  0.01092725  0.01860633  1
  O2-  O451  1  0.17020276  0.00405529  0.33717949  1
  O2-  O452  1  0.17774374  -0.00384881  0.68764447  1
  O2-  O453  1  0.15858517  0.50013155  -0.01699263  1
  O2-  O454  1  0.16101471  0.50045059  0.32764648  1
  O2-  O455  1  0.17241711  0.49947437  0.67694735  1
  O2-  O456  1  0.50156461  -0.00098368  0.00483138  1
  O2-  O457  1  0.49758514  0.01088914  0.32043818  1
  O2-  O458  1  0.49837416  -0.00043993  0.66995862  1
  O2-  O459  1  0.49867476  0.50709533  -0.00304347  1
  O2-  O460  1  0.50513596  0.49541853  0.33758743  1
  O2-  O461  1  0.48299341  0.50090556  0.63948065  1
  O2-  O462  1  0.82488187  0.00037702  -0.01453519  1
  O2-  O463  1  0.83629231  0.00559904  0.34062543  1
  O2-  O464  1  0.83111689  0.00342994  0.66049816  1
  O2-  O465  1  0.82253917  0.50123231  -0.02365041  1
  O2-  O466  1  0.83913311  0.49113086  0.34875203  1
  O2-  O467  1  0.83144445  0.49145615  0.66984761  1
  O2-  O468  1  0.58626119  0.75507163  0.25385686  1
  O2-  O469  1  0.25622299  0.25245778  0.91926470  1
  O2-  O470  1  0.41340268  0.24692633  0.40353575  1
  O2-  O471  1  0.41359493  0.75074206  0.42072339  1
  O2-  O472  1  0.07991904  0.75217463  0.41344271  1
  O2-  O473  1  0.58092804  0.75143623  0.92829175  1
  O2-  O474  1  0.26130992  0.75422997  0.59472131  1
  O2-  O475  1  0.74452963  0.75264099  0.07402634  1
  O2-  O476  1  0.74843093  0.25423004  0.74896764  1
  O2-  O477  1  0.26123181  0.24999875  0.59114459  1
  O2-  O478  1  0.57471503  0.74868603  0.59546559  1
  O2-  O479  1  0.42134218  0.74853721  0.06382756  1
  O2-  O480  1  0.08180239  0.25349904  0.40865969  1
  O2-  O481  1  0.40919053  0.25116562  0.73897965  1
  O2-  O482  1  0.92031852  0.75103920  0.26179353  1
  O2-  O483  1  0.91218769  0.24952616  0.26644411  1
  O2-  O484  1  0.40789199  0.75098549  0.73997255  1
  O2-  O485  1  0.74941964  0.25297676  0.07331981  1
  O2-  O486  1  0.75009624  0.75361531  0.40709812  1
  O2-  O487  1  0.26240811  0.75399357  0.91770359  1
  O2-  O488  1  0.58728298  0.24549636  0.26479978  1
  O2-  O489  1  0.74836847  0.24850636  0.39965993  1
  O2-  O490  1  0.91015372  0.25300000  0.92493266  1
  O2-  O491  1  0.91696759  0.75037326  0.58695389  1
  O2-  O492  1  0.58601557  0.25053427  0.92440514  1
