# generated using pymatgen
data_Ca108Mn108O277
_symmetry_space_group_name_H-M   'P 1'
_cell_length_a   16.02670722
_cell_length_b   22.30749552
_cell_length_c   16.38913452
_cell_angle_alpha   90.00360060
_cell_angle_beta   90.00219005
_cell_angle_gamma   90.00109014
_symmetry_Int_Tables_number   1
_chemical_formula_structural   Ca108Mn108O277
_chemical_formula_sum   'Ca108 Mn108 O277'
_cell_volume   5859.37287406
_cell_formula_units_Z   1
loop_
 _symmetry_equiv_pos_site_id
 _symmetry_equiv_pos_as_xyz
  1  'x, y, z'
loop_
 _atom_type_symbol
 _atom_type_oxidation_number
  Ca2+  2.0
  Mn3.34+  3.34
  O2-  -2.0
loop_
 _atom_site_type_symbol
 _atom_site_label
 _atom_site_symmetry_multiplicity
 _atom_site_fract_x
 _atom_site_fract_y
 _atom_site_fract_z
 _atom_site_occupancy
  Ca2+  Ca0  1  0.07373229  0.26356554  0.24633097  1
  Ca2+  Ca1  1  0.10280127  0.25495900  0.58787001  1
  Ca2+  Ca2  1  0.09016660  0.25343700  0.91341712  1
  Ca2+  Ca3  1  0.06560211  0.72212775  0.25773524  1
  Ca2+  Ca4  1  0.09269173  0.73524808  0.56632505  1
  Ca2+  Ca5  1  0.09265593  0.73679140  0.92537025  1
  Ca2+  Ca6  1  0.41781180  0.27674429  0.24701803  1
  Ca2+  Ca7  1  0.40744154  0.26395725  0.58255501  1
  Ca2+  Ca8  1  0.40754351  0.26502859  0.92818025  1
  Ca2+  Ca9  1  0.41413198  0.73667178  0.25771606  1
  Ca2+  Ca10  1  0.39813797  0.74237949  0.57658987  1
  Ca2+  Ca11  1  0.41665096  0.75367369  0.91834542  1
  Ca2+  Ca12  1  0.75527302  0.25721293  0.24505606  1
  Ca2+  Ca13  1  0.74362803  0.27024111  0.58042692  1
  Ca2+  Ca14  1  0.75036778  0.24874919  0.93601654  1
  Ca2+  Ca15  1  0.76836386  0.74002143  0.24595074  1
  Ca2+  Ca16  1  0.75517081  0.74735493  0.58189730  1
  Ca2+  Ca17  1  0.75028854  0.74524424  0.92640771  1
  Ca2+  Ca18  1  0.25258794  0.26238125  0.07768196  1
  Ca2+  Ca19  1  0.24971955  0.25849640  0.43763256  1
  Ca2+  Ca20  1  0.23930884  0.25172707  0.74258839  1
  Ca2+  Ca21  1  0.24505819  0.74836234  0.07738771  1
  Ca2+  Ca22  1  0.24164249  0.74481974  0.42517902  1
  Ca2+  Ca23  1  0.25270516  0.74885407  0.73804811  1
  Ca2+  Ca24  1  0.59957017  0.25106974  0.08106587  1
  Ca2+  Ca25  1  0.59422281  0.26575796  0.41671737  1
  Ca2+  Ca26  1  0.58700641  0.26147582  0.74449716  1
  Ca2+  Ca27  1  0.58538463  0.72950545  0.08482866  1
  Ca2+  Ca28  1  0.57844842  0.74732204  0.41096976  1
  Ca2+  Ca29  1  0.57349983  0.74517485  0.75971361  1
  Ca2+  Ca30  1  0.89206537  0.24714945  0.08498467  1
  Ca2+  Ca31  1  0.90841189  0.26972006  0.40815631  1
  Ca2+  Ca32  1  0.92411615  0.26278882  0.74787128  1
  Ca2+  Ca33  1  0.92197934  0.75624637  0.09877651  1
  Ca2+  Ca34  1  0.93423199  0.75371206  0.40778723  1
  Ca2+  Ca35  1  0.91779752  0.74184987  0.74353953  1
  Ca2+  Ca36  1  0.25809182  0.61121815  0.42149337  1
  Ca2+  Ca37  1  0.23416556  0.60787358  0.75779162  1
  Ca2+  Ca38  1  0.78229246  0.60383587  0.59463612  1
  Ca2+  Ca39  1  0.40778140  0.61492688  0.93241184  1
  Ca2+  Ca40  1  0.26007541  0.08229413  0.06153283  1
  Ca2+  Ca41  1  0.26889496  0.61780175  0.08742584  1
  Ca2+  Ca42  1  0.23320219  0.09544689  0.75762396  1
  Ca2+  Ca43  1  0.76999043  0.09137528  0.95727205  1
  Ca2+  Ca44  1  0.42722334  0.07586941  0.24570042  1
  Ca2+  Ca45  1  0.41062128  0.08776349  0.58476746  1
  Ca2+  Ca46  1  0.38903974  0.60671186  0.56755894  1
  Ca2+  Ca47  1  0.59799956  0.07300109  0.73961556  1
  Ca2+  Ca48  1  0.92253130  0.07692720  0.75271355  1
  Ca2+  Ca49  1  0.25120963  0.07557745  0.06251643  1
  Ca2+  Ca50  1  0.55049507  0.60861301  0.38437213  1
  Ca2+  Ca51  1  0.06001789  0.07647041  0.24521569  1
  Ca2+  Ca52  1  0.09652218  0.08965341  0.59788673  1
  Ca2+  Ca53  1  0.07585315  0.60579236  0.58462006  1
  Ca2+  Ca54  1  0.26209715  0.07735298  0.41754623  1
  Ca2+  Ca55  1  0.57396980  0.07920392  0.41899439  1
  Ca2+  Ca56  1  0.91474787  0.61151110  0.08831217  1
  Ca2+  Ca57  1  0.92413040  0.60922092  0.08490560  1
  Ca2+  Ca58  1  0.93014558  0.61702540  0.42791072  1
  Ca2+  Ca59  1  0.91894074  0.07639549  0.38498859  1
  Ca2+  Ca60  1  0.24365627  0.60960142  0.75408996  1
  Ca2+  Ca61  1  0.41513636  0.07484795  0.24755706  1
  Ca2+  Ca62  1  0.77321832  0.09625925  0.21898368  1
  Ca2+  Ca63  1  0.40462395  0.61949488  0.93967683  1
  Ca2+  Ca64  1  0.25059741  0.07722512  0.41764444  1
  Ca2+  Ca65  1  0.90853043  0.07690263  0.38118877  1
  Ca2+  Ca66  1  0.74304420  0.06883191  0.60273184  1
  Ca2+  Ca67  1  0.10788801  0.08978173  0.59894294  1
  Ca2+  Ca68  1  0.39794720  0.08830414  0.58454858  1
  Ca2+  Ca69  1  0.73030030  0.60330360  0.25051206  1
  Ca2+  Ca70  1  0.92218723  0.61279732  0.42451119  1
  Ca2+  Ca71  1  0.58667432  0.07915997  0.41900690  1
  Ca2+  Ca72  1  0.58566883  0.41042446  0.08880938  1
  Ca2+  Ca73  1  0.07358243  0.41826921  0.59357314  1
  Ca2+  Ca74  1  0.07487997  0.89337416  0.58530775  1
  Ca2+  Ca75  1  0.60148543  0.90770691  0.74596861  1
  Ca2+  Ca76  1  0.75957835  0.90255774  0.59453762  1
  Ca2+  Ca77  1  0.60259204  0.41941887  0.41514458  1
  Ca2+  Ca78  1  0.77017262  0.40868136  0.92068878  1
  Ca2+  Ca79  1  0.08691329  0.89353506  0.58550856  1
  Ca2+  Ca80  1  0.24042997  0.41223114  0.74455554  1
  Ca2+  Ca81  1  0.58408756  0.41247882  0.73957979  1
  Ca2+  Ca82  1  0.24791795  0.40860800  0.08425630  1
  Ca2+  Ca83  1  0.41258523  0.89477281  0.25661562  1
  Ca2+  Ca84  1  0.07329876  0.40953377  0.91749513  1
  Ca2+  Ca85  1  0.57586838  0.89448167  0.41294878  1
  Ca2+  Ca86  1  0.78085323  0.90437700  0.24812888  1
  Ca2+  Ca87  1  0.57265081  0.41364805  0.73989934  1
  Ca2+  Ca88  1  0.06120428  0.90220805  0.24609328  1
  Ca2+  Ca89  1  0.07052264  0.89785962  0.24783463  1
  Ca2+  Ca90  1  0.57922963  0.90171528  0.08900944  1
  Ca2+  Ca91  1  0.41847393  0.41759759  0.58936436  1
  Ca2+  Ca92  1  0.59054696  0.90220288  0.08982209  1
  Ca2+  Ca93  1  0.92273972  0.42016022  0.74250148  1
  Ca2+  Ca94  1  0.24685440  0.41623828  0.41415861  1
  Ca2+  Ca95  1  0.08182291  0.41589123  0.59907294  1
  Ca2+  Ca96  1  0.24655081  0.89987955  0.08384591  1
  Ca2+  Ca97  1  0.57292252  0.40930522  0.08937390  1
  Ca2+  Ca98  1  0.08677218  0.40849047  0.24783804  1
  Ca2+  Ca99  1  0.41678111  0.89723820  0.56829015  1
  Ca2+  Ca100  1  0.25811722  0.41671124  0.41419031  1
  Ca2+  Ca101  1  0.41033429  0.90047334  0.92327822  1
  Ca2+  Ca102  1  0.76060386  0.90659570  0.91256295  1
  Ca2+  Ca103  1  0.91300987  0.89895417  0.74441236  1
  Ca2+  Ca104  1  0.61181927  0.90513275  0.74823825  1
  Ca2+  Ca105  1  0.74851273  0.41672638  0.27065384  1
  Ca2+  Ca106  1  0.75836666  0.40867871  0.92029618  1
  Ca2+  Ca107  1  0.24047933  0.89407063  0.75180423  1
  Mn3.34+  Mn108  1  0.07921014  0.33726970  0.08269870  1
  Mn3.34+  Mn109  1  0.07780433  0.34214340  0.41833882  1
  Mn3.34+  Mn110  1  0.08100187  0.33643091  0.75556039  1
  Mn3.34+  Mn111  1  0.08124992  0.83020868  0.07862114  1
  Mn3.34+  Mn112  1  0.08575632  0.82905393  0.41608163  1
  Mn3.34+  Mn113  1  0.08040699  0.82510713  0.75816803  1
  Mn3.34+  Mn114  1  0.41443550  0.33977628  0.08392661  1
  Mn3.34+  Mn115  1  0.42024021  0.34246494  0.41632724  1
  Mn3.34+  Mn116  1  0.41185516  0.33797241  0.75450282  1
  Mn3.34+  Mn117  1  0.41433079  0.82476409  0.08783128  1
  Mn3.34+  Mn118  1  0.41015235  0.83505446  0.41477534  1
  Mn3.34+  Mn119  1  0.41576720  0.82945081  0.74850316  1
  Mn3.34+  Mn120  1  0.75261549  0.33732314  0.09031644  1
  Mn3.34+  Mn121  1  0.75398214  0.34302470  0.41791451  1
  Mn3.34+  Mn122  1  0.75454021  0.33642679  0.74909419  1
  Mn3.34+  Mn123  1  0.75531922  0.83182038  0.08324239  1
  Mn3.34+  Mn124  1  0.75128798  0.82411976  0.41820073  1
  Mn3.34+  Mn125  1  0.75713665  0.82711326  0.75416600  1
  Mn3.34+  Mn126  1  0.24995211  0.33997866  0.24904861  1
  Mn3.34+  Mn127  1  0.25223740  0.33716682  0.58486523  1
  Mn3.34+  Mn128  1  0.24829543  0.33523306  0.91412920  1
  Mn3.34+  Mn129  1  0.24880414  0.82744037  0.25029088  1
  Mn3.34+  Mn130  1  0.25090193  0.82561603  0.58140492  1
  Mn3.34+  Mn131  1  0.24674061  0.83088349  0.91346936  1
  Mn3.34+  Mn132  1  0.58226267  0.33942387  0.25246051  1
  Mn3.34+  Mn133  1  0.58296359  0.33796577  0.57758708  1
  Mn3.34+  Mn134  1  0.58013413  0.33642393  0.91351980  1
  Mn3.34+  Mn135  1  0.58394856  0.82132279  0.24921153  1
  Mn3.34+  Mn136  1  0.58270240  0.82854274  0.57882195  1
  Mn3.34+  Mn137  1  0.58512159  0.83400801  0.91453245  1
  Mn3.34+  Mn138  1  0.91618975  0.33546900  0.24689167  1
  Mn3.34+  Mn139  1  0.91320086  0.33793460  0.58025120  1
  Mn3.34+  Mn140  1  0.91976976  0.33283131  0.91736099  1
  Mn3.34+  Mn141  1  0.91491102  0.82939880  0.25153778  1
  Mn3.34+  Mn142  1  0.91622173  0.82225225  0.57895893  1
  Mn3.34+  Mn143  1  0.92296290  0.83592155  0.91720318  1
  Mn3.34+  Mn144  1  0.07868765  0.16547451  0.07671767  1
  Mn3.34+  Mn145  1  0.74645429  0.66748461  0.08327821  1
  Mn3.34+  Mn146  1  0.41458701  0.16937351  0.41582509  1
  Mn3.34+  Mn147  1  0.90687779  0.16160561  0.58133611  1
  Mn3.34+  Mn148  1  0.57749887  0.66573389  0.58638885  1
  Mn3.34+  Mn149  1  0.08959190  0.66644177  0.08371650  1
  Mn3.34+  Mn150  1  0.41136615  0.16597307  0.75594415  1
  Mn3.34+  Mn151  1  0.08038523  0.16909433  0.75769368  1
  Mn3.34+  Mn152  1  0.58837160  0.16843540  0.58479277  1
  Mn3.34+  Mn153  1  0.09157062  0.16536123  0.41647085  1
  Mn3.34+  Mn154  1  0.91318847  0.16963258  0.24597900  1
  Mn3.34+  Mn155  1  0.59342062  0.16114461  0.24022578  1
  Mn3.34+  Mn156  1  0.58754151  0.66052768  0.58507651  1
  Mn3.34+  Mn157  1  0.42435462  0.17422205  0.41482232  1
  Mn3.34+  Mn158  1  0.74765307  0.65803222  0.42009456  1
  Mn3.34+  Mn159  1  0.42187163  0.17097979  0.75336802  1
  Mn3.34+  Mn160  1  0.91908457  0.16339483  0.91158134  1
  Mn3.34+  Mn161  1  0.41440665  0.16998523  0.08114715  1
  Mn3.34+  Mn162  1  0.24705907  0.16723524  0.91435278  1
  Mn3.34+  Mn163  1  0.08120575  0.17073891  0.41620328  1
  Mn3.34+  Mn164  1  0.91650763  0.16775630  0.58429972  1
  Mn3.34+  Mn165  1  0.25381761  0.66274331  0.25091108  1
  Mn3.34+  Mn166  1  0.07451927  0.66133188  0.75500778  1
  Mn3.34+  Mn167  1  0.41716138  0.66605590  0.75306267  1
  Mn3.34+  Mn168  1  0.75271076  0.66704303  0.75912599  1
  Mn3.34+  Mn169  1  0.57503299  0.15808547  0.92017563  1
  Mn3.34+  Mn170  1  0.75752548  0.16722499  0.75263676  1
  Mn3.34+  Mn171  1  0.74527059  0.16042740  0.75635525  1
  Mn3.34+  Mn172  1  0.58701448  0.16351198  0.92228938  1
  Mn3.34+  Mn173  1  0.58867576  0.67152929  0.91629205  1
  Mn3.34+  Mn174  1  0.25286696  0.17126330  0.24760350  1
  Mn3.34+  Mn175  1  0.58303276  0.16785274  0.24242849  1
  Mn3.34+  Mn176  1  0.06802057  0.16048881  0.07785322  1
  Mn3.34+  Mn177  1  0.24236332  0.16631321  0.24531655  1
  Mn3.34+  Mn178  1  0.74794548  0.16999655  0.41643506  1
  Mn3.34+  Mn179  1  0.91781698  0.66574102  0.90984232  1
  Mn3.34+  Mn180  1  0.92177254  0.49670298  0.25456954  1
  Mn3.34+  Mn181  1  0.90993535  0.50365741  0.25422467  1
  Mn3.34+  Mn182  1  0.58491546  0.50610558  0.26505758  1
  Mn3.34+  Mn183  1  0.07291465  -0.00659631  0.06769233  1
  Mn3.34+  Mn184  1  0.25680997  0.49563064  0.92363969  1
  Mn3.34+  Mn185  1  0.59264829  -0.00198392  0.24724834  1
  Mn3.34+  Mn186  1  0.75861963  -0.00688070  0.07497847  1
  Mn3.34+  Mn187  1  0.08586424  0.50615787  0.40832980  1
  Mn3.34+  Mn188  1  0.92059290  0.50377078  0.91957043  1
  Mn3.34+  Mn189  1  0.42062352  -0.00587986  0.07800245  1
  Mn3.34+  Mn190  1  0.58698792  0.51233134  0.92057524  1
  Mn3.34+  Mn191  1  0.40523336  -0.00372576  0.76220638  1
  Mn3.34+  Mn192  1  0.41846081  0.50387518  0.40528097  1
  Mn3.34+  Mn193  1  0.91524443  0.50084928  0.59008205  1
  Mn3.34+  Mn194  1  0.25124544  -0.00913410  0.58667712  1
  Mn3.34+  Mn195  1  0.24809264  -0.00531304  0.25663269  1
  Mn3.34+  Mn196  1  0.41621551  0.50670691  0.09068343  1
  Mn3.34+  Mn197  1  0.42025087  0.50523866  0.74973017  1
  Mn3.34+  Mn198  1  0.58304423  0.00003674  0.92710840  1
  Mn3.34+  Mn199  1  0.24706652  0.50376475  0.59473218  1
  Mn3.34+  Mn200  1  0.25317827  0.50406250  0.25307431  1
  Mn3.34+  Mn201  1  0.91674398  -0.00311929  0.58182513  1
  Mn3.34+  Mn202  1  0.74995689  -0.01053269  0.42348300  1
  Mn3.34+  Mn203  1  0.41831209  0.00120261  0.76315447  1
  Mn3.34+  Mn204  1  0.24463817  0.50319855  0.92398322  1
  Mn3.34+  Mn205  1  0.75694736  0.50132291  0.08014606  1
  Mn3.34+  Mn206  1  0.24163898  -0.00336913  0.91581728  1
  Mn3.34+  Mn207  1  0.59213833  0.50188207  0.58719694  1
  Mn3.34+  Mn208  1  0.08367884  -0.00757555  0.41463652  1
  Mn3.34+  Mn209  1  0.58236191  -0.00779250  0.58396705  1
  Mn3.34+  Mn210  1  0.57435882  0.50579832  0.91928499  1
  Mn3.34+  Mn211  1  0.91847757  -0.00302564  0.92152487  1
  Mn3.34+  Mn212  1  0.75257250  0.50629876  0.74632439  1
  Mn3.34+  Mn213  1  0.07608813  0.50117013  0.08078719  1
  Mn3.34+  Mn214  1  0.08282900  0.00041032  0.75453423  1
  Mn3.34+  Mn215  1  0.76133539  -0.00685225  0.41973195  1
  O2-  O216  1  -0.00156720  0.18408480  -0.00790909  1
  O2-  O217  1  -0.00007726  0.15255418  0.33402763  1
  O2-  O218  1  -0.00087695  0.14571475  0.66836399  1
  O2-  O219  1  -0.00080931  0.66856001  -0.00286190  1
  O2-  O220  1  -0.00933699  0.66889704  0.34154802  1
  O2-  O221  1  0.00764144  0.68307950  0.67299393  1
  O2-  O222  1  0.32457716  0.15664411  0.00500282  1
  O2-  O223  1  0.33777803  0.13936792  0.32720796  1
  O2-  O224  1  0.33227647  0.14721031  0.67130027  1
  O2-  O225  1  0.33793648  0.68655514  -0.00479747  1
  O2-  O226  1  0.32649384  0.67478846  0.33019424  1
  O2-  O227  1  0.33218601  0.65364587  0.67653571  1
  O2-  O228  1  0.66822148  0.15713266  -0.00299635  1
  O2-  O229  1  0.66564494  0.14030925  0.33446789  1
  O2-  O230  1  0.66875208  0.14399079  0.66695099  1
  O2-  O231  1  0.67074967  0.66333823  -0.00690610  1
  O2-  O232  1  0.66997296  0.67718907  0.34527260  1
  O2-  O233  1  0.66728210  0.66379655  0.66765903  1
  O2-  O234  1  0.16207963  0.14502763  0.00029405  1
  O2-  O235  1  0.17074814  0.13606340  0.33343448  1
  O2-  O236  1  0.16196663  0.15725339  0.67403008  1
  O2-  O237  1  0.17274971  0.66630500  0.00707522  1
  O2-  O238  1  0.17793794  0.67750785  0.32376486  1
  O2-  O239  1  0.15823639  0.66678328  0.67318173  1
  O2-  O240  1  0.49583856  0.16086247  0.00294420  1
  O2-  O241  1  0.50558222  0.14545234  0.32895465  1
  O2-  O242  1  0.49936798  0.14218059  0.66910676  1
  O2-  O243  1  0.50501447  0.67121696  -0.00488011  1
  O2-  O244  1  0.50920049  0.69012008  0.32694709  1
  O2-  O245  1  0.49509445  0.64520994  0.66391829  1
  O2-  O246  1  0.83966319  0.17835824  -0.01208254  1
  O2-  O247  1  0.83323144  0.15359155  0.33576042  1
  O2-  O248  1  0.83348536  0.13582731  0.66833019  1
  O2-  O249  1  0.84186973  0.67090441  -0.00004058  1
  O2-  O250  1  0.82333340  0.65724556  0.33849300  1
  O2-  O251  1  0.82160839  0.68569532  0.67255122  1
  O2-  O252  1  0.00557982  0.32722211  -0.00814986  1
  O2-  O253  1  0.00238566  0.34362792  0.32715727  1
  O2-  O254  1  -0.00005314  0.34866555  0.66946293  1
  O2-  O255  1  -0.00159401  0.81950730  -0.00118167  1
  O2-  O256  1  -0.00028014  0.83843249  0.33632314  1
  O2-  O257  1  0.00002572  0.82524229  0.66688360  1
  O2-  O258  1  0.32991894  0.34583500  0.00076972  1
  O2-  O259  1  0.33089829  0.35285679  0.33571408  1
  O2-  O260  1  0.33263060  0.35308889  0.66735459  1
  O2-  O261  1  0.33501721  0.82720575  -0.00106138  1
  O2-  O262  1  0.33228061  0.81476756  0.33241760  1
  O2-  O263  1  0.33268599  0.84265080  0.66519117  1
  O2-  O264  1  0.66865499  0.35477890  -0.00142905  1
  O2-  O265  1  0.66652507  0.34408654  0.33289278  1
  O2-  O266  1  0.66137044  0.34711431  0.66936252  1
  O2-  O267  1  0.66738229  0.85174388  -0.00245015  1
  O2-  O268  1  0.66315167  0.82406748  0.33579412  1
  O2-  O269  1  0.67286413  0.83860426  0.66504034  1
  O2-  O270  1  0.16520180  0.34974091  -0.00108551  1
  O2-  O271  1  0.16845455  0.35534319  0.33684860  1
  O2-  O272  1  0.16176898  0.34901785  0.66317723  1
  O2-  O273  1  0.17242165  0.83313124  0.00312805  1
  O2-  O274  1  0.15933757  0.84629831  0.32728791  1
  O2-  O275  1  0.16273872  0.82794114  0.66810227  1
  O2-  O276  1  0.50580236  0.34477375  0.00329868  1
  O2-  O277  1  0.50536193  0.34489462  0.33983126  1
  O2-  O278  1  0.49872233  0.34849265  0.66412569  1
  O2-  O279  1  0.49953254  0.84338155  0.00230276  1
  O2-  O280  1  0.49656806  0.82534810  0.33286456  1
  O2-  O281  1  0.50522469  0.85670175  0.66841404  1
  O2-  O282  1  0.83280862  0.33907751  -0.00138781  1
  O2-  O283  1  0.83021051  0.33903836  0.32804296  1
  O2-  O284  1  0.83941676  0.34304989  0.67241065  1
  O2-  O285  1  0.83070173  0.83577036  -0.00652901  1
  O2-  O286  1  0.82759166  0.82880707  0.33054620  1
  O2-  O287  1  0.83504850  0.82475102  0.66580493  1
  O2-  O288  1  0.00340642  0.17847872  0.17040754  1
  O2-  O289  1  0.00886302  0.17241750  0.51000974  1
  O2-  O290  1  -0.00542655  0.18757137  0.82902184  1
  O2-  O291  1  -0.00260473  0.67676099  0.15274027  1
  O2-  O292  1  -0.00833984  0.67891054  0.50746064  1
  O2-  O293  1  0.00028753  0.68809177  0.83534133  1
  O2-  O294  1  0.33167905  0.17956838  0.16271856  1
  O2-  O295  1  0.32946056  0.16567022  0.49679390  1
  O2-  O296  1  0.33306798  0.18762622  0.83566378  1
  O2-  O297  1  0.31793557  0.69413864  0.17352125  1
  O2-  O298  1  0.33060206  0.68087785  0.49372372  1
  O2-  O299  1  0.33248198  0.68085929  0.82614499  1
  O2-  O300  1  0.67380336  0.18026064  0.16820059  1
  O2-  O301  1  0.65778121  0.17468272  0.48922440  1
  O2-  O302  1  0.65980822  0.18425627  0.83089920  1
  O2-  O303  1  0.67439205  0.67594488  0.16690597  1
  O2-  O304  1  0.66810146  0.68372723  0.50596557  1
  O2-  O305  1  0.66733118  0.69007560  0.83008251  1
  O2-  O306  1  0.16188606  0.17003411  0.16038377  1
  O2-  O307  1  0.16967372  0.16886243  0.50370526  1
  O2-  O308  1  0.16875734  0.18321045  0.82950676  1
  O2-  O309  1  0.16766235  0.67650246  0.16693451  1
  O2-  O310  1  0.16917193  0.66835120  0.49653616  1
  O2-  O311  1  0.16374238  0.68573138  0.81904871  1
  O2-  O312  1  0.48546512  0.17544704  0.17681744  1
  O2-  O313  1  0.49712323  0.17630454  0.51030097  1
  O2-  O314  1  0.50461080  0.18177038  0.83477948  1
  O2-  O315  1  0.50482793  0.68643976  0.17990514  1
  O2-  O316  1  0.50124050  0.67859289  0.50341593  1
  O2-  O317  1  0.49226434  0.68195196  0.84045219  1
  O2-  O318  1  0.83280888  0.18200224  0.17531712  1
  O2-  O319  1  0.83441048  0.18241695  0.49325332  1
  O2-  O320  1  0.83500268  0.18850643  0.83211993  1
  O2-  O321  1  0.83365370  0.67640024  0.15570460  1
  O2-  O322  1  0.82829894  0.68496056  0.49053802  1
  O2-  O323  1  0.83290780  0.69055484  0.83589620  1
  O2-  O324  1  -0.00128443  0.32366280  0.16559724  1
  O2-  O325  1  0.00814290  0.32403158  0.50950125  1
  O2-  O326  1  0.00023222  0.31847257  0.83526607  1
  O2-  O327  1  0.00444404  0.82641244  0.17203150  1
  O2-  O328  1  0.00723629  0.81857175  0.50777327  1
  O2-  O329  1  -0.00503750  0.81195777  0.83066719  1
  O2-  O330  1  0.32764673  0.32617017  0.16430884  1
  O2-  O331  1  0.33166008  0.33109992  0.49838044  1
  O2-  O332  1  0.32867933  0.31842609  0.82915161  1
  O2-  O333  1  0.33187902  0.81355864  0.16671451  1
  O2-  O334  1  0.33534895  0.82345564  0.50176975  1
  O2-  O335  1  0.33323559  0.81316277  0.83352942  1
  O2-  O336  1  0.66100277  0.32785895  0.16334140  1
  O2-  O337  1  0.66505532  0.32768709  0.49704265  1
  O2-  O338  1  0.66826257  0.33104385  0.83274964  1
  O2-  O339  1  0.66101647  0.82283621  0.16123633  1
  O2-  O340  1  0.66545639  0.81028351  0.49927289  1
  O2-  O341  1  0.66325689  0.82051615  0.82471371  1
  O2-  O342  1  0.16532594  0.32444433  0.17257419  1
  O2-  O343  1  0.17117152  0.33212144  0.50009018  1
  O2-  O344  1  0.16675536  0.31934700  0.82884543  1
  O2-  O345  1  0.16500430  0.82773705  0.16933881  1
  O2-  O346  1  0.16230526  0.82229143  0.50639930  1
  O2-  O347  1  0.17053795  0.81126975  0.82919032  1
  O2-  O348  1  0.50619510  0.32540504  0.16143415  1
  O2-  O349  1  0.49664186  0.32052018  0.50205904  1
  O2-  O350  1  0.50428933  0.32211108  0.82455432  1
  O2-  O351  1  0.50351295  0.81188009  0.16189397  1
  O2-  O352  1  0.49490348  0.81634385  0.49821677  1
  O2-  O353  1  0.50217731  0.82923053  0.83001513  1
  O2-  O354  1  0.83135700  0.32293475  0.16994331  1
  O2-  O355  1  0.83327501  0.32309065  0.49946730  1
  O2-  O356  1  0.82991608  0.31823741  0.84251039  1
  O2-  O357  1  0.83057584  0.82405097  0.16980925  1
  O2-  O358  1  0.83425151  0.80939301  0.50038213  1
  O2-  O359  1  0.83492167  0.81483780  0.83499894  1
  O2-  O360  1  0.08427749  0.07542497  0.11100575  1
  O2-  O361  1  0.09052621  0.07349519  0.46423465  1
  O2-  O362  1  0.08107184  0.08315077  0.78042316  1
  O2-  O363  1  0.06060510  0.58206151  0.09905515  1
  O2-  O364  1  0.06024230  0.57557642  0.45312161  1
  O2-  O365  1  0.10173362  0.58422126  0.76453595  1
  O2-  O366  1  0.40419754  0.07575380  0.11313228  1
  O2-  O367  1  0.42945275  0.07760822  0.45330513  1
  O2-  O368  1  0.42068370  0.08126520  0.79308662  1
  O2-  O369  1  0.40128309  0.58539880  0.07109927  1
  O2-  O370  1  0.41853461  0.57841026  0.43981560  1
  O2-  O371  1  0.40566689  0.58308316  0.79494250  1
  O2-  O372  1  0.76198235  0.07056925  0.09328806  1
  O2-  O373  1  0.74452151  0.07606862  0.45784350  1
  O2-  O374  1  0.75241691  0.08167990  0.78487240  1
  O2-  O375  1  0.77407067  0.58247276  0.10551970  1
  O2-  O376  1  0.76228857  0.58413431  0.45058751  1
  O2-  O377  1  0.75634065  0.58538191  0.75710867  1
  O2-  O378  1  0.25631921  0.07461247  0.19853423  1
  O2-  O379  1  0.26151640  0.07032242  0.54951071  1
  O2-  O380  1  0.24912122  0.08092150  0.89303853  1
  O2-  O381  1  0.26073960  0.58397359  0.22293912  1
  O2-  O382  1  0.24524301  0.57595143  0.55710435  1
  O2-  O383  1  0.26937668  0.58044358  0.88591363  1
  O2-  O384  1  0.57404362  0.08147715  0.20544274  1
  O2-  O385  1  0.58019790  0.07652164  0.55316149  1
  O2-  O386  1  0.59086751  0.07875643  0.87776544  1
  O2-  O387  1  0.58392275  0.57891056  0.23817821  1
  O2-  O388  1  0.58963930  0.58119905  0.54343424  1
  O2-  O389  1  0.56914809  0.58997909  0.89010154  1
  O2-  O390  1  0.91629734  0.08661456  0.23955370  1
  O2-  O391  1  0.90917181  0.07322036  0.52873688  1
  O2-  O392  1  0.90305147  0.07622347  0.88653659  1
  O2-  O393  1  0.91420617  0.57809089  0.21871392  1
  O2-  O394  1  0.90960718  0.57577435  0.55487410  1
  O2-  O395  1  0.91728376  0.58237708  0.91031466  1
  O2-  O396  1  0.09378275  0.42219947  0.11308888  1
  O2-  O397  1  0.09717743  0.43088337  0.45998320  1
  O2-  O398  1  0.07672877  0.41693694  0.77622095  1
  O2-  O399  1  0.09189169  0.91804345  0.11206672  1
  O2-  O400  1  0.08066520  0.91365874  0.45183315  1
  O2-  O401  1  0.08226120  0.91673934  0.74188894  1
  O2-  O402  1  0.43493222  0.42407240  0.11473703  1
  O2-  O403  1  0.40415448  0.42637070  0.45051722  1
  O2-  O404  1  0.42972585  0.42226493  0.77836057  1
  O2-  O405  1  0.42024519  0.91535540  0.11938249  1
  O2-  O406  1  0.43139167  0.91561369  0.42748540  1
  O2-  O407  1  0.40211700  0.91490428  0.77753210  1
  O2-  O408  1  0.73368022  0.42284709  0.11934326  1
  O2-  O409  1  0.74371325  0.42035076  0.42234051  1
  O2-  O410  1  0.75581694  0.42790879  0.78935303  1
  O2-  O411  1  0.73244769  0.91874873  0.12093597  1
  O2-  O412  1  0.74147908  0.91037859  0.45248548  1
  O2-  O413  1  0.74755603  0.91508285  0.77218929  1
  O2-  O414  1  0.24493674  0.42368399  0.21920889  1
  O2-  O415  1  0.25185303  0.42664977  0.55166566  1
  O2-  O416  1  0.23375334  0.42008925  0.87848636  1
  O2-  O417  1  0.26554467  0.91667503  0.22236794  1
  O2-  O418  1  0.22872204  0.91094542  0.58098568  1
  O2-  O419  1  0.26536987  0.91788956  0.88493599  1
  O2-  O420  1  0.58667799  0.43133448  0.22016218  1
  O2-  O421  1  0.57307558  0.42135232  0.55100326  1
  O2-  O422  1  0.58777530  0.42865983  0.87328178  1
  O2-  O423  1  0.56725205  0.91475437  0.22795762  1
  O2-  O424  1  0.58754323  0.91123149  0.55118116  1
  O2-  O425  1  0.58828801  0.92036190  0.87883248  1
  O2-  O426  1  0.91415514  0.42023648  0.22559296  1
  O2-  O427  1  0.93382411  0.42166867  0.56066837  1
  O2-  O428  1  0.91128937  0.42287610  0.88046597  1
  O2-  O429  1  0.92473376  0.91457667  0.23826490  1
  O2-  O430  1  0.93203311  0.91445139  0.58405127  1
  O2-  O431  1  0.91072739  0.92243477  0.87649306  1
  O2-  O432  1  -0.00242571  0.01429970  -0.00634095  1
  O2-  O433  1  0.00306552  0.01198592  0.33359479  1
  O2-  O434  1  0.00590720  0.01894480  0.65921988  1
  O2-  O435  1  -0.00041816  0.48732376  -0.00328497  1
  O2-  O436  1  0.00267368  0.49896192  0.32801254  1
  O2-  O437  1  0.01239973  0.50176654  0.64173677  1
  O2-  O438  1  0.32973991  0.00130050  0.00458659  1
  O2-  O439  1  0.33415930  0.02431124  0.32976077  1
  O2-  O440  1  0.33443707  0.01241865  0.66714483  1
  O2-  O441  1  0.32917431  0.49029591  0.01377464  1
  O2-  O442  1  0.31414804  0.50068755  0.35812035  1
  O2-  O443  1  0.33151769  0.49811571  0.66895718  1
  O2-  O444  1  0.66374127  -0.01352538  0.01160623  1
  O2-  O445  1  0.65414684  0.00353533  0.35540229  1
  O2-  O446  1  0.65507040  -0.00683433  0.67935316  1
  O2-  O447  1  0.66668250  0.48552882  0.00039407  1
  O2-  O448  1  0.67602366  0.50032169  0.31690768  1
  O2-  O449  1  0.65700230  0.48736876  0.68667891  1
  O2-  O450  1  0.18032059  -0.00333885  0.02535850  1
  O2-  O451  1  0.17055710  0.01816171  0.33961884  1
  O2-  O452  1  0.16878129  0.01528707  0.66819226  1
  O2-  O453  1  0.16479036  0.49480742  0.00559135  1
  O2-  O454  1  0.16495627  0.48370982  0.33294501  1
  O2-  O455  1  0.16670251  0.48329245  0.66238673  1
  O2-  O456  1  0.50541417  -0.02943538  0.00648586  1
  O2-  O457  1  0.50393974  0.02494184  0.32665175  1
  O2-  O458  1  0.48872118  0.00930467  0.66352562  1
  O2-  O459  1  0.50581724  0.49677452  0.01251833  1
  O2-  O460  1  0.52332796  0.49831725  0.35821352  1
  O2-  O461  1  0.49956592  0.48845102  0.66415175  1
  O2-  O462  1  0.81777327  -0.00819979  -0.02558134  1
  O2-  O463  1  0.82463344  0.00963945  0.32659406  1
  O2-  O464  1  0.82822604  -0.00071923  0.65015172  1
  O2-  O465  1  0.82431059  0.48746702  -0.01701225  1
  O2-  O466  1  0.82856710  0.50656918  0.32369923  1
  O2-  O467  1  0.84098671  0.49512352  0.67183383  1
  O2-  O468  1  0.40558224  0.25720762  0.39183328  1
  O2-  O469  1  0.91755191  0.25276242  0.60658064  1
  O2-  O470  1  0.58587860  0.24842963  0.93868414  1
  O2-  O471  1  0.74427699  0.25075080  0.39420777  1
  O2-  O472  1  0.10058751  0.24937940  0.07147066  1
  O2-  O473  1  0.09660893  0.25470018  0.39580021  1
  O2-  O474  1  0.08133578  0.25085226  0.72324252  1
  O2-  O475  1  0.92278203  0.25155189  0.27206240  1
  O2-  O476  1  0.42064146  0.25308906  0.71812884  1
  O2-  O477  1  0.08852900  0.75118058  0.40520650  1
  O2-  O478  1  0.25326652  0.74804444  0.59428320  1
  O2-  O479  1  0.74048830  0.24521698  0.71941819  1
  O2-  O480  1  0.74364467  0.75164556  0.06488785  1
  O2-  O481  1  0.24449783  0.25051290  0.94246477  1
  O2-  O482  1  0.74321319  0.25865361  0.07027364  1
  O2-  O483  1  0.58181575  0.75457643  0.93577305  1
  O2-  O484  1  0.58293068  0.24677690  0.27555109  1
  O2-  O485  1  0.42665908  0.74839010  0.72040942  1
  O2-  O486  1  0.41073751  0.25540731  0.06646245  1
  O2-  O487  1  0.25344820  0.25800203  0.59856812  1
  O2-  O488  1  0.08925419  0.74949947  0.07288352  1
  O2-  O489  1  0.58752049  0.25310943  0.60554939  1
  O2-  O490  1  0.91734488  0.75038349  0.25835202  1
  O2-  O491  1  0.24824365  0.25450681  0.28365292  1
  O2-  O492  1  0.57476490  0.74872986  0.61667343  1
