# generated using pymatgen
data_Ca108Mn108O277
_symmetry_space_group_name_H-M   'P 1'
_cell_length_a   16.01870302
_cell_length_b   22.29410887
_cell_length_c   16.38278047
_cell_angle_alpha   89.99710707
_cell_angle_beta   89.99912678
_cell_angle_gamma   90.00051557
_symmetry_Int_Tables_number   1
_chemical_formula_structural   Ca108Mn108O277
_chemical_formula_sum   'Ca108 Mn108 O277'
_cell_volume   5850.66293287
_cell_formula_units_Z   1
loop_
 _symmetry_equiv_pos_site_id
 _symmetry_equiv_pos_as_xyz
  1  'x, y, z'
loop_
 _atom_type_symbol
 _atom_type_oxidation_number
  Ca2+  2.0
  Mn3.34+  3.34
  O2-  -2.0
loop_
 _atom_site_type_symbol
 _atom_site_label
 _atom_site_symmetry_multiplicity
 _atom_site_fract_x
 _atom_site_fract_y
 _atom_site_fract_z
 _atom_site_occupancy
  Ca2+  Ca0  1  0.08330340  0.25941885  0.24577038  1
  Ca2+  Ca1  1  0.07035903  0.24732306  0.60489454  1
  Ca2+  Ca2  1  0.10912572  0.23681517  0.89193394  1
  Ca2+  Ca3  1  0.10171714  0.75458493  0.25066720  1
  Ca2+  Ca4  1  0.08647356  0.75481549  0.58258278  1
  Ca2+  Ca5  1  0.08900346  0.76388749  0.91212757  1
  Ca2+  Ca6  1  0.42028478  0.23889100  0.27376712  1
  Ca2+  Ca7  1  0.43256046  0.25539048  0.56908103  1
  Ca2+  Ca8  1  0.39000084  0.25468140  0.90887118  1
  Ca2+  Ca9  1  0.43625536  0.75180712  0.25946713  1
  Ca2+  Ca10  1  0.43137070  0.74798746  0.57638193  1
  Ca2+  Ca11  1  0.41902840  0.75178975  0.91577002  1
  Ca2+  Ca12  1  0.74717139  0.25670080  0.24560365  1
  Ca2+  Ca13  1  0.74795177  0.24591428  0.59021350  1
  Ca2+  Ca14  1  0.75038682  0.24904886  0.91795119  1
  Ca2+  Ca15  1  0.72538253  0.74586049  0.25992737  1
  Ca2+  Ca16  1  0.72943220  0.74895692  0.56509855  1
  Ca2+  Ca17  1  0.73315904  0.74849000  0.93359436  1
  Ca2+  Ca18  1  0.24090946  0.25221341  0.06970274  1
  Ca2+  Ca19  1  0.26972682  0.24977816  0.40955546  1
  Ca2+  Ca20  1  0.23577243  0.25187239  0.76099355  1
  Ca2+  Ca21  1  0.25480130  0.76389700  0.08264314  1
  Ca2+  Ca22  1  0.26451628  0.74563791  0.41578237  1
  Ca2+  Ca23  1  0.25276520  0.75082906  0.75141106  1
  Ca2+  Ca24  1  0.61065918  0.23943804  0.10507669  1
  Ca2+  Ca25  1  0.56642753  0.23384445  0.42716607  1
  Ca2+  Ca26  1  0.60930828  0.23293036  0.72637527  1
  Ca2+  Ca27  1  0.60604556  0.74395258  0.10234920  1
  Ca2+  Ca28  1  0.59252556  0.74503445  0.41376123  1
  Ca2+  Ca29  1  0.58506275  0.74473194  0.73544791  1
  Ca2+  Ca30  1  0.90060210  0.24723483  0.10509770  1
  Ca2+  Ca31  1  0.90997650  0.26149568  0.41695966  1
  Ca2+  Ca32  1  0.91343639  0.24540343  0.73304217  1
  Ca2+  Ca33  1  0.89240533  0.75647034  0.07916714  1
  Ca2+  Ca34  1  0.88686099  0.75254902  0.42328172  1
  Ca2+  Ca35  1  0.91416326  0.76154731  0.74457253  1
  Ca2+  Ca36  1  0.60933266  0.60615020  0.09584966  1
  Ca2+  Ca37  1  0.59726991  0.60828066  0.41233576  1
  Ca2+  Ca38  1  0.89139990  0.58669757  0.41984468  1
  Ca2+  Ca39  1  0.45643865  0.59301386  0.25054010  1
  Ca2+  Ca40  1  0.71472559  0.61110153  0.92189657  1
  Ca2+  Ca41  1  0.27461852  0.09325882  0.39648510  1
  Ca2+  Ca42  1  0.26582587  0.58310258  0.08888006  1
  Ca2+  Ca43  1  0.37704636  0.07818323  0.93010909  1
  Ca2+  Ca44  1  0.20060802  0.08879526  0.77545836  1
  Ca2+  Ca45  1  0.74417939  0.09123978  0.21765043  1
  Ca2+  Ca46  1  0.19031990  0.08979861  0.77572455  1
  Ca2+  Ca47  1  0.88395382  0.59996229  0.08894866  1
  Ca2+  Ca48  1  0.72168311  0.59745535  0.25519326  1
  Ca2+  Ca49  1  0.76636030  0.10296616  0.59307722  1
  Ca2+  Ca50  1  0.58183623  0.61035072  0.75133027  1
  Ca2+  Ca51  1  0.90247354  0.08558223  0.42165368  1
  Ca2+  Ca52  1  0.38874008  0.08068044  0.93138780  1
  Ca2+  Ca53  1  0.93066344  0.10378218  0.73753720  1
  Ca2+  Ca54  1  0.73445301  0.09186732  0.22141693  1
  Ca2+  Ca55  1  0.10805461  0.58537338  0.26132721  1
  Ca2+  Ca56  1  0.43071289  0.60618693  0.90730432  1
  Ca2+  Ca57  1  0.10476358  0.58899789  0.91663004  1
  Ca2+  Ca58  1  0.44202476  0.10691425  0.56076545  1
  Ca2+  Ca59  1  0.74017420  0.08694151  0.94959079  1
  Ca2+  Ca60  1  0.24955424  0.60712695  0.43275624  1
  Ca2+  Ca61  1  0.09165851  0.58811904  0.91671036  1
  Ca2+  Ca62  1  0.05502151  0.09356507  0.61693887  1
  Ca2+  Ca63  1  0.09166650  0.08580850  0.24844423  1
  Ca2+  Ca64  1  0.26140748  0.59443018  0.72992919  1
  Ca2+  Ca65  1  0.09568859  0.58309643  0.26357387  1
  Ca2+  Ca66  1  0.09152891  0.58230803  0.58327966  1
  Ca2+  Ca67  1  0.89610236  0.08911299  0.08741820  1
  Ca2+  Ca68  1  0.72989193  0.60527466  0.57868065  1
  Ca2+  Ca69  1  0.74799085  0.08867214  0.94171867  1
  Ca2+  Ca70  1  0.45241914  0.10784666  0.56153447  1
  Ca2+  Ca71  1  0.40610376  0.61537597  0.58231824  1
  Ca2+  Ca72  1  0.58398320  0.40918589  0.09487653  1
  Ca2+  Ca73  1  0.57148352  0.41084791  0.09260913  1
  Ca2+  Ca74  1  0.40830668  0.41736110  0.24393587  1
  Ca2+  Ca75  1  0.40709330  0.41008922  0.92952344  1
  Ca2+  Ca76  1  0.26272188  0.40803414  0.08364102  1
  Ca2+  Ca77  1  0.93225971  0.90744274  0.74233389  1
  Ca2+  Ca78  1  0.41000828  0.90998291  0.92495355  1
  Ca2+  Ca79  1  0.59671629  0.40550904  0.74922407  1
  Ca2+  Ca80  1  0.08572347  0.39734191  0.90510893  1
  Ca2+  Ca81  1  0.39952336  0.91244136  0.92666880  1
  Ca2+  Ca82  1  0.90503414  0.90760987  0.08956917  1
  Ca2+  Ca83  1  0.41218265  0.40413492  0.58711511  1
  Ca2+  Ca84  1  0.23124130  0.41255625  0.74761307  1
  Ca2+  Ca85  1  0.25964923  0.89719296  0.41824990  1
  Ca2+  Ca86  1  0.59437222  0.40693160  0.40531870  1
  Ca2+  Ca87  1  0.58408892  0.40524356  0.74939427  1
  Ca2+  Ca88  1  0.42068480  0.41556814  0.24606653  1
  Ca2+  Ca89  1  0.59036326  0.90328353  0.08974452  1
  Ca2+  Ca90  1  0.24504927  0.41233780  0.40989041  1
  Ca2+  Ca91  1  0.07891062  0.40639704  0.25332558  1
  Ca2+  Ca92  1  0.74215352  0.90668206  0.93353255  1
  Ca2+  Ca93  1  0.74503246  0.91119628  0.25843538  1
  Ca2+  Ca94  1  0.08747183  0.90055892  0.24552778  1
  Ca2+  Ca95  1  0.92734384  0.42240179  0.72362087  1
  Ca2+  Ca96  1  0.24243890  0.91189473  0.75196245  1
  Ca2+  Ca97  1  0.74679214  0.40028171  0.91444759  1
  Ca2+  Ca98  1  0.11021525  0.91297625  0.91108830  1
  Ca2+  Ca99  1  0.24745463  0.89868602  0.41577059  1
  Ca2+  Ca100  1  0.08355619  0.91347224  0.60379827  1
  Ca2+  Ca101  1  0.89422743  0.90621485  0.41779015  1
  Ca2+  Ca102  1  0.91373761  0.39538252  0.09081562  1
  Ca2+  Ca103  1  0.76952505  0.41474737  0.58682741  1
  Ca2+  Ca104  1  0.75939315  0.39943264  0.91384219  1
  Ca2+  Ca105  1  0.07136758  0.41876855  0.59617742  1
  Ca2+  Ca106  1  0.58019889  0.89165695  0.74856478  1
  Ca2+  Ca107  1  0.23357840  0.41308741  0.41013097  1
  Mn3.34+  Mn108  1  0.08185826  0.33126875  0.08225996  1
  Mn3.34+  Mn109  1  0.07626552  0.33600099  0.42230604  1
  Mn3.34+  Mn110  1  0.07885329  0.33371969  0.74947345  1
  Mn3.34+  Mn111  1  0.08274179  0.83700436  0.08472221  1
  Mn3.34+  Mn112  1  0.07937366  0.82418660  0.41974514  1
  Mn3.34+  Mn113  1  0.08477364  0.83643493  0.75127083  1
  Mn3.34+  Mn114  1  0.41764415  0.32752751  0.08555190  1
  Mn3.34+  Mn115  1  0.41848886  0.33432590  0.41925233  1
  Mn3.34+  Mn116  1  0.41434996  0.33634990  0.75062931  1
  Mn3.34+  Mn117  1  0.41997944  0.83401870  0.09036578  1
  Mn3.34+  Mn118  1  0.42629427  0.83162433  0.41831334  1
  Mn3.34+  Mn119  1  0.41601601  0.83149117  0.74753086  1
  Mn3.34+  Mn120  1  0.74990842  0.33068366  0.08694128  1
  Mn3.34+  Mn121  1  0.75206644  0.33746960  0.41599249  1
  Mn3.34+  Mn122  1  0.75509438  0.32972820  0.74853297  1
  Mn3.34+  Mn123  1  0.74873769  0.83512835  0.08873061  1
  Mn3.34+  Mn124  1  0.73979250  0.83906503  0.41888768  1
  Mn3.34+  Mn125  1  0.74925433  0.83118974  0.75183376  1
  Mn3.34+  Mn126  1  0.25005149  0.33380308  0.24412597  1
  Mn3.34+  Mn127  1  0.24579068  0.33665380  0.58343197  1
  Mn3.34+  Mn128  1  0.24799430  0.33494026  0.91573617  1
  Mn3.34+  Mn129  1  0.25713148  0.83290947  0.24501542  1
  Mn3.34+  Mn130  1  0.25415263  0.83039028  0.58419334  1
  Mn3.34+  Mn131  1  0.25178184  0.83252712  0.91612899  1
  Mn3.34+  Mn132  1  0.58388997  0.33210194  0.25308877  1
  Mn3.34+  Mn133  1  0.58880091  0.33221888  0.57765111  1
  Mn3.34+  Mn134  1  0.57865129  0.32287037  0.91601500  1
  Mn3.34+  Mn135  1  0.58084504  0.83672644  0.25354398  1
  Mn3.34+  Mn136  1  0.58344367  0.82755422  0.58045697  1
  Mn3.34+  Mn137  1  0.58223334  0.82984726  0.91383714  1
  Mn3.34+  Mn138  1  0.91415739  0.33648364  0.25551813  1
  Mn3.34+  Mn139  1  0.91623411  0.33866158  0.57855357  1
  Mn3.34+  Mn140  1  0.92124417  0.32415222  0.91553700  1
  Mn3.34+  Mn141  1  0.91766727  0.83013549  0.24975343  1
  Mn3.34+  Mn142  1  0.91198853  0.83428359  0.58054511  1
  Mn3.34+  Mn143  1  0.91594295  0.83510062  0.91528040  1
  Mn3.34+  Mn144  1  0.91656998  0.66452754  0.58188401  1
  Mn3.34+  Mn145  1  0.91550615  0.16542776  0.24758481  1
  Mn3.34+  Mn146  1  0.25451767  0.66622741  0.24933576  1
  Mn3.34+  Mn147  1  0.91858672  0.67095543  0.91364792  1
  Mn3.34+  Mn148  1  0.41325861  0.16631873  0.75215131  1
  Mn3.34+  Mn149  1  0.57919297  0.16959447  0.91994680  1
  Mn3.34+  Mn150  1  0.91587423  0.17713650  0.91476579  1
  Mn3.34+  Mn151  1  0.41055889  0.16529801  0.09216013  1
  Mn3.34+  Mn152  1  0.90633378  0.66397899  0.91089910  1
  Mn3.34+  Mn153  1  0.08557306  0.67672501  0.08360199  1
  Mn3.34+  Mn154  1  0.25210318  0.16713996  0.25039096  1
  Mn3.34+  Mn155  1  0.08550912  0.16187672  0.08045376  1
  Mn3.34+  Mn156  1  0.58781118  0.17604211  0.92112391  1
  Mn3.34+  Mn157  1  0.08923483  0.65950277  0.74810751  1
  Mn3.34+  Mn158  1  0.08397517  0.67189104  0.42091464  1
  Mn3.34+  Mn159  1  0.41847240  0.66934497  0.41795750  1
  Mn3.34+  Mn160  1  0.25456402  0.16689771  0.58268454  1
  Mn3.34+  Mn161  1  0.91403095  0.67850538  0.25240748  1
  Mn3.34+  Mn162  1  0.25435997  0.66856688  0.91598133  1
  Mn3.34+  Mn163  1  0.90690865  0.65904943  0.58201046  1
  Mn3.34+  Mn164  1  0.41591897  0.66703496  0.08432934  1
  Mn3.34+  Mn165  1  0.74071364  0.16022660  0.42255176  1
  Mn3.34+  Mn166  1  0.75053305  0.16436722  0.41879309  1
  Mn3.34+  Mn167  1  0.42543871  0.66163470  0.08498616  1
  Mn3.34+  Mn168  1  0.74754694  0.65870442  0.75425312  1
  Mn3.34+  Mn169  1  0.57842084  0.16363766  0.25544679  1
  Mn3.34+  Mn170  1  0.24183631  0.15998322  0.58132731  1
  Mn3.34+  Mn171  1  0.08425185  0.17242403  0.41427912  1
  Mn3.34+  Mn172  1  0.07044644  0.16651621  0.41672956  1
  Mn3.34+  Mn173  1  0.41633440  0.66974926  0.75075145  1
  Mn3.34+  Mn174  1  0.92860221  0.17032946  0.91264045  1
  Mn3.34+  Mn175  1  0.42122888  0.16975814  0.09162960  1
  Mn3.34+  Mn176  1  0.42752632  0.16136481  0.75371751  1
  Mn3.34+  Mn177  1  0.92157171  0.66779974  0.24916198  1
  Mn3.34+  Mn178  1  0.09589809  0.15715474  0.08191252  1
  Mn3.34+  Mn179  1  0.07815516  0.66375625  0.74732706  1
  Mn3.34+  Mn180  1  0.74038957  0.00519224  0.75162997  1
  Mn3.34+  Mn181  1  0.41465982  0.50588985  0.41548679  1
  Mn3.34+  Mn182  1  0.75233632  -0.00236526  0.75111082  1
  Mn3.34+  Mn183  1  0.93537004  0.00531436  0.91240466  1
  Mn3.34+  Mn184  1  0.58805065  0.50141222  0.91451458  1
  Mn3.34+  Mn185  1  0.42998687  0.50106543  0.41757986  1
  Mn3.34+  Mn186  1  0.08620706  0.50381606  0.08824398  1
  Mn3.34+  Mn187  1  0.90620136  0.50489435  0.90139381  1
  Mn3.34+  Mn188  1  0.57786014  0.50485624  0.57733101  1
  Mn3.34+  Mn189  1  0.07832391  0.00154765  0.42498166  1
  Mn3.34+  Mn190  1  0.91344872  -0.00077061  0.25692889  1
  Mn3.34+  Mn191  1  0.91014668  0.49966699  0.25204912  1
  Mn3.34+  Mn192  1  0.26240711  0.50171087  0.91841629  1
  Mn3.34+  Mn193  1  0.24865301  0.50198771  0.59174985  1
  Mn3.34+  Mn194  1  0.40895897  -0.00370100  0.08594613  1
  Mn3.34+  Mn195  1  0.08961521  -0.00306786  0.42384772  1
  Mn3.34+  Mn196  1  0.59680522  -0.00702251  0.57356597  1
  Mn3.34+  Mn197  1  0.92116839  -0.00057327  0.91233048  1
  Mn3.34+  Mn198  1  0.41636665  0.50199981  0.75301727  1
  Mn3.34+  Mn199  1  0.59160091  0.49961927  0.58280285  1
  Mn3.34+  Mn200  1  0.91894152  0.49741274  0.90085885  1
  Mn3.34+  Mn201  1  0.42409847  -0.00345705  0.41200544  1
  Mn3.34+  Mn202  1  0.07469831  0.49843308  0.08710053  1
  Mn3.34+  Mn203  1  0.75236462  0.49989305  0.08724466  1
  Mn3.34+  Mn204  1  0.43280553  -0.00988024  0.40946129  1
  Mn3.34+  Mn205  1  0.74400785  0.49816352  0.39940858  1
  Mn3.34+  Mn206  1  0.57250960  0.50609574  0.91577449  1
  Mn3.34+  Mn207  1  0.58210062  -0.00021276  0.91724587  1
  Mn3.34+  Mn208  1  0.58839689  0.00124501  0.25602014  1
  Mn3.34+  Mn209  1  0.24981107  -0.00091741  0.59299687  1
  Mn3.34+  Mn210  1  0.42117700  0.00005017  0.74354030  1
  Mn3.34+  Mn211  1  0.25702407  -0.00048050  0.24635381  1
  Mn3.34+  Mn212  1  0.09906621  -0.00409824  0.06629123  1
  Mn3.34+  Mn213  1  0.58124628  -0.00496629  0.57409379  1
  Mn3.34+  Mn214  1  0.07610774  0.50107016  0.41535847  1
  Mn3.34+  Mn215  1  0.91778397  -0.00301734  0.58863007  1
  O2-  O216  1  -0.00227205  0.16340805  0.00238754  1
  O2-  O217  1  -0.00241830  0.15022099  0.32973854  1
  O2-  O218  1  -0.01520947  0.17570301  0.66000843  1
  O2-  O219  1  -0.00075181  0.65096379  -0.00140570  1
  O2-  O220  1  0.00568560  0.66634704  0.32961568  1
  O2-  O221  1  0.00274163  0.65375137  0.65698008  1
  O2-  O222  1  0.34398868  0.16854565  -0.00197688  1
  O2-  O223  1  0.32757743  0.16873356  0.32978904  1
  O2-  O224  1  0.33766325  0.14186047  0.66290865  1
  O2-  O225  1  0.33609997  0.65082393  -0.00032768  1
  O2-  O226  1  0.33220062  0.65133370  0.33121142  1
  O2-  O227  1  0.33115227  0.67683836  0.67615896  1
  O2-  O228  1  0.67091999  0.16857998  -0.00043100  1
  O2-  O229  1  0.66810743  0.15183805  0.33571992  1
  O2-  O230  1  0.68818659  0.16608791  0.66033371  1
  O2-  O231  1  0.65836375  0.67532769  0.00229730  1
  O2-  O232  1  0.66734602  0.66850101  0.33358010  1
  O2-  O233  1  0.67241722  0.66703781  0.67427360  1
  O2-  O234  1  0.17042355  0.16590698  0.00024946  1
  O2-  O235  1  0.16114393  0.15127540  0.33406134  1
  O2-  O236  1  0.16363793  0.15618133  0.66184092  1
  O2-  O237  1  0.16883323  0.65205774  -0.00236265  1
  O2-  O238  1  0.16351938  0.65969242  0.33131551  1
  O2-  O239  1  0.16589115  0.66164007  0.66323980  1
  O2-  O240  1  0.50361328  0.17806148  0.00799976  1
  O2-  O241  1  0.50298522  0.16895622  0.33233873  1
  O2-  O242  1  0.50190208  0.16096331  0.66929465  1
  O2-  O243  1  0.50039138  0.66322348  0.00045020  1
  O2-  O244  1  0.49774556  0.66066972  0.33845712  1
  O2-  O245  1  0.49303611  0.66817045  0.67168479  1
  O2-  O246  1  0.83833927  0.16195643  -0.00378862  1
  O2-  O247  1  0.82767827  0.15308898  0.33687327  1
  O2-  O248  1  0.84212277  0.17049973  0.66324257  1
  O2-  O249  1  0.82798937  0.65874840  -0.00628919  1
  O2-  O250  1  0.83840971  0.66122080  0.33455722  1
  O2-  O251  1  0.83036899  0.67004825  0.66992528  1
  O2-  O252  1  -0.00287279  0.33883090  0.00169213  1
  O2-  O253  1  0.00392184  0.34012330  0.32931289  1
  O2-  O254  1  -0.00429267  0.33319113  0.66644395  1
  O2-  O255  1  0.00032795  0.83603898  0.00272861  1
  O2-  O256  1  0.00284168  0.81386245  0.33089819  1
  O2-  O257  1  0.00296575  0.84058052  0.66598919  1
  O2-  O258  1  0.33349792  0.33794280  0.00201762  1
  O2-  O259  1  0.33101005  0.34837726  0.33601213  1
  O2-  O260  1  0.32861741  0.35006905  0.66894477  1
  O2-  O261  1  0.33424815  0.83988264  -0.00269910  1
  O2-  O262  1  0.32912520  0.84027089  0.33678489  1
  O2-  O263  1  0.33120709  0.81465606  0.66939577  1
  O2-  O264  1  0.66521629  0.34011771  -0.00487681  1
  O2-  O265  1  0.66392093  0.34213685  0.33265118  1
  O2-  O266  1  0.66854072  0.34778737  0.66679042  1
  O2-  O267  1  0.66271632  0.83657270  0.00090574  1
  O2-  O268  1  0.67105637  0.83873123  0.32561850  1
  O2-  O269  1  0.66514944  0.82443925  0.67296564  1
  O2-  O270  1  0.16842965  0.34509193  0.00125052  1
  O2-  O271  1  0.16770476  0.35076211  0.32853295  1
  O2-  O272  1  0.16056326  0.34991628  0.66338938  1
  O2-  O273  1  0.16187592  0.83197898  -0.00457938  1
  O2-  O274  1  0.16525374  0.83372529  0.33753903  1
  O2-  O275  1  0.16842065  0.83275604  0.66593060  1
  O2-  O276  1  0.49976599  0.33391491  0.00101527  1
  O2-  O277  1  0.49167607  0.34831984  0.32809011  1
  O2-  O278  1  0.50250659  0.34795963  0.66698060  1
  O2-  O279  1  0.49331497  0.83538396  -0.01020556  1
  O2-  O280  1  0.49763547  0.83684556  0.33215521  1
  O2-  O281  1  0.50178760  0.82537764  0.67159766  1
  O2-  O282  1  0.83168444  0.33781373  -0.00266151  1
  O2-  O283  1  0.83356442  0.32989976  0.33363025  1
  O2-  O284  1  0.83810874  0.33863281  0.66796446  1
  O2-  O285  1  0.83315852  0.84316828  0.00095837  1
  O2-  O286  1  0.83839149  0.83061181  0.33368925  1
  O2-  O287  1  0.84038642  0.83476123  0.67555539  1
  O2-  O288  1  0.00334258  0.16896308  0.15981833  1
  O2-  O289  1  -0.00088993  0.18405313  0.49834739  1
  O2-  O290  1  -0.00298429  0.18679327  0.82975399  1
  O2-  O291  1  -0.00258808  0.69045266  0.16762245  1
  O2-  O292  1  -0.00514194  0.68224915  0.49522422  1
  O2-  O293  1  0.00778720  0.67173417  0.83905260  1
  O2-  O294  1  0.32799242  0.18990512  0.16366941  1
  O2-  O295  1  0.33250242  0.17254927  0.50223660  1
  O2-  O296  1  0.34073694  0.17043449  0.83765754  1
  O2-  O297  1  0.33211840  0.67207276  0.16158453  1
  O2-  O298  1  0.33387704  0.67911835  0.49711635  1
  O2-  O299  1  0.33271643  0.67932417  0.83589432  1
  O2-  O300  1  0.67151747  0.17450620  0.18281662  1
  O2-  O301  1  0.67018925  0.17457058  0.50334973  1
  O2-  O302  1  0.66761111  0.18381529  0.84201751  1
  O2-  O303  1  0.66955989  0.67287860  0.17730638  1
  O2-  O304  1  0.66599477  0.67501914  0.49246214  1
  O2-  O305  1  0.67365968  0.68567453  0.82787717  1
  O2-  O306  1  0.16262080  0.17544246  0.17337485  1
  O2-  O307  1  0.16909354  0.17792394  0.49219227  1
  O2-  O308  1  0.17947496  0.17466273  0.82306146  1
  O2-  O309  1  0.16769554  0.68247298  0.17072794  1
  O2-  O310  1  0.16279366  0.68919078  0.49255614  1
  O2-  O311  1  0.16349980  0.67821836  0.84037243  1
  O2-  O312  1  0.49949208  0.18254915  0.17034627  1
  O2-  O313  1  0.49293020  0.18225676  0.50826570  1
  O2-  O314  1  0.49743477  0.19118502  0.84493731  1
  O2-  O315  1  0.50244432  0.67483506  0.16577001  1
  O2-  O316  1  0.49570817  0.67351790  0.49505645  1
  O2-  O317  1  0.49237585  0.68788603  0.82890578  1
  O2-  O318  1  0.83384051  0.17056917  0.17283533  1
  O2-  O319  1  0.83286596  0.17879168  0.49345841  1
  O2-  O320  1  0.83465562  0.18674388  0.84102330  1
  O2-  O321  1  0.83646821  0.68294792  0.16999588  1
  O2-  O322  1  0.82723037  0.66896382  0.50239810  1
  O2-  O323  1  0.83386013  0.68595888  0.82658086  1
  O2-  O324  1  -0.00043455  0.32506701  0.16488391  1
  O2-  O325  1  0.00056027  0.31459923  0.50822493  1
  O2-  O326  1  0.00236973  0.31761621  0.83633473  1
  O2-  O327  1  0.00110616  0.81297199  0.16692603  1
  O2-  O328  1  -0.00075654  0.81662378  0.50025328  1
  O2-  O329  1  0.00099026  0.82529891  0.83100837  1
  O2-  O330  1  0.33542552  0.31890322  0.16661726  1
  O2-  O331  1  0.33180054  0.33137829  0.49813222  1
  O2-  O332  1  0.33357561  0.33222598  0.83535892  1
  O2-  O333  1  0.33830248  0.82114896  0.16844166  1
  O2-  O334  1  0.32705434  0.82069476  0.49582302  1
  O2-  O335  1  0.33631883  0.81802489  0.83398060  1
  O2-  O336  1  0.65877326  0.33103358  0.15927201  1
  O2-  O337  1  0.67022623  0.33071016  0.50017645  1
  O2-  O338  1  0.66712347  0.32252636  0.83642245  1
  O2-  O339  1  0.66684511  0.82811345  0.16772586  1
  O2-  O340  1  0.66289552  0.82588501  0.49852800  1
  O2-  O341  1  0.66512404  0.81307341  0.83562531  1
  O2-  O342  1  0.16693084  0.32960651  0.16488981  1
  O2-  O343  1  0.17363698  0.33035711  0.48969151  1
  O2-  O344  1  0.16722176  0.33132058  0.83134547  1
  O2-  O345  1  0.16580786  0.82032352  0.16687939  1
  O2-  O346  1  0.16970454  0.81545705  0.49779868  1
  O2-  O347  1  0.16960638  0.82487532  0.83148889  1
  O2-  O348  1  0.50269553  0.31646916  0.16369827  1
  O2-  O349  1  0.50154048  0.32884913  0.49920829  1
  O2-  O350  1  0.50356513  0.32300288  0.83016108  1
  O2-  O351  1  0.50860847  0.82384490  0.15837535  1
  O2-  O352  1  0.49851183  0.82009728  0.50098983  1
  O2-  O353  1  0.50001600  0.81588619  0.83130732  1
  O2-  O354  1  0.83458917  0.32873601  0.16520762  1
  O2-  O355  1  0.83173962  0.31858744  0.50720610  1
  O2-  O356  1  0.82755079  0.31953837  0.84256703  1
  O2-  O357  1  0.83604101  0.82484936  0.16668731  1
  O2-  O358  1  0.83249153  0.82713239  0.49917602  1
  O2-  O359  1  0.83211201  0.81897027  0.83393002  1
  O2-  O360  1  0.08223383  0.07273674  0.11212355  1
  O2-  O361  1  0.07910892  0.08283484  0.45172862  1
  O2-  O362  1  0.06644946  0.07538555  0.75884417  1
  O2-  O363  1  0.07971534  0.58352966  0.12243353  1
  O2-  O364  1  0.08410475  0.58254548  0.44036260  1
  O2-  O365  1  0.09596457  0.57800428  0.78134005  1
  O2-  O366  1  0.41250974  0.08026079  0.08939515  1
  O2-  O367  1  0.40764493  0.07612804  0.44102245  1
  O2-  O368  1  0.42835386  0.08037422  0.79307020  1
  O2-  O369  1  0.41467167  0.58041436  0.10833132  1
  O2-  O370  1  0.40665512  0.58400233  0.44629955  1
  O2-  O371  1  0.41351192  0.58423821  0.77177256  1
  O2-  O372  1  0.76079291  0.07280112  0.09343505  1
  O2-  O373  1  0.75855922  0.08086643  0.44896012  1
  O2-  O374  1  0.76207634  0.07631017  0.80573582  1
  O2-  O375  1  0.75489374  0.57634018  0.11880854  1
  O2-  O376  1  0.74737683  0.56412842  0.45518201  1
  O2-  O377  1  0.73391235  0.58275388  0.78158707  1
  O2-  O378  1  0.24476263  0.08177391  0.23341243  1
  O2-  O379  1  0.25351969  0.07736886  0.54482043  1
  O2-  O380  1  0.26849155  0.06054417  0.87675480  1
  O2-  O381  1  0.23423284  0.58129416  0.22181405  1
  O2-  O382  1  0.24995829  0.57855371  0.56521801  1
  O2-  O383  1  0.24277737  0.58155291  0.88248776  1
  O2-  O384  1  0.59256055  0.08128725  0.22250754  1
  O2-  O385  1  0.58097807  0.07576025  0.54851120  1
  O2-  O386  1  0.58958067  0.08325552  0.89836176  1
  O2-  O387  1  0.58995333  0.57413059  0.22252469  1
  O2-  O388  1  0.58821071  0.58421154  0.56500825  1
  O2-  O389  1  0.57467825  0.58576959  0.88699504  1
  O2-  O390  1  0.91470926  0.07826945  0.22248736  1
  O2-  O391  1  0.92051583  0.07300743  0.55550058  1
  O2-  O392  1  0.91797071  0.08532996  0.88436180  1
  O2-  O393  1  0.93008505  0.58400147  0.21763663  1
  O2-  O394  1  0.92392843  0.57989337  0.55366396  1
  O2-  O395  1  0.93412568  0.58297654  0.88442262  1
  O2-  O396  1  0.07949317  0.41680817  0.10041124  1
  O2-  O397  1  0.08975736  0.42137805  0.44749431  1
  O2-  O398  1  0.07175114  0.41829389  0.77173962  1
  O2-  O399  1  0.07375087  0.92452191  0.11449573  1
  O2-  O400  1  0.09255145  0.91420382  0.43807942  1
  O2-  O401  1  0.08922306  0.91705058  0.76696782  1
  O2-  O402  1  0.43077077  0.41874534  0.11209387  1
  O2-  O403  1  0.42223564  0.42092884  0.44817160  1
  O2-  O404  1  0.43927880  0.42286704  0.78348014  1
  O2-  O405  1  0.43453462  0.91629387  0.08465822  1
  O2-  O406  1  0.39775864  0.91369990  0.44397312  1
  O2-  O407  1  0.41773916  0.91886849  0.78477942  1
  O2-  O408  1  0.73459986  0.41722201  0.08416308  1
  O2-  O409  1  0.74250364  0.42817427  0.44845236  1
  O2-  O410  1  0.73412527  0.41886798  0.78514463  1
  O2-  O411  1  0.75152725  0.91748784  0.10017886  1
  O2-  O412  1  0.76004338  0.91791133  0.41364541  1
  O2-  O413  1  0.73558565  0.91886059  0.78333826  1
  O2-  O414  1  0.26846975  0.41766816  0.22120773  1
  O2-  O415  1  0.25399926  0.42516754  0.54968294  1
  O2-  O416  1  0.24717258  0.42188063  0.89368522  1
  O2-  O417  1  0.23342642  0.91691821  0.24634722  1
  O2-  O418  1  0.23414327  0.92063261  0.55129338  1
  O2-  O419  1  0.26055571  0.91349910  0.88908947  1
  O2-  O420  1  0.56395804  0.41691470  0.22612874  1
  O2-  O421  1  0.57721659  0.41967562  0.55925677  1
  O2-  O422  1  0.59239997  0.41920160  0.88662771  1
  O2-  O423  1  0.59154223  0.92280685  0.22390301  1
  O2-  O424  1  0.58707383  0.91203839  0.58754388  1
  O2-  O425  1  0.57528038  0.91978760  0.88861915  1
  O2-  O426  1  0.93001268  0.41988867  0.22263362  1
  O2-  O427  1  0.91942354  0.41760848  0.57375204  1
  O2-  O428  1  0.90040459  0.41624110  0.89155180  1
  O2-  O429  1  0.92747997  0.91959122  0.22961377  1
  O2-  O430  1  0.92935575  0.91769161  0.55677652  1
  O2-  O431  1  0.92056407  0.91906532  0.88634280  1
  O2-  O432  1  -0.00621082  -0.00335460  0.01327089  1
  O2-  O433  1  -0.00048304  0.00647994  0.33690137  1
  O2-  O434  1  -0.00009975  -0.00485902  0.65673083  1
  O2-  O435  1  0.00569867  0.50769772  -0.01311334  1
  O2-  O436  1  0.01231860  0.51038201  0.31491801  1
  O2-  O437  1  -0.00063541  0.49691462  0.65855369  1
  O2-  O438  1  0.34562261  -0.00620004  -0.01459337  1
  O2-  O439  1  0.32009113  -0.00400495  0.35002519  1
  O2-  O440  1  0.32299664  0.00828632  0.67813782  1
  O2-  O441  1  0.32878169  0.49524407  0.00382436  1
  O2-  O442  1  0.32614607  0.48492840  0.34557306  1
  O2-  O443  1  0.32399380  0.49740237  0.67858291  1
  O2-  O444  1  0.68591841  -0.00239676  -0.04316808  1
  O2-  O445  1  0.69368019  0.00616286  0.28856487  1
  O2-  O446  1  0.66955983  0.00698353  0.65906279  1
  O2-  O447  1  0.66868385  0.50958773  0.00206685  1
  O2-  O448  1  0.65533422  0.50470386  0.34660581  1
  O2-  O449  1  0.67094926  0.48776082  0.65781076  1
  O2-  O450  1  0.16112052  -0.00951863  -0.01540041  1
  O2-  O451  1  0.16074093  0.00615882  0.32933150  1
  O2-  O452  1  0.16712073  -0.00051129  0.65933060  1
  O2-  O453  1  0.16101166  0.51185188  -0.00741053  1
  O2-  O454  1  0.16682263  0.49737884  0.34510609  1
  O2-  O455  1  0.15812522  0.50038857  0.65284642  1
  O2-  O456  1  0.49231240  0.00192742  -0.01470166  1
  O2-  O457  1  0.49898219  0.00569299  0.32031299  1
  O2-  O458  1  0.49945317  0.00543410  0.65238760  1
  O2-  O459  1  0.50555638  0.48247545  0.00390007  1
  O2-  O460  1  0.48909206  0.49881100  0.31888172  1
  O2-  O461  1  0.50038551  0.49905915  0.66683731  1
  O2-  O462  1  0.83321716  0.01152271  -0.01541682  1
  O2-  O463  1  0.83816615  0.00396310  0.32990550  1
  O2-  O464  1  0.83612790  0.00868792  0.67043196  1
  O2-  O465  1  0.83631219  0.50179292  -0.00060598  1
  O2-  O466  1  0.82899300  0.51821237  0.33437922  1
  O2-  O467  1  0.84148574  0.49172766  0.66564043  1
  O2-  O468  1  0.58507712  0.74893872  0.58611914  1
  O2-  O469  1  0.92455127  0.75172525  0.93478857  1
  O2-  O470  1  0.74575029  0.75508903  0.41160852  1
  O2-  O471  1  0.74454461  0.24500766  0.39678989  1
  O2-  O472  1  0.75267845  0.25301969  0.07571640  1
  O2-  O473  1  0.25599477  0.74891674  0.26881577  1
  O2-  O474  1  0.92010349  0.74723521  0.59941646  1
  O2-  O475  1  0.75050477  0.75486555  0.07222251  1
  O2-  O476  1  0.25006716  0.74874645  0.93731229  1
  O2-  O477  1  0.58601354  0.25548846  0.59477417  1
  O2-  O478  1  0.40677769  0.74857339  0.06592004  1
  O2-  O479  1  0.24554195  0.25003531  0.60038682  1
  O2-  O480  1  0.08782875  0.24869898  0.07544789  1
  O2-  O481  1  0.40907336  0.24928762  0.73125713  1
  O2-  O482  1  0.41208671  0.75085888  0.39681505  1
  O2-  O483  1  0.59151687  0.25020307  0.26512775  1
  O2-  O484  1  0.92270297  0.24920505  0.25923522  1
  O2-  O485  1  0.24963826  0.25635949  0.92435792  1
  O2-  O486  1  0.23743387  0.25230774  0.27123774  1
  O2-  O487  1  0.09523279  0.25573847  0.73751332  1
  O2-  O488  1  0.58117508  0.75609520  0.25881258  1
  O2-  O489  1  0.07588357  0.74773799  0.73843727  1
  O2-  O490  1  0.41432634  0.25628078  0.40866897  1
  O2-  O491  1  0.74940811  0.25270220  0.73098733  1
  O2-  O492  1  0.08829328  0.25378143  0.39063565  1
