# generated using pymatgen
data_Ca108Mn108O277
_symmetry_space_group_name_H-M   'P 1'
_cell_length_a   16.02722889
_cell_length_b   22.30471030
_cell_length_c   16.38823829
_cell_angle_alpha   90.00017426
_cell_angle_beta   89.99822721
_cell_angle_gamma   89.99905714
_symmetry_Int_Tables_number   1
_chemical_formula_structural   Ca108Mn108O277
_chemical_formula_sum   'Ca108 Mn108 O277'
_cell_volume   5858.51162346
_cell_formula_units_Z   1
loop_
 _symmetry_equiv_pos_site_id
 _symmetry_equiv_pos_as_xyz
  1  'x, y, z'
loop_
 _atom_type_symbol
 _atom_type_oxidation_number
  Ca2+  2.0
  Mn3.34+  3.34
  O2-  -2.0
loop_
 _atom_site_type_symbol
 _atom_site_label
 _atom_site_symmetry_multiplicity
 _atom_site_fract_x
 _atom_site_fract_y
 _atom_site_fract_z
 _atom_site_occupancy
  Ca2+  Ca0  1  0.07169948  0.25159890  0.24392217  1
  Ca2+  Ca1  1  0.07877979  0.24836253  0.58620719  1
  Ca2+  Ca2  1  0.07099876  0.25413496  0.92139548  1
  Ca2+  Ca3  1  0.07717335  0.73531910  0.25058977  1
  Ca2+  Ca4  1  0.08838433  0.74311649  0.58773597  1
  Ca2+  Ca5  1  0.09279164  0.74946156  0.89964194  1
  Ca2+  Ca6  1  0.42519107  0.25614666  0.23680823  1
  Ca2+  Ca7  1  0.41313592  0.25931663  0.58968738  1
  Ca2+  Ca8  1  0.41884683  0.27157440  0.92291055  1
  Ca2+  Ca9  1  0.40195868  0.74925372  0.25733685  1
  Ca2+  Ca10  1  0.40808765  0.75353149  0.58244582  1
  Ca2+  Ca11  1  0.40691411  0.74749451  0.91089981  1
  Ca2+  Ca12  1  0.75195523  0.25703018  0.25679499  1
  Ca2+  Ca13  1  0.75215236  0.26057860  0.58653963  1
  Ca2+  Ca14  1  0.75754755  0.25997545  0.91396011  1
  Ca2+  Ca15  1  0.76864230  0.74202770  0.25176856  1
  Ca2+  Ca16  1  0.75859814  0.73267871  0.58758560  1
  Ca2+  Ca17  1  0.74835680  0.75342058  0.91238499  1
  Ca2+  Ca18  1  0.24600984  0.26204074  0.08069107  1
  Ca2+  Ca19  1  0.24159075  0.25523404  0.42262095  1
  Ca2+  Ca20  1  0.24820209  0.25658857  0.75188941  1
  Ca2+  Ca21  1  0.23944901  0.74318979  0.08313742  1
  Ca2+  Ca22  1  0.24516576  0.73949564  0.41601257  1
  Ca2+  Ca23  1  0.23572325  0.74086574  0.75181152  1
  Ca2+  Ca24  1  0.57488510  0.25228222  0.08621985  1
  Ca2+  Ca25  1  0.60360675  0.25431873  0.40792473  1
  Ca2+  Ca26  1  0.58929589  0.26014245  0.75295918  1
  Ca2+  Ca27  1  0.59208221  0.75079533  0.08220678  1
  Ca2+  Ca28  1  0.58008940  0.75258673  0.41952742  1
  Ca2+  Ca29  1  0.58147315  0.74749874  0.74907517  1
  Ca2+  Ca30  1  0.92181697  0.26307330  0.08380687  1
  Ca2+  Ca31  1  0.91025749  0.26088949  0.40821597  1
  Ca2+  Ca32  1  0.91343607  0.25071382  0.75465634  1
  Ca2+  Ca33  1  0.91568526  0.73766775  0.11159037  1
  Ca2+  Ca34  1  0.92453173  0.72373345  0.40441163  1
  Ca2+  Ca35  1  0.93293815  0.74486643  0.73866405  1
  Ca2+  Ca36  1  0.91477969  0.10137429  0.75449904  1
  Ca2+  Ca37  1  0.24419558  0.07304472  0.07374877  1
  Ca2+  Ca38  1  0.42118428  0.09699784  0.24183606  1
  Ca2+  Ca39  1  0.39994907  0.07737172  0.59068527  1
  Ca2+  Ca40  1  0.42301268  0.60096871  0.58419574  1
  Ca2+  Ca41  1  0.07132683  0.59631279  0.24397721  1
  Ca2+  Ca42  1  0.07021911  0.09844830  0.58436853  1
  Ca2+  Ca43  1  0.11983062  0.61159296  0.93239923  1
  Ca2+  Ca44  1  0.56773375  0.09568446  0.09008421  1
  Ca2+  Ca45  1  0.25483840  0.08275670  0.75295879  1
  Ca2+  Ca46  1  0.77272609  0.09567019  0.58638740  1
  Ca2+  Ca47  1  0.40849667  0.09632235  0.24131689  1
  Ca2+  Ca48  1  0.08017723  0.07311202  0.93889381  1
  Ca2+  Ca49  1  0.38685571  0.60430039  0.92027806  1
  Ca2+  Ca50  1  0.92704948  0.60716264  0.72118960  1
  Ca2+  Ca51  1  0.58662155  0.58923295  0.42463211  1
  Ca2+  Ca52  1  0.91757644  0.10535587  0.42147147  1
  Ca2+  Ca53  1  0.94176271  0.08824047  0.07842540  1
  Ca2+  Ca54  1  0.78023206  0.58933478  0.24587132  1
  Ca2+  Ca55  1  0.23238501  0.60900118  0.08702511  1
  Ca2+  Ca56  1  0.24205871  0.08229704  0.75275828  1
  Ca2+  Ca57  1  0.77317258  0.58457664  0.24169969  1
  Ca2+  Ca58  1  0.59032711  0.08213251  0.74383668  1
  Ca2+  Ca59  1  0.06282570  0.61230740  0.57987266  1
  Ca2+  Ca60  1  0.11752897  0.60519075  0.92786800  1
  Ca2+  Ca61  1  0.59718758  0.09553987  0.39093720  1
  Ca2+  Ca62  1  0.73666131  0.58345392  0.92953919  1
  Ca2+  Ca63  1  0.72622781  0.58340798  0.93097715  1
  Ca2+  Ca64  1  0.23467834  0.07116086  0.07744193  1
  Ca2+  Ca65  1  0.05952624  0.10085451  0.58350792  1
  Ca2+  Ca66  1  0.92726704  0.10853428  0.42449564  1
  Ca2+  Ca67  1  0.95770834  0.59387721  0.09192326  1
  Ca2+  Ca68  1  0.41111407  0.07358194  0.59420280  1
  Ca2+  Ca69  1  0.23821564  0.61355162  0.76244553  1
  Ca2+  Ca70  1  0.58282160  0.59640477  0.74641414  1
  Ca2+  Ca71  1  0.78079519  0.10072604  0.59014852  1
  Ca2+  Ca72  1  0.09472489  0.91897273  0.92887476  1
  Ca2+  Ca73  1  0.24089183  0.40875036  0.40014775  1
  Ca2+  Ca74  1  0.24533119  0.90551681  0.75845912  1
  Ca2+  Ca75  1  0.75737629  0.89730410  0.58492333  1
  Ca2+  Ca76  1  0.93930479  0.91612807  0.07295086  1
  Ca2+  Ca77  1  0.91411342  0.89821534  0.75181880  1
  Ca2+  Ca78  1  0.57912119  0.40941255  0.08453375  1
  Ca2+  Ca79  1  0.59793140  0.41065628  0.40948806  1
  Ca2+  Ca80  1  0.25876516  0.91763192  0.07076900  1
  Ca2+  Ca81  1  0.26046449  0.40430536  0.75511576  1
  Ca2+  Ca82  1  0.90535355  0.40016417  0.75581740  1
  Ca2+  Ca83  1  0.74718916  0.41511270  0.93193951  1
  Ca2+  Ca84  1  0.75365642  0.90218858  0.24933809  1
  Ca2+  Ca85  1  0.07889592  0.42253814  0.95598362  1
  Ca2+  Ca86  1  0.92938519  0.91248675  0.07133967  1
  Ca2+  Ca87  1  0.25271962  0.89960859  0.42173675  1
  Ca2+  Ca88  1  0.74074882  0.90649522  0.91508641  1
  Ca2+  Ca89  1  0.08499013  0.89708073  0.58140814  1
  Ca2+  Ca90  1  0.24764809  0.91786210  0.07098343  1
  Ca2+  Ca91  1  0.58676600  0.40898773  0.75360974  1
  Ca2+  Ca92  1  0.25649310  0.90569103  0.75847090  1
  Ca2+  Ca93  1  0.40954151  0.91973156  0.93393513  1
  Ca2+  Ca94  1  0.09523180  0.90700036  0.24879471  1
  Ca2+  Ca95  1  0.56928084  0.90645758  0.07242866  1
  Ca2+  Ca96  1  0.43386511  0.41155811  0.58285054  1
  Ca2+  Ca97  1  0.07800000  0.41333301  0.23681259  1
  Ca2+  Ca98  1  0.40632629  0.90562674  0.24809461  1
  Ca2+  Ca99  1  0.42211097  0.41371116  0.58632490  1
  Ca2+  Ca100  1  0.92164138  0.89758137  0.42295976  1
  Ca2+  Ca101  1  0.58266962  0.89974345  0.74741691  1
  Ca2+  Ca102  1  0.07239657  0.40239282  0.57181037  1
  Ca2+  Ca103  1  0.08481706  0.40162985  0.57352799  1
  Ca2+  Ca104  1  0.58819313  0.41263000  0.08746859  1
  Ca2+  Ca105  1  0.08953188  0.42225518  0.95613304  1
  Ca2+  Ca106  1  0.74468798  0.89646914  0.58388741  1
  Ca2+  Ca107  1  0.74360072  0.89837011  0.25450492  1
  Mn3.34+  Mn108  1  0.08444188  0.33397389  0.09037631  1
  Mn3.34+  Mn109  1  0.07903015  0.33865985  0.41159332  1
  Mn3.34+  Mn110  1  0.08326203  0.33055543  0.75529737  1
  Mn3.34+  Mn111  1  0.08422434  0.83068367  0.08558703  1
  Mn3.34+  Mn112  1  0.08537038  0.82847613  0.41513756  1
  Mn3.34+  Mn113  1  0.08271926  0.83120421  0.75129158  1
  Mn3.34+  Mn114  1  0.41022140  0.33864797  0.08698647  1
  Mn3.34+  Mn115  1  0.41780086  0.33314525  0.41227401  1
  Mn3.34+  Mn116  1  0.41906968  0.33528974  0.75490704  1
  Mn3.34+  Mn117  1  0.41545870  0.83040433  0.08778274  1
  Mn3.34+  Mn118  1  0.41772555  0.83372949  0.41876698  1
  Mn3.34+  Mn119  1  0.41649910  0.82998727  0.75017332  1
  Mn3.34+  Mn120  1  0.75248922  0.33978856  0.08898820  1
  Mn3.34+  Mn121  1  0.75681693  0.34020189  0.41799621  1
  Mn3.34+  Mn122  1  0.74892778  0.33514786  0.75046587  1
  Mn3.34+  Mn123  1  0.75033440  0.83075769  0.08292797  1
  Mn3.34+  Mn124  1  0.74715481  0.82532443  0.41960007  1
  Mn3.34+  Mn125  1  0.74806358  0.82973774  0.75498429  1
  Mn3.34+  Mn126  1  0.25221175  0.32797240  0.24856291  1
  Mn3.34+  Mn127  1  0.24955314  0.33059570  0.58072273  1
  Mn3.34+  Mn128  1  0.25169290  0.33737105  0.91981941  1
  Mn3.34+  Mn129  1  0.24789117  0.83067774  0.24952829  1
  Mn3.34+  Mn130  1  0.25299239  0.83260934  0.58073048  1
  Mn3.34+  Mn131  1  0.25133424  0.83001142  0.91575291  1
  Mn3.34+  Mn132  1  0.58416705  0.33520570  0.25077710  1
  Mn3.34+  Mn133  1  0.59003465  0.33652678  0.58011884  1
  Mn3.34+  Mn134  1  0.58270783  0.33655565  0.91654496  1
  Mn3.34+  Mn135  1  0.57823421  0.83017083  0.25219278  1
  Mn3.34+  Mn136  1  0.57567450  0.83334788  0.57948155  1
  Mn3.34+  Mn137  1  0.57632632  0.83409561  0.91466198  1
  Mn3.34+  Mn138  1  0.91155122  0.33816244  0.24806504  1
  Mn3.34+  Mn139  1  0.91172026  0.33372618  0.57891785  1
  Mn3.34+  Mn140  1  0.91492818  0.33509354  0.92049268  1
  Mn3.34+  Mn141  1  0.92306966  0.82962290  0.25110402  1
  Mn3.34+  Mn142  1  0.92021313  0.82283478  0.58042889  1
  Mn3.34+  Mn143  1  0.91669333  0.83492844  0.91460855  1
  Mn3.34+  Mn144  1  0.57028236  0.65834430  0.24565391  1
  Mn3.34+  Mn145  1  0.41743613  0.17569882  0.41410891  1
  Mn3.34+  Mn146  1  0.58859687  0.16838812  0.58221160  1
  Mn3.34+  Mn147  1  0.58421504  0.66418659  0.24725756  1
  Mn3.34+  Mn148  1  0.40888105  0.16958951  0.41695702  1
  Mn3.34+  Mn149  1  0.92001348  0.66129306  0.91426207  1
  Mn3.34+  Mn150  1  0.41531877  0.66847563  0.75191432  1
  Mn3.34+  Mn151  1  0.91935578  0.17055986  0.24539668  1
  Mn3.34+  Mn152  1  0.25953073  0.16236102  0.91580375  1
  Mn3.34+  Mn153  1  0.75010798  0.66290213  0.08597850  1
  Mn3.34+  Mn154  1  0.75236592  0.17059600  0.41249162  1
  Mn3.34+  Mn155  1  0.24852180  0.16714136  0.58001107  1
  Mn3.34+  Mn156  1  0.41380892  0.16944268  0.08553110  1
  Mn3.34+  Mn157  1  0.75429859  0.66372912  0.42406286  1
  Mn3.34+  Mn158  1  0.57516904  0.66767982  0.91883100  1
  Mn3.34+  Mn159  1  0.75375866  0.16847255  0.75662615  1
  Mn3.34+  Mn160  1  0.25082981  0.66791079  0.25217432  1
  Mn3.34+  Mn161  1  0.41428193  0.66635650  0.08644102  1
  Mn3.34+  Mn162  1  0.08052316  0.16770610  0.75612305  1
  Mn3.34+  Mn163  1  0.09101719  0.17004707  0.41195657  1
  Mn3.34+  Mn164  1  0.23931171  0.16791105  0.24834568  1
  Mn3.34+  Mn165  1  0.24991950  0.66877019  0.58137503  1
  Mn3.34+  Mn166  1  0.41615310  0.16792985  0.75097115  1
  Mn3.34+  Mn167  1  0.74753168  0.66654046  0.74983800  1
  Mn3.34+  Mn168  1  0.08451425  0.65543809  0.41708039  1
  Mn3.34+  Mn169  1  0.58575189  0.15972129  0.91316169  1
  Mn3.34+  Mn170  1  0.74503375  0.16831370  0.08729231  1
  Mn3.34+  Mn171  1  0.75452008  0.16286562  0.08853263  1
  Mn3.34+  Mn172  1  0.91669063  0.16649494  0.91926257  1
  Mn3.34+  Mn173  1  0.58525409  0.66527746  0.57962052  1
  Mn3.34+  Mn174  1  0.57523476  0.16466365  0.91424892  1
  Mn3.34+  Mn175  1  0.41199425  0.66648182  0.41819126  1
  Mn3.34+  Mn176  1  0.24764193  0.16779748  0.91772799  1
  Mn3.34+  Mn177  1  0.08334067  0.16766812  0.08645811  1
  Mn3.34+  Mn178  1  0.57800376  0.16346521  0.57868362  1
  Mn3.34+  Mn179  1  0.91030420  0.66658715  0.91626641  1
  Mn3.34+  Mn180  1  0.56786399  0.49972464  0.92459973  1
  Mn3.34+  Mn181  1  0.25011660  0.50418333  0.24750291  1
  Mn3.34+  Mn182  1  0.58406268  0.00054811  0.57738002  1
  Mn3.34+  Mn183  1  0.92281854  0.49274787  0.27015083  1
  Mn3.34+  Mn184  1  0.24879949  0.00031500  0.26259324  1
  Mn3.34+  Mn185  1  0.91391976  0.00772888  0.25447119  1
  Mn3.34+  Mn186  1  0.42534682  -0.00085753  0.75874903  1
  Mn3.34+  Mn187  1  0.25994572  0.49756832  0.92317705  1
  Mn3.34+  Mn188  1  0.75106120  0.00353395  0.74659854  1
  Mn3.34+  Mn189  1  0.08924803  -0.00288781  0.41966734  1
  Mn3.34+  Mn190  1  0.91488877  0.50201829  0.92232846  1
  Mn3.34+  Mn191  1  0.59694945  0.50019675  0.59297018  1
  Mn3.34+  Mn192  1  0.26055728  0.49944100  0.24829806  1
  Mn3.34+  Mn193  1  0.07284664  0.49812955  0.75094779  1
  Mn3.34+  Mn194  1  0.90688787  0.50789216  0.57025295  1
  Mn3.34+  Mn195  1  0.59004451  0.00304732  0.24874583  1
  Mn3.34+  Mn196  1  0.89872562  0.50082923  0.57215498  1
  Mn3.34+  Mn197  1  0.07247888  0.00088071  0.75262506  1
  Mn3.34+  Mn198  1  0.41513772  -0.00203679  0.41237900  1
  Mn3.34+  Mn199  1  0.74970748  -0.00485937  0.41906094  1
  Mn3.34+  Mn200  1  0.41702790  0.50437228  0.41024746  1
  Mn3.34+  Mn201  1  0.74655720  0.00140188  0.08067794  1
  Mn3.34+  Mn202  1  0.91165446  0.00289716  0.91901799  1
  Mn3.34+  Mn203  1  0.92796795  0.00183217  0.25468496  1
  Mn3.34+  Mn204  1  0.23838625  0.50251673  0.56566865  1
  Mn3.34+  Mn205  1  0.57853584  0.50130902  0.26211271  1
  Mn3.34+  Mn206  1  0.08814744  0.50299836  0.75225552  1
  Mn3.34+  Mn207  1  0.25056159  0.50683991  0.56714493  1
  Mn3.34+  Mn208  1  0.75333993  0.50216544  0.41635550  1
  Mn3.34+  Mn209  1  0.57621958  -0.00037696  0.93051410  1
  Mn3.34+  Mn210  1  0.74790402  0.50050433  0.74095823  1
  Mn3.34+  Mn211  1  0.41634637  0.50241626  0.74535247  1
  Mn3.34+  Mn212  1  0.92174535  -0.00443116  0.57797323  1
  Mn3.34+  Mn213  1  0.57716661  -0.00389749  0.25166373  1
  Mn3.34+  Mn214  1  0.24039573  -0.00069228  0.57998785  1
  Mn3.34+  Mn215  1  0.41278489  0.50168675  0.08405179  1
  O2-  O216  1  0.00637680  0.15311814  -0.00343502  1
  O2-  O217  1  0.00068580  0.16471631  0.33570456  1
  O2-  O218  1  0.00204132  0.15998503  0.67143189  1
  O2-  O219  1  0.00441336  0.65980924  -0.00816674  1
  O2-  O220  1  0.00888519  0.65677961  0.33679661  1
  O2-  O221  1  -0.00602528  0.68080415  0.65726670  1
  O2-  O222  1  0.32318570  0.14692275  0.01231656  1
  O2-  O223  1  0.32655707  0.16326043  0.33307158  1
  O2-  O224  1  0.33075449  0.14759375  0.66478581  1
  O2-  O225  1  0.33749345  0.67807567  0.00644089  1
  O2-  O226  1  0.33475687  0.66323686  0.33597037  1
  O2-  O227  1  0.33472332  0.65129907  0.66991757  1
  O2-  O228  1  0.66364709  0.14969558  0.00144566  1
  O2-  O229  1  0.66468017  0.17187873  0.34202344  1
  O2-  O230  1  0.67142316  0.14439710  0.66770350  1
  O2-  O231  1  0.66922955  0.66364072  -0.00439621  1
  O2-  O232  1  0.66543207  0.64229301  0.32590601  1
  O2-  O233  1  0.66219526  0.67195897  0.67002628  1
  O2-  O234  1  0.16596252  0.15170466  -0.00362906  1
  O2-  O235  1  0.16545603  0.19743880  0.33088864  1
  O2-  O236  1  0.16280614  0.14095474  0.66963488  1
  O2-  O237  1  0.16572556  0.67996378  0.00243885  1
  O2-  O238  1  0.16645286  0.65375150  0.32703363  1
  O2-  O239  1  0.16952491  0.65604898  0.65749189  1
  O2-  O240  1  0.49851476  0.15296959  -0.00139425  1
  O2-  O241  1  0.49304010  0.16037621  0.32879112  1
  O2-  O242  1  0.49415998  0.14339511  0.65903049  1
  O2-  O243  1  0.49830782  0.68905788  0.00105928  1
  O2-  O244  1  0.50393208  0.65315962  0.33939097  1
  O2-  O245  1  0.50404049  0.66363815  0.66705874  1
  O2-  O246  1  0.83698637  0.14777877  0.01311787  1
  O2-  O247  1  0.83871496  0.15490175  0.33456898  1
  O2-  O248  1  0.83441213  0.16547446  0.67223227  1
  O2-  O249  1  0.83616966  0.64259971  0.00009981  1
  O2-  O250  1  0.82340900  0.65410600  0.33379941  1
  O2-  O251  1  0.83223071  0.66954657  0.67860866  1
  O2-  O252  1  0.00379188  0.34238093  -0.00272870  1
  O2-  O253  1  0.00410697  0.33112392  0.32830570  1
  O2-  O254  1  0.00191843  0.34019564  0.66086007  1
  O2-  O255  1  0.00423363  0.84524591  -0.00384820  1
  O2-  O256  1  0.00468541  0.85071840  0.32892961  1
  O2-  O257  1  -0.00077539  0.84111125  0.66767546  1
  O2-  O258  1  0.33357606  0.33987824  0.00033783  1
  O2-  O259  1  0.33238575  0.30963167  0.33565930  1
  O2-  O260  1  0.33845532  0.34974568  0.65927734  1
  O2-  O261  1  0.33156282  0.83047296  0.00202500  1
  O2-  O262  1  0.33118999  0.84570369  0.32806608  1
  O2-  O263  1  0.33112744  0.85071679  0.67051842  1
  O2-  O264  1  0.66183556  0.34413073  0.00157996  1
  O2-  O265  1  0.66350117  0.33481576  0.33570945  1
  O2-  O266  1  0.66464121  0.34659169  0.67103365  1
  O2-  O267  1  0.66265467  0.83820214  -0.00103742  1
  O2-  O268  1  0.66562042  0.84870670  0.33545219  1
  O2-  O269  1  0.66699186  0.83356729  0.66851856  1
  O2-  O270  1  0.16253574  0.33965842  -0.00285366  1
  O2-  O271  1  0.17000951  0.32821981  0.33789615  1
  O2-  O272  1  0.16630369  0.35421071  0.66598804  1
  O2-  O273  1  0.16763547  0.83107307  0.00004630  1
  O2-  O274  1  0.16972122  0.84939682  0.33399057  1
  O2-  O275  1  0.16959204  0.84791883  0.67157881  1
  O2-  O276  1  0.50473168  0.34644197  0.00477045  1
  O2-  O277  1  0.50361270  0.30981964  0.33576638  1
  O2-  O278  1  0.50164342  0.34938629  0.66559004  1
  O2-  O279  1  0.49485471  0.82985958  -0.00037850  1
  O2-  O280  1  0.49225282  0.84472782  0.32638311  1
  O2-  O281  1  0.50531496  0.83425529  0.67347467  1
  O2-  O282  1  0.82782199  0.34470006  -0.00405889  1
  O2-  O283  1  0.83488286  0.33940100  0.33353358  1
  O2-  O284  1  0.83996691  0.32794619  0.67011053  1
  O2-  O285  1  0.83607879  0.85756338  0.00199166  1
  O2-  O286  1  0.83528265  0.84848678  0.33149055  1
  O2-  O287  1  0.83318886  0.83649485  0.66752830  1
  O2-  O288  1  -0.00461138  0.18316652  0.15914967  1
  O2-  O289  1  0.00386690  0.17795891  0.49480750  1
  O2-  O290  1  -0.00066722  0.18480278  0.83082960  1
  O2-  O291  1  0.00535849  0.67271113  0.16449202  1
  O2-  O292  1  0.01367943  0.68403219  0.49528727  1
  O2-  O293  1  -0.00680946  0.68005910  0.83175300  1
  O2-  O294  1  0.33619910  0.18288043  0.17602538  1
  O2-  O295  1  0.33813835  0.19273555  0.50204636  1
  O2-  O296  1  0.32534059  0.18186951  0.82653964  1
  O2-  O297  1  0.33222549  0.68731325  0.16389954  1
  O2-  O298  1  0.34061408  0.68311214  0.50609089  1
  O2-  O299  1  0.33611117  0.67837846  0.82905016  1
  O2-  O300  1  0.66161312  0.18450204  0.15795828  1
  O2-  O301  1  0.68010951  0.17596666  0.50828254  1
  O2-  O302  1  0.66402187  0.17780947  0.83185808  1
  O2-  O303  1  0.66598137  0.68188856  0.16742183  1
  O2-  O304  1  0.66178471  0.68398910  0.49714595  1
  O2-  O305  1  0.66198572  0.67965803  0.83910888  1
  O2-  O306  1  0.17205876  0.18480916  0.15959841  1
  O2-  O307  1  0.15849951  0.17995781  0.50702409  1
  O2-  O308  1  0.17241555  0.17945345  0.82632879  1
  O2-  O309  1  0.17215885  0.67932702  0.17323304  1
  O2-  O310  1  0.17007564  0.68227471  0.50255093  1
  O2-  O311  1  0.16986564  0.67843755  0.84519333  1
  O2-  O312  1  0.49365324  0.17955253  0.16275619  1
  O2-  O313  1  0.50489448  0.19559668  0.48824281  1
  O2-  O314  1  0.50731206  0.18031194  0.82220853  1
  O2-  O315  1  0.49816421  0.68842650  0.16615352  1
  O2-  O316  1  0.50057814  0.68320993  0.50407297  1
  O2-  O317  1  0.49977530  0.68547885  0.83369063  1
  O2-  O318  1  0.83159985  0.18270924  0.17045791  1
  O2-  O319  1  0.83741097  0.17130450  0.49777264  1
  O2-  O320  1  0.83534781  0.18376196  0.83368222  1
  O2-  O321  1  0.82829227  0.66823157  0.16789413  1
  O2-  O322  1  0.83067302  0.68474899  0.49320907  1
  O2-  O323  1  0.82293008  0.67260142  0.84385080  1
  O2-  O324  1  0.00165453  0.32405670  0.16880719  1
  O2-  O325  1  0.00281131  0.31575849  0.50237966  1
  O2-  O326  1  -0.00368227  0.31891793  0.83023228  1
  O2-  O327  1  -0.00396377  0.81585391  0.15914122  1
  O2-  O328  1  -0.00004248  0.81635031  0.49770505  1
  O2-  O329  1  -0.00286360  0.82239195  0.83085464  1
  O2-  O330  1  0.33186427  0.31317379  0.16728067  1
  O2-  O331  1  0.33289344  0.31983979  0.49822628  1
  O2-  O332  1  0.32939592  0.32362419  0.82833354  1
  O2-  O333  1  0.33258443  0.81634740  0.16636755  1
  O2-  O334  1  0.32625423  0.81809237  0.49367615  1
  O2-  O335  1  0.32743255  0.81702782  0.82991710  1
  O2-  O336  1  0.66365978  0.31728573  0.16432247  1
  O2-  O337  1  0.66589669  0.31924077  0.49840644  1
  O2-  O338  1  0.66839372  0.32470852  0.83735141  1
  O2-  O339  1  0.67255288  0.82091437  0.17377281  1
  O2-  O340  1  0.66990963  0.81468070  0.51141515  1
  O2-  O341  1  0.66183777  0.82199705  0.83573041  1
  O2-  O342  1  0.16320010  0.31573669  0.17328449  1
  O2-  O343  1  0.15795056  0.31608011  0.50504125  1
  O2-  O344  1  0.16768236  0.32039965  0.83211851  1
  O2-  O345  1  0.16504917  0.81831137  0.16636770  1
  O2-  O346  1  0.16327091  0.82013233  0.50420273  1
  O2-  O347  1  0.17180599  0.82197977  0.83067075  1
  O2-  O348  1  0.50634707  0.32084540  0.16435120  1
  O2-  O349  1  0.49410183  0.32383830  0.50488819  1
  O2-  O350  1  0.50460822  0.32077353  0.83064197  1
  O2-  O351  1  0.50217004  0.81654414  0.16024354  1
  O2-  O352  1  0.49706192  0.81377963  0.50153134  1
  O2-  O353  1  0.49747789  0.81465943  0.83316030  1
  O2-  O354  1  0.83236857  0.32130661  0.16651960  1
  O2-  O355  1  0.83375680  0.31477080  0.50180283  1
  O2-  O356  1  0.83624706  0.32397337  0.83166734  1
  O2-  O357  1  0.83286615  0.82841497  0.17205449  1
  O2-  O358  1  0.82962836  0.81407928  0.50713275  1
  O2-  O359  1  0.82865337  0.83178862  0.83792499  1
  O2-  O360  1  0.09417310  0.08498907  0.09836054  1
  O2-  O361  1  0.06688549  0.07930119  0.45083935  1
  O2-  O362  1  0.08701652  0.08332928  0.79161259  1
  O2-  O363  1  0.09582207  0.57580108  0.10228400  1
  O2-  O364  1  0.08796011  0.58196457  0.45062393  1
  O2-  O365  1  0.08630319  0.58012203  0.79409864  1
  O2-  O366  1  0.41578015  0.08538020  0.11112972  1
  O2-  O367  1  0.41717605  0.08303280  0.45654638  1
  O2-  O368  1  0.39698882  0.08384083  0.77927800  1
  O2-  O369  1  0.39794881  0.58281016  0.09954800  1
  O2-  O370  1  0.42745300  0.58245406  0.44773073  1
  O2-  O371  1  0.42916722  0.58342371  0.77950834  1
  O2-  O372  1  0.73477779  0.08161366  0.11591014  1
  O2-  O373  1  0.75963072  0.07984073  0.44850578  1
  O2-  O374  1  0.76380672  0.08379816  0.77426232  1
  O2-  O375  1  0.74702183  0.58121419  0.10563582  1
  O2-  O376  1  0.74017343  0.58010412  0.45110997  1
  O2-  O377  1  0.74166649  0.58036366  0.78307124  1
  O2-  O378  1  0.26508662  0.07988024  0.21397275  1
  O2-  O379  1  0.26237657  0.08294226  0.54855561  1
  O2-  O380  1  0.24219012  0.07884268  0.88900773  1
  O2-  O381  1  0.25812422  0.58400837  0.21844465  1
  O2-  O382  1  0.26261672  0.58705750  0.55317404  1
  O2-  O383  1  0.25518084  0.57524763  0.88826048  1
  O2-  O384  1  0.56110833  0.08122717  0.22115508  1
  O2-  O385  1  0.56821917  0.08131769  0.53176785  1
  O2-  O386  1  0.58186844  0.07572518  0.88021832  1
  O2-  O387  1  0.58223329  0.57876534  0.21348210  1
  O2-  O388  1  0.57635760  0.58041687  0.56241563  1
  O2-  O389  1  0.58815288  0.57836284  0.88671817  1
  O2-  O390  1  0.92351356  0.08582270  0.21665705  1
  O2-  O391  1  0.91909919  0.07960999  0.55370269  1
  O2-  O392  1  0.92776751  0.08228547  0.88971297  1
  O2-  O393  1  0.91094881  0.55879101  0.20965910  1
  O2-  O394  1  0.92044291  0.58646872  0.57281491  1
  O2-  O395  1  0.90914720  0.57783500  0.87076626  1
  O2-  O396  1  0.08874123  0.41661155  0.09553067  1
  O2-  O397  1  0.10469756  0.42095094  0.44588621  1
  O2-  O398  1  0.07374152  0.41654060  0.77794171  1
  O2-  O399  1  0.07018438  0.91818497  0.11358215  1
  O2-  O400  1  0.07339585  0.91683473  0.44959364  1
  O2-  O401  1  0.09739389  0.91865955  0.78227019  1
  O2-  O402  1  0.43157487  0.42037348  0.11397448  1
  O2-  O403  1  0.40545469  0.42376296  0.45014095  1
  O2-  O404  1  0.41541359  0.41956162  0.77188411  1
  O2-  O405  1  0.40713720  0.91021706  0.10243897  1
  O2-  O406  1  0.40065838  0.91666234  0.43635776  1
  O2-  O407  1  0.40642756  0.91551769  0.78621451  1
  O2-  O408  1  0.72591246  0.41867803  0.09636843  1
  O2-  O409  1  0.73994398  0.42223556  0.44405964  1
  O2-  O410  1  0.75709156  0.42128275  0.77982610  1
  O2-  O411  1  0.74780600  0.92117241  0.11974825  1
  O2-  O412  1  0.75991683  0.91226685  0.45266667  1
  O2-  O413  1  0.74280936  0.91904323  0.76395762  1
  O2-  O414  1  0.24819337  0.41615508  0.24147455  1
  O2-  O415  1  0.24072527  0.41890697  0.54380593  1
  O2-  O416  1  0.22567406  0.42095717  0.89069236  1
  O2-  O417  1  0.25129658  0.91990109  0.21050494  1
  O2-  O418  1  0.23437054  0.91619574  0.55767944  1
  O2-  O419  1  0.25434217  0.92033045  0.89433773  1
  O2-  O420  1  0.57998970  0.42248629  0.22465016  1
  O2-  O421  1  0.56998227  0.42093494  0.54646784  1
  O2-  O422  1  0.58430200  0.42110265  0.88979550  1
  O2-  O423  1  0.58788285  0.91887142  0.20921882  1
  O2-  O424  1  0.60933693  0.91891693  0.57334416  1
  O2-  O425  1  0.57689307  0.92428209  0.88143294  1
  O2-  O426  1  0.92954053  0.42122881  0.22651932  1
  O2-  O427  1  0.93560458  0.42136138  0.55185084  1
  O2-  O428  1  0.93187194  0.42157900  0.89337101  1
  O2-  O429  1  0.92001164  0.92231492  0.20992633  1
  O2-  O430  1  0.90272284  0.91411646  0.56218236  1
  O2-  O431  1  0.91726379  0.92278138  0.88582412  1
  O2-  O432  1  0.00436143  -0.00751956  -0.01337851  1
  O2-  O433  1  -0.01288785  0.00410399  0.35538938  1
  O2-  O434  1  0.01498807  0.01438586  0.64798011  1
  O2-  O435  1  0.01319213  0.51329091  -0.02986731  1
  O2-  O436  1  0.01475115  0.50325630  0.31164217  1
  O2-  O437  1  0.01083505  0.50535529  0.64764183  1
  O2-  O438  1  0.32036137  -0.00247437  0.03838339  1
  O2-  O439  1  0.36229283  0.00559535  0.29930426  1
  O2-  O440  1  0.33326057  0.01064105  0.66862287  1
  O2-  O441  1  0.34984841  0.50780840  -0.01437643  1
  O2-  O442  1  0.31900716  0.49687514  0.34934022  1
  O2-  O443  1  0.32636265  0.48745003  0.65848222  1
  O2-  O444  1  0.66577092  -0.01787324  -0.00109866  1
  O2-  O445  1  0.67367563  -0.00287582  0.32833129  1
  O2-  O446  1  0.67031501  0.01808549  0.66022808  1
  O2-  O447  1  0.66518788  0.49926878  -0.02694915  1
  O2-  O448  1  0.67321855  0.51011522  0.33074923  1
  O2-  O449  1  0.63638697  0.50044570  0.70921974  1
  O2-  O450  1  0.17207212  -0.00826046  0.02211506  1
  O2-  O451  1  0.16335926  -0.01972307  0.33404827  1
  O2-  O452  1  0.17994284  0.00635710  0.69048196  1
  O2-  O453  1  0.15877670  0.50935306  -0.03250947  1
  O2-  O454  1  0.15637913  0.49727949  0.30815444  1
  O2-  O455  1  0.16573905  0.49135816  0.66221843  1
  O2-  O456  1  0.50048515  -0.01443281  0.00349249  1
  O2-  O457  1  0.51232738  0.01716028  0.34515846  1
  O2-  O458  1  0.50057786  0.01639973  0.66400079  1
  O2-  O459  1  0.51846392  0.49531411  0.02841776  1
  O2-  O460  1  0.52284935  0.49583286  0.36892663  1
  O2-  O461  1  0.48336999  0.49440993  0.64239661  1
  O2-  O462  1  0.85219086  -0.00726530  0.02677170  1
  O2-  O463  1  0.82922647  -0.01994446  0.32645048  1
  O2-  O464  1  0.83127474  0.00919150  0.65547264  1
  O2-  O465  1  0.81282484  0.50391441  -0.03669806  1
  O2-  O466  1  0.83226633  0.51005275  0.32724036  1
  O2-  O467  1  0.85025904  0.49882547  0.68270735  1
  O2-  O468  1  0.08169117  0.25009772  0.05970456  1
  O2-  O469  1  0.73674998  0.24943852  0.73063791  1
  O2-  O470  1  0.58798261  0.74390048  0.27932343  1
  O2-  O471  1  0.24687916  0.24820411  0.61487137  1
  O2-  O472  1  0.91444632  0.25032149  0.94289474  1
  O2-  O473  1  0.58121394  0.25090275  0.61329020  1
  O2-  O474  1  0.25442641  0.24894279  0.93903107  1
  O2-  O475  1  0.58205621  0.24884052  0.93938342  1
  O2-  O476  1  0.75765565  0.25189042  0.40010241  1
  O2-  O477  1  0.74058499  0.74703675  0.38609821  1
  O2-  O478  1  0.41696177  0.25045936  0.72466561  1
  O2-  O479  1  0.09311677  0.75125815  0.38735004  1
  O2-  O480  1  0.76259155  0.74828226  0.06095864  1
  O2-  O481  1  0.91597285  0.75199104  0.26728911  1
  O2-  O482  1  0.41896539  0.25091534  0.05720389  1
  O2-  O483  1  0.09405742  0.24926149  0.72421331  1
  O2-  O484  1  0.41020720  0.74993375  0.72297221  1
  O2-  O485  1  0.41966685  0.75021313  0.39323322  1
  O2-  O486  1  0.24855707  0.75137998  0.27726238  1
  O2-  O487  1  0.08701573  0.75376292  0.73519500  1
  O2-  O488  1  0.75395190  0.24919224  0.05441815  1
  O2-  O489  1  0.75517515  0.74978913  0.74791061  1
  O2-  O490  1  0.91198158  0.25107512  0.26704157  1
  O2-  O491  1  0.25366518  0.75144806  0.61119633  1
  O2-  O492  1  0.90135134  0.75099677  0.94121859  1
