# generated using pymatgen
data_Ca108Mn108O277
_symmetry_space_group_name_H-M   'P 1'
_cell_length_a   16.02595111
_cell_length_b   22.30466102
_cell_length_c   16.38924746
_cell_angle_alpha   90.00141008
_cell_angle_beta   90.00163131
_cell_angle_gamma   89.99537059
_symmetry_Int_Tables_number   1
_chemical_formula_structural   Ca108Mn108O277
_chemical_formula_sum   'Ca108 Mn108 O277'
_cell_volume   5858.39231836
_cell_formula_units_Z   1
loop_
 _symmetry_equiv_pos_site_id
 _symmetry_equiv_pos_as_xyz
  1  'x, y, z'
loop_
 _atom_type_symbol
 _atom_type_oxidation_number
  Ca2+  2.0
  Mn3.34+  3.34
  O2-  -2.0
loop_
 _atom_site_type_symbol
 _atom_site_label
 _atom_site_symmetry_multiplicity
 _atom_site_fract_x
 _atom_site_fract_y
 _atom_site_fract_z
 _atom_site_occupancy
  Ca2+  Ca0  1  0.06127956  0.24868844  0.25350516  1
  Ca2+  Ca1  1  0.10381756  0.25017907  0.58534686  1
  Ca2+  Ca2  1  0.07874315  0.25694060  0.91365044  1
  Ca2+  Ca3  1  0.08928127  0.76050305  0.24442692  1
  Ca2+  Ca4  1  0.09796313  0.73727752  0.59133350  1
  Ca2+  Ca5  1  0.07653217  0.74934910  0.91504118  1
  Ca2+  Ca6  1  0.42737254  0.25197369  0.22575943  1
  Ca2+  Ca7  1  0.38810307  0.24242509  0.59251687  1
  Ca2+  Ca8  1  0.41767299  0.24172798  0.92148967  1
  Ca2+  Ca9  1  0.42995822  0.74733275  0.26876469  1
  Ca2+  Ca10  1  0.39876155  0.73156497  0.58349662  1
  Ca2+  Ca11  1  0.41006489  0.75474649  0.89663112  1
  Ca2+  Ca12  1  0.77988645  0.22956286  0.24322472  1
  Ca2+  Ca13  1  0.74702441  0.26075010  0.58890216  1
  Ca2+  Ca14  1  0.75253470  0.24673974  0.93108815  1
  Ca2+  Ca15  1  0.73762037  0.76332826  0.25696041  1
  Ca2+  Ca16  1  0.74912671  0.74556599  0.59444988  1
  Ca2+  Ca17  1  0.76568645  0.75333770  0.90278514  1
  Ca2+  Ca18  1  0.27082221  0.24671719  0.07352943  1
  Ca2+  Ca19  1  0.23608620  0.25464989  0.43796808  1
  Ca2+  Ca20  1  0.25335318  0.24010450  0.73824720  1
  Ca2+  Ca21  1  0.21288699  0.74316024  0.08470713  1
  Ca2+  Ca22  1  0.24583406  0.76693456  0.42167148  1
  Ca2+  Ca23  1  0.24433087  0.73909201  0.73958175  1
  Ca2+  Ca24  1  0.57077523  0.23464650  0.06221848  1
  Ca2+  Ca25  1  0.58858870  0.26699421  0.41447481  1
  Ca2+  Ca26  1  0.57128747  0.25989158  0.75437947  1
  Ca2+  Ca27  1  0.59509121  0.75121559  0.10798718  1
  Ca2+  Ca28  1  0.58336494  0.75036433  0.40692188  1
  Ca2+  Ca29  1  0.60013839  0.74307801  0.74821603  1
  Ca2+  Ca30  1  0.91844455  0.25257930  0.07786401  1
  Ca2+  Ca31  1  0.92662314  0.24161866  0.40113733  1
  Ca2+  Ca32  1  0.91742731  0.25344549  0.76853345  1
  Ca2+  Ca33  1  0.93527067  0.76137155  0.07519914  1
  Ca2+  Ca34  1  0.91690247  0.76646524  0.41961221  1
  Ca2+  Ca35  1  0.91772551  0.74357902  0.75519118  1
  Ca2+  Ca36  1  0.55528434  0.61689395  0.42494151  1
  Ca2+  Ca37  1  0.56960257  0.09462532  0.76779111  1
  Ca2+  Ca38  1  0.43421648  0.08465862  0.23493508  1
  Ca2+  Ca39  1  0.94103550  0.58562710  0.05717952  1
  Ca2+  Ca40  1  0.05486013  0.08472960  0.26302942  1
  Ca2+  Ca41  1  0.74950159  0.60758557  0.89535916  1
  Ca2+  Ca42  1  0.92396991  0.58235363  0.41870048  1
  Ca2+  Ca43  1  0.74665481  0.10264195  0.94336604  1
  Ca2+  Ca44  1  0.93121171  0.59427920  0.76024013  1
  Ca2+  Ca45  1  0.25446027  0.08208825  0.71486513  1
  Ca2+  Ca46  1  0.27017709  0.62419385  0.44262487  1
  Ca2+  Ca47  1  0.43393326  0.10198334  0.93727192  1
  Ca2+  Ca48  1  0.93058600  0.58663419  0.05695999  1
  Ca2+  Ca49  1  0.71964693  0.60553883  0.25406698  1
  Ca2+  Ca50  1  0.10058036  0.09025099  0.59077682  1
  Ca2+  Ca51  1  0.58243690  0.09392760  0.76793249  1
  Ca2+  Ca52  1  0.43408988  0.61061048  0.26918580  1
  Ca2+  Ca53  1  0.25395645  0.08191458  0.06651284  1
  Ca2+  Ca54  1  0.42723303  0.09639655  0.93520547  1
  Ca2+  Ca55  1  0.08804353  0.08968523  0.59154243  1
  Ca2+  Ca56  1  0.42161807  0.08458539  0.23501506  1
  Ca2+  Ca57  1  0.91130339  0.58279459  0.41872435  1
  Ca2+  Ca58  1  0.61777315  0.06627316  0.38824733  1
  Ca2+  Ca59  1  0.23494192  0.08571565  0.43859572  1
  Ca2+  Ca60  1  0.89837857  0.08506401  0.39218373  1
  Ca2+  Ca61  1  0.07815370  0.08461376  0.91031529  1
  Ca2+  Ca62  1  0.88323414  0.11097210  0.10156263  1
  Ca2+  Ca63  1  0.10876784  0.59657251  0.23466683  1
  Ca2+  Ca64  1  0.60715349  0.10390828  0.06227589  1
  Ca2+  Ca65  1  0.73103683  0.60364373  0.25441408  1
  Ca2+  Ca66  1  0.09797713  0.59749644  0.24079759  1
  Ca2+  Ca67  1  0.24388287  0.08668273  0.44494079  1
  Ca2+  Ca68  1  0.08090444  0.59820831  0.89999932  1
  Ca2+  Ca69  1  0.28016010  0.62287217  0.44025438  1
  Ca2+  Ca70  1  0.76004772  0.60618265  0.89650297  1
  Ca2+  Ca71  1  0.58106641  0.61034100  0.08940621  1
  Ca2+  Ca72  1  0.91517401  0.90597474  0.74887550  1
  Ca2+  Ca73  1  0.06742952  0.91000330  0.24654011  1
  Ca2+  Ca74  1  0.58518549  0.38764250  0.08425943  1
  Ca2+  Ca75  1  0.58012239  0.90597954  0.08944559  1
  Ca2+  Ca76  1  0.09690126  0.91512153  0.57356662  1
  Ca2+  Ca77  1  0.06802947  0.41795044  0.91911935  1
  Ca2+  Ca78  1  0.76004590  0.39931704  0.25124867  1
  Ca2+  Ca79  1  0.40521568  0.39984091  0.91102981  1
  Ca2+  Ca80  1  0.22385926  0.41279738  0.74333376  1
  Ca2+  Ca81  1  0.42709631  0.90071107  0.25202483  1
  Ca2+  Ca82  1  0.73748068  0.92373700  0.27980859  1
  Ca2+  Ca83  1  0.74654306  0.90506883  0.91400587  1
  Ca2+  Ca84  1  0.39727808  0.90677535  0.58518985  1
  Ca2+  Ca85  1  0.09811912  0.40398846  0.25492444  1
  Ca2+  Ca86  1  0.08554739  0.91514227  0.93071317  1
  Ca2+  Ca87  1  0.23647791  0.90523178  0.07869252  1
  Ca2+  Ca88  1  0.38685207  0.91096763  0.58290204  1
  Ca2+  Ca89  1  0.41801851  0.90035326  0.91127413  1
  Ca2+  Ca90  1  0.91901660  0.41288764  0.05935937  1
  Ca2+  Ca91  1  0.90804578  0.42102534  0.76973273  1
  Ca2+  Ca92  1  0.41799093  0.39969612  0.91223407  1
  Ca2+  Ca93  1  0.91298890  0.91668441  0.41267441  1
  Ca2+  Ca94  1  0.74725152  0.39943098  0.25160812  1
  Ca2+  Ca95  1  0.75791416  0.90562526  0.91372816  1
  Ca2+  Ca96  1  0.59064411  0.90796258  0.09189558  1
  Ca2+  Ca97  1  0.91772050  0.40956265  0.41980585  1
  Ca2+  Ca98  1  0.72505736  0.41615809  0.58607115  1
  Ca2+  Ca99  1  0.73643952  0.41334894  0.59041058  1
  Ca2+  Ca100  1  0.23985650  0.40409288  0.08216630  1
  Ca2+  Ca101  1  0.42188412  0.40048375  0.57877592  1
  Ca2+  Ca102  1  0.24798302  0.90870664  0.75029097  1
  Ca2+  Ca103  1  0.75157641  0.90055505  0.57766946  1
  Ca2+  Ca104  1  0.23373044  0.40912493  0.74159695  1
  Ca2+  Ca105  1  0.93003891  0.40703151  0.42035609  1
  Ca2+  Ca106  1  0.40232244  0.39334589  0.25655434  1
  Ca2+  Ca107  1  0.10728829  0.91365042  0.57317464  1
  Mn3.34+  Mn108  1  0.08523695  0.33080115  0.08264160  1
  Mn3.34+  Mn109  1  0.08702125  0.33271881  0.41920767  1
  Mn3.34+  Mn110  1  0.07076745  0.33987753  0.74381705  1
  Mn3.34+  Mn111  1  0.08054496  0.84030517  0.08542116  1
  Mn3.34+  Mn112  1  0.08261070  0.83867831  0.41286419  1
  Mn3.34+  Mn113  1  0.08208739  0.83323603  0.75093561  1
  Mn3.34+  Mn114  1  0.41381552  0.33015124  0.08378309  1
  Mn3.34+  Mn115  1  0.41289072  0.32722621  0.41925314  1
  Mn3.34+  Mn116  1  0.41926327  0.33358672  0.74740785  1
  Mn3.34+  Mn117  1  0.41242851  0.82730618  0.08512799  1
  Mn3.34+  Mn118  1  0.41873907  0.83432785  0.42129188  1
  Mn3.34+  Mn119  1  0.41997860  0.83171909  0.74836645  1
  Mn3.34+  Mn120  1  0.75018449  0.32233771  0.08384575  1
  Mn3.34+  Mn121  1  0.75369490  0.32988517  0.42370169  1
  Mn3.34+  Mn122  1  0.74588815  0.33801678  0.75843055  1
  Mn3.34+  Mn123  1  0.75797469  0.83549399  0.08916825  1
  Mn3.34+  Mn124  1  0.74667150  0.83664308  0.42187572  1
  Mn3.34+  Mn125  1  0.74810364  0.83186498  0.74518704  1
  Mn3.34+  Mn126  1  0.24805591  0.32767333  0.25129340  1
  Mn3.34+  Mn127  1  0.24712832  0.33777880  0.58028139  1
  Mn3.34+  Mn128  1  0.24326096  0.32835201  0.91035848  1
  Mn3.34+  Mn129  1  0.25214142  0.83111656  0.25014532  1
  Mn3.34+  Mn130  1  0.24688160  0.82883355  0.58438186  1
  Mn3.34+  Mn131  1  0.24771101  0.83546669  0.91396899  1
  Mn3.34+  Mn132  1  0.58168191  0.32967533  0.25291189  1
  Mn3.34+  Mn133  1  0.57877308  0.33430111  0.58109012  1
  Mn3.34+  Mn134  1  0.58876828  0.32924439  0.91475954  1
  Mn3.34+  Mn135  1  0.58369888  0.83444497  0.25606870  1
  Mn3.34+  Mn136  1  0.57935516  0.82890903  0.57693336  1
  Mn3.34+  Mn137  1  0.58278090  0.82540433  0.91452106  1
  Mn3.34+  Mn138  1  0.91931848  0.33050855  0.24326706  1
  Mn3.34+  Mn139  1  0.92352551  0.33474692  0.58528763  1
  Mn3.34+  Mn140  1  0.91447099  0.33589273  0.91571721  1
  Mn3.34+  Mn141  1  0.91203335  0.83906709  0.24869744  1
  Mn3.34+  Mn142  1  0.91951215  0.83726727  0.58212343  1
  Mn3.34+  Mn143  1  0.92178201  0.83769238  0.91616711  1
  Mn3.34+  Mn144  1  0.41835801  0.66653322  0.74796685  1
  Mn3.34+  Mn145  1  0.08018025  0.16496627  0.42152338  1
  Mn3.34+  Mn146  1  0.41311423  0.16529673  0.74893967  1
  Mn3.34+  Mn147  1  0.08180631  0.16551844  0.75635690  1
  Mn3.34+  Mn148  1  0.92362485  0.67219634  0.24728159  1
  Mn3.34+  Mn149  1  0.92190536  0.66997795  0.91297670  1
  Mn3.34+  Mn150  1  0.25115644  0.67068513  0.24900252  1
  Mn3.34+  Mn151  1  0.74773328  0.67327877  0.08089139  1
  Mn3.34+  Mn152  1  0.07860251  0.15552117  0.08577003  1
  Mn3.34+  Mn153  1  0.91841457  0.16596844  0.91602530  1
  Mn3.34+  Mn154  1  0.40774505  0.67342015  0.08186923  1
  Mn3.34+  Mn155  1  0.58072738  0.16835032  0.57981916  1
  Mn3.34+  Mn156  1  0.92329711  0.66593045  0.58621017  1
  Mn3.34+  Mn157  1  0.25433741  0.66627480  0.91085632  1
  Mn3.34+  Mn158  1  0.42382557  0.16491035  0.41988213  1
  Mn3.34+  Mn159  1  0.74573964  0.16858382  0.75141239  1
  Mn3.34+  Mn160  1  0.90771926  0.16452597  0.57997260  1
  Mn3.34+  Mn161  1  0.75202619  0.16215526  0.42330699  1
  Mn3.34+  Mn162  1  0.24402643  0.17051007  0.24984916  1
  Mn3.34+  Mn163  1  0.08550748  0.66735871  0.42007859  1
  Mn3.34+  Mn164  1  0.25287989  0.17658050  0.25184124  1
  Mn3.34+  Mn165  1  0.08768119  0.16146025  0.08400013  1
  Mn3.34+  Mn166  1  0.74616098  0.66983024  0.42736443  1
  Mn3.34+  Mn167  1  0.91265026  0.66759552  0.24525920  1
  Mn3.34+  Mn168  1  0.24676621  0.16504785  0.90832840  1
  Mn3.34+  Mn169  1  0.41578144  0.68011010  0.08088569  1
  Mn3.34+  Mn170  1  0.57731925  0.65522854  0.58902783  1
  Mn3.34+  Mn171  1  0.60152797  0.16056564  0.24338114  1
  Mn3.34+  Mn172  1  0.91727285  0.16986394  0.58273917  1
  Mn3.34+  Mn173  1  0.59132489  0.16559813  0.24623421  1
  Mn3.34+  Mn174  1  0.59437915  0.16220946  0.57574906  1
  Mn3.34+  Mn175  1  0.57931431  0.67203632  0.91099348  1
  Mn3.34+  Mn176  1  0.24376095  0.66211092  0.91168523  1
  Mn3.34+  Mn177  1  0.41498562  0.17079763  0.41707105  1
  Mn3.34+  Mn178  1  0.75808627  0.16130881  0.75335478  1
  Mn3.34+  Mn179  1  0.91352770  0.66066220  0.58563659  1
  Mn3.34+  Mn180  1  0.23798921  0.49920851  0.60133856  1
  Mn3.34+  Mn181  1  0.25457711  0.50182529  0.25291376  1
  Mn3.34+  Mn182  1  0.57652341  0.50524720  0.90325883  1
  Mn3.34+  Mn183  1  0.90850116  0.00237642  0.58345510  1
  Mn3.34+  Mn184  1  0.75741755  0.00286264  0.74565232  1
  Mn3.34+  Mn185  1  0.73434289  0.49602889  0.08356422  1
  Mn3.34+  Mn186  1  0.07946287  -0.00243652  0.74368566  1
  Mn3.34+  Mn187  1  0.42040061  0.49934856  0.08544018  1
  Mn3.34+  Mn188  1  0.24945673  0.49867167  0.91434703  1
  Mn3.34+  Mn189  1  0.41008088  -0.00506018  0.07345188  1
  Mn3.34+  Mn190  1  0.23097487  -0.00127589  0.25221558  1
  Mn3.34+  Mn191  1  0.58824749  0.49766411  0.90246873  1
  Mn3.34+  Mn192  1  0.92502820  0.49638830  0.25276796  1
  Mn3.34+  Mn193  1  0.10041622  0.50065410  0.41607520  1
  Mn3.34+  Mn194  1  0.57828495  0.50194281  0.24350656  1
  Mn3.34+  Mn195  1  0.73386722  0.50133232  0.41968939  1
  Mn3.34+  Mn196  1  0.42251127  0.50255517  0.43191859  1
  Mn3.34+  Mn197  1  0.91638355  0.00373029  0.92835087  1
  Mn3.34+  Mn198  1  0.75415306  0.00030666  0.08259398  1
  Mn3.34+  Mn199  1  0.44253990  0.51269396  0.72488362  1
  Mn3.34+  Mn200  1  0.40970474  0.49652157  0.42873679  1
  Mn3.34+  Mn201  1  0.40654937  0.50546051  0.08297582  1
  Mn3.34+  Mn202  1  0.41502703  -0.00222735  0.74706355  1
  Mn3.34+  Mn203  1  0.58097323  0.00388957  0.58051429  1
  Mn3.34+  Mn204  1  0.91057305  -0.00360439  0.26124673  1
  Mn3.34+  Mn205  1  0.24331624  -0.00511854  0.25503001  1
  Mn3.34+  Mn206  1  0.42980886  0.00089402  0.40830189  1
  Mn3.34+  Mn207  1  0.09098580  0.49586759  0.07854584  1
  Mn3.34+  Mn208  1  0.56373972  0.49615590  0.24468048  1
  Mn3.34+  Mn209  1  0.59146457  -0.00086818  0.58189173  1
  Mn3.34+  Mn210  1  0.74825445  0.50271275  0.08434121  1
  Mn3.34+  Mn211  1  0.93819945  0.49792807  0.61130682  1
  Mn3.34+  Mn212  1  0.58464534  -0.00382406  0.92144626  1
  Mn3.34+  Mn213  1  0.24507522  0.00377490  0.91527180  1
  Mn3.34+  Mn214  1  0.42908314  0.50988536  0.72993636  1
  Mn3.34+  Mn215  1  0.74125720  0.49993273  0.72872402  1
  O2-  O216  1  -0.00213101  0.14564239  -0.00064186  1
  O2-  O217  1  -0.00067451  0.15258475  0.34504689  1
  O2-  O218  1  -0.00087123  0.16742019  0.66725842  1
  O2-  O219  1  0.00151488  0.65748966  -0.00669837  1
  O2-  O220  1  0.00460573  0.63889110  0.32768987  1
  O2-  O221  1  0.00396885  0.65618408  0.66267503  1
  O2-  O222  1  0.32326729  0.15017472  -0.00768533  1
  O2-  O223  1  0.34530274  0.15635054  0.32170062  1
  O2-  O224  1  0.33126982  0.15932396  0.67438843  1
  O2-  O225  1  0.33204582  0.66250865  -0.00268795  1
  O2-  O226  1  0.33310695  0.66079014  0.32403956  1
  O2-  O227  1  0.33618127  0.65847798  0.67558126  1
  O2-  O228  1  0.66853638  0.18053124  -0.00641216  1
  O2-  O229  1  0.66810785  0.16234628  0.33944547  1
  O2-  O230  1  0.66792810  0.14323066  0.66827161  1
  O2-  O231  1  0.66540618  0.65838925  0.00039165  1
  O2-  O232  1  0.66715715  0.65585462  0.34671096  1
  O2-  O233  1  0.65369448  0.68225298  0.65176841  1
  O2-  O234  1  0.16216309  0.14883084  -0.00328428  1
  O2-  O235  1  0.17344609  0.15365604  0.33958272  1
  O2-  O236  1  0.15666729  0.16104236  0.67008742  1
  O2-  O237  1  0.16650611  0.66130391  -0.00866842  1
  O2-  O238  1  0.17192065  0.64631590  0.33972730  1
  O2-  O239  1  0.17126886  0.66650188  0.66893241  1
  O2-  O240  1  0.50093983  0.16442233  -0.00383948  1
  O2-  O241  1  0.50486916  0.15212565  0.33150041  1
  O2-  O242  1  0.50479438  0.14703647  0.66638102  1
  O2-  O243  1  0.50135858  0.67892798  0.00097545  1
  O2-  O244  1  0.49550126  0.67749931  0.34133227  1
  O2-  O245  1  0.50164404  0.67074391  0.66775593  1
  O2-  O246  1  0.83771095  0.16774783  -0.00744064  1
  O2-  O247  1  0.83045164  0.17057697  0.34749218  1
  O2-  O248  1  0.83003617  0.15867617  0.66574522  1
  O2-  O249  1  0.83206965  0.65085158  0.00383450  1
  O2-  O250  1  0.83636409  0.64993954  0.33184364  1
  O2-  O251  1  0.84005860  0.65659933  0.66963406  1
  O2-  O252  1  0.00251959  0.34485809  -0.00059819  1
  O2-  O253  1  -0.00132444  0.34858704  0.32733339  1
  O2-  O254  1  -0.00239411  0.29934983  0.66640954  1
  O2-  O255  1  0.00240804  0.84710480  -0.00403606  1
  O2-  O256  1  -0.00716095  0.85084931  0.33546477  1
  O2-  O257  1  0.00656375  0.85925520  0.65988698  1
  O2-  O258  1  0.32997188  0.34820327  0.00080837  1
  O2-  O259  1  0.33232564  0.30373975  0.33115371  1
  O2-  O260  1  0.32691832  0.35348898  0.67236103  1
  O2-  O261  1  0.33506218  0.84442459  -0.00152731  1
  O2-  O262  1  0.33904050  0.83049673  0.33217507  1
  O2-  O263  1  0.32727782  0.84685555  0.67037374  1
  O2-  O264  1  0.65917326  0.31587503  0.00855938  1
  O2-  O265  1  0.67537852  0.33771755  0.33548863  1
  O2-  O266  1  0.66865578  0.34517575  0.66453072  1
  O2-  O267  1  0.66715061  0.84457419  0.00416795  1
  O2-  O268  1  0.66959205  0.84230816  0.33166666  1
  O2-  O269  1  0.66530746  0.82898337  0.66254433  1
  O2-  O270  1  0.16430892  0.34346743  -0.00626894  1
  O2-  O271  1  0.16364454  0.33106434  0.32907095  1
  O2-  O272  1  0.16127447  0.34124355  0.66747092  1
  O2-  O273  1  0.16608856  0.84359880  -0.00213790  1
  O2-  O274  1  0.16018018  0.84925674  0.32319772  1
  O2-  O275  1  0.16476288  0.85130905  0.66667533  1
  O2-  O276  1  0.49676075  0.34133967  -0.00182181  1
  O2-  O277  1  0.49130045  0.32884791  0.32991296  1
  O2-  O278  1  0.49738191  0.34157886  0.66345437  1
  O2-  O279  1  0.50306200  0.82192476  0.00346127  1
  O2-  O280  1  0.49697043  0.83242066  0.33240301  1
  O2-  O281  1  0.48574639  0.84387482  0.65146745  1
  O2-  O282  1  0.83581593  0.33004280  0.00683274  1
  O2-  O283  1  0.83748878  0.34515761  0.33728397  1
  O2-  O284  1  0.83030296  0.35048211  0.65640493  1
  O2-  O285  1  0.83105945  0.84778893  -0.00269480  1
  O2-  O286  1  0.83182152  0.84963794  0.33386480  1
  O2-  O287  1  0.83440473  0.84844559  0.66627739  1
  O2-  O288  1  0.00423941  0.16985890  0.16882826  1
  O2-  O289  1  0.00120105  0.18924709  0.50554582  1
  O2-  O290  1  0.00479249  0.18394534  0.83737742  1
  O2-  O291  1  -0.00052111  0.67602121  0.16174473  1
  O2-  O292  1  -0.01077010  0.67616020  0.49029536  1
  O2-  O293  1  -0.00195418  0.67469372  0.83572105  1
  O2-  O294  1  0.33426558  0.18640170  0.17223767  1
  O2-  O295  1  0.32211224  0.18070642  0.48503865  1
  O2-  O296  1  0.34141877  0.17347818  0.84066156  1
  O2-  O297  1  0.33000231  0.68650751  0.16527353  1
  O2-  O298  1  0.33392046  0.70175582  0.47692046  1
  O2-  O299  1  0.33557655  0.67688204  0.83671192  1
  O2-  O300  1  0.66754169  0.18415512  0.15810843  1
  O2-  O301  1  0.66734644  0.19303459  0.49532719  1
  O2-  O302  1  0.65912757  0.17927065  0.82249131  1
  O2-  O303  1  0.67337012  0.67760460  0.16802817  1
  O2-  O304  1  0.66515327  0.68189141  0.49914471  1
  O2-  O305  1  0.67141091  0.68512546  0.84771821  1
  O2-  O306  1  0.16843368  0.19140335  0.16631446  1
  O2-  O307  1  0.16335365  0.17198125  0.50014642  1
  O2-  O308  1  0.16705069  0.18868766  0.83065831  1
  O2-  O309  1  0.15859170  0.67733519  0.18179892  1
  O2-  O310  1  0.16627164  0.67938900  0.49295155  1
  O2-  O311  1  0.16432837  0.67631569  0.83368388  1
  O2-  O312  1  0.49934859  0.17042997  0.17306131  1
  O2-  O313  1  0.50144859  0.19230458  0.49746641  1
  O2-  O314  1  0.50031608  0.17291285  0.82645654  1
  O2-  O315  1  0.49721707  0.68516766  0.16177752  1
  O2-  O316  1  0.51566749  0.69024881  0.51685351  1
  O2-  O317  1  0.50400361  0.69429013  0.83200760  1
  O2-  O318  1  0.83817325  0.19345654  0.14375562  1
  O2-  O319  1  0.82881232  0.19275071  0.50249330  1
  O2-  O320  1  0.83152839  0.18218745  0.83789803  1
  O2-  O321  1  0.82611759  0.66960238  0.16618791  1
  O2-  O322  1  0.83868012  0.67626748  0.49948088  1
  O2-  O323  1  0.83482427  0.67657569  0.83927702  1
  O2-  O324  1  -0.00052312  0.32474390  0.16377447  1
  O2-  O325  1  -0.00645267  0.32224079  0.49059115  1
  O2-  O326  1  0.00029905  0.32315588  0.83181524  1
  O2-  O327  1  0.00264314  0.82699997  0.17317364  1
  O2-  O328  1  0.00259421  0.82445742  0.50208001  1
  O2-  O329  1  -0.00581844  0.82203543  0.82768326  1
  O2-  O330  1  0.33291914  0.31943983  0.16861866  1
  O2-  O331  1  0.33523079  0.31836999  0.50494315  1
  O2-  O332  1  0.33859744  0.32672368  0.83639926  1
  O2-  O333  1  0.33474466  0.81262620  0.16680426  1
  O2-  O334  1  0.33800428  0.82538952  0.51033493  1
  O2-  O335  1  0.33440427  0.83044434  0.83519225  1
  O2-  O336  1  0.67003055  0.32725051  0.17241107  1
  O2-  O337  1  0.67178597  0.31718828  0.50387521  1
  O2-  O338  1  0.66670616  0.30715728  0.83849343  1
  O2-  O339  1  0.66328790  0.82951921  0.16288723  1
  O2-  O340  1  0.66969128  0.81210261  0.50363434  1
  O2-  O341  1  0.67482511  0.82171141  0.84407433  1
  O2-  O342  1  0.16861512  0.31538324  0.16520689  1
  O2-  O343  1  0.16279685  0.32377932  0.50281994  1
  O2-  O344  1  0.17138365  0.31519786  0.82323371  1
  O2-  O345  1  0.17113790  0.82415923  0.16311212  1
  O2-  O346  1  0.16046663  0.82522415  0.50576206  1
  O2-  O347  1  0.16545616  0.82486041  0.83286645  1
  O2-  O348  1  0.50088570  0.32460757  0.16115199  1
  O2-  O349  1  0.49603015  0.31068629  0.50304599  1
  O2-  O350  1  0.49435467  0.31724668  0.84393953  1
  O2-  O351  1  0.50122975  0.81917298  0.16536364  1
  O2-  O352  1  0.49772467  0.80837762  0.49739952  1
  O2-  O353  1  0.49986923  0.81932248  0.83421732  1
  O2-  O354  1  0.82493967  0.31903007  0.17493547  1
  O2-  O355  1  0.83906747  0.31088409  0.49765651  1
  O2-  O356  1  0.83748217  0.32602599  0.82919709  1
  O2-  O357  1  0.83303748  0.81568980  0.17034398  1
  O2-  O358  1  0.83335809  0.82393671  0.50319488  1
  O2-  O359  1  0.83230424  0.83146588  0.83673067  1
  O2-  O360  1  0.10560685  0.07963000  0.12675738  1
  O2-  O361  1  0.08925319  0.08239481  0.45611502  1
  O2-  O362  1  0.08983650  0.07728811  0.76962725  1
  O2-  O363  1  0.06607112  0.57201771  0.11358809  1
  O2-  O364  1  0.07183223  0.58258292  0.44429141  1
  O2-  O365  1  0.06562043  0.56371048  0.77770983  1
  O2-  O366  1  0.40472663  0.07425387  0.10531562  1
  O2-  O367  1  0.39592444  0.07950110  0.44906888  1
  O2-  O368  1  0.42778277  0.07620409  0.79045941  1
  O2-  O369  1  0.42731145  0.58594185  0.11336071  1
  O2-  O370  1  0.40986225  0.58468416  0.44351210  1
  O2-  O371  1  0.43135313  0.58464440  0.78600038  1
  O2-  O372  1  0.74948480  0.07935326  0.08820530  1
  O2-  O373  1  0.75529129  0.08505695  0.44135572  1
  O2-  O374  1  0.72945104  0.08112975  0.79621917  1
  O2-  O375  1  0.72602832  0.58105181  0.11783434  1
  O2-  O376  1  0.76931520  0.58367250  0.43428143  1
  O2-  O377  1  0.76334550  0.56711545  0.77717978  1
  O2-  O378  1  0.27125024  0.07958482  0.20965313  1
  O2-  O379  1  0.22559353  0.06686774  0.56650871  1
  O2-  O380  1  0.23617484  0.08089192  0.87334445  1
  O2-  O381  1  0.24719313  0.58312283  0.21953848  1
  O2-  O382  1  0.25009483  0.56125538  0.54087598  1
  O2-  O383  1  0.23866410  0.58064418  0.89430591  1
  O2-  O384  1  0.58304109  0.08060337  0.21244996  1
  O2-  O385  1  0.58261596  0.08161068  0.52728479  1
  O2-  O386  1  0.57901871  0.07754131  0.89939403  1
  O2-  O387  1  0.58108836  0.58313539  0.22290019  1
  O2-  O388  1  0.57807359  0.58387258  0.55940285  1
  O2-  O389  1  0.60400598  0.58422613  0.89057295  1
  O2-  O390  1  0.91516580  0.06761723  0.22151693  1
  O2-  O391  1  0.92862410  0.08112909  0.53998281  1
  O2-  O392  1  0.91208658  0.08232729  0.89334344  1
  O2-  O393  1  0.91673644  0.57886709  0.20915826  1
  O2-  O394  1  0.92022417  0.57288747  0.55171596  1
  O2-  O395  1  0.90568037  0.58464092  0.90401514  1
  O2-  O396  1  0.09319299  0.41822344  0.11696707  1
  O2-  O397  1  0.07159849  0.41632442  0.42951436  1
  O2-  O398  1  0.09436385  0.41647055  0.78571627  1
  O2-  O399  1  0.10024490  0.92137548  0.11140211  1
  O2-  O400  1  0.07511913  0.92005349  0.44157802  1
  O2-  O401  1  0.07680199  0.92152439  0.78594299  1
  O2-  O402  1  0.41549828  0.41912736  0.11861411  1
  O2-  O403  1  0.41771902  0.41471476  0.43531691  1
  O2-  O404  1  0.42338797  0.43363510  0.78664327  1
  O2-  O405  1  0.43853577  0.91715615  0.10354382  1
  O2-  O406  1  0.42187585  0.92373918  0.45238775  1
  O2-  O407  1  0.41964021  0.91877041  0.77444388  1
  O2-  O408  1  0.75071953  0.41588695  0.11014996  1
  O2-  O409  1  0.77380544  0.42063459  0.45735030  1
  O2-  O410  1  0.75256367  0.42746591  0.77436833  1
  O2-  O411  1  0.73477490  0.92023058  0.11403964  1
  O2-  O412  1  0.75302344  0.91633707  0.44184422  1
  O2-  O413  1  0.74647652  0.92141106  0.78146190  1
  O2-  O414  1  0.25827320  0.41934415  0.22580315  1
  O2-  O415  1  0.25977275  0.42538978  0.56473602  1
  O2-  O416  1  0.25943022  0.41649306  0.87616322  1
  O2-  O417  1  0.26987882  0.91747702  0.21766627  1
  O2-  O418  1  0.24895945  0.91613484  0.56394509  1
  O2-  O419  1  0.25104694  0.92266727  0.89396271  1
  O2-  O420  1  0.58293572  0.41519161  0.22792037  1
  O2-  O421  1  0.59339271  0.41075789  0.54648285  1
  O2-  O422  1  0.56082313  0.41748838  0.90053865  1
  O2-  O423  1  0.57067513  0.91860104  0.22255237  1
  O2-  O424  1  0.58342490  0.91800862  0.55675524  1
  O2-  O425  1  0.58389505  0.91530590  0.91307929  1
  O2-  O426  1  0.89500123  0.41666053  0.21469832  1
  O2-  O427  1  0.91932880  0.42538733  0.55170396  1
  O2-  O428  1  0.92330731  0.41709394  0.90444819  1
  O2-  O429  1  0.91255574  0.92412199  0.21906936  1
  O2-  O430  1  0.91598884  0.92301775  0.54922540  1
  O2-  O431  1  0.90578005  0.92373246  0.88751093  1
  O2-  O432  1  0.02187885  0.00153867  -0.03881491  1
  O2-  O433  1  -0.00083026  -0.00165568  0.32211947  1
  O2-  O434  1  0.01770572  0.00239982  0.63477844  1
  O2-  O435  1  -0.00307229  0.49751729  0.01634462  1
  O2-  O436  1  -0.02190696  0.50038132  0.36974164  1
  O2-  O437  1  -0.01961510  0.50216013  0.71181915  1
  O2-  O438  1  0.34160852  0.01560970  -0.02245082  1
  O2-  O439  1  0.33787811  0.00693846  0.32757466  1
  O2-  O440  1  0.33292002  -0.01155331  0.67571103  1
  O2-  O441  1  0.34181552  0.47899135  -0.00813017  1
  O2-  O442  1  0.34252046  0.50427063  0.33100774  1
  O2-  O443  1  0.32267177  0.49570822  0.68139755  1
  O2-  O444  1  0.65006041  -0.00433421  0.02257305  1
  O2-  O445  1  0.67234168  -0.00639644  0.33550854  1
  O2-  O446  1  0.66335109  0.01607014  0.67193496  1
  O2-  O447  1  0.67252709  0.49945683  -0.01371384  1
  O2-  O448  1  0.67905689  0.49895544  0.30608594  1
  O2-  O449  1  0.66753268  0.49246590  0.65458739  1
  O2-  O450  1  0.17801790  0.00422821  -0.00274789  1
  O2-  O451  1  0.16735495  0.02863928  0.33771293  1
  O2-  O452  1  0.16506562  -0.00740173  0.67634016  1
  O2-  O453  1  0.16420999  0.48035191  -0.00608052  1
  O2-  O454  1  0.13773980  0.50432252  0.29365230  1
  O2-  O455  1  0.16491095  0.48846313  0.67486885  1
  O2-  O456  1  0.49427777  0.00860071  -0.00513579  1
  O2-  O457  1  0.49643451  0.02612237  0.32382259  1
  O2-  O458  1  0.50277148  0.01325566  0.67007949  1
  O2-  O459  1  0.50628208  0.50513653  0.00168272  1
  O2-  O460  1  0.50756375  0.50970840  0.34586898  1
  O2-  O461  1  0.48442085  0.48260913  0.63213270  1
  O2-  O462  1  0.80771286  -0.00568810  -0.02583472  1
  O2-  O463  1  0.83885396  -0.00395671  0.33848973  1
  O2-  O464  1  0.83814065  -0.01850599  0.66825992  1
  O2-  O465  1  0.84112988  0.51211552  0.01914379  1
  O2-  O466  1  0.83134576  0.49498284  0.33433389  1
  O2-  O467  1  0.82714938  0.48659033  0.65732588  1
  O2-  O468  1  0.91799613  0.75162558  0.60514037  1
  O2-  O469  1  0.08302613  0.24787372  0.39376136  1
  O2-  O470  1  0.59455431  0.75555057  0.26165325  1
  O2-  O471  1  0.41534318  0.24731446  0.72841181  1
  O2-  O472  1  0.92231522  0.25299568  0.26623776  1
  O2-  O473  1  0.76127479  0.74901595  0.39342994  1
  O2-  O474  1  0.24765050  0.25807460  0.60136720  1
  O2-  O475  1  0.59391899  0.24703351  0.61783864  1
  O2-  O476  1  0.75721706  0.25016826  0.72491835  1
  O2-  O477  1  0.91931456  0.75393832  0.27801329  1
  O2-  O478  1  0.76129069  0.75411010  0.73792543  1
  O2-  O479  1  0.25828338  0.24767034  0.93802238  1
  O2-  O480  1  0.07608109  0.74897924  0.38776107  1
  O2-  O481  1  0.40033161  0.75112178  0.73395425  1
  O2-  O482  1  0.07646533  0.75872214  0.06588222  1
  O2-  O483  1  0.41566331  0.25322233  0.06303579  1
  O2-  O484  1  0.75291554  0.75284022  0.05832543  1
  O2-  O485  1  0.25269837  0.74986909  0.93330722  1
  O2-  O486  1  0.91568726  0.75341542  0.93696520  1
  O2-  O487  1  0.23489794  0.75089471  0.27765498  1
  O2-  O488  1  0.07336313  0.24302481  0.05596206  1
  O2-  O489  1  0.08172534  0.75601160  0.72787500  1
  O2-  O490  1  0.58033267  0.24557664  0.27150435  1
  O2-  O491  1  0.24269002  0.75081109  0.60486794  1
  O2-  O492  1  0.92543881  0.25041866  0.93298138  1
