# generated using pymatgen
data_Ca108Mn108O277
_symmetry_space_group_name_H-M   'P 1'
_cell_length_a   16.03136957
_cell_length_b   22.31028001
_cell_length_c   16.39024548
_cell_angle_alpha   89.99787329
_cell_angle_beta   90.00588420
_cell_angle_gamma   89.99388839
_symmetry_Int_Tables_number   1
_chemical_formula_structural   Ca108Mn108O277
_chemical_formula_sum   'Ca108 Mn108 O277'
_cell_volume   5862.20633041
_cell_formula_units_Z   1
loop_
 _symmetry_equiv_pos_site_id
 _symmetry_equiv_pos_as_xyz
  1  'x, y, z'
loop_
 _atom_type_symbol
 _atom_type_oxidation_number
  Ca2+  2.0
  Mn3.34+  3.34
  O2-  -2.0
loop_
 _atom_site_type_symbol
 _atom_site_label
 _atom_site_symmetry_multiplicity
 _atom_site_fract_x
 _atom_site_fract_y
 _atom_site_fract_z
 _atom_site_occupancy
  Ca2+  Ca0  1  0.08671203  0.25580578  0.24628648  1
  Ca2+  Ca1  1  0.06695005  0.23311092  0.58978965  1
  Ca2+  Ca2  1  0.08820706  0.24309333  0.90384274  1
  Ca2+  Ca3  1  0.07634792  0.75294052  0.24506420  1
  Ca2+  Ca4  1  0.09442701  0.75505008  0.58633097  1
  Ca2+  Ca5  1  0.08640647  0.76618283  0.92165550  1
  Ca2+  Ca6  1  0.40025112  0.25911963  0.24659214  1
  Ca2+  Ca7  1  0.41022446  0.24154780  0.58669024  1
  Ca2+  Ca8  1  0.42535856  0.24197110  0.91988792  1
  Ca2+  Ca9  1  0.42599099  0.76164191  0.24908722  1
  Ca2+  Ca10  1  0.41906010  0.75424969  0.58075139  1
  Ca2+  Ca11  1  0.43466841  0.74694026  0.92783488  1
  Ca2+  Ca12  1  0.76281879  0.25675255  0.23549838  1
  Ca2+  Ca13  1  0.76146015  0.25980313  0.58791227  1
  Ca2+  Ca14  1  0.74733939  0.25975540  0.91516561  1
  Ca2+  Ca15  1  0.74195819  0.74137487  0.23788506  1
  Ca2+  Ca16  1  0.73489531  0.74623080  0.59585735  1
  Ca2+  Ca17  1  0.73728374  0.74009480  0.92086333  1
  Ca2+  Ca18  1  0.25691546  0.24579390  0.09152904  1
  Ca2+  Ca19  1  0.26101976  0.25185338  0.42346917  1
  Ca2+  Ca20  1  0.24251785  0.24183733  0.74203840  1
  Ca2+  Ca21  1  0.25280092  0.76005336  0.07503333  1
  Ca2+  Ca22  1  0.25694847  0.76057586  0.41867237  1
  Ca2+  Ca23  1  0.25618893  0.76458221  0.75576814  1
  Ca2+  Ca24  1  0.58550382  0.25105154  0.06876118  1
  Ca2+  Ca25  1  0.56614808  0.25705278  0.43348861  1
  Ca2+  Ca26  1  0.59037800  0.23779384  0.75371725  1
  Ca2+  Ca27  1  0.59415736  0.74606984  0.07366059  1
  Ca2+  Ca28  1  0.57906328  0.74637874  0.40819091  1
  Ca2+  Ca29  1  0.59893666  0.75212355  0.77326543  1
  Ca2+  Ca30  1  0.91107849  0.25081301  0.09236001  1
  Ca2+  Ca31  1  0.92212546  0.25149823  0.42814505  1
  Ca2+  Ca32  1  0.91782500  0.23833579  0.73470878  1
  Ca2+  Ca33  1  0.89300722  0.73524826  0.08367990  1
  Ca2+  Ca34  1  0.91717069  0.74133922  0.40027491  1
  Ca2+  Ca35  1  0.90712312  0.75564759  0.77349404  1
  Ca2+  Ca36  1  0.07934835  0.08551354  0.26865840  1
  Ca2+  Ca37  1  0.10092057  0.59875133  0.91333451  1
  Ca2+  Ca38  1  0.41964631  0.07861533  0.25112952  1
  Ca2+  Ca39  1  0.43251806  0.07786845  0.25079709  1
  Ca2+  Ca40  1  0.25283432  0.59309123  0.75236354  1
  Ca2+  Ca41  1  0.44721185  0.57190870  0.28170659  1
  Ca2+  Ca42  1  0.74791962  0.10166378  0.90894857  1
  Ca2+  Ca43  1  0.74660383  0.59903499  0.25946707  1
  Ca2+  Ca44  1  0.74221670  0.60451389  0.55173110  1
  Ca2+  Ca45  1  0.45565556  0.57537368  0.27785938  1
  Ca2+  Ca46  1  0.77511802  0.09293760  0.59395621  1
  Ca2+  Ca47  1  0.10420964  0.08107408  0.91133820  1
  Ca2+  Ca48  1  0.75482882  0.07910531  0.26798782  1
  Ca2+  Ca49  1  0.09676363  0.59460423  0.58219539  1
  Ca2+  Ca50  1  0.73545156  0.10270817  0.90768360  1
  Ca2+  Ca51  1  0.57309882  0.08187865  0.41297515  1
  Ca2+  Ca52  1  0.61181079  0.61427483  0.75845166  1
  Ca2+  Ca53  1  0.55644546  0.08715353  0.06048362  1
  Ca2+  Ca54  1  0.25877197  0.59032728  0.06766656  1
  Ca2+  Ca55  1  0.88426034  0.60605157  0.75597927  1
  Ca2+  Ca56  1  0.88280341  0.57613431  0.38892111  1
  Ca2+  Ca57  1  0.91274693  0.08588151  0.06864340  1
  Ca2+  Ca58  1  0.59245033  0.60405947  0.08725928  1
  Ca2+  Ca59  1  0.56507443  0.09036281  0.05599600  1
  Ca2+  Ca60  1  0.61830691  0.59157780  0.40388848  1
  Ca2+  Ca61  1  0.93523889  0.10405902  0.43266759  1
  Ca2+  Ca62  1  0.92615487  0.08851794  0.74340469  1
  Ca2+  Ca63  1  0.29136918  0.06954623  0.04070295  1
  Ca2+  Ca64  1  0.72726735  0.60954415  0.92057683  1
  Ca2+  Ca65  1  0.76262639  0.09229768  0.59620550  1
  Ca2+  Ca66  1  0.05091609  0.58450426  0.26722403  1
  Ca2+  Ca67  1  0.27043456  0.58761167  0.07107532  1
  Ca2+  Ca68  1  0.08834303  0.59740428  0.91355260  1
  Ca2+  Ca69  1  0.06688425  0.08513814  0.26870863  1
  Ca2+  Ca70  1  0.89656587  0.60566951  0.75333160  1
  Ca2+  Ca71  1  0.25370387  0.09702006  0.42852178  1
  Ca2+  Ca72  1  0.92157107  0.90569942  0.41677632  1
  Ca2+  Ca73  1  0.57475370  0.40429907  0.08707578  1
  Ca2+  Ca74  1  0.09848251  0.90354302  0.58424057  1
  Ca2+  Ca75  1  0.57293469  0.43449964  0.40343304  1
  Ca2+  Ca76  1  0.74938297  0.90135235  0.91167761  1
  Ca2+  Ca77  1  0.42939107  0.41572209  0.25699584  1
  Ca2+  Ca78  1  0.92811669  0.90644223  0.08236649  1
  Ca2+  Ca79  1  0.91949962  0.41785176  0.41023203  1
  Ca2+  Ca80  1  0.10091478  0.39953929  0.91309988  1
  Ca2+  Ca81  1  0.08829733  0.40003050  0.91520855  1
  Ca2+  Ca82  1  0.26841324  0.40377943  0.08200815  1
  Ca2+  Ca83  1  0.24529026  0.40124359  0.42019878  1
  Ca2+  Ca84  1  0.58321032  0.43441751  0.40538967  1
  Ca2+  Ca85  1  0.42252540  0.40854474  0.58150469  1
  Ca2+  Ca86  1  0.40298188  0.90364862  0.58564381  1
  Ca2+  Ca87  1  0.57167021  0.92160953  0.38162872  1
  Ca2+  Ca88  1  0.08125821  0.90096634  0.24808332  1
  Ca2+  Ca89  1  0.25489107  0.91677967  0.05899006  1
  Ca2+  Ca90  1  0.55412327  0.91256386  0.09697372  1
  Ca2+  Ca91  1  0.75404815  0.43119613  0.27413937  1
  Ca2+  Ca92  1  0.73967377  0.89934559  0.25579495  1
  Ca2+  Ca93  1  0.39713734  0.91121456  0.92755630  1
  Ca2+  Ca94  1  0.25806006  0.40148066  0.08603611  1
  Ca2+  Ca95  1  0.75891784  0.90318556  0.90799601  1
  Ca2+  Ca96  1  0.26668363  0.40775817  0.75255125  1
  Ca2+  Ca97  1  0.91008184  0.39214166  0.75071441  1
  Ca2+  Ca98  1  0.91185774  0.39816554  0.09288635  1
  Ca2+  Ca99  1  0.91920518  0.91192454  0.75642470  1
  Ca2+  Ca100  1  0.57174026  0.40371016  0.75077756  1
  Ca2+  Ca101  1  0.74361601  0.43343685  0.27389356  1
  Ca2+  Ca102  1  0.90855390  0.41787428  0.41022976  1
  Ca2+  Ca103  1  0.93131441  0.91325002  0.75878965  1
  Ca2+  Ca104  1  0.07304545  0.41077321  0.26274300  1
  Ca2+  Ca105  1  0.90895977  0.90501307  0.41626740  1
  Ca2+  Ca106  1  0.41001290  0.40802378  0.58082780  1
  Ca2+  Ca107  1  0.75167455  0.90365864  0.58447593  1
  Mn3.34+  Mn108  1  0.08232508  0.33125349  0.08573300  1
  Mn3.34+  Mn109  1  0.08289665  0.33540303  0.42560804  1
  Mn3.34+  Mn110  1  0.08475730  0.32897178  0.74313645  1
  Mn3.34+  Mn111  1  0.08641502  0.83367073  0.08327320  1
  Mn3.34+  Mn112  1  0.08838230  0.83062699  0.41740600  1
  Mn3.34+  Mn113  1  0.08888676  0.83519548  0.75108042  1
  Mn3.34+  Mn114  1  0.42318053  0.33174627  0.08206373  1
  Mn3.34+  Mn115  1  0.41887997  0.33521660  0.41793560  1
  Mn3.34+  Mn116  1  0.41932546  0.32949595  0.75592192  1
  Mn3.34+  Mn117  1  0.41215518  0.83674776  0.08796110  1
  Mn3.34+  Mn118  1  0.41707322  0.83366001  0.41441866  1
  Mn3.34+  Mn119  1  0.41956594  0.84140112  0.75509617  1
  Mn3.34+  Mn120  1  0.74676746  0.33198270  0.07979988  1
  Mn3.34+  Mn121  1  0.74416979  0.33153086  0.41890947  1
  Mn3.34+  Mn122  1  0.74768241  0.33071974  0.75033450  1
  Mn3.34+  Mn123  1  0.74795426  0.83188268  0.08682963  1
  Mn3.34+  Mn124  1  0.74444911  0.82734808  0.42220655  1
  Mn3.34+  Mn125  1  0.74811832  0.83058049  0.74767945  1
  Mn3.34+  Mn126  1  0.24912081  0.33699821  0.25421046  1
  Mn3.34+  Mn127  1  0.24418274  0.33174408  0.58484597  1
  Mn3.34+  Mn128  1  0.26306364  0.33604326  0.90667232  1
  Mn3.34+  Mn129  1  0.25226570  0.83259303  0.25170623  1
  Mn3.34+  Mn130  1  0.25352252  0.84006387  0.58109931  1
  Mn3.34+  Mn131  1  0.24886052  0.83901105  0.91260633  1
  Mn3.34+  Mn132  1  0.58912452  0.33201248  0.24802237  1
  Mn3.34+  Mn133  1  0.58923202  0.33373296  0.58552079  1
  Mn3.34+  Mn134  1  0.58204047  0.33903993  0.91001957  1
  Mn3.34+  Mn135  1  0.58017867  0.83561689  0.24718641  1
  Mn3.34+  Mn136  1  0.58040032  0.83648972  0.57803737  1
  Mn3.34+  Mn137  1  0.57875411  0.83669155  0.91744749  1
  Mn3.34+  Mn138  1  0.91450512  0.33507755  0.24957405  1
  Mn3.34+  Mn139  1  0.91720147  0.33468545  0.58310135  1
  Mn3.34+  Mn140  1  0.91506424  0.32707084  0.91342928  1
  Mn3.34+  Mn141  1  0.91381057  0.83022617  0.24464301  1
  Mn3.34+  Mn142  1  0.91876106  0.83140896  0.58190712  1
  Mn3.34+  Mn143  1  0.92310953  0.83788559  0.92189489  1
  Mn3.34+  Mn144  1  0.92133630  0.67479441  0.57625712  1
  Mn3.34+  Mn145  1  0.41576466  0.16488270  0.42398518  1
  Mn3.34+  Mn146  1  0.91809595  0.15879539  0.90777166  1
  Mn3.34+  Mn147  1  0.90874654  0.66411583  0.24740637  1
  Mn3.34+  Mn148  1  0.25928420  0.15693471  0.90335472  1
  Mn3.34+  Mn149  1  0.08665931  0.67320713  0.74764759  1
  Mn3.34+  Mn150  1  0.07650070  0.67009804  0.08968300  1
  Mn3.34+  Mn151  1  0.91035780  0.66684290  0.57236253  1
  Mn3.34+  Mn152  1  0.08569771  0.66759835  0.41718493  1
  Mn3.34+  Mn153  1  0.41958886  0.66365440  0.42395788  1
  Mn3.34+  Mn154  1  0.41834280  0.15472234  0.75711702  1
  Mn3.34+  Mn155  1  0.42534722  0.66143265  0.74621973  1
  Mn3.34+  Mn156  1  0.25562971  0.67019365  0.91588601  1
  Mn3.34+  Mn157  1  0.75185561  0.17498464  0.41921911  1
  Mn3.34+  Mn158  1  0.41304031  0.17103729  0.08343810  1
  Mn3.34+  Mn159  1  0.57799792  0.17706682  0.25030296  1
  Mn3.34+  Mn160  1  0.41277544  0.66903344  0.74646810  1
  Mn3.34+  Mn161  1  0.08654402  0.16081839  0.74653272  1
  Mn3.34+  Mn162  1  0.09119167  0.16936322  0.42104745  1
  Mn3.34+  Mn163  1  0.57597610  0.16694915  0.58965525  1
  Mn3.34+  Mn164  1  0.25409322  0.66435117  0.57296810  1
  Mn3.34+  Mn165  1  0.74919353  0.17008358  0.75251043  1
  Mn3.34+  Mn166  1  0.75228450  0.16626441  0.08843208  1
  Mn3.34+  Mn167  1  0.25533682  0.16533578  0.25089056  1
  Mn3.34+  Mn168  1  0.08430304  0.16173951  0.08074856  1
  Mn3.34+  Mn169  1  0.09544339  0.15684133  0.08137325  1
  Mn3.34+  Mn170  1  0.58085922  0.66153276  0.57230055  1
  Mn3.34+  Mn171  1  0.24335064  0.65945453  0.25175653  1
  Mn3.34+  Mn172  1  0.25540062  0.66471670  0.25247510  1
  Mn3.34+  Mn173  1  0.58385161  0.67069036  0.24788214  1
  Mn3.34+  Mn174  1  0.91582395  0.16812944  0.24958105  1
  Mn3.34+  Mn175  1  0.25100260  0.16300997  0.59032524  1
  Mn3.34+  Mn176  1  0.74254237  0.16941836  0.42088492  1
  Mn3.34+  Mn177  1  0.91482278  0.67013218  0.92276939  1
  Mn3.34+  Mn178  1  0.42254539  0.66856683  0.08604386  1
  Mn3.34+  Mn179  1  0.58867593  0.16873651  0.24693035  1
  Mn3.34+  Mn180  1  0.56676763  0.00183571  0.59182544  1
  Mn3.34+  Mn181  1  0.42050025  0.50024313  0.06250595  1
  Mn3.34+  Mn182  1  0.40251974  0.00296644  0.74617708  1
  Mn3.34+  Mn183  1  0.57754829  -0.00334531  0.59167586  1
  Mn3.34+  Mn184  1  0.90039736  0.49342453  0.91462129  1
  Mn3.34+  Mn185  1  0.24744460  0.00175016  0.59485107  1
  Mn3.34+  Mn186  1  0.54900926  -0.00130844  0.89486171  1
  Mn3.34+  Mn187  1  0.75372804  0.00165595  0.08759306  1
  Mn3.34+  Mn188  1  0.06771235  0.50170679  0.09193435  1
  Mn3.34+  Mn189  1  0.07429967  0.49394270  0.73897660  1
  Mn3.34+  Mn190  1  0.07904397  0.50602077  0.09202639  1
  Mn3.34+  Mn191  1  0.74746240  0.48975365  0.75649437  1
  Mn3.34+  Mn192  1  0.74240665  0.49976302  0.08192004  1
  Mn3.34+  Mn193  1  0.08881367  0.49933969  0.74104983  1
  Mn3.34+  Mn194  1  0.41907838  0.49624752  0.75393452  1
  Mn3.34+  Mn195  1  0.74046211  0.00112643  0.74481666  1
  Mn3.34+  Mn196  1  0.24710056  -0.00325038  0.24156946  1
  Mn3.34+  Mn197  1  0.91367256  -0.00181717  0.24943766  1
  Mn3.34+  Mn198  1  0.73509862  0.49612374  0.76014452  1
  Mn3.34+  Mn199  1  0.08202476  -0.00273766  0.06915814  1
  Mn3.34+  Mn200  1  0.93544415  0.00157165  0.59473018  1
  Mn3.34+  Mn201  1  0.08573036  0.50527429  0.41794967  1
  Mn3.34+  Mn202  1  0.57706471  0.50499791  0.59139564  1
  Mn3.34+  Mn203  1  0.75460676  0.50678810  0.08323418  1
  Mn3.34+  Mn204  1  0.91367098  0.50050011  0.91340599  1
  Mn3.34+  Mn205  1  0.09907333  0.00055121  0.74021517  1
  Mn3.34+  Mn206  1  0.57732973  0.49994656  0.93004397  1
  Mn3.34+  Mn207  1  0.24577234  0.50175548  0.26805279  1
  Mn3.34+  Mn208  1  0.25851272  -0.01068938  0.24471585  1
  Mn3.34+  Mn209  1  0.90820552  0.50223743  0.58500538  1
  Mn3.34+  Mn210  1  0.74363621  -0.00421000  0.08729443  1
  Mn3.34+  Mn211  1  0.25766260  0.50162627  0.58276912  1
  Mn3.34+  Mn212  1  0.09283894  -0.00301401  0.42496287  1
  Mn3.34+  Mn213  1  0.55914854  0.00491289  0.89096035  1
  Mn3.34+  Mn214  1  0.41355796  -0.00073744  0.41852576  1
  Mn3.34+  Mn215  1  0.74600788  0.00005795  0.41683792  1
  O2-  O216  1  -0.00020357  0.15261263  -0.00413278  1
  O2-  O217  1  0.00811104  0.16519130  0.32875399  1
  O2-  O218  1  0.00155039  0.15812260  0.67672941  1
  O2-  O219  1  0.00649979  0.64977002  -0.00383279  1
  O2-  O220  1  -0.00555447  0.65471434  0.34663682  1
  O2-  O221  1  -0.00720154  0.64831767  0.66197248  1
  O2-  O222  1  0.33134815  0.16606232  -0.00186659  1
  O2-  O223  1  0.33982443  0.14400611  0.33113572  1
  O2-  O224  1  0.33488038  0.17205306  0.67165493  1
  O2-  O225  1  0.33765828  0.65569234  -0.00156543  1
  O2-  O226  1  0.33974539  0.64411934  0.32646859  1
  O2-  O227  1  0.33190639  0.66004923  0.66587646  1
  O2-  O228  1  0.66484202  0.14960451  0.01558036  1
  O2-  O229  1  0.66714489  0.15973369  0.33286930  1
  O2-  O230  1  0.67025890  0.15023295  0.66561858  1
  O2-  O231  1  0.65878972  0.66741102  0.00020960  1
  O2-  O232  1  0.66764612  0.66941277  0.32351283  1
  O2-  O233  1  0.65833710  0.66922239  0.65271728  1
  O2-  O234  1  0.17170521  0.16716785  -0.00809533  1
  O2-  O235  1  0.16911264  0.15269600  0.33075893  1
  O2-  O236  1  0.16505998  0.16241270  0.66337122  1
  O2-  O237  1  0.16777786  0.65039761  0.00881527  1
  O2-  O238  1  0.16213265  0.64487132  0.32793329  1
  O2-  O239  1  0.16933173  0.66701127  0.66531493  1
  O2-  O240  1  0.50254057  0.17120987  0.01098386  1
  O2-  O241  1  0.50139259  0.15167179  0.33304335  1
  O2-  O242  1  0.49289362  0.17168218  0.66977710  1
  O2-  O243  1  0.50445580  0.66300228  0.01520012  1
  O2-  O244  1  0.50720937  0.65741292  0.34278663  1
  O2-  O245  1  0.50033352  0.66399258  0.66191225  1
  O2-  O246  1  0.83374541  0.15401546  -0.00462003  1
  O2-  O247  1  0.83262397  0.15221380  0.33906212  1
  O2-  O248  1  0.83389190  0.15523863  0.67634783  1
  O2-  O249  1  0.83276142  0.66431288  -0.00761701  1
  O2-  O250  1  0.83340416  0.66844059  0.33089250  1
  O2-  O251  1  0.83081079  0.65892982  0.65633896  1
  O2-  O252  1  0.00393504  0.34001694  -0.00321843  1
  O2-  O253  1  -0.00799603  0.34267071  0.34178082  1
  O2-  O254  1  -0.00195510  0.34526390  0.66871564  1
  O2-  O255  1  0.00475478  0.84829953  0.00014139  1
  O2-  O256  1  -0.00594248  0.84917392  0.33424322  1
  O2-  O257  1  0.00194546  0.84928578  0.66226691  1
  O2-  O258  1  0.33412080  0.34058546  -0.00036227  1
  O2-  O259  1  0.33780779  0.35348504  0.33324589  1
  O2-  O260  1  0.34059777  0.34237694  0.66391542  1
  O2-  O261  1  0.33180813  0.83729451  0.00304170  1
  O2-  O262  1  0.33051694  0.84121917  0.33603799  1
  O2-  O263  1  0.33211840  0.83457641  0.66563413  1
  O2-  O264  1  0.66197565  0.33361634  -0.00121526  1
  O2-  O265  1  0.67206461  0.30713705  0.33050744  1
  O2-  O266  1  0.66379324  0.35112248  0.67216513  1
  O2-  O267  1  0.66671350  0.85893597  0.00343339  1
  O2-  O268  1  0.66446999  0.83652490  0.33862240  1
  O2-  O269  1  0.67050017  0.83746599  0.66104512  1
  O2-  O270  1  0.17407296  0.34414899  0.00039549  1
  O2-  O271  1  0.15582732  0.33894316  0.33089273  1
  O2-  O272  1  0.17616299  0.34785999  0.67751183  1
  O2-  O273  1  0.17039393  0.84051937  0.00614722  1
  O2-  O274  1  0.16306790  0.84738163  0.33050820  1
  O2-  O275  1  0.16806854  0.82768436  0.66322967  1
  O2-  O276  1  0.50651585  0.32677475  0.00229157  1
  O2-  O277  1  0.51439399  0.34929238  0.34139589  1
  O2-  O278  1  0.49729582  0.34614497  0.66482462  1
  O2-  O279  1  0.49686584  0.85048261  -0.00200301  1
  O2-  O280  1  0.49903293  0.84473936  0.33190785  1
  O2-  O281  1  0.49518764  0.83916401  0.65681510  1
  O2-  O282  1  0.84212431  0.33362623  0.00315011  1
  O2-  O283  1  0.82605700  0.34730032  0.33145040  1
  O2-  O284  1  0.82929912  0.34385142  0.66378525  1
  O2-  O285  1  0.83365826  0.85130382  0.00322720  1
  O2-  O286  1  0.83276064  0.83838253  0.33722685  1
  O2-  O287  1  0.84177160  0.84492606  0.67201401  1
  O2-  O288  1  0.00471325  0.17610264  0.16588454  1
  O2-  O289  1  0.00453734  0.18529209  0.48599991  1
  O2-  O290  1  0.00225388  0.17965316  0.83628385  1
  O2-  O291  1  0.00181505  0.68118826  0.17139136  1
  O2-  O292  1  0.00522720  0.69060720  0.50510619  1
  O2-  O293  1  -0.00188127  0.66185934  0.82694505  1
  O2-  O294  1  0.33825389  0.17702751  0.17258685  1
  O2-  O295  1  0.33067153  0.17933202  0.49553753  1
  O2-  O296  1  0.33415163  0.18535947  0.83157762  1
  O2-  O297  1  0.32011819  0.67344939  0.15756866  1
  O2-  O298  1  0.33324063  0.68813391  0.49815408  1
  O2-  O299  1  0.32795940  0.67593647  0.82267029  1
  O2-  O300  1  0.66914993  0.18985540  0.17197236  1
  O2-  O301  1  0.66363812  0.18735241  0.50126859  1
  O2-  O302  1  0.68039227  0.18296915  0.84378949  1
  O2-  O303  1  0.65228687  0.68131956  0.16466847  1
  O2-  O304  1  0.65820463  0.68404299  0.50023951  1
  O2-  O305  1  0.67090983  0.67941346  0.83643651  1
  O2-  O306  1  0.16719184  0.17775073  0.17195523  1
  O2-  O307  1  0.17467605  0.18458364  0.49485941  1
  O2-  O308  1  0.16992038  0.17786110  0.83563518  1
  O2-  O309  1  0.16835647  0.68099670  0.16645436  1
  O2-  O310  1  0.16633847  0.68758035  0.50280786  1
  O2-  O311  1  0.16013089  0.68002050  0.84501474  1
  O2-  O312  1  0.49747070  0.19382212  0.17155223  1
  O2-  O313  1  0.49997979  0.18204502  0.49844031  1
  O2-  O314  1  0.49033052  0.18969138  0.82325016  1
  O2-  O315  1  0.48099695  0.67031886  0.18394899  1
  O2-  O316  1  0.49659992  0.68825856  0.50177203  1
  O2-  O317  1  0.50254308  0.67567444  0.82435242  1
  O2-  O318  1  0.83748004  0.17616083  0.16471927  1
  O2-  O319  1  0.83016366  0.18241502  0.50204330  1
  O2-  O320  1  0.83424648  0.18631314  0.83722215  1
  O2-  O321  1  0.83011686  0.67686230  0.17547386  1
  O2-  O322  1  0.83103498  0.69600762  0.50320380  1
  O2-  O323  1  0.84211839  0.67800038  0.83478719  1
  O2-  O324  1  -0.00011898  0.32136271  0.17276498  1
  O2-  O325  1  0.00009031  0.31776542  0.49998441  1
  O2-  O326  1  0.00680724  0.31819632  0.83978432  1
  O2-  O327  1  0.00022993  0.82898688  0.16731869  1
  O2-  O328  1  -0.00377613  0.81368971  0.49718694  1
  O2-  O329  1  -0.00790495  0.83244628  0.82570062  1
  O2-  O330  1  0.33093701  0.33182299  0.16241944  1
  O2-  O331  1  0.33540321  0.32497232  0.49778815  1
  O2-  O332  1  0.33251583  0.30477930  0.82586600  1
  O2-  O333  1  0.33068621  0.81601540  0.16776661  1
  O2-  O334  1  0.33885933  0.82073749  0.50534067  1
  O2-  O335  1  0.33815265  0.82236407  0.83999295  1
  O2-  O336  1  0.66182082  0.30962815  0.16221587  1
  O2-  O337  1  0.66551743  0.31381303  0.49741570  1
  O2-  O338  1  0.66387348  0.31537943  0.83126188  1
  O2-  O339  1  0.66852478  0.82022645  0.17035623  1
  O2-  O340  1  0.66756117  0.80895988  0.50444584  1
  O2-  O341  1  0.67645026  0.82757263  0.84292408  1
  O2-  O342  1  0.17177606  0.32716217  0.16057649  1
  O2-  O343  1  0.17426113  0.31999473  0.49209595  1
  O2-  O344  1  0.16514052  0.31777068  0.84213208  1
  O2-  O345  1  0.16187063  0.81647070  0.16971687  1
  O2-  O346  1  0.16661815  0.81903850  0.50406632  1
  O2-  O347  1  0.16597837  0.81995749  0.83269223  1
  O2-  O348  1  0.49820049  0.32219087  0.17352231  1
  O2-  O349  1  0.49237571  0.32126037  0.51031552  1
  O2-  O350  1  0.50505207  0.31020067  0.82924869  1
  O2-  O351  1  0.50517351  0.82568770  0.15948445  1
  O2-  O352  1  0.50173549  0.81473864  0.49639295  1
  O2-  O353  1  0.50140419  0.81985709  0.83477022  1
  O2-  O354  1  0.83584950  0.32429840  0.16416558  1
  O2-  O355  1  0.83440132  0.32006614  0.48899761  1
  O2-  O356  1  0.84037412  0.31107752  0.82604622  1
  O2-  O357  1  0.83233498  0.81534592  0.16681502  1
  O2-  O358  1  0.83431115  0.81784543  0.50062145  1
  O2-  O359  1  0.83091269  0.82584209  0.84122180  1
  O2-  O360  1  0.08155731  0.07130106  0.13208518  1
  O2-  O361  1  0.08120216  0.08258076  0.42821018  1
  O2-  O362  1  0.07963941  0.07897139  0.78035662  1
  O2-  O363  1  0.08358083  0.58570671  0.12359203  1
  O2-  O364  1  0.08035378  0.58477809  0.44988566  1
  O2-  O365  1  0.09967185  0.57967760  0.77791547  1
  O2-  O366  1  0.42829669  0.08605938  0.11243923  1
  O2-  O367  1  0.41606344  0.08090348  0.44834202  1
  O2-  O368  1  0.42453462  0.07496665  0.79663555  1
  O2-  O369  1  0.40596486  0.57790625  0.11153618  1
  O2-  O370  1  0.43639684  0.58260541  0.42442502  1
  O2-  O371  1  0.40688579  0.58073031  0.76686004  1
  O2-  O372  1  0.74495436  0.08014260  0.13040481  1
  O2-  O373  1  0.74043343  0.08121442  0.45620594  1
  O2-  O374  1  0.75242038  0.08449860  0.77709710  1
  O2-  O375  1  0.73174608  0.58063262  0.12242494  1
  O2-  O376  1  0.75108626  0.57351082  0.43090334  1
  O2-  O377  1  0.75990896  0.57617407  0.79117776  1
  O2-  O378  1  0.26376227  0.07403016  0.19994306  1
  O2-  O379  1  0.25088132  0.08121482  0.56106023  1
  O2-  O380  1  0.24447959  0.07985214  0.90458389  1
  O2-  O381  1  0.24214109  0.57464608  0.20523733  1
  O2-  O382  1  0.23689203  0.57982644  0.56288708  1
  O2-  O383  1  0.23611961  0.58432293  0.89702574  1
  O2-  O384  1  0.56774230  0.08517716  0.20180946  1
  O2-  O385  1  0.58319139  0.08105246  0.54941496  1
  O2-  O386  1  0.59702489  0.08440799  0.90071142  1
  O2-  O387  1  0.58078690  0.58532478  0.23104958  1
  O2-  O388  1  0.59821253  0.58012391  0.54442049  1
  O2-  O389  1  0.60182845  0.56209676  0.87017344  1
  O2-  O390  1  0.92846657  0.08114400  0.22293686  1
  O2-  O391  1  0.89616668  0.07331365  0.54734068  1
  O2-  O392  1  0.89587107  0.08307581  0.88229095  1
  O2-  O393  1  0.91002551  0.58282551  0.24202847  1
  O2-  O394  1  0.90661435  0.58378723  0.53546638  1
  O2-  O395  1  0.91168523  0.58017076  0.88615689  1
  O2-  O396  1  0.07029835  0.41791410  0.10588155  1
  O2-  O397  1  0.08338098  0.42310470  0.43839646  1
  O2-  O398  1  0.07411965  0.41554421  0.78226221  1
  O2-  O399  1  0.08099698  0.92140984  0.11154101  1
  O2-  O400  1  0.06025812  0.91571654  0.44981944  1
  O2-  O401  1  0.07771441  0.91933999  0.76722141  1
  O2-  O402  1  0.42246024  0.41897432  0.10484210  1
  O2-  O403  1  0.42851611  0.41955158  0.44660928  1
  O2-  O404  1  0.41391769  0.41706936  0.78465369  1
  O2-  O405  1  0.40804240  0.91717998  0.10269729  1
  O2-  O406  1  0.43222043  0.91936004  0.44758365  1
  O2-  O407  1  0.41750324  0.92607402  0.78981787  1
  O2-  O408  1  0.75488987  0.42120161  0.12281272  1
  O2-  O409  1  0.72486735  0.41048838  0.41913853  1
  O2-  O410  1  0.75936799  0.41230787  0.79006013  1
  O2-  O411  1  0.75966375  0.91704882  0.12032399  1
  O2-  O412  1  0.76729576  0.91979623  0.44308568  1
  O2-  O413  1  0.76842555  0.91925108  0.77327479  1
  O2-  O414  1  0.23915743  0.42431644  0.21936370  1
  O2-  O415  1  0.27058646  0.42039350  0.55102816  1
  O2-  O416  1  0.22895073  0.42238533  0.88591792  1
  O2-  O417  1  0.23739199  0.91300792  0.20891523  1
  O2-  O418  1  0.24769374  0.92437284  0.55241786  1
  O2-  O419  1  0.25556110  0.91761476  0.91050034  1
  O2-  O420  1  0.61256999  0.41672567  0.22287463  1
  O2-  O421  1  0.57384836  0.42343601  0.54257874  1
  O2-  O422  1  0.57471741  0.42539994  0.88551924  1
  O2-  O423  1  0.59827786  0.91707020  0.23296904  1
  O2-  O424  1  0.59495316  0.92425396  0.53323127  1
  O2-  O425  1  0.59767134  0.92146229  0.88370302  1
  O2-  O426  1  0.91591941  0.41724944  0.22972262  1
  O2-  O427  1  0.91141372  0.42033263  0.54519544  1
  O2-  O428  1  0.93247842  0.41598759  0.88627821  1
  O2-  O429  1  0.90619574  0.91665199  0.22592615  1
  O2-  O430  1  0.91200004  0.92166895  0.54898322  1
  O2-  O431  1  0.89429828  0.92246778  0.88881958  1
  O2-  O432  1  -0.01541657  0.00536334  0.02522431  1
  O2-  O433  1  0.00430322  0.00204472  0.32801634  1
  O2-  O434  1  -0.01789893  -0.00316897  0.70731428  1
  O2-  O435  1  -0.00098543  0.50452291  -0.00560240  1
  O2-  O436  1  -0.01246828  0.49961897  0.36516348  1
  O2-  O437  1  0.00343740  0.52291951  0.65753811  1
  O2-  O438  1  0.34294519  -0.01580486  0.00733252  1
  O2-  O439  1  0.33342889  0.01192763  0.33023067  1
  O2-  O440  1  0.34728265  -0.01071183  0.64859402  1
  O2-  O441  1  0.30202369  0.49478860  0.05571532  1
  O2-  O442  1  0.35563631  0.50021042  0.28667098  1
  O2-  O443  1  0.33041616  0.48586245  0.67406237  1
  O2-  O444  1  0.66318353  0.00410235  -0.00441793  1
  O2-  O445  1  0.66564416  0.01349366  0.34092272  1
  O2-  O446  1  0.68749411  0.00383925  0.63136109  1
  O2-  O447  1  0.68280452  0.50301423  -0.01696891  1
  O2-  O448  1  0.66373690  0.49636459  0.33710162  1
  O2-  O449  1  0.65648655  0.50624606  0.67722545  1
  O2-  O450  1  0.17469038  0.01176463  0.01909916  1
  O2-  O451  1  0.16154223  0.00778057  0.32144631  1
  O2-  O452  1  0.13656453  -0.00499825  0.63049006  1
  O2-  O453  1  0.15074725  0.50649493  -0.00215914  1
  O2-  O454  1  0.13768099  0.49913286  0.30739357  1
  O2-  O455  1  0.16824701  0.49528643  0.65932044  1
  O2-  O456  1  0.50949104  0.00378052  0.00460514  1
  O2-  O457  1  0.49666210  0.01609931  0.33688255  1
  O2-  O458  1  0.50400998  -0.00400358  0.68645129  1
  O2-  O459  1  0.53425737  0.50260939  0.04058045  1
  O2-  O460  1  0.50212911  0.48889641  0.32557256  1
  O2-  O461  1  0.49382896  0.47687012  0.66357577  1
  O2-  O462  1  0.82292798  0.01286923  -0.00288234  1
  O2-  O463  1  0.83524885  0.00540483  0.33817188  1
  O2-  O464  1  0.83518574  0.00610067  0.66515228  1
  O2-  O465  1  0.84651744  0.49150958  0.01510397  1
  O2-  O466  1  0.83656877  0.48181616  0.34612149  1
  O2-  O467  1  0.84155888  0.51066606  0.68790666  1
  O2-  O468  1  0.05955311  0.75279420  0.73102414  1
  O2-  O469  1  0.58430254  0.75877423  0.93441351  1
  O2-  O470  1  0.91033794  0.25129617  0.27043200  1
  O2-  O471  1  0.93424191  0.75256742  0.93203797  1
  O2-  O472  1  0.25452248  0.25313854  0.27088645  1
  O2-  O473  1  0.39994547  0.25179188  0.07002545  1
  O2-  O474  1  0.24709360  0.74788840  0.27855367  1
  O2-  O475  1  0.74660792  0.75597789  0.05956512  1
  O2-  O476  1  0.41230103  0.75012070  0.38813254  1
  O2-  O477  1  0.91493835  0.25606858  0.60036881  1
  O2-  O478  1  0.74428754  0.25004884  0.72133295  1
  O2-  O479  1  0.58654902  0.25215675  0.61039998  1
  O2-  O480  1  0.41648261  0.25033112  0.38778195  1
  O2-  O481  1  0.24776370  0.75036382  0.93611119  1
  O2-  O482  1  0.41289702  0.74995065  0.73244152  1
  O2-  O483  1  0.92889841  0.75157903  0.26660945  1
  O2-  O484  1  0.76003361  0.24627051  0.05981214  1
  O2-  O485  1  0.75526888  0.75315496  0.73629797  1
  O2-  O486  1  0.25484560  0.25086160  0.60217435  1
  O2-  O487  1  0.41509457  0.75001830  0.06761128  1
  O2-  O488  1  0.08657256  0.24822856  0.72938789  1
  O2-  O489  1  0.08264890  0.74951454  0.05927175  1
  O2-  O490  1  0.08632199  0.74952158  0.38489048  1
  O2-  O491  1  0.08540721  0.24894342  0.06773566  1
  O2-  O492  1  0.57045680  0.75313485  0.26777645  1
