# generated using pymatgen
data_Ca108Mn108O277
_symmetry_space_group_name_H-M   'P 1'
_cell_length_a   16.02336761
_cell_length_b   22.30124502
_cell_length_c   16.38744210
_cell_angle_alpha   90.00021787
_cell_angle_beta   90.00097216
_cell_angle_gamma   90.00271308
_symmetry_Int_Tables_number   1
_chemical_formula_structural   Ca108Mn108O277
_chemical_formula_sum   'Ca108 Mn108 O277'
_cell_volume   5855.90570931
_cell_formula_units_Z   1
loop_
 _symmetry_equiv_pos_site_id
 _symmetry_equiv_pos_as_xyz
  1  'x, y, z'
loop_
 _atom_type_symbol
 _atom_type_oxidation_number
  Ca2+  2.0
  Mn3.34+  3.34
  O2-  -2.0
loop_
 _atom_site_type_symbol
 _atom_site_label
 _atom_site_symmetry_multiplicity
 _atom_site_fract_x
 _atom_site_fract_y
 _atom_site_fract_z
 _atom_site_occupancy
  Ca2+  Ca0  1  0.08389913  0.25837155  0.25573680  1
  Ca2+  Ca1  1  0.08047336  0.24406354  0.58417448  1
  Ca2+  Ca2  1  0.09036020  0.26009695  0.91498558  1
  Ca2+  Ca3  1  0.09950319  0.75536485  0.22583275  1
  Ca2+  Ca4  1  0.10173070  0.74750621  0.59927410  1
  Ca2+  Ca5  1  0.09772518  0.73187851  0.92175148  1
  Ca2+  Ca6  1  0.41449758  0.25705492  0.22722564  1
  Ca2+  Ca7  1  0.42799513  0.25095311  0.60338594  1
  Ca2+  Ca8  1  0.41746759  0.25708641  0.91672035  1
  Ca2+  Ca9  1  0.40341956  0.75006951  0.24787394  1
  Ca2+  Ca10  1  0.40855386  0.75202656  0.58241957  1
  Ca2+  Ca11  1  0.40099900  0.74808682  0.91169657  1
  Ca2+  Ca12  1  0.74978537  0.25288770  0.23197666  1
  Ca2+  Ca13  1  0.74109716  0.25201614  0.57667434  1
  Ca2+  Ca14  1  0.73863196  0.25369182  0.93569875  1
  Ca2+  Ca15  1  0.74048255  0.75275296  0.23493188  1
  Ca2+  Ca16  1  0.73937584  0.75404868  0.58858562  1
  Ca2+  Ca17  1  0.75015879  0.75086946  0.92143503  1
  Ca2+  Ca18  1  0.26045428  0.26345716  0.07942397  1
  Ca2+  Ca19  1  0.23030736  0.25363388  0.41502019  1
  Ca2+  Ca20  1  0.26495566  0.25104901  0.74637704  1
  Ca2+  Ca21  1  0.24808590  0.73334992  0.06954524  1
  Ca2+  Ca22  1  0.26706712  0.75083601  0.41103994  1
  Ca2+  Ca23  1  0.25350609  0.74010533  0.76562562  1
  Ca2+  Ca24  1  0.56862045  0.25090600  0.07608887  1
  Ca2+  Ca25  1  0.58538792  0.25759733  0.43942294  1
  Ca2+  Ca26  1  0.56615420  0.26211656  0.74266869  1
  Ca2+  Ca27  1  0.57326464  0.73252537  0.06554448  1
  Ca2+  Ca28  1  0.56579716  0.75398028  0.41782305  1
  Ca2+  Ca29  1  0.58443120  0.74274731  0.76311554  1
  Ca2+  Ca30  1  0.90714340  0.24982943  0.08530663  1
  Ca2+  Ca31  1  0.93384667  0.24113082  0.42750740  1
  Ca2+  Ca32  1  0.92697142  0.25268956  0.74077436  1
  Ca2+  Ca33  1  0.92810554  0.74295098  0.06528568  1
  Ca2+  Ca34  1  0.91424416  0.75816904  0.41575164  1
  Ca2+  Ca35  1  0.91335635  0.74223582  0.76423737  1
  Ca2+  Ca36  1  0.12638245  0.57993175  0.22381308  1
  Ca2+  Ca37  1  0.41180433  0.58288380  0.58762023  1
  Ca2+  Ca38  1  0.56711988  0.09960844  0.07632939  1
  Ca2+  Ca39  1  0.24376077  0.06803642  0.06483542  1
  Ca2+  Ca40  1  0.23413951  0.10902299  0.74370219  1
  Ca2+  Ca41  1  0.75680605  0.09534436  0.94281977  1
  Ca2+  Ca42  1  0.93278716  0.08317233  0.08163390  1
  Ca2+  Ca43  1  0.91870907  0.58122009  0.40391295  1
  Ca2+  Ca44  1  0.41277608  0.09782033  0.91837872  1
  Ca2+  Ca45  1  0.40088407  0.58209580  0.58695798  1
  Ca2+  Ca46  1  0.09053582  0.58341852  0.62720513  1
  Ca2+  Ca47  1  0.75286450  0.09089530  0.23420783  1
  Ca2+  Ca48  1  0.57114080  0.58185730  0.40916054  1
  Ca2+  Ca49  1  0.58143559  0.09549863  0.42719851  1
  Ca2+  Ca50  1  0.95370434  0.10938148  0.74624519  1
  Ca2+  Ca51  1  0.76072204  0.60838420  0.91604295  1
  Ca2+  Ca52  1  0.09320724  0.06973103  0.26068983  1
  Ca2+  Ca53  1  0.22395529  0.60244836  0.76569648  1
  Ca2+  Ca54  1  0.39714425  0.09878485  0.60296737  1
  Ca2+  Ca55  1  0.57906191  0.59491980  0.75719243  1
  Ca2+  Ca56  1  0.40853574  0.60897631  0.93669626  1
  Ca2+  Ca57  1  0.74836826  0.59175503  0.23847622  1
  Ca2+  Ca58  1  0.75587963  0.10265177  0.57935448  1
  Ca2+  Ca59  1  0.95908544  0.61013057  0.77164561  1
  Ca2+  Ca60  1  0.11656982  0.57773290  0.22213252  1
  Ca2+  Ca61  1  0.56325848  0.10912225  0.74731707  1
  Ca2+  Ca62  1  0.40175496  0.08075751  0.24144091  1
  Ca2+  Ca63  1  0.76617692  0.09258478  0.93507690  1
  Ca2+  Ca64  1  0.55024429  0.10905835  0.74888223  1
  Ca2+  Ca65  1  0.40822194  0.09701904  0.60288536  1
  Ca2+  Ca66  1  0.59419711  0.09604315  0.42720299  1
  Ca2+  Ca67  1  0.75017399  0.60796608  0.91567208  1
  Ca2+  Ca68  1  0.08234465  0.08809153  0.92252069  1
  Ca2+  Ca69  1  0.38771324  0.59186433  0.23305291  1
  Ca2+  Ca70  1  0.92011681  0.08530873  0.08024253  1
  Ca2+  Ca71  1  0.08204477  0.06966687  0.26093253  1
  Ca2+  Ca72  1  0.25035800  0.41444290  0.40323998  1
  Ca2+  Ca73  1  0.93909724  0.91531799  0.39212565  1
  Ca2+  Ca74  1  0.90842621  0.90234438  0.74915159  1
  Ca2+  Ca75  1  0.93477352  0.41341192  0.74179591  1
  Ca2+  Ca76  1  0.92116292  0.90192301  0.74994544  1
  Ca2+  Ca77  1  0.92527814  0.40126823  0.08254407  1
  Ca2+  Ca78  1  0.23790562  0.92053550  0.38588300  1
  Ca2+  Ca79  1  0.41828737  0.41050406  0.59264203  1
  Ca2+  Ca80  1  0.41095765  0.90467426  0.58065200  1
  Ca2+  Ca81  1  0.93771728  0.40677639  0.42049064  1
  Ca2+  Ca82  1  0.73734847  0.41345199  0.59662838  1
  Ca2+  Ca83  1  0.57699339  0.89246689  0.08666568  1
  Ca2+  Ca84  1  0.93607299  0.40443990  0.08727096  1
  Ca2+  Ca85  1  0.72734937  0.41674140  0.59503110  1
  Ca2+  Ca86  1  0.57068984  0.40953527  0.41996630  1
  Ca2+  Ca87  1  0.57908500  0.90492127  0.41007908  1
  Ca2+  Ca88  1  0.75698142  0.89948861  0.92235511  1
  Ca2+  Ca89  1  0.25101837  0.92084906  0.38650074  1
  Ca2+  Ca90  1  0.39945628  0.90778342  0.24473588  1
  Ca2+  Ca91  1  0.08205160  0.90231463  0.57953669  1
  Ca2+  Ca92  1  0.11498159  0.93247101  0.95968705  1
  Ca2+  Ca93  1  0.76583101  0.90799158  0.24330979  1
  Ca2+  Ca94  1  0.58378695  0.89357099  0.75667340  1
  Ca2+  Ca95  1  0.39832032  0.41169358  0.24851541  1
  Ca2+  Ca96  1  0.74540399  0.40572496  0.24599769  1
  Ca2+  Ca97  1  0.76105059  0.90216193  0.58496265  1
  Ca2+  Ca98  1  0.92644994  0.40742175  0.41912449  1
  Ca2+  Ca99  1  0.38796918  0.91045068  0.92682462  1
  Ca2+  Ca100  1  0.75237939  0.40411891  0.91676224  1
  Ca2+  Ca101  1  0.57917098  0.40251481  0.08383145  1
  Ca2+  Ca102  1  0.75395685  0.90445872  0.24331523  1
  Ca2+  Ca103  1  0.24685743  0.90241491  0.75797571  1
  Ca2+  Ca104  1  0.10683643  0.41334319  0.24675738  1
  Ca2+  Ca105  1  0.93757578  0.90900273  0.08960297  1
  Ca2+  Ca106  1  0.24032281  0.40655326  0.74745760  1
  Ca2+  Ca107  1  0.25845141  0.90235223  0.75776818  1
  Mn3.34+  Mn108  1  0.09175600  0.33380505  0.08380440  1
  Mn3.34+  Mn109  1  0.08788576  0.33064877  0.41944169  1
  Mn3.34+  Mn110  1  0.08697329  0.33694740  0.75095701  1
  Mn3.34+  Mn111  1  0.08728149  0.83384921  0.08157065  1
  Mn3.34+  Mn112  1  0.08456472  0.82884543  0.41663797  1
  Mn3.34+  Mn113  1  0.08267766  0.82254957  0.75343015  1
  Mn3.34+  Mn114  1  0.41452019  0.33734530  0.07796687  1
  Mn3.34+  Mn115  1  0.41194973  0.33489266  0.41914698  1
  Mn3.34+  Mn116  1  0.41395730  0.33631469  0.75439578  1
  Mn3.34+  Mn117  1  0.41100989  0.83008000  0.08391624  1
  Mn3.34+  Mn118  1  0.41571167  0.83355762  0.41706597  1
  Mn3.34+  Mn119  1  0.41814293  0.82832844  0.74996822  1
  Mn3.34+  Mn120  1  0.74834110  0.33319488  0.08393047  1
  Mn3.34+  Mn121  1  0.74877040  0.33378507  0.41567153  1
  Mn3.34+  Mn122  1  0.74985567  0.33609495  0.75603594  1
  Mn3.34+  Mn123  1  0.75188601  0.82974923  0.08243655  1
  Mn3.34+  Mn124  1  0.75134888  0.82830319  0.41877037  1
  Mn3.34+  Mn125  1  0.74813937  0.82915095  0.75389038  1
  Mn3.34+  Mn126  1  0.25129593  0.33744215  0.24765714  1
  Mn3.34+  Mn127  1  0.24621768  0.33691404  0.58043948  1
  Mn3.34+  Mn128  1  0.25002739  0.34061201  0.91679080  1
  Mn3.34+  Mn129  1  0.24562156  0.83524956  0.24019018  1
  Mn3.34+  Mn130  1  0.24885550  0.83288171  0.57816604  1
  Mn3.34+  Mn131  1  0.24500838  0.82857692  0.92071762  1
  Mn3.34+  Mn132  1  0.57973873  0.33710901  0.25222161  1
  Mn3.34+  Mn133  1  0.57965188  0.33627432  0.58639897  1
  Mn3.34+  Mn134  1  0.58016880  0.33368775  0.91184838  1
  Mn3.34+  Mn135  1  0.57842419  0.83328282  0.24736186  1
  Mn3.34+  Mn136  1  0.58259589  0.83078077  0.58309001  1
  Mn3.34+  Mn137  1  0.57811261  0.82511492  0.91934738  1
  Mn3.34+  Mn138  1  0.91840837  0.33426392  0.25060900  1
  Mn3.34+  Mn139  1  0.91808845  0.33363182  0.58501300  1
  Mn3.34+  Mn140  1  0.92224478  0.33555742  0.90882664  1
  Mn3.34+  Mn141  1  0.92509162  0.83308547  0.24542537  1
  Mn3.34+  Mn142  1  0.92009760  0.83118602  0.57594045  1
  Mn3.34+  Mn143  1  0.92333212  0.83134703  0.91764887  1
  Mn3.34+  Mn144  1  0.92305077  0.67852070  0.24665211  1
  Mn3.34+  Mn145  1  0.08340311  0.65970456  0.06740323  1
  Mn3.34+  Mn146  1  0.24292262  0.16096832  0.24493290  1
  Mn3.34+  Mn147  1  0.74791377  0.17110934  0.75259870  1
  Mn3.34+  Mn148  1  0.75050253  0.66868228  0.07871605  1
  Mn3.34+  Mn149  1  0.41545760  0.66320368  0.75839834  1
  Mn3.34+  Mn150  1  0.57890356  0.17088967  0.91924153  1
  Mn3.34+  Mn151  1  0.41335417  0.17219779  0.41760750  1
  Mn3.34+  Mn152  1  0.09603384  0.66788698  0.41936624  1
  Mn3.34+  Mn153  1  0.91357976  0.16008713  0.25530141  1
  Mn3.34+  Mn154  1  0.58204785  0.66808091  0.24600104  1
  Mn3.34+  Mn155  1  0.74788549  0.67544914  0.41557601  1
  Mn3.34+  Mn156  1  0.39972321  0.16647869  0.41918413  1
  Mn3.34+  Mn157  1  0.08277405  0.16849352  0.08559267  1
  Mn3.34+  Mn158  1  0.25093003  0.66682364  0.58590684  1
  Mn3.34+  Mn159  1  0.58781637  0.16504289  0.24568431  1
  Mn3.34+  Mn160  1  0.92524340  0.16685204  0.57922731  1
  Mn3.34+  Mn161  1  0.25359463  0.16525730  0.24510241  1
  Mn3.34+  Mn162  1  0.91374264  0.67275089  0.24596432  1
  Mn3.34+  Mn163  1  0.25498169  0.16751427  0.91746452  1
  Mn3.34+  Mn164  1  0.92383486  0.17365620  0.91512817  1
  Mn3.34+  Mn165  1  0.40879444  0.66259415  0.41570095  1
  Mn3.34+  Mn166  1  0.25381024  0.67047756  0.24292948  1
  Mn3.34+  Mn167  1  0.90909748  0.66305200  0.58076319  1
  Mn3.34+  Mn168  1  0.75825968  0.16628116  0.75481166  1
  Mn3.34+  Mn169  1  0.59300803  0.65805248  0.57910880  1
  Mn3.34+  Mn170  1  0.23625015  0.16702587  0.58292679  1
  Mn3.34+  Mn171  1  0.24098458  0.16114143  0.91480887  1
  Mn3.34+  Mn172  1  0.58207072  0.66246122  0.58116851  1
  Mn3.34+  Mn173  1  0.92312420  0.16570644  0.25653308  1
  Mn3.34+  Mn174  1  0.75066137  0.66777826  0.75313688  1
  Mn3.34+  Mn175  1  0.75335849  0.17155253  0.41911522  1
  Mn3.34+  Mn176  1  0.57711806  0.16954918  0.24796758  1
  Mn3.34+  Mn177  1  0.57241326  0.66256484  0.24405701  1
  Mn3.34+  Mn178  1  0.08619648  0.66267314  0.42171861  1
  Mn3.34+  Mn179  1  0.91784463  0.66942149  0.57978905  1
  Mn3.34+  Mn180  1  0.41023391  0.00236929  0.41706123  1
  Mn3.34+  Mn181  1  0.58946212  -0.00413249  0.91105877  1
  Mn3.34+  Mn182  1  0.92541498  0.00135390  0.91318319  1
  Mn3.34+  Mn183  1  0.91733208  0.00036898  0.57955736  1
  Mn3.34+  Mn184  1  0.24412360  0.00077801  0.58053490  1
  Mn3.34+  Mn185  1  0.41424496  0.49930465  0.07722282  1
  Mn3.34+  Mn186  1  0.75195098  -0.00189812  0.08121977  1
  Mn3.34+  Mn187  1  0.08959697  0.00189629  0.75857098  1
  Mn3.34+  Mn188  1  0.40658023  0.49983388  0.40355107  1
  Mn3.34+  Mn189  1  0.75326102  0.50250630  0.07609479  1
  Mn3.34+  Mn190  1  0.41113083  -0.00251934  0.75440186  1
  Mn3.34+  Mn191  1  0.58545961  0.50041540  0.91508956  1
  Mn3.34+  Mn192  1  0.74744188  0.50156570  0.74295582  1
  Mn3.34+  Mn193  1  0.09281332  0.50121115  0.41418996  1
  Mn3.34+  Mn194  1  0.58210513  -0.00605063  0.58676185  1
  Mn3.34+  Mn195  1  0.92475500  0.50105813  0.25102269  1
  Mn3.34+  Mn196  1  0.40949650  -0.00438565  0.06974374  1
  Mn3.34+  Mn197  1  0.57430790  0.49874032  0.24769212  1
  Mn3.34+  Mn198  1  0.08056437  0.00307065  0.41359912  1
  Mn3.34+  Mn199  1  0.57431024  0.00121869  0.91008651  1
  Mn3.34+  Mn200  1  0.57144262  -0.00101501  0.25462244  1
  Mn3.34+  Mn201  1  0.07854310  -0.00173693  0.75624496  1
  Mn3.34+  Mn202  1  0.73880991  0.50361863  0.42267073  1
  Mn3.34+  Mn203  1  0.76140783  -0.00074936  0.41533649  1
  Mn3.34+  Mn204  1  0.77271345  0.00430468  0.41313229  1
  Mn3.34+  Mn205  1  0.23174014  0.50454714  0.93950879  1
  Mn3.34+  Mn206  1  0.75935721  -0.00159742  0.75278564  1
  Mn3.34+  Mn207  1  0.59702876  -0.00044827  0.58486899  1
  Mn3.34+  Mn208  1  0.42330355  0.49917072  0.74357868  1
  Mn3.34+  Mn209  1  0.23933140  0.49944485  0.59376179  1
  Mn3.34+  Mn210  1  0.92394275  0.50331943  0.59972820  1
  Mn3.34+  Mn211  1  0.93483657  0.50502190  0.92460738  1
  Mn3.34+  Mn212  1  0.75025140  0.50736804  0.42117430  1
  Mn3.34+  Mn213  1  0.24212671  0.49677096  0.93999138  1
  Mn3.34+  Mn214  1  0.57232122  0.49430874  0.91403344  1
  Mn3.34+  Mn215  1  0.94917210  0.50664473  0.93030855  1
  O2-  O216  1  0.00039678  0.15208174  0.00363731  1
  O2-  O217  1  0.00807935  0.14713076  0.32482224  1
  O2-  O218  1  -0.00318856  0.17689039  0.66364943  1
  O2-  O219  1  0.00234897  0.67267978  -0.00006716  1
  O2-  O220  1  -0.00768055  0.67633693  0.34355021  1
  O2-  O221  1  -0.00039799  0.67952015  0.66071245  1
  O2-  O222  1  0.32519192  0.14798706  -0.00025115  1
  O2-  O223  1  0.33739483  0.14719542  0.32885378  1
  O2-  O224  1  0.32413538  0.16731707  0.66425469  1
  O2-  O225  1  0.35487335  0.68346761  0.00838858  1
  O2-  O226  1  0.33154559  0.66271953  0.33070061  1
  O2-  O227  1  0.33180764  0.64551491  0.66879052  1
  O2-  O228  1  0.66390931  0.15229394  -0.00546090  1
  O2-  O229  1  0.66399434  0.14683978  0.33087460  1
  O2-  O230  1  0.66894904  0.14686524  0.67282676  1
  O2-  O231  1  0.67111288  0.66514063  -0.00170443  1
  O2-  O232  1  0.66416401  0.65394863  0.32665612  1
  O2-  O233  1  0.66469642  0.65262717  0.67061242  1
  O2-  O234  1  0.16554231  0.15085394  0.00044202  1
  O2-  O235  1  0.16484915  0.15108444  0.32199727  1
  O2-  O236  1  0.17064460  0.18346951  0.66569020  1
  O2-  O237  1  0.16740276  0.65930890  0.00448100  1
  O2-  O238  1  0.15743948  0.65632810  0.32099691  1
  O2-  O239  1  0.16806920  0.66534909  0.65972506  1
  O2-  O240  1  0.49854486  0.15980346  -0.00728353  1
  O2-  O241  1  0.49968361  0.13991425  0.33161859  1
  O2-  O242  1  0.49104607  0.15725661  0.65855746  1
  O2-  O243  1  0.48361514  0.68830332  -0.01239464  1
  O2-  O244  1  0.49787862  0.64978002  0.33440596  1
  O2-  O245  1  0.49434022  0.64665276  0.66186706  1
  O2-  O246  1  0.84456463  0.15975464  -0.00081137  1
  O2-  O247  1  0.82727207  0.14827399  0.33315620  1
  O2-  O248  1  0.83731110  0.15388024  0.67319961  1
  O2-  O249  1  0.82881158  0.67339368  -0.00248327  1
  O2-  O250  1  0.83017624  0.68523346  0.32859989  1
  O2-  O251  1  0.83792634  0.66221856  0.67198318  1
  O2-  O252  1  -0.00578002  0.33512713  0.00331095  1
  O2-  O253  1  0.00467512  0.35044422  0.32830503  1
  O2-  O254  1  -0.00199565  0.32885376  0.67152475  1
  O2-  O255  1  -0.00321864  0.82847956  0.00285168  1
  O2-  O256  1  -0.00020400  0.81885350  0.33523194  1
  O2-  O257  1  0.00000093  0.82928553  0.66556820  1
  O2-  O258  1  0.33658229  0.33803125  -0.00410920  1
  O2-  O259  1  0.33107765  0.34416933  0.33608718  1
  O2-  O260  1  0.32920175  0.33669612  0.66338487  1
  O2-  O261  1  0.33484717  0.83294256  -0.00469796  1
  O2-  O262  1  0.33082717  0.84175558  0.33917708  1
  O2-  O263  1  0.33070159  0.85218225  0.66599782  1
  O2-  O264  1  0.66955114  0.34574522  0.00039097  1
  O2-  O265  1  0.66433696  0.35052091  0.33619169  1
  O2-  O266  1  0.66787277  0.34489901  0.66756277  1
  O2-  O267  1  0.66596142  0.83990841  -0.00034594  1
  O2-  O268  1  0.67374653  0.84705128  0.33205004  1
  O2-  O269  1  0.66979334  0.84769686  0.66331244  1
  O2-  O270  1  0.16815762  0.33508691  0.00039663  1
  O2-  O271  1  0.16899250  0.34198405  0.33607438  1
  O2-  O272  1  0.16749115  0.31996918  0.67011958  1
  O2-  O273  1  0.15995066  0.83848874  -0.00822471  1
  O2-  O274  1  0.16970166  0.83867233  0.33888975  1
  O2-  O275  1  0.16452107  0.84426226  0.66696916  1
  O2-  O276  1  0.50652899  0.33905777  0.00352574  1
  O2-  O277  1  0.49473538  0.35375126  0.33022159  1
  O2-  O278  1  0.49563870  0.34402052  0.66414579  1
  O2-  O279  1  0.49772421  0.82333874  0.00242680  1
  O2-  O280  1  0.49640014  0.84855511  0.33210610  1
  O2-  O281  1  0.49787168  0.84994849  0.66646533  1
  O2-  O282  1  0.83945168  0.34553008  0.00082476  1
  O2-  O283  1  0.83732069  0.35607064  0.33619843  1
  O2-  O284  1  0.83145977  0.35511720  0.66509007  1
  O2-  O285  1  0.83523152  0.83303703  -0.00137651  1
  O2-  O286  1  0.83528231  0.82857924  0.33206515  1
  O2-  O287  1  0.84116224  0.84087572  0.66450099  1
  O2-  O288  1  -0.00646478  0.18445399  0.16272675  1
  O2-  O289  1  -0.00088706  0.17680674  0.50473325  1
  O2-  O290  1  -0.00399826  0.19061480  0.83575585  1
  O2-  O291  1  0.00596759  0.68142502  0.16856448  1
  O2-  O292  1  0.00015786  0.69264952  0.49932076  1
  O2-  O293  1  0.00823900  0.69279891  0.83085252  1
  O2-  O294  1  0.33441844  0.17221095  0.17165437  1
  O2-  O295  1  0.33692437  0.18375131  0.51496385  1
  O2-  O296  1  0.33275637  0.17457235  0.83875615  1
  O2-  O297  1  0.33208663  0.68399737  0.17060753  1
  O2-  O298  1  0.34407094  0.67353060  0.51168959  1
  O2-  O299  1  0.33424452  0.67190568  0.83056822  1
  O2-  O300  1  0.66917189  0.17560309  0.16854299  1
  O2-  O301  1  0.66479979  0.17722958  0.48830992  1
  O2-  O302  1  0.66632290  0.17460979  0.83447366  1
  O2-  O303  1  0.66916227  0.67641994  0.16825614  1
  O2-  O304  1  0.66189685  0.69006485  0.49359681  1
  O2-  O305  1  0.67419151  0.67783210  0.83492293  1
  O2-  O306  1  0.16351206  0.18318839  0.16367564  1
  O2-  O307  1  0.17413502  0.19283138  0.50546474  1
  O2-  O308  1  0.16896890  0.18259439  0.83543203  1
  O2-  O309  1  0.16371653  0.67121116  0.17036751  1
  O2-  O310  1  0.17492288  0.69013916  0.49974618  1
  O2-  O311  1  0.14660523  0.68199894  0.81195720  1
  O2-  O312  1  0.49820335  0.17620645  0.16758723  1
  O2-  O313  1  0.49979419  0.17313729  0.49259978  1
  O2-  O314  1  0.50910190  0.17770391  0.83046116  1
  O2-  O315  1  0.49420262  0.68407525  0.16994292  1
  O2-  O316  1  0.50261617  0.67692016  0.49684286  1
  O2-  O317  1  0.50017343  0.67847590  0.82542980  1
  O2-  O318  1  0.83706517  0.17343517  0.17412775  1
  O2-  O319  1  0.82646089  0.17863603  0.50491989  1
  O2-  O320  1  0.82617448  0.18678386  0.84437514  1
  O2-  O321  1  0.83118106  0.68473482  0.16582482  1
  O2-  O322  1  0.83189897  0.69415040  0.50161739  1
  O2-  O323  1  0.82814179  0.67875132  0.83502137  1
  O2-  O324  1  -0.00518470  0.31714406  0.16530895  1
  O2-  O325  1  -0.00771011  0.32562270  0.49095616  1
  O2-  O326  1  0.00326001  0.31463031  0.82899960  1
  O2-  O327  1  -0.00196278  0.81729874  0.16195929  1
  O2-  O328  1  0.00401737  0.81189188  0.50066901  1
  O2-  O329  1  -0.00738809  0.81654903  0.82643936  1
  O2-  O330  1  0.33545799  0.32864729  0.16921070  1
  O2-  O331  1  0.33215591  0.31387708  0.50087500  1
  O2-  O332  1  0.32742340  0.32548982  0.82974701  1
  O2-  O333  1  0.33877233  0.82267680  0.17307584  1
  O2-  O334  1  0.33570395  0.82287289  0.50036037  1
  O2-  O335  1  0.32950624  0.82426980  0.82767301  1
  O2-  O336  1  0.66776982  0.32560885  0.16942838  1
  O2-  O337  1  0.67121423  0.32420067  0.50504714  1
  O2-  O338  1  0.67154266  0.31725402  0.83818360  1
  O2-  O339  1  0.67218910  0.82988116  0.17197720  1
  O2-  O340  1  0.66373310  0.81547958  0.49340590  1
  O2-  O341  1  0.66249567  0.81601344  0.83963302  1
  O2-  O342  1  0.16456452  0.32009534  0.17229250  1
  O2-  O343  1  0.16541328  0.31872928  0.50104628  1
  O2-  O344  1  0.16879474  0.31807727  0.82677070  1
  O2-  O345  1  0.17109365  0.82587357  0.16009558  1
  O2-  O346  1  0.16421668  0.81573783  0.50073809  1
  O2-  O347  1  0.17448644  0.82471563  0.82265270  1
  O2-  O348  1  0.50436597  0.32348729  0.16616588  1
  O2-  O349  1  0.50078627  0.33005797  0.49823908  1
  O2-  O350  1  0.49830767  0.32171179  0.83577087  1
  O2-  O351  1  0.50127026  0.81429317  0.16122180  1
  O2-  O352  1  0.49736728  0.82452622  0.50020401  1
  O2-  O353  1  0.50127579  0.81497662  0.83018519  1
  O2-  O354  1  0.83526393  0.32504481  0.16817111  1
  O2-  O355  1  0.83412005  0.33486116  0.49839255  1
  O2-  O356  1  0.83442335  0.31613942  0.83605001  1
  O2-  O357  1  0.83125752  0.81789698  0.17157605  1
  O2-  O358  1  0.82905323  0.81197930  0.50537331  1
  O2-  O359  1  0.83639243  0.81644420  0.83726300  1
  O2-  O360  1  0.06918980  0.08486974  0.12470530  1
  O2-  O361  1  0.08548262  0.07239892  0.44555888  1
  O2-  O362  1  0.08812006  0.08397181  0.77819643  1
  O2-  O363  1  0.07281347  0.58256352  0.10177995  1
  O2-  O364  1  0.07182219  0.57950566  0.45583786  1
  O2-  O365  1  0.08816865  0.58143415  0.76684303  1
  O2-  O366  1  0.41600235  0.06657829  0.11272836  1
  O2-  O367  1  0.42105677  0.08150152  0.46106227  1
  O2-  O368  1  0.42306616  0.07844223  0.77556432  1
  O2-  O369  1  0.41730971  0.57314723  0.10510519  1
  O2-  O370  1  0.42452752  0.57401539  0.45128113  1
  O2-  O371  1  0.43003892  0.57690936  0.78701930  1
  O2-  O372  1  0.77849234  0.07759729  0.10118514  1
  O2-  O373  1  0.73575843  0.08285678  0.44685159  1
  O2-  O374  1  0.75644465  0.08059271  0.79671611  1
  O2-  O375  1  0.75517222  0.58432878  0.10219664  1
  O2-  O376  1  0.76437116  0.58887925  0.43633828  1
  O2-  O377  1  0.74147855  0.58070739  0.78094747  1
  O2-  O378  1  0.23565569  0.07726496  0.21488332  1
  O2-  O379  1  0.26133025  0.08507008  0.57175888  1
  O2-  O380  1  0.24788400  0.08324707  0.88083055  1
  O2-  O381  1  0.25334521  0.58552619  0.22387399  1
  O2-  O382  1  0.25103099  0.57944351  0.55808237  1
  O2-  O383  1  0.26010970  0.57278680  0.89031935  1
  O2-  O384  1  0.58698998  0.07971425  0.21157914  1
  O2-  O385  1  0.58627154  0.07993949  0.55806277  1
  O2-  O386  1  0.58233819  0.08206345  0.88182569  1
  O2-  O387  1  0.58991822  0.58013961  0.22234899  1
  O2-  O388  1  0.58126926  0.57864597  0.54444782  1
  O2-  O389  1  0.59715219  0.57856489  0.89018744  1
  O2-  O390  1  0.92863058  0.07661958  0.21684332  1
  O2-  O391  1  0.90063195  0.08168905  0.57301048  1
  O2-  O392  1  0.91124886  0.08283112  0.88271858  1
  O2-  O393  1  0.90846050  0.58652369  0.24743016  1
  O2-  O394  1  0.92507008  0.57920881  0.54396916  1
  O2-  O395  1  0.89175821  0.57506317  0.88054827  1
  O2-  O396  1  0.06908493  0.41212543  0.11598704  1
  O2-  O397  1  0.08264367  0.41907268  0.43682679  1
  O2-  O398  1  0.08359935  0.41332297  0.76138403  1
  O2-  O399  1  0.07196225  0.91436935  0.08760737  1
  O2-  O400  1  0.08544996  0.92352446  0.44500063  1
  O2-  O401  1  0.06433417  0.91516316  0.77527326  1
  O2-  O402  1  0.43296447  0.42298999  0.11415949  1
  O2-  O403  1  0.40802748  0.42369493  0.44821489  1
  O2-  O404  1  0.39551454  0.42162942  0.75551333  1
  O2-  O405  1  0.43345697  0.92167448  0.10889473  1
  O2-  O406  1  0.40999014  0.92009026  0.44191298  1
  O2-  O407  1  0.40856806  0.91616969  0.78367327  1
  O2-  O408  1  0.76289860  0.42205709  0.10895059  1
  O2-  O409  1  0.74204629  0.42186417  0.45088224  1
  O2-  O410  1  0.75535059  0.42213601  0.78066434  1
  O2-  O411  1  0.75291363  0.91560013  0.10651679  1
  O2-  O412  1  0.76260415  0.91776387  0.44726320  1
  O2-  O413  1  0.76263875  0.91347654  0.78453676  1
  O2-  O414  1  0.24957036  0.41640871  0.24100528  1
  O2-  O415  1  0.25827552  0.42594477  0.55113151  1
  O2-  O416  1  0.23914437  0.42791995  0.88504368  1
  O2-  O417  1  0.25724654  0.91589843  0.24911213  1
  O2-  O418  1  0.24183535  0.91939094  0.53994235  1
  O2-  O419  1  0.24945445  0.91721628  0.88946754  1
  O2-  O420  1  0.59198972  0.41960942  0.21978015  1
  O2-  O421  1  0.59792133  0.42082690  0.55390103  1
  O2-  O422  1  0.59157576  0.41621555  0.89028295  1
  O2-  O423  1  0.59099763  0.91799150  0.22216326  1
  O2-  O424  1  0.58779387  0.91687289  0.54720435  1
  O2-  O425  1  0.58074108  0.91435872  0.89494801  1
  O2-  O426  1  0.91475610  0.41935205  0.21755854  1
  O2-  O427  1  0.92086283  0.42600954  0.55345359  1
  O2-  O428  1  0.91785874  0.42671559  0.87851235  1
  O2-  O429  1  0.89956362  0.91679816  0.22530897  1
  O2-  O430  1  0.92666898  0.92055931  0.53918489  1
  O2-  O431  1  0.91347576  0.92002247  0.88331490  1
  O2-  O432  1  -0.01138103  0.01167954  0.00792050  1
  O2-  O433  1  0.00455382  -0.00005625  0.33722149  1
  O2-  O434  1  -0.00238785  -0.00714959  0.66973723  1
  O2-  O435  1  -0.01980769  0.48477697  0.03076189  1
  O2-  O436  1  -0.01563922  0.49598081  0.36224926  1
  O2-  O437  1  -0.01046734  0.51837092  0.68275060  1
  O2-  O438  1  0.34160243  0.00538479  -0.01123183  1
  O2-  O439  1  0.34134575  -0.00486749  0.32789689  1
  O2-  O440  1  0.34222406  -0.00273884  0.65574093  1
  O2-  O441  1  0.34129011  0.50251551  -0.01326215  1
  O2-  O442  1  0.33926392  0.49518974  0.32276966  1
  O2-  O443  1  0.33736904  0.50670316  0.65505886  1
  O2-  O444  1  0.66835502  0.01395167  -0.00456214  1
  O2-  O445  1  0.66653291  0.00249435  0.33864694  1
  O2-  O446  1  0.66638226  0.00487725  0.67713925  1
  O2-  O447  1  0.66803978  0.49257441  -0.00579440  1
  O2-  O448  1  0.66849505  0.50435215  0.32693905  1
  O2-  O449  1  0.67111892  0.49466657  0.66993079  1
  O2-  O450  1  0.15445405  0.02127743  -0.01445695  1
  O2-  O451  1  0.16451137  0.00035305  0.34071070  1
  O2-  O452  1  0.17775176  -0.01466771  0.68176459  1
  O2-  O453  1  0.14038887  0.50014700  -0.00616579  1
  O2-  O454  1  0.14362666  0.50311646  0.30893604  1
  O2-  O455  1  0.17444254  0.50679174  0.67685099  1
  O2-  O456  1  0.50613544  0.00554030  0.00574331  1
  O2-  O457  1  0.51355607  0.01097661  0.36107947  1
  O2-  O458  1  0.50149660  0.00686642  0.67127798  1
  O2-  O459  1  0.50159058  0.50269177  0.00217370  1
  O2-  O460  1  0.50771999  0.49736487  0.34900682  1
  O2-  O461  1  0.49049283  0.51431417  0.65605695  1
  O2-  O462  1  0.82599660  0.00467581  -0.01580006  1
  O2-  O463  1  0.82415653  -0.00539173  0.31120712  1
  O2-  O464  1  0.83629274  -0.02500000  0.66318789  1
  O2-  O465  1  0.82755730  0.49777558  -0.01770589  1
  O2-  O466  1  0.83302895  0.49546350  0.33838379  1
  O2-  O467  1  0.83001912  0.48522055  0.66296774  1
  O2-  O468  1  0.26123764  0.75066809  0.61044369  1
  O2-  O469  1  0.42659673  0.25068285  0.38389096  1
  O2-  O470  1  0.25261858  0.24703233  0.93983707  1
  O2-  O471  1  0.91152810  0.24975012  0.28048760  1
  O2-  O472  1  0.89833271  0.25221254  0.59461447  1
  O2-  O473  1  0.41191739  0.74685028  0.72153536  1
  O2-  O474  1  0.08318325  0.24778478  0.05865149  1
  O2-  O475  1  0.58250808  0.25122192  0.28084433  1
  O2-  O476  1  0.75442315  0.25478610  0.07222062  1
  O2-  O477  1  0.09555095  0.74844966  0.07578114  1
  O2-  O478  1  0.24608220  0.74910377  0.92293225  1
  O2-  O479  1  0.74939791  0.25104352  0.38700398  1
  O2-  O480  1  0.58183742  0.25636291  0.59818433  1
  O2-  O481  1  0.25450504  0.24822208  0.27167013  1
  O2-  O482  1  0.41445998  0.25699981  0.07278377  1
  O2-  O483  1  0.58130104  0.74362199  0.61352617  1
  O2-  O484  1  0.07855988  0.25339434  0.39393435  1
  O2-  O485  1  0.75249665  0.25286448  0.71845230  1
  O2-  O486  1  0.41939892  0.75114173  0.39734890  1
  O2-  O487  1  0.58944994  0.75048074  0.27899014  1
  O2-  O488  1  0.24424941  0.75195885  0.27072370  1
  O2-  O489  1  0.41868583  0.25720149  0.73977709  1
  O2-  O490  1  0.74480144  0.74923125  0.72443946  1
  O2-  O491  1  0.58967990  0.25153697  0.93883046  1
  O2-  O492  1  0.73427023  0.75093183  0.07194285  1
