# generated using pymatgen
data_Ca108Mn108O277
_symmetry_space_group_name_H-M   'P 1'
_cell_length_a   16.01826797
_cell_length_b   22.29369455
_cell_length_c   16.38178016
_cell_angle_alpha   89.99647956
_cell_angle_beta   89.99864923
_cell_angle_gamma   90.00039284
_symmetry_Int_Tables_number   1
_chemical_formula_structural   Ca108Mn108O277
_chemical_formula_sum   'Ca108 Mn108 O277'
_cell_volume   5850.03808881
_cell_formula_units_Z   1
loop_
 _symmetry_equiv_pos_site_id
 _symmetry_equiv_pos_as_xyz
  1  'x, y, z'
loop_
 _atom_type_symbol
 _atom_type_oxidation_number
  Ca2+  2.0
  Mn3.34+  3.34
  O2-  -2.0
loop_
 _atom_site_type_symbol
 _atom_site_label
 _atom_site_symmetry_multiplicity
 _atom_site_fract_x
 _atom_site_fract_y
 _atom_site_fract_z
 _atom_site_occupancy
  Ca2+  Ca0  1  0.09292383  0.24578287  0.25358219  1
  Ca2+  Ca1  1  0.08699150  0.23604179  0.57999359  1
  Ca2+  Ca2  1  0.10030477  0.24068453  0.91416360  1
  Ca2+  Ca3  1  0.07274185  0.75556800  0.25712869  1
  Ca2+  Ca4  1  0.09643823  0.74884836  0.57843453  1
  Ca2+  Ca5  1  0.11025208  0.75047305  0.91362459  1
  Ca2+  Ca6  1  0.42064659  0.25691400  0.25652116  1
  Ca2+  Ca7  1  0.42103678  0.24865480  0.57386188  1
  Ca2+  Ca8  1  0.42342353  0.24649286  0.91525725  1
  Ca2+  Ca9  1  0.41661910  0.76090937  0.24417235  1
  Ca2+  Ca10  1  0.40072209  0.73598332  0.58352725  1
  Ca2+  Ca11  1  0.40230221  0.75210116  0.91027752  1
  Ca2+  Ca12  1  0.74088424  0.25618103  0.24315846  1
  Ca2+  Ca13  1  0.74599060  0.25138819  0.57224310  1
  Ca2+  Ca14  1  0.73342179  0.24348389  0.93769101  1
  Ca2+  Ca15  1  0.75572769  0.75720789  0.25505178  1
  Ca2+  Ca16  1  0.75309249  0.75480754  0.59548813  1
  Ca2+  Ca17  1  0.74586637  0.74900465  0.89151876  1
  Ca2+  Ca18  1  0.25519472  0.23683139  0.07965442  1
  Ca2+  Ca19  1  0.25579102  0.25280357  0.42196808  1
  Ca2+  Ca20  1  0.25637580  0.24424969  0.74401801  1
  Ca2+  Ca21  1  0.26040128  0.75079678  0.06306569  1
  Ca2+  Ca22  1  0.24709999  0.75637925  0.43580148  1
  Ca2+  Ca23  1  0.25783990  0.76051185  0.74579866  1
  Ca2+  Ca24  1  0.59565705  0.24014082  0.07913500  1
  Ca2+  Ca25  1  0.57859481  0.25841954  0.42162233  1
  Ca2+  Ca26  1  0.57168003  0.24451445  0.74634461  1
  Ca2+  Ca27  1  0.57626910  0.76031369  0.07668808  1
  Ca2+  Ca28  1  0.58400953  0.75363610  0.41939539  1
  Ca2+  Ca29  1  0.59080136  0.74920519  0.74493966  1
  Ca2+  Ca30  1  0.89685981  0.24609857  0.08600340  1
  Ca2+  Ca31  1  0.91844564  0.25113925  0.43355188  1
  Ca2+  Ca32  1  0.91930793  0.25140834  0.73561080  1
  Ca2+  Ca33  1  0.91255927  0.75698188  0.08600934  1
  Ca2+  Ca34  1  0.91578896  0.75603410  0.42327610  1
  Ca2+  Ca35  1  0.90288788  0.75684307  0.74110363  1
  Ca2+  Ca36  1  0.23042542  0.09189167  0.08593713  1
  Ca2+  Ca37  1  0.40496778  0.08933366  0.24574275  1
  Ca2+  Ca38  1  0.91899382  0.09993436  0.41980258  1
  Ca2+  Ca39  1  0.42541133  0.58461585  0.28925532  1
  Ca2+  Ca40  1  0.90604812  0.60009691  0.74265357  1
  Ca2+  Ca41  1  0.43351232  0.58170424  0.28379157  1
  Ca2+  Ca42  1  0.24280148  0.61514184  0.75609998  1
  Ca2+  Ca43  1  0.09405770  0.60574893  0.91531679  1
  Ca2+  Ca44  1  0.24550582  0.60650774  0.07312726  1
  Ca2+  Ca45  1  0.55680866  0.58500895  0.43102355  1
  Ca2+  Ca46  1  0.08997488  0.60506540  0.58209877  1
  Ca2+  Ca47  1  0.24927307  0.09719042  0.41004780  1
  Ca2+  Ca48  1  0.28994645  0.61581231  0.43845164  1
  Ca2+  Ca49  1  0.09454526  0.08944900  0.93300115  1
  Ca2+  Ca50  1  0.74086720  0.57518190  0.27073401  1
  Ca2+  Ca51  1  0.25196270  0.61210014  0.75297443  1
  Ca2+  Ca52  1  0.74709771  0.08562327  0.24193861  1
  Ca2+  Ca53  1  0.40953552  0.08818427  0.92414008  1
  Ca2+  Ca54  1  0.74446342  0.60144727  0.58582063  1
  Ca2+  Ca55  1  0.21963991  0.09971481  0.75057089  1
  Ca2+  Ca56  1  0.73730516  0.56896390  0.27473483  1
  Ca2+  Ca57  1  0.91361608  0.59247499  0.41745980  1
  Ca2+  Ca58  1  0.91450399  0.08685190  0.08203478  1
  Ca2+  Ca59  1  0.40852216  0.60360687  0.91144017  1
  Ca2+  Ca60  1  0.72600003  0.08813201  0.58088474  1
  Ca2+  Ca61  1  0.96059186  0.09932914  0.74273719  1
  Ca2+  Ca62  1  0.07353950  0.59511163  0.24947381  1
  Ca2+  Ca63  1  0.73599252  0.59887729  0.58090320  1
  Ca2+  Ca64  1  0.27991533  0.61623078  0.44071925  1
  Ca2+  Ca65  1  0.22732507  0.09498049  0.75435576  1
  Ca2+  Ca66  1  0.58883325  0.59717894  0.73994572  1
  Ca2+  Ca67  1  0.91288101  0.58357664  0.07580827  1
  Ca2+  Ca68  1  0.08640927  0.59524054  0.24908555  1
  Ca2+  Ca69  1  0.42061748  0.08808358  0.92422814  1
  Ca2+  Ca70  1  0.58360680  0.09126537  0.41754406  1
  Ca2+  Ca71  1  0.42738460  0.09168946  0.58324870  1
  Ca2+  Ca72  1  0.26299244  0.91806665  0.06703026  1
  Ca2+  Ca73  1  0.42445577  0.89733560  0.58296630  1
  Ca2+  Ca74  1  0.42949302  0.40950238  0.91490484  1
  Ca2+  Ca75  1  0.25018599  0.90124676  0.41909204  1
  Ca2+  Ca76  1  0.91796998  0.40815387  0.41496537  1
  Ca2+  Ca77  1  0.58085886  0.41290005  0.73821907  1
  Ca2+  Ca78  1  0.08335531  0.91679165  0.24684960  1
  Ca2+  Ca79  1  0.57684943  0.91128884  0.08403689  1
  Ca2+  Ca80  1  0.07067823  0.91818595  0.24749749  1
  Ca2+  Ca81  1  0.90289156  0.41219609  0.08137990  1
  Ca2+  Ca82  1  0.05710146  0.41272737  0.92097810  1
  Ca2+  Ca83  1  0.59532655  0.40697228  0.09076129  1
  Ca2+  Ca84  1  0.08684977  0.89437551  0.58849216  1
  Ca2+  Ca85  1  0.91685590  0.40811211  0.74712526  1
  Ca2+  Ca86  1  0.74665240  0.40965299  0.92536250  1
  Ca2+  Ca87  1  0.06824688  0.40893718  0.92504371  1
  Ca2+  Ca88  1  0.44196058  0.41063245  0.91480074  1
  Ca2+  Ca89  1  0.73284145  0.42114251  0.26649802  1
  Ca2+  Ca90  1  0.74038243  0.91202439  0.25020454  1
  Ca2+  Ca91  1  0.90547359  0.41051331  0.41390983  1
  Ca2+  Ca92  1  0.73188707  0.41402420  0.56976351  1
  Ca2+  Ca93  1  0.25018718  0.39504277  0.08999661  1
  Ca2+  Ca94  1  0.25170380  0.40506603  0.74710941  1
  Ca2+  Ca95  1  0.56729011  0.43470822  0.38796916  1
  Ca2+  Ca96  1  0.07976127  0.39669029  0.57878154  1
  Ca2+  Ca97  1  0.23891869  0.40481019  0.74686122  1
  Ca2+  Ca98  1  0.74912912  0.89833724  0.91632454  1
  Ca2+  Ca99  1  0.91410373  0.41176231  0.08245535  1
  Ca2+  Ca100  1  0.25421330  0.92098852  0.06285724  1
  Ca2+  Ca101  1  0.91640375  0.91019210  0.07422698  1
  Ca2+  Ca102  1  0.59204169  0.41280507  0.73925613  1
  Ca2+  Ca103  1  0.58545850  0.89842802  0.74163394  1
  Ca2+  Ca104  1  0.23734361  0.39381250  0.09004011  1
  Ca2+  Ca105  1  0.09135432  0.90467663  0.91320914  1
  Ca2+  Ca106  1  0.75232681  0.91419535  0.25216003  1
  Ca2+  Ca107  1  0.43682810  0.41079363  0.56784588  1
  Mn3.34+  Mn108  1  0.07936903  0.31979292  0.08832710  1
  Mn3.34+  Mn109  1  0.08841060  0.33284159  0.41414156  1
  Mn3.34+  Mn110  1  0.08086515  0.32476637  0.75049265  1
  Mn3.34+  Mn111  1  0.08513893  0.82994599  0.08650333  1
  Mn3.34+  Mn112  1  0.07994054  0.83342801  0.41893657  1
  Mn3.34+  Mn113  1  0.08150934  0.83394838  0.75181465  1
  Mn3.34+  Mn114  1  0.42102366  0.32936918  0.08872289  1
  Mn3.34+  Mn115  1  0.41580628  0.34168238  0.41291740  1
  Mn3.34+  Mn116  1  0.41676617  0.33190984  0.74561705  1
  Mn3.34+  Mn117  1  0.41777213  0.83535057  0.08368378  1
  Mn3.34+  Mn118  1  0.41813787  0.82833699  0.41805890  1
  Mn3.34+  Mn119  1  0.41829187  0.83102293  0.74997937  1
  Mn3.34+  Mn120  1  0.74705483  0.33319537  0.08839346  1
  Mn3.34+  Mn121  1  0.74593727  0.33620857  0.41477295  1
  Mn3.34+  Mn122  1  0.75234792  0.33258356  0.74917314  1
  Mn3.34+  Mn123  1  0.74885880  0.83517181  0.08186588  1
  Mn3.34+  Mn124  1  0.74846476  0.83088358  0.42443109  1
  Mn3.34+  Mn125  1  0.75134928  0.83079833  0.74690731  1
  Mn3.34+  Mn126  1  0.25089272  0.32799966  0.25441508  1
  Mn3.34+  Mn127  1  0.25353573  0.32901997  0.57544091  1
  Mn3.34+  Mn128  1  0.25108854  0.32759008  0.91469048  1
  Mn3.34+  Mn129  1  0.25334147  0.84068733  0.24655865  1
  Mn3.34+  Mn130  1  0.25260066  0.83220696  0.58725076  1
  Mn3.34+  Mn131  1  0.25525965  0.83699521  0.90822868  1
  Mn3.34+  Mn132  1  0.57918166  0.34065355  0.24985436  1
  Mn3.34+  Mn133  1  0.58420410  0.33546913  0.57636294  1
  Mn3.34+  Mn134  1  0.58765480  0.33354022  0.91402687  1
  Mn3.34+  Mn135  1  0.57775877  0.84248546  0.25351629  1
  Mn3.34+  Mn136  1  0.58506554  0.83855368  0.57731514  1
  Mn3.34+  Mn137  1  0.57762935  0.83647512  0.91295059  1
  Mn3.34+  Mn138  1  0.91818422  0.33165555  0.24873689  1
  Mn3.34+  Mn139  1  0.91265365  0.33389005  0.58313607  1
  Mn3.34+  Mn140  1  0.91211387  0.32875562  0.91158265  1
  Mn3.34+  Mn141  1  0.91614920  0.83674894  0.24863727  1
  Mn3.34+  Mn142  1  0.91492204  0.83145925  0.58319826  1
  Mn3.34+  Mn143  1  0.92031370  0.83157140  0.91179405  1
  Mn3.34+  Mn144  1  0.75024451  0.16955596  0.41999875  1
  Mn3.34+  Mn145  1  0.08813095  0.16970995  0.41932871  1
  Mn3.34+  Mn146  1  0.74987600  0.66620304  0.41959692  1
  Mn3.34+  Mn147  1  0.41479336  0.66909292  0.08441398  1
  Mn3.34+  Mn148  1  0.24754405  0.16046284  0.24590192  1
  Mn3.34+  Mn149  1  0.58848344  0.16527997  0.24788124  1
  Mn3.34+  Mn150  1  0.41952407  0.16402608  0.74916981  1
  Mn3.34+  Mn151  1  0.41752257  0.66847699  0.74679014  1
  Mn3.34+  Mn152  1  0.08032165  0.67258500  0.08580148  1
  Mn3.34+  Mn153  1  0.41543933  0.16890310  0.41666975  1
  Mn3.34+  Mn154  1  0.57999807  0.16442850  0.57891177  1
  Mn3.34+  Mn155  1  0.24932421  0.67421001  0.24524644  1
  Mn3.34+  Mn156  1  0.07886665  0.67331751  0.74724150  1
  Mn3.34+  Mn157  1  0.58438656  0.16293850  0.91994310  1
  Mn3.34+  Mn158  1  0.91776720  0.66808055  0.57934099  1
  Mn3.34+  Mn159  1  0.74059226  0.16000632  0.75223295  1
  Mn3.34+  Mn160  1  0.75091574  0.16521500  0.75167151  1
  Mn3.34+  Mn161  1  0.08445356  0.66722503  0.41887204  1
  Mn3.34+  Mn162  1  0.59262029  0.66250661  0.91866088  1
  Mn3.34+  Mn163  1  0.91961664  0.16690126  0.58411478  1
  Mn3.34+  Mn164  1  0.24886715  0.16441139  0.91544245  1
  Mn3.34+  Mn165  1  0.92724756  0.16432035  0.24753312  1
  Mn3.34+  Mn166  1  0.91778249  0.15906640  0.24712114  1
  Mn3.34+  Mn167  1  0.57408678  0.66039648  0.57754808  1
  Mn3.34+  Mn168  1  0.74959107  0.65903409  0.08667913  1
  Mn3.34+  Mn169  1  0.57994897  0.15929580  0.24585733  1
  Mn3.34+  Mn170  1  0.58026777  0.66592668  0.24461655  1
  Mn3.34+  Mn171  1  0.91312124  0.16562249  0.91511868  1
  Mn3.34+  Mn172  1  0.58955835  0.67160733  0.24611663  1
  Mn3.34+  Mn173  1  0.90786875  0.66097783  0.91407036  1
  Mn3.34+  Mn174  1  0.91156427  0.67072535  0.24757299  1
  Mn3.34+  Mn175  1  0.41538343  0.16691353  0.08661501  1
  Mn3.34+  Mn176  1  0.25087510  0.16357807  0.58165734  1
  Mn3.34+  Mn177  1  0.92457324  0.17170437  0.91494417  1
  Mn3.34+  Mn178  1  0.91756741  0.66638292  0.91527606  1
  Mn3.34+  Mn179  1  0.58244661  0.65770849  0.91974813  1
  Mn3.34+  Mn180  1  0.08361181  -0.00386898  0.74954085  1
  Mn3.34+  Mn181  1  0.25623310  0.49536748  0.57555503  1
  Mn3.34+  Mn182  1  0.08519563  0.50100952  0.41901385  1
  Mn3.34+  Mn183  1  0.58620863  0.00073580  0.91926901  1
  Mn3.34+  Mn184  1  0.24464643  0.50035277  0.91655377  1
  Mn3.34+  Mn185  1  0.74877972  0.00428561  0.06771057  1
  Mn3.34+  Mn186  1  0.43069618  -0.00233376  0.74434452  1
  Mn3.34+  Mn187  1  0.91658309  -0.00235269  0.91296089  1
  Mn3.34+  Mn188  1  0.73885305  0.00193364  0.74667006  1
  Mn3.34+  Mn189  1  0.43628393  0.50309468  0.08932356  1
  Mn3.34+  Mn190  1  0.41922514  0.50410961  0.74528082  1
  Mn3.34+  Mn191  1  0.42373685  0.49962314  0.09138787  1
  Mn3.34+  Mn192  1  0.74882165  -0.00348488  0.74609908  1
  Mn3.34+  Mn193  1  0.24316187  0.49367644  0.25585044  1
  Mn3.34+  Mn194  1  0.07242422  -0.00212553  0.41580533  1
  Mn3.34+  Mn195  1  0.07802317  0.50188226  0.75352335  1
  Mn3.34+  Mn196  1  0.75857049  -0.00402133  0.41675751  1
  Mn3.34+  Mn197  1  0.74688703  0.50817693  0.76264459  1
  Mn3.34+  Mn198  1  0.41448632  -0.00367580  0.74373477  1
  Mn3.34+  Mn199  1  0.92536110  0.00013775  0.58123571  1
  Mn3.34+  Mn200  1  0.74182040  0.50277212  0.06696884  1
  Mn3.34+  Mn201  1  0.41583783  -0.00659294  0.40051415  1
  Mn3.34+  Mn202  1  0.91354945  -0.00696929  0.58247569  1
  Mn3.34+  Mn203  1  0.75792065  0.50404258  0.76376004  1
  Mn3.34+  Mn204  1  0.24281874  0.00098968  0.58725364  1
  Mn3.34+  Mn205  1  0.74322918  -0.00333113  0.41768243  1
  Mn3.34+  Mn206  1  0.92274466  0.50127199  0.24935277  1
  Mn3.34+  Mn207  1  0.07938702  0.00469836  0.07831710  1
  Mn3.34+  Mn208  1  0.24509239  0.50038515  0.57622092  1
  Mn3.34+  Mn209  1  0.08239862  0.49644070  0.09194913  1
  Mn3.34+  Mn210  1  0.08502858  0.00445347  0.41534506  1
  Mn3.34+  Mn211  1  0.25561651  0.50474811  0.91405406  1
  Mn3.34+  Mn212  1  0.42719000  0.00045555  0.40258613  1
  Mn3.34+  Mn213  1  0.92040654  0.50121255  0.58620565  1
  Mn3.34+  Mn214  1  0.25551683  0.50005923  0.25141631  1
  Mn3.34+  Mn215  1  0.41918903  0.00206804  0.08156638  1
  O2-  O216  1  0.00203687  0.18037106  -0.00291574  1
  O2-  O217  1  0.00106207  0.16655942  0.33370669  1
  O2-  O218  1  -0.00293664  0.17557739  0.66490585  1
  O2-  O219  1  -0.00382867  0.65843582  0.00143153  1
  O2-  O220  1  -0.00013656  0.65322015  0.33163907  1
  O2-  O221  1  -0.00448651  0.65992907  0.66668619  1
  O2-  O222  1  0.33115765  0.15031389  0.00199615  1
  O2-  O223  1  0.33426450  0.16131055  0.33290510  1
  O2-  O224  1  0.32871199  0.14617652  0.67243820  1
  O2-  O225  1  0.33908738  0.65778787  0.00440857  1
  O2-  O226  1  0.33399846  0.66029479  0.31942462  1
  O2-  O227  1  0.33338632  0.66282912  0.67284590  1
  O2-  O228  1  0.66023511  0.16697388  -0.00341454  1
  O2-  O229  1  0.66925438  0.15266795  0.33428327  1
  O2-  O230  1  0.66567623  0.15774029  0.66152491  1
  O2-  O231  1  0.66901308  0.67471298  0.00439251  1
  O2-  O232  1  0.66693682  0.65164104  0.33467901  1
  O2-  O233  1  0.66035696  0.67134857  0.65153527  1
  O2-  O234  1  0.16946684  0.16505270  -0.00502486  1
  O2-  O235  1  0.17468333  0.17317463  0.33557015  1
  O2-  O236  1  0.17214005  0.16803317  0.66645795  1
  O2-  O237  1  0.15932545  0.67076873  0.00550483  1
  O2-  O238  1  0.16805261  0.65415874  0.33152150  1
  O2-  O239  1  0.16012662  0.66506678  0.66795648  1
  O2-  O240  1  0.49048454  0.15764126  -0.00498963  1
  O2-  O241  1  0.49892960  0.15237610  0.33074688  1
  O2-  O242  1  0.49470004  0.16278053  0.66154112  1
  O2-  O243  1  0.50136140  0.65350586  0.00015440  1
  O2-  O244  1  0.50262356  0.66499290  0.33250094  1
  O2-  O245  1  0.50597680  0.66623937  0.66865212  1
  O2-  O246  1  0.84069993  0.17053256  0.00056631  1
  O2-  O247  1  0.84034954  0.15964887  0.33432674  1
  O2-  O248  1  0.83298858  0.14942711  0.67098212  1
  O2-  O249  1  0.83527845  0.66002822  0.00846005  1
  O2-  O250  1  0.82844225  0.64590831  0.32770889  1
  O2-  O251  1  0.83248280  0.65460936  0.65147289  1
  O2-  O252  1  -0.00244514  0.33582737  0.00022281  1
  O2-  O253  1  -0.00901918  0.33621687  0.33970085  1
  O2-  O254  1  -0.00270404  0.33850942  0.66913927  1
  O2-  O255  1  0.00280353  0.83357073  0.00108423  1
  O2-  O256  1  0.00688973  0.84621264  0.32545866  1
  O2-  O257  1  0.00594275  0.82273711  0.66504909  1
  O2-  O258  1  0.33435478  0.35350836  -0.00229457  1
  O2-  O259  1  0.33333598  0.32157988  0.33130251  1
  O2-  O260  1  0.33169074  0.34816616  0.66696938  1
  O2-  O261  1  0.33106080  0.84178984  0.00533951  1
  O2-  O262  1  0.32682197  0.81386675  0.33641253  1
  O2-  O263  1  0.33891986  0.83939607  0.66329663  1
  O2-  O264  1  0.66911975  0.34554873  0.00007478  1
  O2-  O265  1  0.66548349  0.34412993  0.33370335  1
  O2-  O266  1  0.66810468  0.34978677  0.66526255  1
  O2-  O267  1  0.66631395  0.83694709  -0.00086057  1
  O2-  O268  1  0.67182094  0.84206309  0.32729133  1
  O2-  O269  1  0.66147837  0.82845666  0.66626188  1
  O2-  O270  1  0.16111900  0.33555646  -0.00473576  1
  O2-  O271  1  0.16821376  0.31663795  0.33154614  1
  O2-  O272  1  0.16693340  0.33797520  0.67063235  1
  O2-  O273  1  0.16811817  0.83398420  0.00656694  1
  O2-  O274  1  0.16552778  0.84669633  0.33020441  1
  O2-  O275  1  0.16351631  0.82904243  0.66626682  1
  O2-  O276  1  0.50127338  0.34935297  -0.00098062  1
  O2-  O277  1  0.50395592  0.33913623  0.33680214  1
  O2-  O278  1  0.50336703  0.34735525  0.66707423  1
  O2-  O279  1  0.50424082  0.84334618  0.00596497  1
  O2-  O280  1  0.49705102  0.81804010  0.33731644  1
  O2-  O281  1  0.50562235  0.82917509  0.66460514  1
  O2-  O282  1  0.83485030  0.34542171  0.00339463  1
  O2-  O283  1  0.83384448  0.34307983  0.33142976  1
  O2-  O284  1  0.83298005  0.35016565  0.66594815  1
  O2-  O285  1  0.83551449  0.83745369  0.00292416  1
  O2-  O286  1  0.82831335  0.84710549  0.32388192  1
  O2-  O287  1  0.83364626  0.83532911  0.66585366  1
  O2-  O288  1  -0.00332461  0.19126257  0.16836632  1
  O2-  O289  1  -0.00438166  0.17419134  0.49709176  1
  O2-  O290  1  -0.00213735  0.18771307  0.83264034  1
  O2-  O291  1  -0.00004977  0.68343760  0.16949413  1
  O2-  O292  1  0.00264806  0.67651199  0.49920934  1
  O2-  O293  1  0.00473503  0.68188244  0.83670480  1
  O2-  O294  1  0.33596333  0.18318402  0.17333360  1
  O2-  O295  1  0.33726250  0.17442399  0.50121030  1
  O2-  O296  1  0.33453383  0.16805065  0.83251590  1
  O2-  O297  1  0.32644046  0.68414103  0.16056021  1
  O2-  O298  1  0.33863755  0.69415348  0.48131107  1
  O2-  O299  1  0.33752522  0.67161367  0.82821667  1
  O2-  O300  1  0.67218250  0.17567712  0.17375650  1
  O2-  O301  1  0.66528972  0.17856226  0.49930126  1
  O2-  O302  1  0.66238508  0.18049975  0.83166758  1
  O2-  O303  1  0.67235196  0.68062746  0.16779506  1
  O2-  O304  1  0.66948605  0.67766610  0.50153431  1
  O2-  O305  1  0.65992229  0.67480289  0.83189944  1
  O2-  O306  1  0.17625732  0.18630896  0.17177482  1
  O2-  O307  1  0.17423293  0.17766242  0.49727628  1
  O2-  O308  1  0.17361659  0.17792549  0.83120120  1
  O2-  O309  1  0.15824184  0.68279085  0.17335966  1
  O2-  O310  1  0.16857459  0.67360182  0.49085610  1
  O2-  O311  1  0.16615299  0.68359694  0.82048899  1
  O2-  O312  1  0.49721331  0.18108267  0.16848045  1
  O2-  O313  1  0.50066190  0.17504958  0.49557550  1
  O2-  O314  1  0.49210772  0.17630035  0.83717146  1
  O2-  O315  1  0.49482154  0.68250667  0.16881824  1
  O2-  O316  1  0.50965018  0.68885113  0.50218818  1
  O2-  O317  1  0.49870036  0.67273423  0.83587750  1
  O2-  O318  1  0.83423186  0.18472505  0.17863205  1
  O2-  O319  1  0.83302860  0.17546981  0.50055983  1
  O2-  O320  1  0.83491019  0.18573903  0.83402132  1
  O2-  O321  1  0.83272817  0.68470451  0.16445471  1
  O2-  O322  1  0.83537467  0.67420714  0.49653863  1
  O2-  O323  1  0.83949494  0.67317215  0.82677505  1
  O2-  O324  1  -0.00582520  0.31112825  0.16507930  1
  O2-  O325  1  -0.00576815  0.32790887  0.50167100  1
  O2-  O326  1  0.00504219  0.31154993  0.83749211  1
  O2-  O327  1  0.00028364  0.81764612  0.16665502  1
  O2-  O328  1  0.00517583  0.81847487  0.50312802  1
  O2-  O329  1  0.00378257  0.81163056  0.83454463  1
  O2-  O330  1  0.32611399  0.31773166  0.16012107  1
  O2-  O331  1  0.33949388  0.32507262  0.50219501  1
  O2-  O332  1  0.33265412  0.33560598  0.83142834  1
  O2-  O333  1  0.32863340  0.82107960  0.16268369  1
  O2-  O334  1  0.33244363  0.82882576  0.49957780  1
  O2-  O335  1  0.33604171  0.82593487  0.82984264  1
  O2-  O336  1  0.66609360  0.32759881  0.16861798  1
  O2-  O337  1  0.67077560  0.32468910  0.50137666  1
  O2-  O338  1  0.66253480  0.32808095  0.82554117  1
  O2-  O339  1  0.67195323  0.81841551  0.16276305  1
  O2-  O340  1  0.66534177  0.81167891  0.50409589  1
  O2-  O341  1  0.66582976  0.82283867  0.83301144  1
  O2-  O342  1  0.17272124  0.31146316  0.15956398  1
  O2-  O343  1  0.16084194  0.32171472  0.50704651  1
  O2-  O344  1  0.17097745  0.31718002  0.82639512  1
  O2-  O345  1  0.16207763  0.80784212  0.16932173  1
  O2-  O346  1  0.16607368  0.82656557  0.49906241  1
  O2-  O347  1  0.16523134  0.82257769  0.83304340  1
  O2-  O348  1  0.50616487  0.31974205  0.16304588  1
  O2-  O349  1  0.49823208  0.32271784  0.50370916  1
  O2-  O350  1  0.49607521  0.32724357  0.83242970  1
  O2-  O351  1  0.50212648  0.82760703  0.16418221  1
  O2-  O352  1  0.49723683  0.81400587  0.50681133  1
  O2-  O353  1  0.50478606  0.82148406  0.82663438  1
  O2-  O354  1  0.83657114  0.32321655  0.16467523  1
  O2-  O355  1  0.83485731  0.32856610  0.49598669  1
  O2-  O356  1  0.83194924  0.31542724  0.83271419  1
  O2-  O357  1  0.83273141  0.82247940  0.16646780  1
  O2-  O358  1  0.83396063  0.81858143  0.49932598  1
  O2-  O359  1  0.83017597  0.82525953  0.83813242  1
  O2-  O360  1  0.07543415  0.08003695  0.09843901  1
  O2-  O361  1  0.08248940  0.08533027  0.43006265  1
  O2-  O362  1  0.08894737  0.07363509  0.79391200  1
  O2-  O363  1  0.07897176  0.58041498  0.11308140  1
  O2-  O364  1  0.08245930  0.58191640  0.44715752  1
  O2-  O365  1  0.09677705  0.58298203  0.77917964  1
  O2-  O366  1  0.41376748  0.08257028  0.11079976  1
  O2-  O367  1  0.41731089  0.07641724  0.44328437  1
  O2-  O368  1  0.41548743  0.07610800  0.78463199  1
  O2-  O369  1  0.41325456  0.58388427  0.12382162  1
  O2-  O370  1  0.41032234  0.58522274  0.42569853  1
  O2-  O371  1  0.40843188  0.58320505  0.77043985  1
  O2-  O372  1  0.77304417  0.07177222  0.11268150  1
  O2-  O373  1  0.75317092  0.08060180  0.44283935  1
  O2-  O374  1  0.76012334  0.08029339  0.78949367  1
  O2-  O375  1  0.76133829  0.57147983  0.13100680  1
  O2-  O376  1  0.75299295  0.58259822  0.44658080  1
  O2-  O377  1  0.74360538  0.58881895  0.74423446  1
  O2-  O378  1  0.25888183  0.08341604  0.22523839  1
  O2-  O379  1  0.25818942  0.07930040  0.55083881  1
  O2-  O380  1  0.25155921  0.08045856  0.88972966  1
  O2-  O381  1  0.22985240  0.57780277  0.20717740  1
  O2-  O382  1  0.24424755  0.58247706  0.56463057  1
  O2-  O383  1  0.24333026  0.58600306  0.89197084  1
  O2-  O384  1  0.58551703  0.08047654  0.22762611  1
  O2-  O385  1  0.58321226  0.08486208  0.55189458  1
  O2-  O386  1  0.56198023  0.08047128  0.89229340  1
  O2-  O387  1  0.58049726  0.58599954  0.22360719  1
  O2-  O388  1  0.60121195  0.58001375  0.56502203  1
  O2-  O389  1  0.57674725  0.57884768  0.88634054  1
  O2-  O390  1  0.90866130  0.07900721  0.21906781  1
  O2-  O391  1  0.90871491  0.08029125  0.55490990  1
  O2-  O392  1  0.93270335  0.08081022  0.88513143  1
  O2-  O393  1  0.93386990  0.58267325  0.21626850  1
  O2-  O394  1  0.91765671  0.58185334  0.55767862  1
  O2-  O395  1  0.93144686  0.58062002  0.89308685  1
  O2-  O396  1  0.09955088  0.41241534  0.10028417  1
  O2-  O397  1  0.06450200  0.41898478  0.43892892  1
  O2-  O398  1  0.09918144  0.41931902  0.78998009  1
  O2-  O399  1  0.07452281  0.92382077  0.11207759  1
  O2-  O400  1  0.08604717  0.91869304  0.44948719  1
  O2-  O401  1  0.07843292  0.91757694  0.77261955  1
  O2-  O402  1  0.40362025  0.41750025  0.11013625  1
  O2-  O403  1  0.42804830  0.41972302  0.43556401  1
  O2-  O404  1  0.40496791  0.42511765  0.78243377  1
  O2-  O405  1  0.40472509  0.92081387  0.10418444  1
  O2-  O406  1  0.41071275  0.91978329  0.44065008  1
  O2-  O407  1  0.43319024  0.91472274  0.75780838  1
  O2-  O408  1  0.75986602  0.42320495  0.11581448  1
  O2-  O409  1  0.76590123  0.41916989  0.43340158  1
  O2-  O410  1  0.75771648  0.42225193  0.78939396  1
  O2-  O411  1  0.75836746  0.92833658  0.11670571  1
  O2-  O412  1  0.74547957  0.91389314  0.43742634  1
  O2-  O413  1  0.73789622  0.91581965  0.77370394  1
  O2-  O414  1  0.24567763  0.41489984  0.22053838  1
  O2-  O415  1  0.24374293  0.41345804  0.56716632  1
  O2-  O416  1  0.24051286  0.41816386  0.89135902  1
  O2-  O417  1  0.21975507  0.92054249  0.20269742  1
  O2-  O418  1  0.24083536  0.92034904  0.55952892  1
  O2-  O419  1  0.23332895  0.91735920  0.92479638  1
  O2-  O420  1  0.58641881  0.41893669  0.22995998  1
  O2-  O421  1  0.58290945  0.41766774  0.55923777  1
  O2-  O422  1  0.57086265  0.42091790  0.87358718  1
  O2-  O423  1  0.60836376  0.91943499  0.21847019  1
  O2-  O424  1  0.56968385  0.91399100  0.57391251  1
  O2-  O425  1  0.59394690  0.92144373  0.88303415  1
  O2-  O426  1  0.91877056  0.42110503  0.21734704  1
  O2-  O427  1  0.91977891  0.42078118  0.55185739  1
  O2-  O428  1  0.93006550  0.41847233  0.88209424  1
  O2-  O429  1  0.92817073  0.91620680  0.21543013  1
  O2-  O430  1  0.93778267  0.91337719  0.56921616  1
  O2-  O431  1  0.92030233  0.91529831  0.90438768  1
  O2-  O432  1  0.00658908  0.00112743  -0.00680225  1
  O2-  O433  1  0.00384363  -0.00646834  0.32611541  1
  O2-  O434  1  -0.00009982  0.01019501  0.67005231  1
  O2-  O435  1  0.00117313  0.47779936  0.00899165  1
  O2-  O436  1  -0.00897567  0.51002654  0.34754114  1
  O2-  O437  1  0.00000991  0.49411160  0.66806708  1
  O2-  O438  1  0.32471211  0.00848644  0.02606905  1
  O2-  O439  1  0.32254008  0.00687978  0.34955058  1
  O2-  O440  1  0.33034005  0.00549441  0.66942330  1
  O2-  O441  1  0.33071906  0.50770892  0.00847943  1
  O2-  O442  1  0.33455504  0.51494385  0.32985899  1
  O2-  O443  1  0.32623777  0.49119053  0.67453582  1
  O2-  O444  1  0.66377549  -0.01707439  0.00326748  1
  O2-  O445  1  0.67474215  0.00444589  0.32906560  1
  O2-  O446  1  0.66589780  0.00845236  0.66177332  1
  O2-  O447  1  0.66578621  0.47684324  0.00052485  1
  O2-  O448  1  0.67078800  0.50233593  0.32004946  1
  O2-  O449  1  0.67130944  0.48746480  0.67731176  1
  O2-  O450  1  0.17229581  0.00017231  0.02097468  1
  O2-  O451  1  0.16966077  -0.01217514  0.34269684  1
  O2-  O452  1  0.17221574  0.01557401  0.67982061  1
  O2-  O453  1  0.16546367  0.49979006  0.00150572  1
  O2-  O454  1  0.15574997  0.51501188  0.32639318  1
  O2-  O455  1  0.16977288  0.49134819  0.67124316  1
  O2-  O456  1  0.48766034  0.00464340  -0.01109562  1
  O2-  O457  1  0.50921229  0.01306330  0.33642579  1
  O2-  O458  1  0.49267239  0.00367896  0.65448524  1
  O2-  O459  1  0.48843743  0.48595947  -0.01087744  1
  O2-  O460  1  0.51082199  0.51866250  0.34087814  1
  O2-  O461  1  0.51751433  0.49410912  0.69479744  1
  O2-  O462  1  0.84322189  -0.00217278  0.00723891  1
  O2-  O463  1  0.82702296  -0.00049291  0.32689884  1
  O2-  O464  1  0.83300524  0.00820983  0.66581591  1
  O2-  O465  1  0.84816386  0.49555413  0.02836945  1
  O2-  O466  1  0.83100908  0.50311041  0.31717931  1
  O2-  O467  1  0.83605914  0.49983808  0.67200644  1
  O2-  O468  1  0.57863259  0.25129241  0.93142462  1
  O2-  O469  1  0.75316347  0.75209500  0.74198076  1
  O2-  O470  1  0.42155430  0.75141418  0.06215921  1
  O2-  O471  1  0.26739673  0.24781908  0.93349793  1
  O2-  O472  1  0.40827198  0.24783748  0.73425884  1
  O2-  O473  1  0.41372908  0.24954786  0.05625424  1
  O2-  O474  1  0.58437837  0.25170629  0.60218324  1
  O2-  O475  1  0.91420633  0.75112195  0.27835103  1
  O2-  O476  1  0.41380268  0.74992477  0.73845671  1
  O2-  O477  1  0.91088574  0.74834936  0.59583970  1
  O2-  O478  1  0.42400288  0.24914472  0.40441726  1
  O2-  O479  1  0.07257206  0.25005832  0.41459425  1
  O2-  O480  1  0.58510583  0.24734876  0.27018025  1
  O2-  O481  1  0.25676947  0.75603031  0.92598444  1
  O2-  O482  1  0.26202428  0.24856416  0.60064817  1
  O2-  O483  1  0.74840508  0.24683668  0.72113587  1
  O2-  O484  1  0.57730577  0.74651279  0.93049683  1
  O2-  O485  1  0.24928406  0.75374419  0.59289786  1
  O2-  O486  1  0.75447343  0.74829599  0.39303708  1
  O2-  O487  1  0.59203381  0.75045033  0.26264759  1
  O2-  O488  1  0.74541214  0.25527340  0.07235080  1
  O2-  O489  1  0.90703131  0.74713531  0.93636491  1
  O2-  O490  1  0.08281763  0.75017755  0.39578745  1
  O2-  O491  1  0.90212324  0.25183933  0.59514182  1
  O2-  O492  1  0.75153854  0.25172023  0.39864846  1
