# generated using pymatgen
data_Ca108Mn108O277
_symmetry_space_group_name_H-M   'P 1'
_cell_length_a   16.02174557
_cell_length_b   22.29882541
_cell_length_c   16.38467910
_cell_angle_alpha   90.00624885
_cell_angle_beta   89.99878519
_cell_angle_gamma   89.99321239
_symmetry_Int_Tables_number   1
_chemical_formula_structural   Ca108Mn108O277
_chemical_formula_sum   'Ca108 Mn108 O277'
_cell_volume   5853.69044073
_cell_formula_units_Z   1
loop_
 _symmetry_equiv_pos_site_id
 _symmetry_equiv_pos_as_xyz
  1  'x, y, z'
loop_
 _atom_type_symbol
 _atom_type_oxidation_number
  Ca2+  2.0
  Mn3.34+  3.34
  O2-  -2.0
loop_
 _atom_site_type_symbol
 _atom_site_label
 _atom_site_symmetry_multiplicity
 _atom_site_fract_x
 _atom_site_fract_y
 _atom_site_fract_z
 _atom_site_occupancy
  Ca2+  Ca0  1  0.10042746  0.24634793  0.25565325  1
  Ca2+  Ca1  1  0.07364872  0.24214639  0.58551029  1
  Ca2+  Ca2  1  0.06783449  0.25255608  0.89629278  1
  Ca2+  Ca3  1  0.08553637  0.75369959  0.25521464  1
  Ca2+  Ca4  1  0.09897342  0.73962206  0.59015089  1
  Ca2+  Ca5  1  0.09461171  0.74774967  0.89098615  1
  Ca2+  Ca6  1  0.41557353  0.25292196  0.23976997  1
  Ca2+  Ca7  1  0.40282647  0.24732564  0.60459157  1
  Ca2+  Ca8  1  0.42539566  0.25210799  0.89531072  1
  Ca2+  Ca9  1  0.41176818  0.75538899  0.23945117  1
  Ca2+  Ca10  1  0.39461435  0.74628458  0.58958394  1
  Ca2+  Ca11  1  0.40788418  0.74112450  0.92113368  1
  Ca2+  Ca12  1  0.74052145  0.24380741  0.25138692  1
  Ca2+  Ca13  1  0.77414912  0.24983781  0.58524226  1
  Ca2+  Ca14  1  0.76023199  0.25814565  0.91371807  1
  Ca2+  Ca15  1  0.75657512  0.76061043  0.25991872  1
  Ca2+  Ca16  1  0.74604947  0.75618042  0.57473197  1
  Ca2+  Ca17  1  0.75317028  0.75745829  0.92698117  1
  Ca2+  Ca18  1  0.25829480  0.24806234  0.11109403  1
  Ca2+  Ca19  1  0.23456193  0.25028237  0.40847108  1
  Ca2+  Ca20  1  0.23808166  0.24527969  0.73941229  1
  Ca2+  Ca21  1  0.27311709  0.73473909  0.07271569  1
  Ca2+  Ca22  1  0.25223613  0.75598332  0.42995091  1
  Ca2+  Ca23  1  0.24754276  0.72958945  0.73923900  1
  Ca2+  Ca24  1  0.58684292  0.26091873  0.10259822  1
  Ca2+  Ca25  1  0.60084309  0.25199167  0.40001552  1
  Ca2+  Ca26  1  0.57364419  0.25526482  0.74887567  1
  Ca2+  Ca27  1  0.56639692  0.74758489  0.07483030  1
  Ca2+  Ca28  1  0.58756409  0.76178687  0.42887903  1
  Ca2+  Ca29  1  0.56358019  0.75099411  0.74047318  1
  Ca2+  Ca30  1  0.90470260  0.26054713  0.07687917  1
  Ca2+  Ca31  1  0.91929882  0.25357779  0.42740756  1
  Ca2+  Ca32  1  0.93172345  0.22602987  0.73683008  1
  Ca2+  Ca33  1  0.91266196  0.74967817  0.08958894  1
  Ca2+  Ca34  1  0.90508365  0.75508948  0.41533966  1
  Ca2+  Ca35  1  0.94432629  0.74279234  0.74414862  1
  Ca2+  Ca36  1  0.22119307  0.08253365  0.08131707  1
  Ca2+  Ca37  1  0.40348371  0.59442036  0.92009586  1
  Ca2+  Ca38  1  0.56814622  0.58263486  0.74555310  1
  Ca2+  Ca39  1  0.07757274  0.10387154  0.90581480  1
  Ca2+  Ca40  1  0.08820817  0.60220453  0.89348764  1
  Ca2+  Ca41  1  0.09753816  0.09441861  0.25498800  1
  Ca2+  Ca42  1  0.10680500  0.58817433  0.26529008  1
  Ca2+  Ca43  1  0.60288944  0.57795672  0.42487624  1
  Ca2+  Ca44  1  0.77705788  0.09967178  0.58868186  1
  Ca2+  Ca45  1  0.23999117  0.60144284  0.41616389  1
  Ca2+  Ca46  1  0.25332693  0.09562008  0.74200571  1
  Ca2+  Ca47  1  0.60111653  0.08731699  0.40042874  1
  Ca2+  Ca48  1  0.93103296  0.09963540  0.42706360  1
  Ca2+  Ca49  1  0.56459813  0.59571923  0.07131651  1
  Ca2+  Ca50  1  0.41660597  0.09834896  0.24945350  1
  Ca2+  Ca51  1  0.59281553  0.10329837  0.10034351  1
  Ca2+  Ca52  1  0.94060890  0.59683296  0.73909031  1
  Ca2+  Ca53  1  0.40669491  0.09142797  0.60759613  1
  Ca2+  Ca54  1  0.75578507  0.57854758  0.92073990  1
  Ca2+  Ca55  1  0.07176110  0.10001549  0.58489130  1
  Ca2+  Ca56  1  0.21140394  0.07965808  0.07867479  1
  Ca2+  Ca57  1  0.75993260  0.58388452  0.58749522  1
  Ca2+  Ca58  1  0.92052825  0.10014871  0.42788077  1
  Ca2+  Ca59  1  0.76801623  0.57722552  0.91995991  1
  Ca2+  Ca60  1  0.22595729  0.08579050  0.40914939  1
  Ca2+  Ca61  1  0.93101226  0.09409108  0.07267127  1
  Ca2+  Ca62  1  0.59018051  0.57816875  0.42549598  1
  Ca2+  Ca63  1  0.56495820  0.09866376  0.74483559  1
  Ca2+  Ca64  1  0.57706051  0.59449459  0.06970737  1
  Ca2+  Ca65  1  0.40491735  0.09859112  0.24951252  1
  Ca2+  Ca66  1  0.57750499  0.09750321  0.74254042  1
  Ca2+  Ca67  1  0.73459272  0.09568541  0.26281019  1
  Ca2+  Ca68  1  0.58177759  0.10228113  0.09912571  1
  Ca2+  Ca69  1  0.76920733  0.09503546  0.58527168  1
  Ca2+  Ca70  1  0.94349755  0.09560679  0.07353102  1
  Ca2+  Ca71  1  0.40300970  0.58944442  0.60272124  1
  Ca2+  Ca72  1  0.08966926  0.91523936  0.27288775  1
  Ca2+  Ca73  1  0.89710490  0.41403598  0.75351253  1
  Ca2+  Ca74  1  0.90001091  0.89674356  0.74250913  1
  Ca2+  Ca75  1  0.59264224  0.41442681  0.74373599  1
  Ca2+  Ca76  1  0.42227532  0.41216813  0.58342219  1
  Ca2+  Ca77  1  0.59321278  0.90125450  0.74559167  1
  Ca2+  Ca78  1  0.25766675  0.90633444  0.74174828  1
  Ca2+  Ca79  1  0.40776868  0.41347858  0.26585488  1
  Ca2+  Ca80  1  0.93624327  0.90784634  0.08075267  1
  Ca2+  Ca81  1  0.40555146  0.41270315  0.91224704  1
  Ca2+  Ca82  1  0.59087155  0.89752991  0.08552708  1
  Ca2+  Ca83  1  0.25121079  0.40411494  0.74957571  1
  Ca2+  Ca84  1  0.41172303  0.89719103  0.57469723  1
  Ca2+  Ca85  1  0.90279721  0.40601999  0.41819197  1
  Ca2+  Ca86  1  0.11153879  0.92789150  0.93460033  1
  Ca2+  Ca87  1  0.39891796  0.41640251  0.26196187  1
  Ca2+  Ca88  1  0.91264071  0.89722648  0.74171686  1
  Ca2+  Ca89  1  0.75494467  0.40166265  0.25595248  1
  Ca2+  Ca90  1  0.10097117  0.91520232  0.27361309  1
  Ca2+  Ca91  1  0.76494450  0.41265821  0.92157126  1
  Ca2+  Ca92  1  0.41485269  0.90797595  0.90968718  1
  Ca2+  Ca93  1  0.74402149  0.40129841  0.25655236  1
  Ca2+  Ca94  1  0.08062151  0.39889152  0.58330377  1
  Ca2+  Ca95  1  0.73843225  0.91730597  0.29004198  1
  Ca2+  Ca96  1  0.25588345  0.41383315  0.40187114  1
  Ca2+  Ca97  1  0.57799353  0.89754785  0.08682201  1
  Ca2+  Ca98  1  0.74778185  0.41388973  0.58000265  1
  Ca2+  Ca99  1  0.24487282  0.40383469  0.09614442  1
  Ca2+  Ca100  1  0.41826015  0.41300731  0.91277155  1
  Ca2+  Ca101  1  0.24285738  0.91402486  0.08140011  1
  Ca2+  Ca102  1  0.06323796  0.40923713  0.91978055  1
  Ca2+  Ca103  1  0.58123497  0.41451174  0.74374177  1
  Ca2+  Ca104  1  0.40213410  0.90794038  0.90982079  1
  Ca2+  Ca105  1  0.92389475  0.90788197  0.08048581  1
  Ca2+  Ca106  1  0.10026809  0.92724101  0.93444079  1
  Ca2+  Ca107  1  0.90796483  0.41388789  0.75199888  1
  Mn3.34+  Mn108  1  0.08091963  0.32948894  0.08681599  1
  Mn3.34+  Mn109  1  0.08132885  0.33295868  0.41499778  1
  Mn3.34+  Mn110  1  0.08352910  0.33317387  0.74960240  1
  Mn3.34+  Mn111  1  0.08835521  0.83398172  0.09120798  1
  Mn3.34+  Mn112  1  0.08226023  0.84184833  0.43005367  1
  Mn3.34+  Mn113  1  0.08798156  0.83088430  0.74652349  1
  Mn3.34+  Mn114  1  0.41759996  0.33791296  0.08507552  1
  Mn3.34+  Mn115  1  0.41888245  0.33620996  0.42531709  1
  Mn3.34+  Mn116  1  0.41566990  0.33466637  0.74845201  1
  Mn3.34+  Mn117  1  0.41121258  0.82913200  0.08735125  1
  Mn3.34+  Mn118  1  0.41624959  0.83367355  0.41480334  1
  Mn3.34+  Mn119  1  0.41494766  0.82928550  0.74742695  1
  Mn3.34+  Mn120  1  0.75078528  0.33853267  0.08397410  1
  Mn3.34+  Mn121  1  0.74909119  0.33394627  0.42359402  1
  Mn3.34+  Mn122  1  0.74743951  0.33284851  0.75068338  1
  Mn3.34+  Mn123  1  0.75140747  0.82798193  0.08641274  1
  Mn3.34+  Mn124  1  0.75076421  0.83916106  0.42554017  1
  Mn3.34+  Mn125  1  0.74810138  0.82575070  0.75225414  1
  Mn3.34+  Mn126  1  0.24531268  0.33259075  0.25196648  1
  Mn3.34+  Mn127  1  0.24933614  0.33173575  0.57750559  1
  Mn3.34+  Mn128  1  0.24435452  0.33188383  0.91869005  1
  Mn3.34+  Mn129  1  0.25411057  0.83321235  0.25355357  1
  Mn3.34+  Mn130  1  0.24461506  0.83342713  0.58192714  1
  Mn3.34+  Mn131  1  0.24837512  0.83364473  0.91392616  1
  Mn3.34+  Mn132  1  0.58040538  0.33146616  0.25247410  1
  Mn3.34+  Mn133  1  0.58323611  0.33089861  0.57417594  1
  Mn3.34+  Mn134  1  0.58667005  0.33715476  0.92080697  1
  Mn3.34+  Mn135  1  0.58104419  0.83518844  0.25596355  1
  Mn3.34+  Mn136  1  0.58263766  0.83044313  0.58241314  1
  Mn3.34+  Mn137  1  0.58396058  0.83138315  0.91005069  1
  Mn3.34+  Mn138  1  0.92379804  0.32752665  0.24777408  1
  Mn3.34+  Mn139  1  0.91798924  0.33429310  0.58393478  1
  Mn3.34+  Mn140  1  0.91654180  0.33516285  0.91692801  1
  Mn3.34+  Mn141  1  0.91631477  0.83545698  0.25470591  1
  Mn3.34+  Mn142  1  0.92109795  0.83030082  0.57583933  1
  Mn3.34+  Mn143  1  0.91870410  0.83393539  0.91183913  1
  Mn3.34+  Mn144  1  0.41311229  0.66127732  0.75262908  1
  Mn3.34+  Mn145  1  0.58366922  0.66651291  0.58608688  1
  Mn3.34+  Mn146  1  0.41147166  0.65771710  0.41926038  1
  Mn3.34+  Mn147  1  0.41192623  0.16685566  0.42533833  1
  Mn3.34+  Mn148  1  0.91329451  0.16895259  0.91164343  1
  Mn3.34+  Mn149  1  0.08485462  0.16638501  0.41737728  1
  Mn3.34+  Mn150  1  0.25290930  0.66051588  0.24702538  1
  Mn3.34+  Mn151  1  0.75266689  0.66561999  0.42699049  1
  Mn3.34+  Mn152  1  0.24540508  0.16530951  0.58243946  1
  Mn3.34+  Mn153  1  0.25786038  0.17068964  0.91430134  1
  Mn3.34+  Mn154  1  0.92557072  0.66372545  0.57187140  1
  Mn3.34+  Mn155  1  0.59170350  0.66944007  0.25050426  1
  Mn3.34+  Mn156  1  0.75731073  0.67402253  0.75105372  1
  Mn3.34+  Mn157  1  0.08204771  0.67429910  0.42049201  1
  Mn3.34+  Mn158  1  0.08054795  0.66161775  0.08337394  1
  Mn3.34+  Mn159  1  0.91633856  0.17016977  0.24931008  1
  Mn3.34+  Mn160  1  0.90851293  0.66299243  0.25398592  1
  Mn3.34+  Mn161  1  0.58413063  0.67080762  0.90718885  1
  Mn3.34+  Mn162  1  0.25131283  0.66618588  0.91097335  1
  Mn3.34+  Mn163  1  0.75047216  0.16742169  0.41925070  1
  Mn3.34+  Mn164  1  0.74860333  0.66793828  0.75326213  1
  Mn3.34+  Mn165  1  0.58815091  0.17250768  0.57699978  1
  Mn3.34+  Mn166  1  0.75275896  0.66666226  0.08342729  1
  Mn3.34+  Mn167  1  0.91885829  0.65796476  0.25313720  1
  Mn3.34+  Mn168  1  0.09095910  0.66699455  0.08238370  1
  Mn3.34+  Mn169  1  0.75427813  0.16846578  0.75301759  1
  Mn3.34+  Mn170  1  0.91747542  0.66203880  0.91260481  1
  Mn3.34+  Mn171  1  0.58091454  0.16324799  0.91620719  1
  Mn3.34+  Mn172  1  0.08341333  0.18106941  0.08537483  1
  Mn3.34+  Mn173  1  0.42518038  0.16787724  0.42651666  1
  Mn3.34+  Mn174  1  0.75448620  0.17144481  0.08488919  1
  Mn3.34+  Mn175  1  0.42079902  0.66345332  0.41842506  1
  Mn3.34+  Mn176  1  0.25264727  0.15915659  0.91185736  1
  Mn3.34+  Mn177  1  0.59153570  0.16848091  0.91714823  1
  Mn3.34+  Mn178  1  0.41458364  0.17100288  0.08584314  1
  Mn3.34+  Mn179  1  0.58193544  0.67466617  0.25208504  1
  Mn3.34+  Mn180  1  0.59055019  0.50557050  0.24981729  1
  Mn3.34+  Mn181  1  0.92468236  0.49185808  0.24429891  1
  Mn3.34+  Mn182  1  0.57872831  0.49826918  0.24900717  1
  Mn3.34+  Mn183  1  0.24501895  0.50338103  0.91707932  1
  Mn3.34+  Mn184  1  0.75271179  0.00279129  0.75372527  1
  Mn3.34+  Mn185  1  0.42006493  -0.00448934  0.08877457  1
  Mn3.34+  Mn186  1  0.41463973  0.00218830  0.74799880  1
  Mn3.34+  Mn187  1  0.25166063  -0.00098336  0.57937367  1
  Mn3.34+  Mn188  1  0.91257204  0.49889826  0.24408336  1
  Mn3.34+  Mn189  1  0.07496144  0.00705915  0.74395085  1
  Mn3.34+  Mn190  1  0.75898885  0.50189287  0.08030707  1
  Mn3.34+  Mn191  1  0.90577960  0.00073823  0.26141985  1
  Mn3.34+  Mn192  1  0.59560480  -0.00184634  0.91552550  1
  Mn3.34+  Mn193  1  0.91445577  0.00113653  0.91262160  1
  Mn3.34+  Mn194  1  0.07869855  0.49862221  0.07544690  1
  Mn3.34+  Mn195  1  0.75541381  -0.00410694  0.09302217  1
  Mn3.34+  Mn196  1  0.91047798  -0.00866217  0.58325399  1
  Mn3.34+  Mn197  1  0.40849770  0.50435342  0.07835892  1
  Mn3.34+  Mn198  1  0.91675283  0.49969083  0.59066318  1
  Mn3.34+  Mn199  1  0.91644626  0.00543010  0.26261011  1
  Mn3.34+  Mn200  1  0.58394814  0.50234794  0.91641161  1
  Mn3.34+  Mn201  1  0.58370764  0.49803311  0.59414241  1
  Mn3.34+  Mn202  1  0.24120777  0.50510756  0.58962595  1
  Mn3.34+  Mn203  1  0.57554334  -0.00485539  0.26522763  1
  Mn3.34+  Mn204  1  0.08720254  -0.00017862  0.74229105  1
  Mn3.34+  Mn205  1  0.07290115  0.50567282  0.42277028  1
  Mn3.34+  Mn206  1  0.08601867  0.49929393  0.42148674  1
  Mn3.34+  Mn207  1  0.26297989  -0.00560013  0.26419620  1
  Mn3.34+  Mn208  1  0.41616013  -0.00034408  0.41690213  1
  Mn3.34+  Mn209  1  0.25183186  0.49772625  0.58546075  1
  Mn3.34+  Mn210  1  0.06407470  0.50041208  0.07356332  1
  Mn3.34+  Mn211  1  0.59384329  -0.00561869  0.57254722  1
  Mn3.34+  Mn212  1  0.74560130  0.00102162  0.08953756  1
  Mn3.34+  Mn213  1  0.58263637  -0.00033219  0.57084855  1
  Mn3.34+  Mn214  1  0.40808740  -0.00151354  0.08617243  1
  Mn3.34+  Mn215  1  0.08515076  0.49881438  0.74894317  1
  O2-  O216  1  0.00314200  0.17176741  0.00201397  1
  O2-  O217  1  0.00037600  0.15249374  0.32921168  1
  O2-  O218  1  0.00709045  0.16680426  0.65650536  1
  O2-  O219  1  -0.00347095  0.66624855  0.00150973  1
  O2-  O220  1  0.00547341  0.66967189  0.32797258  1
  O2-  O221  1  -0.00386774  0.67323856  0.65547563  1
  O2-  O222  1  0.32925622  0.16321477  0.00579144  1
  O2-  O223  1  0.33686714  0.15767011  0.34067946  1
  O2-  O224  1  0.32690665  0.15992014  0.66023237  1
  O2-  O225  1  0.33282373  0.66304892  -0.01094962  1
  O2-  O226  1  0.32764239  0.66555914  0.33700339  1
  O2-  O227  1  0.33781270  0.65943497  0.67294531  1
  O2-  O228  1  0.66857904  0.15030595  0.00035490  1
  O2-  O229  1  0.66881050  0.16195742  0.34048585  1
  O2-  O230  1  0.66766163  0.15444702  0.66202749  1
  O2-  O231  1  0.66478018  0.66524271  -0.00444442  1
  O2-  O232  1  0.66146044  0.65728748  0.34164499  1
  O2-  O233  1  0.66913321  0.65446995  0.66840064  1
  O2-  O234  1  0.16729310  0.16460544  -0.00177257  1
  O2-  O235  1  0.16399303  0.15743986  0.33709373  1
  O2-  O236  1  0.16889240  0.15381047  0.65911698  1
  O2-  O237  1  0.16509082  0.65581914  -0.00371268  1
  O2-  O238  1  0.16588933  0.67663716  0.32816517  1
  O2-  O239  1  0.16403753  0.66569723  0.66698688  1
  O2-  O240  1  0.50400209  0.15225822  0.00706160  1
  O2-  O241  1  0.49641114  0.15778173  0.33774364  1
  O2-  O242  1  0.50832545  0.16497221  0.65786489  1
  O2-  O243  1  0.50844638  0.66362974  -0.00811964  1
  O2-  O244  1  0.50027862  0.65174297  0.33260734  1
  O2-  O245  1  0.50218888  0.65282325  0.66700020  1
  O2-  O246  1  0.84265891  0.15743678  0.01260784  1
  O2-  O247  1  0.83660534  0.14548859  0.33532887  1
  O2-  O248  1  0.83156749  0.16101850  0.67166249  1
  O2-  O249  1  0.82771650  0.66165006  -0.01190525  1
  O2-  O250  1  0.83212726  0.66035514  0.33889398  1
  O2-  O251  1  0.83596352  0.66907469  0.66590795  1
  O2-  O252  1  0.00591627  0.33031294  -0.00542496  1
  O2-  O253  1  -0.00815896  0.34060084  0.34176717  1
  O2-  O254  1  -0.00625042  0.35547705  0.67317681  1
  O2-  O255  1  0.00719365  0.85063610  -0.00635598  1
  O2-  O256  1  0.00933477  0.83335938  0.32889035  1
  O2-  O257  1  -0.00472338  0.83096560  0.67192462  1
  O2-  O258  1  0.33068531  0.34693506  0.00126194  1
  O2-  O259  1  0.33679084  0.33820644  0.33395978  1
  O2-  O260  1  0.33610174  0.34871449  0.66219012  1
  O2-  O261  1  0.33566783  0.85138986  -0.00099713  1
  O2-  O262  1  0.33318909  0.81603772  0.33023217  1
  O2-  O263  1  0.33612425  0.84239124  0.66648610  1
  O2-  O264  1  0.67261092  0.34550369  -0.00455699  1
  O2-  O265  1  0.66807821  0.33825095  0.33426807  1
  O2-  O266  1  0.66183250  0.34333330  0.66722917  1
  O2-  O267  1  0.65878200  0.82975418  0.00376977  1
  O2-  O268  1  0.66752437  0.82931429  0.33141211  1
  O2-  O269  1  0.66346141  0.82662452  0.67376358  1
  O2-  O270  1  0.16862948  0.31230638  0.00390631  1
  O2-  O271  1  0.16971253  0.34204930  0.33917105  1
  O2-  O272  1  0.16830917  0.34795783  0.66703195  1
  O2-  O273  1  0.16824793  0.85168981  0.00474320  1
  O2-  O274  1  0.16494295  0.82491958  0.33330250  1
  O2-  O275  1  0.16981435  0.84844275  0.67186098  1
  O2-  O276  1  0.49203995  0.35074967  -0.00723492  1
  O2-  O277  1  0.49155880  0.33796539  0.33092845  1
  O2-  O278  1  0.50436502  0.34333798  0.66657616  1
  O2-  O279  1  0.50063693  0.84438472  -0.00140569  1
  O2-  O280  1  0.50185764  0.81510660  0.33107417  1
  O2-  O281  1  0.50163353  0.84525282  0.67285780  1
  O2-  O282  1  0.83415746  0.34242690  -0.00213110  1
  O2-  O283  1  0.83138637  0.34547376  0.33393100  1
  O2-  O284  1  0.82973371  0.35189454  0.66437281  1
  O2-  O285  1  0.84540191  0.83802192  0.00352833  1
  O2-  O286  1  0.83019234  0.83810363  0.33127890  1
  O2-  O287  1  0.83591150  0.81228889  0.67218180  1
  O2-  O288  1  -0.00440442  0.18118939  0.16347931  1
  O2-  O289  1  -0.00260718  0.17479742  0.49134937  1
  O2-  O290  1  -0.00325964  0.17418529  0.84098267  1
  O2-  O291  1  0.00126393  0.67945743  0.16794563  1
  O2-  O292  1  -0.00334710  0.69535611  0.49318124  1
  O2-  O293  1  -0.00222370  0.67779249  0.84073079  1
  O2-  O294  1  0.34022431  0.17210237  0.16912309  1
  O2-  O295  1  0.33196603  0.18724754  0.49988229  1
  O2-  O296  1  0.33186411  0.18926891  0.83436485  1
  O2-  O297  1  0.32548153  0.68961899  0.18135168  1
  O2-  O298  1  0.33493824  0.67107924  0.50116071  1
  O2-  O299  1  0.33678180  0.67953360  0.83540154  1
  O2-  O300  1  0.66612627  0.17457563  0.15806788  1
  O2-  O301  1  0.67623445  0.18651462  0.50628398  1
  O2-  O302  1  0.65999421  0.18347761  0.82306862  1
  O2-  O303  1  0.66705475  0.68751802  0.16538820  1
  O2-  O304  1  0.66314904  0.67905761  0.50238315  1
  O2-  O305  1  0.66772337  0.69370829  0.83052445  1
  O2-  O306  1  0.16909216  0.17185041  0.15671896  1
  O2-  O307  1  0.16491773  0.17675202  0.49754557  1
  O2-  O308  1  0.16981170  0.18745458  0.83942580  1
  O2-  O309  1  0.16516882  0.68103493  0.17110046  1
  O2-  O310  1  0.16608877  0.68648602  0.48658990  1
  O2-  O311  1  0.16926443  0.67495396  0.83620073  1
  O2-  O312  1  0.49518951  0.16668704  0.16658593  1
  O2-  O313  1  0.50503133  0.19243004  0.49765710  1
  O2-  O314  1  0.50654745  0.17797839  0.83095586  1
  O2-  O315  1  0.50754642  0.68691501  0.16708700  1
  O2-  O316  1  0.50953492  0.66920898  0.49522977  1
  O2-  O317  1  0.50114575  0.68617655  0.83286422  1
  O2-  O318  1  0.83177785  0.17461126  0.17045994  1
  O2-  O319  1  0.83681246  0.16877570  0.49731112  1
  O2-  O320  1  0.82725222  0.17936387  0.83767444  1
  O2-  O321  1  0.83630581  0.67182893  0.16729973  1
  O2-  O322  1  0.82989927  0.68228088  0.50799251  1
  O2-  O323  1  0.83481382  0.69556533  0.83340649  1
  O2-  O324  1  0.00201491  0.30394125  0.16709537  1
  O2-  O325  1  0.00347690  0.32310941  0.50597353  1
  O2-  O326  1  -0.00446477  0.32679810  0.82898383  1
  O2-  O327  1  -0.00741219  0.82472962  0.15898781  1
  O2-  O328  1  0.00143204  0.81016944  0.49777845  1
  O2-  O329  1  -0.00319492  0.81865715  0.82886740  1
  O2-  O330  1  0.33448370  0.32427263  0.16958637  1
  O2-  O331  1  0.33295248  0.31378679  0.49628814  1
  O2-  O332  1  0.33696917  0.32748042  0.83848710  1
  O2-  O333  1  0.32397869  0.82078344  0.16015066  1
  O2-  O334  1  0.33442570  0.82185427  0.50429253  1
  O2-  O335  1  0.33598657  0.82581692  0.83636344  1
  O2-  O336  1  0.67169223  0.32671899  0.17500533  1
  O2-  O337  1  0.67184822  0.31128842  0.50554685  1
  O2-  O338  1  0.66068334  0.32361290  0.82824995  1
  O2-  O339  1  0.66195429  0.81759980  0.16666518  1
  O2-  O340  1  0.66699707  0.82209141  0.50448691  1
  O2-  O341  1  0.66322839  0.81113596  0.83224756  1
  O2-  O342  1  0.16886610  0.31942801  0.16466928  1
  O2-  O343  1  0.16314486  0.32272647  0.50108073  1
  O2-  O344  1  0.16753308  0.31980472  0.83210753  1
  O2-  O345  1  0.15992040  0.82117925  0.17820539  1
  O2-  O346  1  0.16297312  0.81888655  0.50198549  1
  O2-  O347  1  0.15712601  0.83703371  0.84230926  1
  O2-  O348  1  0.49453075  0.33159581  0.17303102  1
  O2-  O349  1  0.49759562  0.30728004  0.50092690  1
  O2-  O350  1  0.50260148  0.32626304  0.83311003  1
  O2-  O351  1  0.50638766  0.82092065  0.16166289  1
  O2-  O352  1  0.49546438  0.82163378  0.50764456  1
  O2-  O353  1  0.49271097  0.81887389  0.83836930  1
  O2-  O354  1  0.82700282  0.32211172  0.17570858  1
  O2-  O355  1  0.83723511  0.32239045  0.50010903  1
  O2-  O356  1  0.83182942  0.32965773  0.83037516  1
  O2-  O357  1  0.83766253  0.83395766  0.16362164  1
  O2-  O358  1  0.83501985  0.81774355  0.50158228  1
  O2-  O359  1  0.83687714  0.81411251  0.83145818  1
  O2-  O360  1  0.07576607  0.08255549  0.10407801  1
  O2-  O361  1  0.06955203  0.08251042  0.44132624  1
  O2-  O362  1  0.10270930  0.08094576  0.77881446  1
  O2-  O363  1  0.08808392  0.57727213  0.12645784  1
  O2-  O364  1  0.08774909  0.58679278  0.42784908  1
  O2-  O365  1  0.06959326  0.57438831  0.77029199  1
  O2-  O366  1  0.41528115  0.08221718  0.10537200  1
  O2-  O367  1  0.42532226  0.08028227  0.46733764  1
  O2-  O368  1  0.43026087  0.08072869  0.76381922  1
  O2-  O369  1  0.43757493  0.57893488  0.10335103  1
  O2-  O370  1  0.43097250  0.57844980  0.44720494  1
  O2-  O371  1  0.43008470  0.58364438  0.78096667  1
  O2-  O372  1  0.74746869  0.08295696  0.11325576  1
  O2-  O373  1  0.74277688  0.08426785  0.45270454  1
  O2-  O374  1  0.72438464  0.08407236  0.76637756  1
  O2-  O375  1  0.73072784  0.58473795  0.09493638  1
  O2-  O376  1  0.73391726  0.58300022  0.45457419  1
  O2-  O377  1  0.74849807  0.58341667  0.78509927  1
  O2-  O378  1  0.26580619  0.06854532  0.20546221  1
  O2-  O379  1  0.25406364  0.08017570  0.54630176  1
  O2-  O380  1  0.23018687  0.07968621  0.89307255  1
  O2-  O381  1  0.24350639  0.58466284  0.24300554  1
  O2-  O382  1  0.25674273  0.57826173  0.54634632  1
  O2-  O383  1  0.24920645  0.58197423  0.89278143  1
  O2-  O384  1  0.57503305  0.07314292  0.22219586  1
  O2-  O385  1  0.58910384  0.08121725  0.54539845  1
  O2-  O386  1  0.58572410  0.08018806  0.87742871  1
  O2-  O387  1  0.58367208  0.58353987  0.20545889  1
  O2-  O388  1  0.58866631  0.57743456  0.56084075  1
  O2-  O389  1  0.60421257  0.58222798  0.88555858  1
  O2-  O390  1  0.92280947  0.08087263  0.20837163  1
  O2-  O391  1  0.90788552  0.07113374  0.55239461  1
  O2-  O392  1  0.93489497  0.08348118  0.92943678  1
  O2-  O393  1  0.93710075  0.57747555  0.22100466  1
  O2-  O394  1  0.90599940  0.57949099  0.57282229  1
  O2-  O395  1  0.89635915  0.58468550  0.87522969  1
  O2-  O396  1  0.09074902  0.41767398  0.10205439  1
  O2-  O397  1  0.07587092  0.41909960  0.44464404  1
  O2-  O398  1  0.08608969  0.42066493  0.78695692  1
  O2-  O399  1  0.07325770  0.91768825  0.12376216  1
  O2-  O400  1  0.09050440  0.91903705  0.41011164  1
  O2-  O401  1  0.06710130  0.92227797  0.77981646  1
  O2-  O402  1  0.40175371  0.42563250  0.11917604  1
  O2-  O403  1  0.40918544  0.41439775  0.44187551  1
  O2-  O404  1  0.43304211  0.42071073  0.78027418  1
  O2-  O405  1  0.43580336  0.91444659  0.11129129  1
  O2-  O406  1  0.41841235  0.91759040  0.43536033  1
  O2-  O407  1  0.41142874  0.91935049  0.77509285  1
  O2-  O408  1  0.75373154  0.42340163  0.12006850  1
  O2-  O409  1  0.75572517  0.41361786  0.44120105  1
  O2-  O410  1  0.74278661  0.41714095  0.77629821  1
  O2-  O411  1  0.73411831  0.91331009  0.10030147  1
  O2-  O412  1  0.74580936  0.91657530  0.42394637  1
  O2-  O413  1  0.76662684  0.91858553  0.76610316  1
  O2-  O414  1  0.26490926  0.41630726  0.22961147  1
  O2-  O415  1  0.24908135  0.41940960  0.54492360  1
  O2-  O416  1  0.26050498  0.42312833  0.88518444  1
  O2-  O417  1  0.23111754  0.92126836  0.22068105  1
  O2-  O418  1  0.26481378  0.91920973  0.57103451  1
  O2-  O419  1  0.25577747  0.91979053  0.88800254  1
  O2-  O420  1  0.59621979  0.41723142  0.23362743  1
  O2-  O421  1  0.57900359  0.42080723  0.56325657  1
  O2-  O422  1  0.57661777  0.42261277  0.88221354  1
  O2-  O423  1  0.60135327  0.92224965  0.21653358  1
  O2-  O424  1  0.58026604  0.91327919  0.57250639  1
  O2-  O425  1  0.55818735  0.91963654  0.88194385  1
  O2-  O426  1  0.91760761  0.41259403  0.21882323  1
  O2-  O427  1  0.92113168  0.42165883  0.55196286  1
  O2-  O428  1  0.91832802  0.41779921  0.88749325  1
  O2-  O429  1  0.91955245  0.92200139  0.22019822  1
  O2-  O430  1  0.90531845  0.91249814  0.60631663  1
  O2-  O431  1  0.91835271  0.92189246  0.87316618  1
  O2-  O432  1  -0.00182993  -0.02090189  -0.00331955  1
  O2-  O433  1  0.02037417  0.00127264  0.30926220  1
  O2-  O434  1  -0.00047450  0.00588220  0.65742048  1
  O2-  O435  1  0.01562896  0.50614911  -0.02648528  1
  O2-  O436  1  -0.00157943  0.49845173  0.33354858  1
  O2-  O437  1  -0.01379771  0.48788307  0.68692880  1
  O2-  O438  1  0.32528458  -0.01125943  0.01000133  1
  O2-  O439  1  0.33323275  0.03163810  0.33924834  1
  O2-  O440  1  0.32958738  0.01084746  0.66995893  1
  O2-  O441  1  0.34348186  0.49401841  -0.01975705  1
  O2-  O442  1  0.33356221  0.48124472  0.33469625  1
  O2-  O443  1  0.34949388  0.49433761  0.64582650  1
  O2-  O444  1  0.64630119  0.00388756  0.02932576  1
  O2-  O445  1  0.66506282  0.00909029  0.31944301  1
  O2-  O446  1  0.65468715  0.00052407  0.67838834  1
  O2-  O447  1  0.65812716  0.51117877  0.00456993  1
  O2-  O448  1  0.65651800  0.51069004  0.34426408  1
  O2-  O449  1  0.66484280  0.49422286  0.66735904  1
  O2-  O450  1  0.16617422  -0.00287766  0.01281822  1
  O2-  O451  1  0.16903878  0.00829625  0.31198939  1
  O2-  O452  1  0.16916658  0.00578869  0.66379922  1
  O2-  O453  1  0.17507759  0.49350011  0.01130709  1
  O2-  O454  1  0.17226311  0.50631001  0.34933157  1
  O2-  O455  1  0.16616197  0.48201503  0.67013688  1
  O2-  O456  1  0.49672742  -0.00434040  -0.00161764  1
  O2-  O457  1  0.49390801  0.02587342  0.33326298  1
  O2-  O458  1  0.49946250  0.00636574  0.66028395  1
  O2-  O459  1  0.49409422  0.50279315  -0.00818107  1
  O2-  O460  1  0.49123976  0.50315039  0.32185382  1
  O2-  O461  1  0.50885576  0.49673986  0.67304589  1
  O2-  O462  1  0.84631539  -0.00671693  0.01955680  1
  O2-  O463  1  0.82057428  0.01627585  0.33165873  1
  O2-  O464  1  0.82422736  0.01372763  0.66087828  1
  O2-  O465  1  0.81430373  0.49946409  -0.02121058  1
  O2-  O466  1  0.82495210  0.48058765  0.31549337  1
  O2-  O467  1  0.82995565  0.48973801  0.65611459  1
  O2-  O468  1  0.08019826  0.25550705  0.72828165  1
  O2-  O469  1  0.41713479  0.74949272  0.72690674  1
  O2-  O470  1  0.75954846  0.24917604  0.39343348  1
  O2-  O471  1  0.90654242  0.25152874  0.93253988  1
  O2-  O472  1  0.74807936  0.25085363  0.72727578  1
  O2-  O473  1  0.24845694  0.75425508  0.60130879  1
  O2-  O474  1  0.24705537  0.25078786  0.60409074  1
  O2-  O475  1  0.90296061  0.24751777  0.28022762  1
  O2-  O476  1  0.25138170  0.25327023  0.26502086  1
  O2-  O477  1  0.09716252  0.75250047  0.73903817  1
  O2-  O478  1  0.74831548  0.25173842  0.06235512  1
  O2-  O479  1  0.57992676  0.25308459  0.25681283  1
  O2-  O480  1  0.75000715  0.74848634  0.40312273  1
  O2-  O481  1  0.91824606  0.25625773  0.60303786  1
  O2-  O482  1  0.07897068  0.75243260  0.06507119  1
  O2-  O483  1  0.24429697  0.75199860  0.93450411  1
  O2-  O484  1  0.41550487  0.75323336  0.06137460  1
  O2-  O485  1  0.42132582  0.74431136  0.41236896  1
  O2-  O486  1  0.91066762  0.74930965  0.25650156  1
  O2-  O487  1  0.08182793  0.25044067  0.39508445  1
  O2-  O488  1  0.57707692  0.74767045  0.60057482  1
  O2-  O489  1  0.42066968  0.25606020  0.73790279  1
  O2-  O490  1  0.76700651  0.74867205  0.06854038  1
  O2-  O491  1  0.57848526  0.25128801  0.94329016  1
  O2-  O492  1  0.42586690  0.25212330  0.07144561  1
