# generated using pymatgen
data_Ca108Mn108O277
_symmetry_space_group_name_H-M   'P 1'
_cell_length_a   16.00842141
_cell_length_b   22.27972971
_cell_length_c   16.37462938
_cell_angle_alpha   89.99873925
_cell_angle_beta   89.99959643
_cell_angle_gamma   90.00198274
_symmetry_Int_Tables_number   1
_chemical_formula_structural   Ca108Mn108O277
_chemical_formula_sum   'Ca108 Mn108 O277'
_cell_volume   5840.22938118
_cell_formula_units_Z   1
loop_
 _symmetry_equiv_pos_site_id
 _symmetry_equiv_pos_as_xyz
  1  'x, y, z'
loop_
 _atom_type_symbol
 _atom_type_oxidation_number
  Ca2+  2.0
  Mn3.34+  3.34
  O2-  -2.0
loop_
 _atom_site_type_symbol
 _atom_site_label
 _atom_site_symmetry_multiplicity
 _atom_site_fract_x
 _atom_site_fract_y
 _atom_site_fract_z
 _atom_site_occupancy
  Ca2+  Ca0  1  0.06171035  0.24226665  0.23105521  1
  Ca2+  Ca1  1  0.07339473  0.27012780  0.58536982  1
  Ca2+  Ca2  1  0.07292420  0.25340472  0.92830849  1
  Ca2+  Ca3  1  0.08805256  0.73609473  0.26258560  1
  Ca2+  Ca4  1  0.09470190  0.74549799  0.56752003  1
  Ca2+  Ca5  1  0.09955658  0.75026408  0.91914488  1
  Ca2+  Ca6  1  0.42385341  0.25280366  0.26748187  1
  Ca2+  Ca7  1  0.42490313  0.25576664  0.57637046  1
  Ca2+  Ca8  1  0.44011268  0.25334909  0.90922791  1
  Ca2+  Ca9  1  0.40498407  0.75264747  0.25494825  1
  Ca2+  Ca10  1  0.42653692  0.74461955  0.57996824  1
  Ca2+  Ca11  1  0.41755591  0.75194718  0.91624787  1
  Ca2+  Ca12  1  0.77021448  0.24909629  0.23591700  1
  Ca2+  Ca13  1  0.74945182  0.26173909  0.57619316  1
  Ca2+  Ca14  1  0.73573029  0.25495496  0.93205826  1
  Ca2+  Ca15  1  0.75788339  0.74340965  0.27076450  1
  Ca2+  Ca16  1  0.72815267  0.74508707  0.58438025  1
  Ca2+  Ca17  1  0.73766266  0.75275266  0.89207497  1
  Ca2+  Ca18  1  0.23212963  0.25096756  0.07818394  1
  Ca2+  Ca19  1  0.26918975  0.25608100  0.41703251  1
  Ca2+  Ca20  1  0.25190808  0.26614342  0.75619343  1
  Ca2+  Ca21  1  0.25592684  0.75122495  0.09140044  1
  Ca2+  Ca22  1  0.24585441  0.73826658  0.41389199  1
  Ca2+  Ca23  1  0.25911327  0.74443208  0.74461023  1
  Ca2+  Ca24  1  0.59084620  0.25094922  0.06410226  1
  Ca2+  Ca25  1  0.56443114  0.24723028  0.41832839  1
  Ca2+  Ca26  1  0.57119405  0.25367895  0.76719304  1
  Ca2+  Ca27  1  0.56581612  0.74846158  0.07498943  1
  Ca2+  Ca28  1  0.57914868  0.74264380  0.43508953  1
  Ca2+  Ca29  1  0.58472370  0.73723899  0.74077137  1
  Ca2+  Ca30  1  0.91620109  0.24626974  0.09432076  1
  Ca2+  Ca31  1  0.91639594  0.24950238  0.39283178  1
  Ca2+  Ca32  1  0.93085713  0.25860117  0.76005596  1
  Ca2+  Ca33  1  0.93192750  0.74727821  0.09242053  1
  Ca2+  Ca34  1  0.92009426  0.74650142  0.41044734  1
  Ca2+  Ca35  1  0.90290424  0.74859270  0.74663569  1
  Ca2+  Ca36  1  0.25455450  0.07716039  0.08852089  1
  Ca2+  Ca37  1  0.07983177  0.08961501  0.93179870  1
  Ca2+  Ca38  1  0.92493082  0.60217758  0.38694645  1
  Ca2+  Ca39  1  0.41383980  0.60212373  0.24914544  1
  Ca2+  Ca40  1  0.42764889  0.08800002  0.92821431  1
  Ca2+  Ca41  1  0.93253427  0.10800324  0.10371628  1
  Ca2+  Ca42  1  0.56916214  0.08662973  0.74698706  1
  Ca2+  Ca43  1  0.27353045  0.07696078  0.74957236  1
  Ca2+  Ca44  1  0.90716266  0.09153768  0.39453767  1
  Ca2+  Ca45  1  0.25596423  0.60276460  0.08978315  1
  Ca2+  Ca46  1  0.06906112  0.59575588  0.91312541  1
  Ca2+  Ca47  1  0.42980964  0.08580497  0.57006728  1
  Ca2+  Ca48  1  0.43304309  0.08412855  0.57935976  1
  Ca2+  Ca49  1  0.57267000  0.59126773  0.08132611  1
  Ca2+  Ca50  1  0.28559415  0.08149815  0.40594149  1
  Ca2+  Ca51  1  0.91646098  0.08565668  0.74486040  1
  Ca2+  Ca52  1  0.91938890  0.60110085  0.10514580  1
  Ca2+  Ca53  1  0.07726010  0.07768798  0.58967668  1
  Ca2+  Ca54  1  0.42684992  0.60471386  0.89960781  1
  Ca2+  Ca55  1  0.77566192  0.10380592  0.24597780  1
  Ca2+  Ca56  1  0.58019896  0.09673382  0.06675900  1
  Ca2+  Ca57  1  0.26626241  0.60063703  0.74086814  1
  Ca2+  Ca58  1  0.74784943  0.59467179  0.90647544  1
  Ca2+  Ca59  1  0.09070639  0.08960266  0.93459380  1
  Ca2+  Ca60  1  0.26194642  0.07966724  0.74668422  1
  Ca2+  Ca61  1  0.90753561  0.59227660  0.75756898  1
  Ca2+  Ca62  1  0.92939072  0.08599464  0.74521714  1
  Ca2+  Ca63  1  0.55901318  0.08832359  0.74361151  1
  Ca2+  Ca64  1  0.10181854  0.59619663  0.57064421  1
  Ca2+  Ca65  1  0.73512923  0.10102954  0.92979881  1
  Ca2+  Ca66  1  0.92021043  0.59118076  0.75719057  1
  Ca2+  Ca67  1  0.73662504  0.59437846  0.90459002  1
  Ca2+  Ca68  1  0.42865344  0.60586182  0.59220717  1
  Ca2+  Ca69  1  0.55843090  0.09135303  0.42369592  1
  Ca2+  Ca70  1  0.08105608  0.59513179  0.91302053  1
  Ca2+  Ca71  1  0.24336570  0.07802296  0.08700946  1
  Ca2+  Ca72  1  0.90656857  0.90101997  0.08869128  1
  Ca2+  Ca73  1  0.92365564  0.40613836  0.41449116  1
  Ca2+  Ca74  1  0.92113754  0.41271401  0.75727478  1
  Ca2+  Ca75  1  0.07457058  0.90766409  0.57905445  1
  Ca2+  Ca76  1  0.42615263  0.40555951  0.24741015  1
  Ca2+  Ca77  1  0.91592721  0.90245487  0.42200145  1
  Ca2+  Ca78  1  0.57716852  0.40754177  0.75721241  1
  Ca2+  Ca79  1  0.06982344  0.40882655  0.90876313  1
  Ca2+  Ca80  1  0.91973438  0.90179423  0.08915193  1
  Ca2+  Ca81  1  0.60091029  0.40732871  0.41904071  1
  Ca2+  Ca82  1  0.08430505  0.90416161  0.57662800  1
  Ca2+  Ca83  1  0.09562324  0.90888035  0.91541778  1
  Ca2+  Ca84  1  0.91079363  0.40603823  0.41411286  1
  Ca2+  Ca85  1  0.90355560  0.40664104  0.08119424  1
  Ca2+  Ca86  1  0.25147402  0.40281309  0.08808887  1
  Ca2+  Ca87  1  0.91941620  0.90503453  0.74220871  1
  Ca2+  Ca88  1  0.75151802  0.89675734  0.25386193  1
  Ca2+  Ca89  1  0.58815700  0.40758652  0.41844059  1
  Ca2+  Ca90  1  0.74702965  0.40653882  0.24526295  1
  Ca2+  Ca91  1  0.57399831  0.90346594  0.08342880  1
  Ca2+  Ca92  1  0.56163075  0.90218984  0.08602328  1
  Ca2+  Ca93  1  0.41273438  0.40784471  0.59576874  1
  Ca2+  Ca94  1  0.90761612  0.90541324  0.74240756  1
  Ca2+  Ca95  1  0.08283477  0.40446836  0.25886075  1
  Ca2+  Ca96  1  0.27095303  0.90978036  0.75765927  1
  Ca2+  Ca97  1  0.27479089  0.91474869  0.09140066  1
  Ca2+  Ca98  1  0.23748187  0.40744565  0.42036990  1
  Ca2+  Ca99  1  0.42691164  0.91228212  0.57711546  1
  Ca2+  Ca100  1  0.10790357  0.90989102  0.91776819  1
  Ca2+  Ca101  1  0.90875829  0.41106040  0.76013475  1
  Ca2+  Ca102  1  0.26391879  0.91283197  0.39955501  1
  Ca2+  Ca103  1  0.08240369  0.40865652  0.90665195  1
  Ca2+  Ca104  1  0.43706438  0.91252646  0.57456179  1
  Ca2+  Ca105  1  0.09925120  0.90750932  0.25376505  1
  Ca2+  Ca106  1  0.26428564  0.40185918  0.08919306  1
  Ca2+  Ca107  1  0.57313308  0.90477191  0.73617466  1
  Mn3.34+  Mn108  1  0.08072710  0.32999102  0.08511202  1
  Mn3.34+  Mn109  1  0.08632876  0.33398793  0.42098934  1
  Mn3.34+  Mn110  1  0.08916665  0.33942542  0.74602783  1
  Mn3.34+  Mn111  1  0.08812140  0.83219725  0.08741529  1
  Mn3.34+  Mn112  1  0.08560709  0.82854810  0.41421442  1
  Mn3.34+  Mn113  1  0.08659870  0.82894314  0.75071172  1
  Mn3.34+  Mn114  1  0.42318587  0.33299349  0.08265077  1
  Mn3.34+  Mn115  1  0.41701774  0.33190922  0.41986973  1
  Mn3.34+  Mn116  1  0.41512634  0.33508065  0.75244815  1
  Mn3.34+  Mn117  1  0.41357378  0.83420440  0.08597358  1
  Mn3.34+  Mn118  1  0.41935130  0.83667618  0.41320080  1
  Mn3.34+  Mn119  1  0.41903268  0.83801318  0.75249681  1
  Mn3.34+  Mn120  1  0.74503873  0.33644181  0.08177480  1
  Mn3.34+  Mn121  1  0.74861914  0.32918630  0.41743507  1
  Mn3.34+  Mn122  1  0.74576360  0.33394022  0.75098976  1
  Mn3.34+  Mn123  1  0.74714263  0.82692574  0.08369090  1
  Mn3.34+  Mn124  1  0.74341721  0.82878198  0.42146385  1
  Mn3.34+  Mn125  1  0.74363721  0.82761987  0.74728533  1
  Mn3.34+  Mn126  1  0.25054082  0.33040549  0.25112792  1
  Mn3.34+  Mn127  1  0.24902445  0.34079924  0.58581430  1
  Mn3.34+  Mn128  1  0.25600825  0.33399748  0.91351249  1
  Mn3.34+  Mn129  1  0.25376469  0.83761486  0.25006718  1
  Mn3.34+  Mn130  1  0.25438369  0.83127589  0.58134803  1
  Mn3.34+  Mn131  1  0.26095106  0.83601461  0.91565532  1
  Mn3.34+  Mn132  1  0.58511365  0.33466496  0.24233868  1
  Mn3.34+  Mn133  1  0.58804027  0.33733113  0.58729879  1
  Mn3.34+  Mn134  1  0.58408789  0.33526224  0.91792281  1
  Mn3.34+  Mn135  1  0.58159917  0.82833691  0.25513947  1
  Mn3.34+  Mn136  1  0.58685091  0.83317903  0.58163669  1
  Mn3.34+  Mn137  1  0.58142092  0.82883635  0.91080164  1
  Mn3.34+  Mn138  1  0.91636408  0.33356466  0.24526700  1
  Mn3.34+  Mn139  1  0.91284494  0.33204857  0.58392203  1
  Mn3.34+  Mn140  1  0.90845129  0.33562875  0.91855449  1
  Mn3.34+  Mn141  1  0.91831572  0.82909604  0.25294681  1
  Mn3.34+  Mn142  1  0.90967135  0.83751225  0.57753415  1
  Mn3.34+  Mn143  1  0.91453098  0.82502185  0.91644839  1
  Mn3.34+  Mn144  1  0.24567939  0.66692402  0.25605762  1
  Mn3.34+  Mn145  1  0.41904783  0.16182897  0.08613100  1
  Mn3.34+  Mn146  1  0.74556988  0.17013319  0.41821710  1
  Mn3.34+  Mn147  1  0.07756869  0.15966358  0.41147216  1
  Mn3.34+  Mn148  1  0.75249659  0.66734893  0.09213355  1
  Mn3.34+  Mn149  1  0.90393238  0.15950984  0.57750089  1
  Mn3.34+  Mn150  1  0.74456238  0.66441006  0.41546894  1
  Mn3.34+  Mn151  1  0.41812526  0.66796574  0.08564235  1
  Mn3.34+  Mn152  1  0.58870534  0.16448519  0.57664736  1
  Mn3.34+  Mn153  1  0.26122952  0.16175233  0.91789981  1
  Mn3.34+  Mn154  1  0.91690124  0.67051740  0.58055062  1
  Mn3.34+  Mn155  1  0.08366941  0.17023433  0.75192024  1
  Mn3.34+  Mn156  1  0.75075159  0.16742004  0.08393364  1
  Mn3.34+  Mn157  1  0.25307819  0.17754699  0.58211488  1
  Mn3.34+  Mn158  1  0.58277346  0.66269132  0.25627984  1
  Mn3.34+  Mn159  1  0.41812601  0.67054527  0.41902882  1
  Mn3.34+  Mn160  1  0.25556401  0.67059570  0.91491837  1
  Mn3.34+  Mn161  1  0.91560304  0.66945986  0.91890866  1
  Mn3.34+  Mn162  1  0.08446244  0.67066059  0.09142004  1
  Mn3.34+  Mn163  1  0.08944753  0.16728816  0.41143495  1
  Mn3.34+  Mn164  1  0.26319767  0.16558863  0.24867620  1
  Mn3.34+  Mn165  1  0.74569837  0.17907236  0.75233370  1
  Mn3.34+  Mn166  1  0.74377354  0.67346442  0.09028381  1
  Mn3.34+  Mn167  1  0.58736414  0.16878500  0.24985002  1
  Mn3.34+  Mn168  1  0.24456956  0.17122872  0.58124048  1
  Mn3.34+  Mn169  1  0.90626314  0.66630347  0.58116496  1
  Mn3.34+  Mn170  1  0.25122066  0.16728620  0.91820817  1
  Mn3.34+  Mn171  1  0.25383790  0.66613726  0.57747628  1
  Mn3.34+  Mn172  1  0.74579849  0.17889929  0.75230999  1
  Mn3.34+  Mn173  1  0.57415325  0.16217980  0.25014504  1
  Mn3.34+  Mn174  1  0.57882451  0.66773621  0.90793789  1
  Mn3.34+  Mn175  1  0.91569520  0.16983955  0.92005905  1
  Mn3.34+  Mn176  1  0.25002886  0.16007466  0.24618962  1
  Mn3.34+  Mn177  1  0.41943108  0.16914174  0.75183854  1
  Mn3.34+  Mn178  1  0.08802467  0.66458034  0.74891593  1
  Mn3.34+  Mn179  1  0.91715813  0.16585076  0.57871675  1
  Mn3.34+  Mn180  1  0.91229856  0.00049637  0.91605632  1
  Mn3.34+  Mn181  1  0.91571352  0.50246085  0.25586057  1
  Mn3.34+  Mn182  1  0.41680881  0.49917119  0.74473531  1
  Mn3.34+  Mn183  1  0.08196205  0.49982836  0.08982739  1
  Mn3.34+  Mn184  1  0.24359009  0.50510395  0.25397731  1
  Mn3.34+  Mn185  1  0.75297389  0.49901535  0.06864588  1
  Mn3.34+  Mn186  1  0.74042166  -0.00056768  0.42612596  1
  Mn3.34+  Mn187  1  0.08523675  -0.00065017  0.75284654  1
  Mn3.34+  Mn188  1  0.57063650  -0.00110603  0.25993380  1
  Mn3.34+  Mn189  1  0.55607979  -0.00399741  0.26126438  1
  Mn3.34+  Mn190  1  0.08581809  0.00085640  0.08734263  1
  Mn3.34+  Mn191  1  0.24342000  0.50181807  0.60214110  1
  Mn3.34+  Mn192  1  0.26941248  0.49739361  0.90807626  1
  Mn3.34+  Mn193  1  0.07075043  0.50380080  0.08896339  1
  Mn3.34+  Mn194  1  0.74915981  0.50564268  0.41381191  1
  Mn3.34+  Mn195  1  0.09060357  0.00013738  0.40027292  1
  Mn3.34+  Mn196  1  0.25334024  -0.00052015  0.58266122  1
  Mn3.34+  Mn197  1  0.58416067  0.50839984  0.59541558  1
  Mn3.34+  Mn198  1  0.58997301  0.50126851  0.25187337  1
  Mn3.34+  Mn199  1  0.57927841  0.49696811  0.92442089  1
  Mn3.34+  Mn200  1  0.42281773  0.50143108  0.08239658  1
  Mn3.34+  Mn201  1  0.75112846  -0.00441664  0.42689220  1
  Mn3.34+  Mn202  1  0.74945207  0.00188999  0.09092557  1
  Mn3.34+  Mn203  1  0.08558086  0.50408144  0.40810024  1
  Mn3.34+  Mn204  1  0.90150243  -0.00332803  0.91550311  1
  Mn3.34+  Mn205  1  0.41914863  0.50597364  0.41775340  1
  Mn3.34+  Mn206  1  0.40871438  0.50121333  0.41852788  1
  Mn3.34+  Mn207  1  0.73901118  -0.00047071  0.74639289  1
  Mn3.34+  Mn208  1  0.25959713  0.50317271  0.90624625  1
  Mn3.34+  Mn209  1  0.92647910  0.50127861  0.58408666  1
  Mn3.34+  Mn210  1  0.92122212  0.00236174  0.25364720  1
  Mn3.34+  Mn211  1  0.57452190  -0.00212749  0.91774647  1
  Mn3.34+  Mn212  1  0.74186752  0.49985318  0.74535726  1
  Mn3.34+  Mn213  1  0.74864444  -0.00481720  0.74149030  1
  Mn3.34+  Mn214  1  0.58679034  -0.00879735  0.91872173  1
  Mn3.34+  Mn215  1  0.91516346  0.49687260  0.58412612  1
  O2-  O216  1  0.00128099  0.15837496  -0.00860887  1
  O2-  O217  1  -0.00558229  0.16498634  0.33662009  1
  O2-  O218  1  -0.00341974  0.15460645  0.66960555  1
  O2-  O219  1  0.00135429  0.66539406  -0.00250710  1
  O2-  O220  1  -0.00868104  0.67985552  0.33046127  1
  O2-  O221  1  -0.00218803  0.65764264  0.66857803  1
  O2-  O222  1  0.33317589  0.17139240  0.00916037  1
  O2-  O223  1  0.32969491  0.17510524  0.33553858  1
  O2-  O224  1  0.33304211  0.16001150  0.66885351  1
  O2-  O225  1  0.33449988  0.66006329  0.00051130  1
  O2-  O226  1  0.33623116  0.66697076  0.32701450  1
  O2-  O227  1  0.33292130  0.66838796  0.66343386  1
  O2-  O228  1  0.66724295  0.16365588  0.00651536  1
  O2-  O229  1  0.66585902  0.16356150  0.33500457  1
  O2-  O230  1  0.66129924  0.17323167  0.66633591  1
  O2-  O231  1  0.66829143  0.66229283  0.00258603  1
  O2-  O232  1  0.66464427  0.67904115  0.33165945  1
  O2-  O233  1  0.66100298  0.67240827  0.66273736  1
  O2-  O234  1  0.17017081  0.15612174  0.00139756  1
  O2-  O235  1  0.17129478  0.16886388  0.32936457  1
  O2-  O236  1  0.16850380  0.15927619  0.66870320  1
  O2-  O237  1  0.16203886  0.65673604  -0.00517163  1
  O2-  O238  1  0.16898060  0.67010754  0.32960110  1
  O2-  O239  1  0.16924542  0.66005165  0.66874082  1
  O2-  O240  1  0.49283824  0.16645742  0.00416287  1
  O2-  O241  1  0.50380458  0.16555024  0.33801236  1
  O2-  O242  1  0.50101595  0.16301583  0.66451044  1
  O2-  O243  1  0.50216407  0.66074859  0.00144582  1
  O2-  O244  1  0.49434601  0.67230713  0.32770185  1
  O2-  O245  1  0.49882530  0.67559874  0.66546810  1
  O2-  O246  1  0.83307170  0.16052140  -0.00045042  1
  O2-  O247  1  0.82623912  0.17280330  0.33954298  1
  O2-  O248  1  0.83784724  0.16419572  0.67387225  1
  O2-  O249  1  0.83164224  0.67197041  0.00315445  1
  O2-  O250  1  0.83774695  0.67521453  0.34133009  1
  O2-  O251  1  0.84193468  0.66185038  0.67286157  1
  O2-  O252  1  0.00438946  0.34351202  -0.00440450  1
  O2-  O253  1  -0.00400962  0.34202600  0.33418387  1
  O2-  O254  1  -0.00587759  0.33828444  0.67306926  1
  O2-  O255  1  0.00039444  0.83873281  -0.00097604  1
  O2-  O256  1  0.00035730  0.83587046  0.33423575  1
  O2-  O257  1  -0.00013467  0.84416441  0.66855198  1
  O2-  O258  1  0.32692809  0.33107118  0.01038892  1
  O2-  O259  1  0.33494261  0.33362592  0.33229839  1
  O2-  O260  1  0.33576573  0.32586905  0.66179262  1
  O2-  O261  1  0.33029574  0.83432114  0.00597544  1
  O2-  O262  1  0.32906044  0.83287829  0.33778451  1
  O2-  O263  1  0.33407192  0.83270585  0.66864256  1
  O2-  O264  1  0.66655895  0.33041571  0.00017296  1
  O2-  O265  1  0.66474942  0.33604601  0.33725243  1
  O2-  O266  1  0.66522715  0.31162230  0.66877625  1
  O2-  O267  1  0.66061069  0.83331773  0.00683734  1
  O2-  O268  1  0.67348288  0.82745816  0.32583397  1
  O2-  O269  1  0.66141620  0.83645365  0.67044020  1
  O2-  O270  1  0.16640338  0.34304615  0.00268738  1
  O2-  O271  1  0.16743713  0.33291054  0.33289129  1
  O2-  O272  1  0.17013343  0.31882660  0.66450319  1
  O2-  O273  1  0.16333361  0.84288829  -0.00282892  1
  O2-  O274  1  0.16613458  0.83900111  0.33346103  1
  O2-  O275  1  0.16217541  0.84455490  0.66322467  1
  O2-  O276  1  0.49834828  0.32157423  0.00028421  1
  O2-  O277  1  0.50364162  0.34257723  0.33814938  1
  O2-  O278  1  0.50082897  0.33077461  0.66397952  1
  O2-  O279  1  0.50329281  0.83464164  0.00424713  1
  O2-  O280  1  0.50025809  0.81989247  0.33219578  1
  O2-  O281  1  0.49567182  0.83101664  0.66625978  1
  O2-  O282  1  0.83689654  0.33308545  0.00730537  1
  O2-  O283  1  0.83458782  0.33637526  0.33443373  1
  O2-  O284  1  0.83413138  0.32582349  0.67376393  1
  O2-  O285  1  0.84016854  0.82208115  0.00823454  1
  O2-  O286  1  0.83503779  0.83131973  0.33145333  1
  O2-  O287  1  0.83980691  0.83800313  0.67237959  1
  O2-  O288  1  -0.00462116  0.17913633  0.16124774  1
  O2-  O289  1  0.00425092  0.16925725  0.50477937  1
  O2-  O290  1  -0.00169930  0.16413327  0.83451244  1
  O2-  O291  1  0.00085413  0.67887006  0.16234370  1
  O2-  O292  1  -0.00347107  0.67234786  0.50436487  1
  O2-  O293  1  -0.00037789  0.67524054  0.83502436  1
  O2-  O294  1  0.33722287  0.18719467  0.16461393  1
  O2-  O295  1  0.33693031  0.17803646  0.50469667  1
  O2-  O296  1  0.33016897  0.16818958  0.82667459  1
  O2-  O297  1  0.33521735  0.67219723  0.16369738  1
  O2-  O298  1  0.33490743  0.67400348  0.50133974  1
  O2-  O299  1  0.33176198  0.67635395  0.83569154  1
  O2-  O300  1  0.66675425  0.17072298  0.16858930  1
  O2-  O301  1  0.66412842  0.19168724  0.49800014  1
  O2-  O302  1  0.66077882  0.16870893  0.83309857  1
  O2-  O303  1  0.66174515  0.68534199  0.16880507  1
  O2-  O304  1  0.67093049  0.67513683  0.49589652  1
  O2-  O305  1  0.67200256  0.66980482  0.84544162  1
  O2-  O306  1  0.17801348  0.17826915  0.16454890  1
  O2-  O307  1  0.16382612  0.17389332  0.49759461  1
  O2-  O308  1  0.16713162  0.16497140  0.83529765  1
  O2-  O309  1  0.17326145  0.67377654  0.16055803  1
  O2-  O310  1  0.16647730  0.67278771  0.50899317  1
  O2-  O311  1  0.16284709  0.66869462  0.83783173  1
  O2-  O312  1  0.50027605  0.17596364  0.16232959  1
  O2-  O313  1  0.50289441  0.17535550  0.50974980  1
  O2-  O314  1  0.49915850  0.16741811  0.82544906  1
  O2-  O315  1  0.50156299  0.67640279  0.16656334  1
  O2-  O316  1  0.49301202  0.67385804  0.49903914  1
  O2-  O317  1  0.49914290  0.67876691  0.83666974  1
  O2-  O318  1  0.83229776  0.17289862  0.16152579  1
  O2-  O319  1  0.83155625  0.18175027  0.49321343  1
  O2-  O320  1  0.83868802  0.17081608  0.83242531  1
  O2-  O321  1  0.83628326  0.68723375  0.16397681  1
  O2-  O322  1  0.83225157  0.67346365  0.49681662  1
  O2-  O323  1  0.83649400  0.67339036  0.84075861  1
  O2-  O324  1  0.00131686  0.33334555  0.16708693  1
  O2-  O325  1  -0.00684749  0.32946097  0.49423554  1
  O2-  O326  1  -0.00040571  0.32986587  0.83615777  1
  O2-  O327  1  -0.00583471  0.82751770  0.16257256  1
  O2-  O328  1  0.00432845  0.83281380  0.50407036  1
  O2-  O329  1  0.00046807  0.82945249  0.83503025  1
  O2-  O330  1  0.33020961  0.31877273  0.16549498  1
  O2-  O331  1  0.33418629  0.32547000  0.50261746  1
  O2-  O332  1  0.33606716  0.32245340  0.83508664  1
  O2-  O333  1  0.32969536  0.82810776  0.16302489  1
  O2-  O334  1  0.33613862  0.83253010  0.50557633  1
  O2-  O335  1  0.33212708  0.82082345  0.82576919  1
  O2-  O336  1  0.67395298  0.32729154  0.17257327  1
  O2-  O337  1  0.66103071  0.31905798  0.49652485  1
  O2-  O338  1  0.66525053  0.32203866  0.82953400  1
  O2-  O339  1  0.66558976  0.82102108  0.16541641  1
  O2-  O340  1  0.66489682  0.82256819  0.50072791  1
  O2-  O341  1  0.66349324  0.82738691  0.82994965  1
  O2-  O342  1  0.17066100  0.32766888  0.16395810  1
  O2-  O343  1  0.17382305  0.32047339  0.50027579  1
  O2-  O344  1  0.16023520  0.33177762  0.84091784  1
  O2-  O345  1  0.16579792  0.83144629  0.16644155  1
  O2-  O346  1  0.16200733  0.83540836  0.50469273  1
  O2-  O347  1  0.16326023  0.83123284  0.83683367  1
  O2-  O348  1  0.49349867  0.32172338  0.17246034  1
  O2-  O349  1  0.50450280  0.32920441  0.50156757  1
  O2-  O350  1  0.50271076  0.32946082  0.82916352  1
  O2-  O351  1  0.50697722  0.82324577  0.16238705  1
  O2-  O352  1  0.49382478  0.82997161  0.50770236  1
  O2-  O353  1  0.50028684  0.81863570  0.82845957  1
  O2-  O354  1  0.83316640  0.33081969  0.16701001  1
  O2-  O355  1  0.83560939  0.32061508  0.49178589  1
  O2-  O356  1  0.83676907  0.32420545  0.82748758  1
  O2-  O357  1  0.83605878  0.82032104  0.16665967  1
  O2-  O358  1  0.83955321  0.82832524  0.49245192  1
  O2-  O359  1  0.84014562  0.82279598  0.82736978  1
  O2-  O360  1  0.09911051  0.08062282  0.09076140  1
  O2-  O361  1  0.08348692  0.07815922  0.44396936  1
  O2-  O362  1  0.07634972  0.08236159  0.77314395  1
  O2-  O363  1  0.07689548  0.58621413  0.09438656  1
  O2-  O364  1  0.06618115  0.57537533  0.44222171  1
  O2-  O365  1  0.07027111  0.58228567  0.77960632  1
  O2-  O366  1  0.40021937  0.08506286  0.09429275  1
  O2-  O367  1  0.41109721  0.06858767  0.45408655  1
  O2-  O368  1  0.41216370  0.08276528  0.77226914  1
  O2-  O369  1  0.41900426  0.58261152  0.10822100  1
  O2-  O370  1  0.41502476  0.58681506  0.43148265  1
  O2-  O371  1  0.40312289  0.57359851  0.77496933  1
  O2-  O372  1  0.74609257  0.08303687  0.10462616  1
  O2-  O373  1  0.74827577  0.08282424  0.43735887  1
  O2-  O374  1  0.75919605  0.08401399  0.76999009  1
  O2-  O375  1  0.74798518  0.58079871  0.10305592  1
  O2-  O376  1  0.76385741  0.58298814  0.42953882  1
  O2-  O377  1  0.77155731  0.57604463  0.77988918  1
  O2-  O378  1  0.25549088  0.07640068  0.22348521  1
  O2-  O379  1  0.24831154  0.08186685  0.56055948  1
  O2-  O380  1  0.24114242  0.07436552  0.88254251  1
  O2-  O381  1  0.25815016  0.58335241  0.22724855  1
  O2-  O382  1  0.25128954  0.57850686  0.56782797  1
  O2-  O383  1  0.24570883  0.58395458  0.89511075  1
  O2-  O384  1  0.58790090  0.07849538  0.22163882  1
  O2-  O385  1  0.57620815  0.08348593  0.56279568  1
  O2-  O386  1  0.58130570  0.07817055  0.88822912  1
  O2-  O387  1  0.57538003  0.57835684  0.22016712  1
  O2-  O388  1  0.57441083  0.57831172  0.56448025  1
  O2-  O389  1  0.59358966  0.58085406  0.89929565  1
  O2-  O390  1  0.91094639  0.07979623  0.23450030  1
  O2-  O391  1  0.92368597  0.07796988  0.56443224  1
  O2-  O392  1  0.91619188  0.08198920  0.89097055  1
  O2-  O393  1  0.91953301  0.57788296  0.23404409  1
  O2-  O394  1  0.91878359  0.58257299  0.56379830  1
  O2-  O395  1  0.92441206  0.57856322  0.89023363  1
  O2-  O396  1  0.09006269  0.41729713  0.10223670  1
  O2-  O397  1  0.07660466  0.42058754  0.43218896  1
  O2-  O398  1  0.06263252  0.42211354  0.77555622  1
  O2-  O399  1  0.06546343  0.91820297  0.09798455  1
  O2-  O400  1  0.07957799  0.92196315  0.43856130  1
  O2-  O401  1  0.07430676  0.91658436  0.77240081  1
  O2-  O402  1  0.39743401  0.42116572  0.11183373  1
  O2-  O403  1  0.42016147  0.41830135  0.43835945  1
  O2-  O404  1  0.42823856  0.41708962  0.75347716  1
  O2-  O405  1  0.42879287  0.91575107  0.09797825  1
  O2-  O406  1  0.40671630  0.91900480  0.44093222  1
  O2-  O407  1  0.41805762  0.91771056  0.75050636  1
  O2-  O408  1  0.75865300  0.42065163  0.10466374  1
  O2-  O409  1  0.74459532  0.42080093  0.43591731  1
  O2-  O410  1  0.76545162  0.42019713  0.76516997  1
  O2-  O411  1  0.76594911  0.91911114  0.10798198  1
  O2-  O412  1  0.75638985  0.91287309  0.42187270  1
  O2-  O413  1  0.76174501  0.91363449  0.76383214  1
  O2-  O414  1  0.24758965  0.42301761  0.22065196  1
  O2-  O415  1  0.26068727  0.42863955  0.55498225  1
  O2-  O416  1  0.24127294  0.41695706  0.90885834  1
  O2-  O417  1  0.24041129  0.91848995  0.23419656  1
  O2-  O418  1  0.24776988  0.91777458  0.57172171  1
  O2-  O419  1  0.23993043  0.91987105  0.89433301  1
  O2-  O420  1  0.58379299  0.41779926  0.23923015  1
  O2-  O421  1  0.57895525  0.43048204  0.55047304  1
  O2-  O422  1  0.58363329  0.41951588  0.89299485  1
  O2-  O423  1  0.59554239  0.91911219  0.21868502  1
  O2-  O424  1  0.56651505  0.91710044  0.58470799  1
  O2-  O425  1  0.58144713  0.91140104  0.90244535  1
  O2-  O426  1  0.91738460  0.42089252  0.23107438  1
  O2-  O427  1  0.91149079  0.41588358  0.55893822  1
  O2-  O428  1  0.92973571  0.42083747  0.89262443  1
  O2-  O429  1  0.91352943  0.92234965  0.22109120  1
  O2-  O430  1  0.93346017  0.92050017  0.57210721  1
  O2-  O431  1  0.91714753  0.91481763  0.90134688  1
  O2-  O432  1  0.00242780  0.00554472  -0.00586454  1
  O2-  O433  1  -0.00723025  -0.00113287  0.34441182  1
  O2-  O434  1  0.00131177  0.00626507  0.67411384  1
  O2-  O435  1  0.01161054  0.49907579  -0.00946436  1
  O2-  O436  1  -0.00590116  0.49172783  0.34283309  1
  O2-  O437  1  -0.01112418  0.50484845  0.68188751  1
  O2-  O438  1  0.31658231  0.01464242  0.01991826  1
  O2-  O439  1  0.32581386  -0.00019577  0.34464961  1
  O2-  O440  1  0.32839300  0.00972819  0.67051664  1
  O2-  O441  1  0.32646975  0.50159568  0.00962310  1
  O2-  O442  1  0.33542680  0.49509204  0.32729766  1
  O2-  O443  1  0.33664487  0.50254980  0.65988530  1
  O2-  O444  1  0.66670889  0.00557890  0.00580524  1
  O2-  O445  1  0.66590228  0.00217305  0.33271645  1
  O2-  O446  1  0.64348954  0.01010413  0.68714188  1
  O2-  O447  1  0.67083042  0.51223123  -0.00702421  1
  O2-  O448  1  0.66237700  0.48850479  0.34170203  1
  O2-  O449  1  0.65715989  0.49257233  0.67150106  1
  O2-  O450  1  0.15584881  0.00381210  -0.00738911  1
  O2-  O451  1  0.18574805  -0.00169843  0.35068680  1
  O2-  O452  1  0.16741843  0.00896076  0.66710221  1
  O2-  O453  1  0.16755257  0.50254343  -0.00292099  1
  O2-  O454  1  0.16674435  0.48686908  0.33601427  1
  O2-  O455  1  0.16278821  0.51073958  0.66462131  1
  O2-  O456  1  0.50428708  0.00788774  0.00732146  1
  O2-  O457  1  0.49556661  0.01369197  0.34704365  1
  O2-  O458  1  0.48906954  0.01997343  0.65977929  1
  O2-  O459  1  0.49919353  0.51357962  -0.00073489  1
  O2-  O460  1  0.49824535  0.49439330  0.33009746  1
  O2-  O461  1  0.49568489  0.49595127  0.65782995  1
  O2-  O462  1  0.83606618  0.00361156  0.01099012  1
  O2-  O463  1  0.83328035  0.00336488  0.33808663  1
  O2-  O464  1  0.85448389  0.00320929  0.69469641  1
  O2-  O465  1  0.83978342  0.50835143  0.01065203  1
  O2-  O466  1  0.83975187  0.48936777  0.34374692  1
  O2-  O467  1  0.84046006  0.50290186  0.67994585  1
  O2-  O468  1  0.08104592  0.25197327  0.07432081  1
  O2-  O469  1  0.58617382  0.74888321  0.92948239  1
  O2-  O470  1  0.08319355  0.75071916  0.41502397  1
  O2-  O471  1  0.23944778  0.25234557  0.92289828  1
  O2-  O472  1  0.74841598  0.74941917  0.74183558  1
  O2-  O473  1  0.92323202  0.25105923  0.92064408  1
  O2-  O474  1  0.58423806  0.75029588  0.58930437  1
  O2-  O475  1  0.41688921  0.25034854  0.74718037  1
  O2-  O476  1  0.07885914  0.25142605  0.74713209  1
  O2-  O477  1  0.41628410  0.74965777  0.07268184  1
  O2-  O478  1  0.25002851  0.75101009  0.25038202  1
  O2-  O479  1  0.40976483  0.75206730  0.41601897  1
  O2-  O480  1  0.75381533  0.74972853  0.41601326  1
  O2-  O481  1  0.08674014  0.75163713  0.06847922  1
  O2-  O482  1  0.58429568  0.25458019  0.91759074  1
  O2-  O483  1  0.24283730  0.75095283  0.59137176  1
  O2-  O484  1  0.08324331  0.74836325  0.74271245  1
  O2-  O485  1  0.07561764  0.25006883  0.41338644  1
  O2-  O486  1  0.42077239  0.25424998  0.41149892  1
  O2-  O487  1  0.24368321  0.75156948  0.92616172  1
  O2-  O488  1  0.92050503  0.24749796  0.59326281  1
  O2-  O489  1  0.92055898  0.75363001  0.59515993  1
  O2-  O490  1  0.58061852  0.25265763  0.26020230  1
  O2-  O491  1  0.74897476  0.25113359  0.07955207  1
  O2-  O492  1  0.91824169  0.25435503  0.25175537  1
