# generated using pymatgen
data_Ca108Mn108O277
_symmetry_space_group_name_H-M   'P 1'
_cell_length_a   16.01832759
_cell_length_b   22.29530776
_cell_length_c   16.38149470
_cell_angle_alpha   90.00025892
_cell_angle_beta   89.99921397
_cell_angle_gamma   89.99806985
_symmetry_Int_Tables_number   1
_chemical_formula_structural   Ca108Mn108O277
_chemical_formula_sum   'Ca108 Mn108 O277'
_cell_volume   5850.38124448
_cell_formula_units_Z   1
loop_
 _symmetry_equiv_pos_site_id
 _symmetry_equiv_pos_as_xyz
  1  'x, y, z'
loop_
 _atom_type_symbol
 _atom_type_oxidation_number
  Ca2+  2.0
  Mn3.34+  3.34
  O2-  -2.0
loop_
 _atom_site_type_symbol
 _atom_site_label
 _atom_site_symmetry_multiplicity
 _atom_site_fract_x
 _atom_site_fract_y
 _atom_site_fract_z
 _atom_site_occupancy
  Ca2+  Ca0  1  0.10037868  0.26734557  0.24739779  1
  Ca2+  Ca1  1  0.08730328  0.25601450  0.59555500  1
  Ca2+  Ca2  1  0.09510391  0.25203402  0.91374310  1
  Ca2+  Ca3  1  0.09913449  0.74914313  0.23010272  1
  Ca2+  Ca4  1  0.09107331  0.72982821  0.60893001  1
  Ca2+  Ca5  1  0.09502204  0.75262764  0.92569440  1
  Ca2+  Ca6  1  0.42186675  0.26124406  0.25232989  1
  Ca2+  Ca7  1  0.40291751  0.25447179  0.59373791  1
  Ca2+  Ca8  1  0.42029922  0.23604104  0.88674532  1
  Ca2+  Ca9  1  0.39953707  0.74334998  0.24623167  1
  Ca2+  Ca10  1  0.40921775  0.74533391  0.58020012  1
  Ca2+  Ca11  1  0.41006133  0.73895238  0.92805062  1
  Ca2+  Ca12  1  0.72237005  0.25398696  0.25050100  1
  Ca2+  Ca13  1  0.76293411  0.26436161  0.58741703  1
  Ca2+  Ca14  1  0.74151470  0.25666734  0.91938135  1
  Ca2+  Ca15  1  0.75688087  0.75411050  0.24029165  1
  Ca2+  Ca16  1  0.75649836  0.74563616  0.59864287  1
  Ca2+  Ca17  1  0.74336666  0.75228610  0.91592294  1
  Ca2+  Ca18  1  0.24536563  0.25360806  0.07819152  1
  Ca2+  Ca19  1  0.26175790  0.25058202  0.42321632  1
  Ca2+  Ca20  1  0.26061124  0.24100781  0.74369106  1
  Ca2+  Ca21  1  0.26109445  0.73941658  0.09034804  1
  Ca2+  Ca22  1  0.27746430  0.72224761  0.40289995  1
  Ca2+  Ca23  1  0.25270291  0.75218813  0.75602361  1
  Ca2+  Ca24  1  0.57663555  0.25523414  0.09941591  1
  Ca2+  Ca25  1  0.57033686  0.25039377  0.39495261  1
  Ca2+  Ca26  1  0.56201726  0.25367464  0.75427944  1
  Ca2+  Ca27  1  0.56720143  0.74160816  0.07532465  1
  Ca2+  Ca28  1  0.55846238  0.74502878  0.41886646  1
  Ca2+  Ca29  1  0.58704230  0.75082896  0.75635691  1
  Ca2+  Ca30  1  0.92366347  0.26237105  0.07858804  1
  Ca2+  Ca31  1  0.91921006  0.25328907  0.43590164  1
  Ca2+  Ca32  1  0.92908425  0.26021401  0.74555222  1
  Ca2+  Ca33  1  0.92341482  0.74728561  0.09031403  1
  Ca2+  Ca34  1  0.90702173  0.75437440  0.41450456  1
  Ca2+  Ca35  1  0.91278205  0.74675036  0.74385675  1
  Ca2+  Ca36  1  0.57517008  0.08273647  0.03346816  1
  Ca2+  Ca37  1  0.09144126  0.09737622  0.24371459  1
  Ca2+  Ca38  1  0.91789890  0.58533346  0.41603107  1
  Ca2+  Ca39  1  0.76711908  0.58245086  0.23461071  1
  Ca2+  Ca40  1  0.24283673  0.08837286  0.06409473  1
  Ca2+  Ca41  1  0.93156707  0.08532122  0.06926188  1
  Ca2+  Ca42  1  0.39977175  0.59635957  0.26380079  1
  Ca2+  Ca43  1  0.55217605  0.09714048  0.78278601  1
  Ca2+  Ca44  1  0.55370871  0.59827915  0.74782966  1
  Ca2+  Ca45  1  0.92081037  0.08391673  0.74997817  1
  Ca2+  Ca46  1  0.74019407  0.58843437  0.92148090  1
  Ca2+  Ca47  1  0.56398129  0.59759892  0.74648881  1
  Ca2+  Ca48  1  0.54190153  0.09857633  0.78200469  1
  Ca2+  Ca49  1  0.72751175  0.07638755  0.91673332  1
  Ca2+  Ca50  1  0.75312262  0.07749297  0.58529765  1
  Ca2+  Ca51  1  0.93320006  0.08636952  0.75177117  1
  Ca2+  Ca52  1  0.41381719  0.60237659  0.91214612  1
  Ca2+  Ca53  1  0.91858896  0.08542380  0.06956358  1
  Ca2+  Ca54  1  0.09274025  0.09528403  0.91419188  1
  Ca2+  Ca55  1  0.37656561  0.10719194  0.60125476  1
  Ca2+  Ca56  1  0.40750132  0.60410617  0.56056846  1
  Ca2+  Ca57  1  0.93559492  0.59490818  0.73690411  1
  Ca2+  Ca58  1  0.09459380  0.60165241  0.23604702  1
  Ca2+  Ca59  1  0.26880978  0.60193434  0.09021491  1
  Ca2+  Ca60  1  0.11857871  0.10141315  0.59601750  1
  Ca2+  Ca61  1  0.56535256  0.58938145  0.07670095  1
  Ca2+  Ca62  1  0.58862842  0.09909923  0.40772833  1
  Ca2+  Ca63  1  0.24604061  0.61405050  0.73455503  1
  Ca2+  Ca64  1  0.72556989  0.10308015  0.26245189  1
  Ca2+  Ca65  1  0.42744243  0.10475994  0.25135746  1
  Ca2+  Ca66  1  0.39746298  0.60499421  0.56296021  1
  Ca2+  Ca67  1  0.40213170  0.59226313  0.25610055  1
  Ca2+  Ca68  1  0.09497220  0.60066516  0.91587985  1
  Ca2+  Ca69  1  0.43991389  0.10536403  0.25036013  1
  Ca2+  Ca70  1  0.25675967  0.61356297  0.73536912  1
  Ca2+  Ca71  1  0.74061344  0.07673598  0.58392145  1
  Ca2+  Ca72  1  0.25581182  0.89387862  0.42353210  1
  Ca2+  Ca73  1  0.74822018  0.41049076  0.24279888  1
  Ca2+  Ca74  1  0.41585956  0.40042568  0.90578699  1
  Ca2+  Ca75  1  0.58183463  0.90891051  0.07089488  1
  Ca2+  Ca76  1  0.43171208  0.90250479  0.59375050  1
  Ca2+  Ca77  1  0.41423371  0.41642819  0.59538771  1
  Ca2+  Ca78  1  0.41061574  0.90899913  0.90879425  1
  Ca2+  Ca79  1  0.91251856  0.90523403  0.75130535  1
  Ca2+  Ca80  1  0.92402972  0.89877085  0.08123734  1
  Ca2+  Ca81  1  0.91273127  0.41341198  0.74221012  1
  Ca2+  Ca82  1  0.74796155  0.42070359  0.60409981  1
  Ca2+  Ca83  1  0.56147381  0.41513237  0.41529504  1
  Ca2+  Ca84  1  0.57908988  0.40953247  0.74318086  1
  Ca2+  Ca85  1  0.42171195  0.41408111  0.25271226  1
  Ca2+  Ca86  1  0.41527832  0.89524700  0.24451903  1
  Ca2+  Ca87  1  0.74817694  0.40824813  0.92176423  1
  Ca2+  Ca88  1  0.08578812  0.40277108  0.92182359  1
  Ca2+  Ca89  1  0.90971707  0.89843084  0.41962902  1
  Ca2+  Ca90  1  0.73762010  0.91352046  0.60019608  1
  Ca2+  Ca91  1  0.92739681  0.41114357  0.09261490  1
  Ca2+  Ca92  1  0.09267652  0.90005207  0.59743443  1
  Ca2+  Ca93  1  0.23992824  0.41150891  0.08178187  1
  Ca2+  Ca94  1  0.58413626  0.40971370  0.08468045  1
  Ca2+  Ca95  1  0.42303231  0.91135914  0.91062414  1
  Ca2+  Ca96  1  0.74851454  0.90822901  0.90466036  1
  Ca2+  Ca97  1  0.07979026  0.89970137  0.59710312  1
  Ca2+  Ca98  1  0.59128447  0.92120291  0.74836468  1
  Ca2+  Ca99  1  0.25157272  0.41164005  0.08196323  1
  Ca2+  Ca100  1  0.59297262  0.90953705  0.07187525  1
  Ca2+  Ca101  1  0.24249785  0.90095473  0.07644891  1
  Ca2+  Ca102  1  0.24299219  0.89349121  0.42260651  1
  Ca2+  Ca103  1  0.75467816  0.89753283  0.24770400  1
  Ca2+  Ca104  1  0.92599884  0.40856711  0.41593432  1
  Ca2+  Ca105  1  0.91332680  0.40888818  0.41616665  1
  Ca2+  Ca106  1  0.26152047  0.40458424  0.42087587  1
  Ca2+  Ca107  1  0.72815324  0.91583788  0.59630497  1
  Mn3.34+  Mn108  1  0.08357025  0.33615312  0.08668900  1
  Mn3.34+  Mn109  1  0.08953565  0.33565529  0.42148562  1
  Mn3.34+  Mn110  1  0.08951827  0.33659305  0.74970948  1
  Mn3.34+  Mn111  1  0.08455189  0.83179978  0.08076418  1
  Mn3.34+  Mn112  1  0.08306249  0.82100804  0.41797599  1
  Mn3.34+  Mn113  1  0.08415422  0.83102393  0.76001528  1
  Mn3.34+  Mn114  1  0.41470881  0.34118100  0.08543092  1
  Mn3.34+  Mn115  1  0.41679073  0.33569478  0.42445445  1
  Mn3.34+  Mn116  1  0.41376290  0.33544174  0.74901577  1
  Mn3.34+  Mn117  1  0.41468928  0.83000983  0.08366380  1
  Mn3.34+  Mn118  1  0.42106790  0.82831339  0.41699171  1
  Mn3.34+  Mn119  1  0.41582033  0.82893366  0.75058437  1
  Mn3.34+  Mn120  1  0.75258506  0.33838792  0.08632539  1
  Mn3.34+  Mn121  1  0.74538452  0.33242734  0.42101782  1
  Mn3.34+  Mn122  1  0.74797108  0.33648410  0.75479201  1
  Mn3.34+  Mn123  1  0.75271403  0.82961740  0.08047464  1
  Mn3.34+  Mn124  1  0.74265070  0.83457594  0.41956336  1
  Mn3.34+  Mn125  1  0.75026036  0.83302172  0.75248799  1
  Mn3.34+  Mn126  1  0.25302334  0.33391045  0.25274701  1
  Mn3.34+  Mn127  1  0.24582000  0.34294946  0.58777737  1
  Mn3.34+  Mn128  1  0.25270902  0.32896287  0.90985906  1
  Mn3.34+  Mn129  1  0.24637246  0.82772174  0.24671290  1
  Mn3.34+  Mn130  1  0.25084930  0.82344516  0.58779331  1
  Mn3.34+  Mn131  1  0.24714281  0.83348180  0.91245343  1
  Mn3.34+  Mn132  1  0.58114813  0.33544787  0.25013614  1
  Mn3.34+  Mn133  1  0.58429108  0.33445945  0.57902106  1
  Mn3.34+  Mn134  1  0.58054067  0.32945239  0.91718397  1
  Mn3.34+  Mn135  1  0.58380903  0.83199339  0.25140604  1
  Mn3.34+  Mn136  1  0.58131670  0.83268237  0.58218041  1
  Mn3.34+  Mn137  1  0.58190874  0.83385582  0.91001771  1
  Mn3.34+  Mn138  1  0.91594969  0.33282410  0.25009955  1
  Mn3.34+  Mn139  1  0.92163495  0.33816379  0.58624291  1
  Mn3.34+  Mn140  1  0.91682622  0.33295349  0.91369576  1
  Mn3.34+  Mn141  1  0.92279373  0.82902061  0.25032859  1
  Mn3.34+  Mn142  1  0.91624125  0.82973114  0.58230565  1
  Mn3.34+  Mn143  1  0.91878823  0.83446372  0.91533099  1
  Mn3.34+  Mn144  1  0.91564070  0.16748926  0.58152166  1
  Mn3.34+  Mn145  1  0.57549325  0.17201625  0.57842603  1
  Mn3.34+  Mn146  1  0.74607057  0.65954847  0.74998419  1
  Mn3.34+  Mn147  1  0.58287153  0.67102260  0.91567650  1
  Mn3.34+  Mn148  1  0.92161327  0.17175109  0.91614043  1
  Mn3.34+  Mn149  1  0.25143647  0.16821067  0.24822471  1
  Mn3.34+  Mn150  1  0.74184378  0.16336677  0.08254160  1
  Mn3.34+  Mn151  1  0.74375730  0.16508493  0.75805699  1
  Mn3.34+  Mn152  1  0.91770182  0.66544755  0.24450705  1
  Mn3.34+  Mn153  1  0.25093328  0.67154708  0.91499235  1
  Mn3.34+  Mn154  1  0.58468323  0.16633197  0.57650337  1
  Mn3.34+  Mn155  1  0.75052692  0.17150683  0.42266316  1
  Mn3.34+  Mn156  1  0.75142557  0.16943296  0.08182960  1
  Mn3.34+  Mn157  1  0.74974021  0.65945823  0.08326707  1
  Mn3.34+  Mn158  1  0.08540320  0.17077177  0.42125369  1
  Mn3.34+  Mn159  1  0.75348402  0.66647628  0.42279011  1
  Mn3.34+  Mn160  1  0.75661730  0.17173472  0.75652833  1
  Mn3.34+  Mn161  1  0.74300351  0.66176374  0.42501276  1
  Mn3.34+  Mn162  1  0.08771655  0.17069812  0.08344634  1
  Mn3.34+  Mn163  1  0.91180253  0.66804094  0.91767220  1
  Mn3.34+  Mn164  1  0.58398391  0.66672287  0.58126544  1
  Mn3.34+  Mn165  1  0.92254482  0.66423424  0.91543952  1
  Mn3.34+  Mn166  1  0.58074223  0.66596254  0.24915370  1
  Mn3.34+  Mn167  1  0.08972387  0.17030795  0.75048653  1
  Mn3.34+  Mn168  1  0.08188357  0.66982192  0.42107143  1
  Mn3.34+  Mn169  1  0.42221251  0.16574666  0.07335028  1
  Mn3.34+  Mn170  1  0.25393650  0.16428559  0.90472949  1
  Mn3.34+  Mn171  1  0.41243370  0.17107711  0.07263688  1
  Mn3.34+  Mn172  1  0.91578361  0.18237042  0.25567157  1
  Mn3.34+  Mn173  1  0.40970459  0.17139307  0.42158442  1
  Mn3.34+  Mn174  1  0.09649796  0.16684783  0.42222655  1
  Mn3.34+  Mn175  1  0.08817024  0.66082410  0.08512405  1
  Mn3.34+  Mn176  1  0.09177270  0.66503208  0.42335332  1
  Mn3.34+  Mn177  1  0.92224673  0.17518744  0.25389582  1
  Mn3.34+  Mn178  1  0.91838029  0.66478525  0.58791769  1
  Mn3.34+  Mn179  1  0.59050153  0.66074998  0.24812908  1
  Mn3.34+  Mn180  1  0.24995070  -0.00050291  0.59116967  1
  Mn3.34+  Mn181  1  0.92243133  -0.00309595  0.91973890  1
  Mn3.34+  Mn182  1  0.58485936  0.50152963  0.59571838  1
  Mn3.34+  Mn183  1  0.41379893  -0.00182455  0.07995746  1
  Mn3.34+  Mn184  1  0.74739053  0.00015687  0.41532889  1
  Mn3.34+  Mn185  1  0.24614921  0.49771424  0.25986487  1
  Mn3.34+  Mn186  1  0.91974336  0.50079764  0.93443104  1
  Mn3.34+  Mn187  1  0.23595018  0.50239466  0.25784370  1
  Mn3.34+  Mn188  1  0.75296338  -0.00106721  0.08628026  1
  Mn3.34+  Mn189  1  0.74461698  0.49902854  0.41431156  1
  Mn3.34+  Mn190  1  0.41386109  -0.00001204  0.73248296  1
  Mn3.34+  Mn191  1  0.09019106  0.00394265  0.42340088  1
  Mn3.34+  Mn192  1  0.58314032  0.50250957  0.91820670  1
  Mn3.34+  Mn193  1  0.92404745  0.00253762  0.58128178  1
  Mn3.34+  Mn194  1  0.91309561  0.50392369  0.59794470  1
  Mn3.34+  Mn195  1  0.08451081  0.49962358  0.42869665  1
  Mn3.34+  Mn196  1  0.92580854  -0.00376391  0.24727921  1
  Mn3.34+  Mn197  1  0.92089463  0.49848694  0.91992713  1
  Mn3.34+  Mn198  1  0.91170239  0.00214735  0.24843214  1
  Mn3.34+  Mn199  1  0.25839309  0.49675626  0.90924563  1
  Mn3.34+  Mn200  1  0.24518235  0.50251003  0.91036646  1
  Mn3.34+  Mn201  1  0.57893108  -0.00209545  0.24510144  1
  Mn3.34+  Mn202  1  0.24665788  -0.00017692  0.91476660  1
  Mn3.34+  Mn203  1  0.58924955  0.00293914  0.24203247  1
  Mn3.34+  Mn204  1  0.92610526  0.50052673  0.25782343  1
  Mn3.34+  Mn205  1  0.57238956  0.49780564  0.91832783  1
  Mn3.34+  Mn206  1  0.24144324  -0.00469940  0.24342940  1
  Mn3.34+  Mn207  1  0.41005571  0.00579532  0.43051304  1
  Mn3.34+  Mn208  1  0.09442873  -0.00027911  0.74655907  1
  Mn3.34+  Mn209  1  0.08842290  0.49648741  0.74079327  1
  Mn3.34+  Mn210  1  0.25426357  0.50121018  0.59945321  1
  Mn3.34+  Mn211  1  0.07645281  -0.00229624  0.42234117  1
  Mn3.34+  Mn212  1  0.42345402  -0.00070419  0.43013244  1
  Mn3.34+  Mn213  1  0.58219704  0.49938600  0.26012289  1
  Mn3.34+  Mn214  1  0.08718110  -0.00418834  0.08579300  1
  Mn3.34+  Mn215  1  0.25602460  0.00095929  0.24465107  1
  O2-  O216  1  -0.00176478  0.15818259  0.00336742  1
  O2-  O217  1  0.00625671  0.15533158  0.33492808  1
  O2-  O218  1  -0.00220446  0.15104101  0.66936960  1
  O2-  O219  1  0.00191737  0.65923952  -0.00217586  1
  O2-  O220  1  -0.00073288  0.66209362  0.34012291  1
  O2-  O221  1  -0.00541060  0.66995276  0.66865618  1
  O2-  O222  1  0.33010584  0.15415767  -0.00295584  1
  O2-  O223  1  0.33781035  0.15392142  0.32794615  1
  O2-  O224  1  0.32553875  0.18515336  0.65552164  1
  O2-  O225  1  0.33126709  0.65986160  -0.00651679  1
  O2-  O226  1  0.34300037  0.66406358  0.32238600  1
  O2-  O227  1  0.34092664  0.66260886  0.66056606  1
  O2-  O228  1  0.66908107  0.16009543  -0.00538023  1
  O2-  O229  1  0.67026459  0.17154739  0.34210330  1
  O2-  O230  1  0.66869928  0.16441188  0.65883899  1
  O2-  O231  1  0.66617365  0.65582640  -0.00040653  1
  O2-  O232  1  0.67164147  0.65688455  0.32985867  1
  O2-  O233  1  0.65922254  0.66908451  0.67329685  1
  O2-  O234  1  0.16433550  0.15734129  0.00159158  1
  O2-  O235  1  0.16446251  0.15737774  0.33101464  1
  O2-  O236  1  0.16475318  0.17399052  0.67051819  1
  O2-  O237  1  0.16749120  0.66029292  -0.00174161  1
  O2-  O238  1  0.15854586  0.67146200  0.33258627  1
  O2-  O239  1  0.18085188  0.68474036  0.67991879  1
  O2-  O240  1  0.50761103  0.17391814  -0.00014259  1
  O2-  O241  1  0.49722259  0.15684958  0.33911178  1
  O2-  O242  1  0.50051434  0.15856681  0.66307582  1
  O2-  O243  1  0.50367015  0.65978395  -0.00705831  1
  O2-  O244  1  0.50412109  0.65711666  0.32973556  1
  O2-  O245  1  0.50351297  0.66992705  0.66414043  1
  O2-  O246  1  0.83772302  0.15705159  0.00344625  1
  O2-  O247  1  0.83042043  0.17937873  0.33605766  1
  O2-  O248  1  0.83040163  0.15002735  0.67183978  1
  O2-  O249  1  0.83245470  0.65392673  -0.00529782  1
  O2-  O250  1  0.83272217  0.65192770  0.33634625  1
  O2-  O251  1  0.83483446  0.65754666  0.67058988  1
  O2-  O252  1  -0.00225945  0.33674971  0.00204188  1
  O2-  O253  1  -0.00690783  0.33593692  0.33734850  1
  O2-  O254  1  -0.00217041  0.34381576  0.67263831  1
  O2-  O255  1  -0.00352225  0.83787195  0.00177339  1
  O2-  O256  1  -0.00438888  0.82790745  0.34352110  1
  O2-  O257  1  -0.00191479  0.83150786  0.66857347  1
  O2-  O258  1  0.32850753  0.34711271  0.00360860  1
  O2-  O259  1  0.33863817  0.34665213  0.33238291  1
  O2-  O260  1  0.33716686  0.33782827  0.66026918  1
  O2-  O261  1  0.33733559  0.84822794  -0.00247746  1
  O2-  O262  1  0.33304723  0.84440288  0.33518920  1
  O2-  O263  1  0.33704369  0.81676835  0.66501043  1
  O2-  O264  1  0.66626943  0.33597378  -0.00150692  1
  O2-  O265  1  0.66636540  0.33762801  0.33279671  1
  O2-  O266  1  0.66708617  0.33961889  0.66469870  1
  O2-  O267  1  0.66617714  0.84851424  -0.00593810  1
  O2-  O268  1  0.67143442  0.83944212  0.32535684  1
  O2-  O269  1  0.66527891  0.83402829  0.66697852  1
  O2-  O270  1  0.16986039  0.34180230  0.00159050  1
  O2-  O271  1  0.17327086  0.33916871  0.33826522  1
  O2-  O272  1  0.17198932  0.32047925  0.66877045  1
  O2-  O273  1  0.16805080  0.83978975  -0.00161974  1
  O2-  O274  1  0.17065140  0.83292988  0.33964738  1
  O2-  O275  1  0.16045339  0.82328362  0.66438910  1
  O2-  O276  1  0.50181983  0.33961751  0.00459176  1
  O2-  O277  1  0.50009495  0.34460417  0.33417579  1
  O2-  O278  1  0.50273007  0.33516065  0.66478882  1
  O2-  O279  1  0.49934205  0.84596765  -0.00144518  1
  O2-  O280  1  0.49701009  0.84105222  0.32835088  1
  O2-  O281  1  0.50143906  0.82295237  0.66859331  1
  O2-  O282  1  0.83606486  0.33388940  -0.00112442  1
  O2-  O283  1  0.83240651  0.32455426  0.33669428  1
  O2-  O284  1  0.83225473  0.34669796  0.66603470  1
  O2-  O285  1  0.83071977  0.84885099  -0.00321476  1
  O2-  O286  1  0.83348401  0.84315244  0.33450602  1
  O2-  O287  1  0.82915560  0.85002650  0.66063493  1
  O2-  O288  1  -0.00003943  0.18111318  0.16465089  1
  O2-  O289  1  0.00334482  0.17754389  0.50046916  1
  O2-  O290  1  -0.00183070  0.17785173  0.83239308  1
  O2-  O291  1  0.00589990  0.67780331  0.17147887  1
  O2-  O292  1  0.00122060  0.68496151  0.49895265  1
  O2-  O293  1  -0.00171557  0.67717429  0.83528684  1
  O2-  O294  1  0.33622515  0.16799295  0.16110492  1
  O2-  O295  1  0.33816423  0.18500060  0.50241030  1
  O2-  O296  1  0.32751695  0.17437185  0.83122366  1
  O2-  O297  1  0.33892621  0.67151056  0.16981795  1
  O2-  O298  1  0.33647393  0.67980822  0.50729721  1
  O2-  O299  1  0.32871357  0.67644868  0.83091253  1
  O2-  O300  1  0.66685793  0.17274227  0.16685839  1
  O2-  O301  1  0.66449109  0.19264131  0.50033346  1
  O2-  O302  1  0.66906670  0.17860431  0.83798301  1
  O2-  O303  1  0.66668555  0.67989635  0.16742391  1
  O2-  O304  1  0.66693434  0.68992805  0.50391981  1
  O2-  O305  1  0.66882586  0.68078585  0.83482656  1
  O2-  O306  1  0.16600307  0.17395067  0.16640612  1
  O2-  O307  1  0.16741298  0.18546399  0.50593956  1
  O2-  O308  1  0.16093384  0.17842923  0.83916827  1
  O2-  O309  1  0.16726300  0.67612122  0.15835240  1
  O2-  O310  1  0.16604371  0.69904424  0.49389106  1
  O2-  O311  1  0.16838887  0.67662168  0.83715803  1
  O2-  O312  1  0.49244146  0.17475801  0.16437530  1
  O2-  O313  1  0.50130857  0.18677096  0.49452416  1
  O2-  O314  1  0.51348970  0.18115995  0.82968781  1
  O2-  O315  1  0.50313691  0.67127859  0.16584782  1
  O2-  O316  1  0.50022820  0.68130320  0.51098874  1
  O2-  O317  1  0.50770886  0.67845526  0.83124794  1
  O2-  O318  1  0.83393393  0.17743635  0.16525681  1
  O2-  O319  1  0.82562069  0.18653287  0.50823993  1
  O2-  O320  1  0.83594911  0.18812508  0.84401235  1
  O2-  O321  1  0.82811790  0.67418734  0.16997954  1
  O2-  O322  1  0.84024240  0.67515021  0.49799031  1
  O2-  O323  1  0.83236846  0.67019680  0.83370648  1
  O2-  O324  1  -0.00124035  0.31888256  0.16706047  1
  O2-  O325  1  -0.00411226  0.32676307  0.49564633  1
  O2-  O326  1  0.00112821  0.31992747  0.83936544  1
  O2-  O327  1  -0.00156299  0.82109259  0.16284973  1
  O2-  O328  1  0.00367214  0.82362360  0.50450332  1
  O2-  O329  1  -0.00482818  0.81558274  0.82957195  1
  O2-  O330  1  0.32961003  0.32680673  0.16501368  1
  O2-  O331  1  0.33014705  0.32141768  0.50060419  1
  O2-  O332  1  0.33898170  0.32230653  0.83818835  1
  O2-  O333  1  0.33567464  0.82770633  0.16726409  1
  O2-  O334  1  0.32789285  0.82392650  0.49898747  1
  O2-  O335  1  0.34186182  0.82007960  0.83955433  1
  O2-  O336  1  0.66441064  0.32969482  0.16655947  1
  O2-  O337  1  0.66618857  0.31042831  0.49951737  1
  O2-  O338  1  0.66258740  0.31350828  0.83445411  1
  O2-  O339  1  0.66482637  0.82913516  0.16029593  1
  O2-  O340  1  0.66978137  0.81813793  0.51104180  1
  O2-  O341  1  0.66667016  0.82740657  0.83342598  1
  O2-  O342  1  0.17471340  0.32569586  0.15980617  1
  O2-  O343  1  0.17040518  0.31811991  0.50135658  1
  O2-  O344  1  0.16229156  0.32379585  0.84034016  1
  O2-  O345  1  0.17218242  0.82284135  0.15831534  1
  O2-  O346  1  0.16536647  0.82457591  0.50503879  1
  O2-  O347  1  0.16793985  0.81265054  0.83342593  1
  O2-  O348  1  0.49808519  0.33150743  0.16682173  1
  O2-  O349  1  0.50271841  0.31621470  0.49896548  1
  O2-  O350  1  0.49740260  0.31872679  0.83801212  1
  O2-  O351  1  0.50673243  0.83072214  0.15723337  1
  O2-  O352  1  0.49569891  0.81933509  0.50675623  1
  O2-  O353  1  0.49748464  0.81840858  0.83445445  1
  O2-  O354  1  0.83410740  0.31423798  0.17087306  1
  O2-  O355  1  0.83641671  0.32231664  0.49672976  1
  O2-  O356  1  0.83246420  0.31723600  0.83539982  1
  O2-  O357  1  0.83363909  0.82666936  0.16538562  1
  O2-  O358  1  0.83743432  0.82962204  0.49942163  1
  O2-  O359  1  0.83271233  0.82785410  0.83186788  1
  O2-  O360  1  0.06897423  0.08075339  0.11093871  1
  O2-  O361  1  0.08305287  0.08379588  0.45110480  1
  O2-  O362  1  0.07585161  0.08187856  0.77792496  1
  O2-  O363  1  0.09636614  0.58263844  0.10301171  1
  O2-  O364  1  0.07494900  0.58179253  0.44253644  1
  O2-  O365  1  0.08730743  0.56756225  0.78851825  1
  O2-  O366  1  0.42010609  0.07935419  0.11029677  1
  O2-  O367  1  0.42642137  0.08680623  0.45195384  1
  O2-  O368  1  0.41192467  0.07505547  0.76709485  1
  O2-  O369  1  0.40634060  0.56718141  0.13752926  1
  O2-  O370  1  0.40594567  0.58114386  0.42954537  1
  O2-  O371  1  0.43653073  0.57156548  0.78509370  1
  O2-  O372  1  0.76642675  0.08065516  0.11816661  1
  O2-  O373  1  0.74175443  0.08351680  0.44846046  1
  O2-  O374  1  0.77001183  0.08204261  0.77998114  1
  O2-  O375  1  0.73564255  0.58232474  0.10412500  1
  O2-  O376  1  0.75254601  0.57968837  0.44347423  1
  O2-  O377  1  0.72248688  0.58268463  0.77688792  1
  O2-  O378  1  0.24600282  0.08172404  0.21909907  1
  O2-  O379  1  0.24988936  0.07508412  0.55865341  1
  O2-  O380  1  0.23462426  0.08112062  0.89972927  1
  O2-  O381  1  0.24382197  0.58173885  0.22814087  1
  O2-  O382  1  0.26046427  0.57279269  0.55992780  1
  O2-  O383  1  0.24933843  0.58439662  0.88736995  1
  O2-  O384  1  0.57356969  0.08421298  0.22213505  1
  O2-  O385  1  0.60179531  0.08421810  0.54460747  1
  O2-  O386  1  0.59886038  0.06288136  0.89117033  1
  O2-  O387  1  0.59388368  0.57646258  0.21779163  1
  O2-  O388  1  0.56936362  0.57814344  0.56843883  1
  O2-  O389  1  0.58569596  0.58402146  0.88788773  1
  O2-  O390  1  0.92208539  0.08394130  0.21624541  1
  O2-  O391  1  0.89496363  0.08272692  0.56032190  1
  O2-  O392  1  0.92360873  0.07961721  0.88770363  1
  O2-  O393  1  0.92114568  0.58162812  0.23537485  1
  O2-  O394  1  0.92349890  0.57992111  0.55901430  1
  O2-  O395  1  0.91830593  0.57620059  0.87849151  1
  O2-  O396  1  0.09192517  0.41502270  0.09820333  1
  O2-  O397  1  0.07276650  0.41749068  0.44091234  1
  O2-  O398  1  0.07195336  0.42073808  0.78180050  1
  O2-  O399  1  0.08309720  0.91561643  0.10365490  1
  O2-  O400  1  0.09598619  0.91618061  0.44320904  1
  O2-  O401  1  0.07476195  0.91737848  0.74128919  1
  O2-  O402  1  0.39882722  0.41974504  0.10929430  1
  O2-  O403  1  0.41967655  0.41561366  0.44813991  1
  O2-  O404  1  0.43448850  0.41485911  0.76977098  1
  O2-  O405  1  0.41958308  0.91925740  0.10891845  1
  O2-  O406  1  0.39958170  0.91694044  0.44813009  1
  O2-  O407  1  0.42338688  0.92139100  0.77425757  1
  O2-  O408  1  0.76050982  0.41685162  0.10423209  1
  O2-  O409  1  0.76436152  0.42055138  0.44791253  1
  O2-  O410  1  0.74622360  0.41426834  0.78008327  1
  O2-  O411  1  0.74321964  0.91817544  0.10687070  1
  O2-  O412  1  0.75395186  0.92009377  0.45624466  1
  O2-  O413  1  0.74185697  0.91771400  0.76031754  1
  O2-  O414  1  0.25118223  0.41851397  0.22142758  1
  O2-  O415  1  0.25801589  0.42964548  0.55164345  1
  O2-  O416  1  0.25211050  0.41459617  0.89533088  1
  O2-  O417  1  0.25425961  0.91410019  0.23340757  1
  O2-  O418  1  0.23371495  0.91881232  0.55505585  1
  O2-  O419  1  0.26799697  0.91825149  0.89326417  1
  O2-  O420  1  0.58246298  0.42166171  0.22493104  1
  O2-  O421  1  0.59055301  0.42627690  0.55077920  1
  O2-  O422  1  0.58301649  0.41734131  0.88724617  1
  O2-  O423  1  0.58402715  0.91643585  0.22491326  1
  O2-  O424  1  0.58382215  0.91359222  0.58013710  1
  O2-  O425  1  0.56614455  0.91742654  0.89532015  1
  O2-  O426  1  0.90377291  0.42112480  0.22663126  1
  O2-  O427  1  0.91048935  0.42682771  0.54923540  1
  O2-  O428  1  0.91347640  0.42357730  0.88424951  1
  O2-  O429  1  0.91530232  0.91496311  0.22902845  1
  O2-  O430  1  0.94460980  0.91946444  0.56358799  1
  O2-  O431  1  0.90737143  0.91789086  0.89023242  1
  O2-  O432  1  -0.00760435  0.00743066  0.01440620  1
  O2-  O433  1  0.00579864  0.01006393  0.33087926  1
  O2-  O434  1  -0.01266790  0.00908268  0.68749261  1
  O2-  O435  1  0.00615716  0.49036768  -0.00247664  1
  O2-  O436  1  -0.01630590  0.49541906  0.36444729  1
  O2-  O437  1  -0.01294350  0.50182470  0.68626185  1
  O2-  O438  1  0.33664950  -0.00492500  -0.00548780  1
  O2-  O439  1  0.33483481  -0.00133454  0.33456768  1
  O2-  O440  1  0.36035582  -0.00721461  0.63134648  1
  O2-  O441  1  0.33497649  0.49966148  -0.00814772  1
  O2-  O442  1  0.34583460  0.49730080  0.31449199  1
  O2-  O443  1  0.34649464  0.50476359  0.64778774  1
  O2-  O444  1  0.66620199  -0.00148330  0.01731501  1
  O2-  O445  1  0.66697572  0.01689959  0.32786236  1
  O2-  O446  1  0.68443907  0.00098185  0.63253149  1
  O2-  O447  1  0.66618911  0.49602990  -0.00406997  1
  O2-  O448  1  0.67840774  0.49112637  0.31710215  1
  O2-  O449  1  0.65855675  0.49350312  0.66989197  1
  O2-  O450  1  0.17291117  0.00596046  0.00954271  1
  O2-  O451  1  0.16759544  0.00279910  0.33444206  1
  O2-  O452  1  0.14016421  -0.00142170  0.63304358  1
  O2-  O453  1  0.17256934  0.49001908  -0.00149329  1
  O2-  O454  1  0.15135996  0.50120327  0.33400156  1
  O2-  O455  1  0.18558330  0.51586884  0.68342892  1
  O2-  O456  1  0.51355000  -0.00859997  0.03001314  1
  O2-  O457  1  0.49468938  0.00800725  0.33176424  1
  O2-  O458  1  0.51828682  0.00360321  0.69784537  1
  O2-  O459  1  0.50110698  0.50606519  0.00586164  1
  O2-  O460  1  0.49319774  0.49893978  0.31723056  1
  O2-  O461  1  0.49978825  0.49570063  0.65673185  1
  O2-  O462  1  0.83395041  0.01400042  -0.00072447  1
  O2-  O463  1  0.83242147  -0.00469092  0.33047788  1
  O2-  O464  1  0.83409401  -0.00218675  0.65171442  1
  O2-  O465  1  0.82020317  0.49978759  -0.02087051  1
  O2-  O466  1  0.83505957  0.49702288  0.33815148  1
  O2-  O467  1  0.83179204  0.49066939  0.66454710  1
  O2-  O468  1  0.07829043  0.74985861  0.06729002  1
  O2-  O469  1  0.57618998  0.25573110  0.25394525  1
  O2-  O470  1  0.07188940  0.25097983  0.73758167  1
  O2-  O471  1  0.07709731  0.25230676  0.39457290  1
  O2-  O472  1  0.92108975  0.25048175  0.60350332  1
  O2-  O473  1  0.41705441  0.75214107  0.07050249  1
  O2-  O474  1  0.40814571  0.25483472  0.07752347  1
  O2-  O475  1  0.41343285  0.25153454  0.39012467  1
  O2-  O476  1  0.74778174  0.25233922  0.07033855  1
  O2-  O477  1  0.75778403  0.74837010  0.39623179  1
  O2-  O478  1  0.08887009  0.25080506  0.06586410  1
  O2-  O479  1  0.90204302  0.74986389  0.59780033  1
  O2-  O480  1  0.75122114  0.74902891  0.06431227  1
  O2-  O481  1  0.25378923  0.75277839  0.94042587  1
  O2-  O482  1  0.25388180  0.25033725  0.26476632  1
  O2-  O483  1  0.75494965  0.25057897  0.72613183  1
  O2-  O484  1  0.58576767  0.75045963  0.26419970  1
  O2-  O485  1  0.25449534  0.75090606  0.25647232  1
  O2-  O486  1  0.24974935  0.24804351  0.93643132  1
  O2-  O487  1  0.90564218  0.74761978  0.26582366  1
  O2-  O488  1  0.90457296  0.75207110  0.93723538  1
  O2-  O489  1  0.41459918  0.25321693  0.73847178  1
  O2-  O490  1  0.41837913  0.75195599  0.39766334  1
  O2-  O491  1  0.75835277  0.75025110  0.73797718  1
  O2-  O492  1  0.59113565  0.75287426  0.93735634  1
