# generated using pymatgen
data_Ca108Mn108O277
_symmetry_space_group_name_H-M   'P 1'
_cell_length_a   16.03093058
_cell_length_b   22.31163060
_cell_length_c   16.39301013
_cell_angle_alpha   90.00314790
_cell_angle_beta   90.00732753
_cell_angle_gamma   90.00140157
_symmetry_Int_Tables_number   1
_chemical_formula_structural   Ca108Mn108O277
_chemical_formula_sum   'Ca108 Mn108 O277'
_cell_volume   5863.38953390
_cell_formula_units_Z   1
loop_
 _symmetry_equiv_pos_site_id
 _symmetry_equiv_pos_as_xyz
  1  'x, y, z'
loop_
 _atom_type_symbol
 _atom_type_oxidation_number
  Ca2+  2.0
  Mn3.34+  3.34
  O2-  -2.0
loop_
 _atom_site_type_symbol
 _atom_site_label
 _atom_site_symmetry_multiplicity
 _atom_site_fract_x
 _atom_site_fract_y
 _atom_site_fract_z
 _atom_site_occupancy
  Ca2+  Ca0  1  0.07823486  0.24779393  0.25204659  1
  Ca2+  Ca1  1  0.08234052  0.24960266  0.56870758  1
  Ca2+  Ca2  1  0.08640994  0.23927393  0.91923126  1
  Ca2+  Ca3  1  0.08466577  0.75129366  0.25633645  1
  Ca2+  Ca4  1  0.07205783  0.73563046  0.56105903  1
  Ca2+  Ca5  1  0.06512396  0.75281231  0.91160584  1
  Ca2+  Ca6  1  0.41975169  0.23828554  0.24142852  1
  Ca2+  Ca7  1  0.41607291  0.25828648  0.58606944  1
  Ca2+  Ca8  1  0.42936617  0.25204711  0.91853165  1
  Ca2+  Ca9  1  0.43153965  0.75080817  0.22277512  1
  Ca2+  Ca10  1  0.41879348  0.75863553  0.58732364  1
  Ca2+  Ca11  1  0.43084429  0.73052404  0.94037083  1
  Ca2+  Ca12  1  0.76138674  0.24349179  0.24953302  1
  Ca2+  Ca13  1  0.75554290  0.25535629  0.58598795  1
  Ca2+  Ca14  1  0.74118812  0.26361792  0.92017753  1
  Ca2+  Ca15  1  0.73804475  0.76369881  0.24585018  1
  Ca2+  Ca16  1  0.76185862  0.76165924  0.58892636  1
  Ca2+  Ca17  1  0.76205083  0.75327649  0.91015499  1
  Ca2+  Ca18  1  0.24782358  0.25763272  0.08218454  1
  Ca2+  Ca19  1  0.24070809  0.24353470  0.41596257  1
  Ca2+  Ca20  1  0.25931295  0.25310739  0.74799329  1
  Ca2+  Ca21  1  0.27138739  0.74376136  0.08423276  1
  Ca2+  Ca22  1  0.22604091  0.74937985  0.41587741  1
  Ca2+  Ca23  1  0.23916211  0.75458785  0.74922215  1
  Ca2+  Ca24  1  0.58578007  0.24796260  0.07532238  1
  Ca2+  Ca25  1  0.57961784  0.24321563  0.41138973  1
  Ca2+  Ca26  1  0.58214258  0.24824037  0.76985148  1
  Ca2+  Ca27  1  0.57219296  0.74113197  0.08527980  1
  Ca2+  Ca28  1  0.59045387  0.76340284  0.40594495  1
  Ca2+  Ca29  1  0.60052951  0.74416265  0.75532096  1
  Ca2+  Ca30  1  0.91759153  0.26443921  0.09028368  1
  Ca2+  Ca31  1  0.92863419  0.23355382  0.40741082  1
  Ca2+  Ca32  1  0.90942025  0.25868521  0.74740771  1
  Ca2+  Ca33  1  0.91735629  0.76911151  0.07296270  1
  Ca2+  Ca34  1  0.92164367  0.75709641  0.42234489  1
  Ca2+  Ca35  1  0.91242376  0.75649101  0.75062662  1
  Ca2+  Ca36  1  0.27984462  0.11644996  0.08127327  1
  Ca2+  Ca37  1  0.93210642  0.59082110  0.42313909  1
  Ca2+  Ca38  1  0.73249095  0.11097003  0.92116566  1
  Ca2+  Ca39  1  0.43355591  0.56385805  0.60949846  1
  Ca2+  Ca40  1  0.24760537  0.11710631  0.77425139  1
  Ca2+  Ca41  1  0.44492179  0.56366950  0.60934653  1
  Ca2+  Ca42  1  0.10150945  0.11896817  0.57671407  1
  Ca2+  Ca43  1  0.71419026  0.58368380  0.59792708  1
  Ca2+  Ca44  1  0.40257218  0.10938154  0.58262332  1
  Ca2+  Ca45  1  0.42283751  0.58431969  0.24463140  1
  Ca2+  Ca46  1  0.57820295  0.57401578  0.41191484  1
  Ca2+  Ca47  1  0.72583087  0.58669978  0.60086826  1
  Ca2+  Ca48  1  0.74099535  0.10733639  0.91762283  1
  Ca2+  Ca49  1  0.29666035  0.56471183  0.07295137  1
  Ca2+  Ca50  1  0.41395457  0.12056819  0.91765885  1
  Ca2+  Ca51  1  0.10327601  0.57026786  0.25398452  1
  Ca2+  Ca52  1  0.92378003  0.58145190  0.73383441  1
  Ca2+  Ca53  1  0.57817042  0.10466513  0.75016697  1
  Ca2+  Ca54  1  0.54882817  0.58772527  0.07023676  1
  Ca2+  Ca55  1  0.23957438  0.53428840  0.75773841  1
  Ca2+  Ca56  1  0.91131779  0.11731256  0.10066806  1
  Ca2+  Ca57  1  0.41205594  0.11108096  0.58627704  1
  Ca2+  Ca58  1  0.55222519  0.11217121  0.08275263  1
  Ca2+  Ca59  1  0.71061027  0.60022080  0.91139671  1
  Ca2+  Ca60  1  0.90203416  0.11423812  0.09791008  1
  Ca2+  Ca61  1  0.42110483  0.57146487  0.91453198  1
  Ca2+  Ca62  1  0.73728600  0.57294895  0.26150323  1
  Ca2+  Ca63  1  0.75468000  0.09965616  0.58173926  1
  Ca2+  Ca64  1  0.22835821  0.59471965  0.42958366  1
  Ca2+  Ca65  1  0.09184131  0.57377343  0.25766846  1
  Ca2+  Ca66  1  0.28255921  0.12031244  0.07287320  1
  Ca2+  Ca67  1  0.07922384  0.11098203  0.25001170  1
  Ca2+  Ca68  1  0.24146621  0.11205408  0.43160374  1
  Ca2+  Ca69  1  0.92131354  0.09818902  0.73712570  1
  Ca2+  Ca70  1  0.93768070  0.59635449  0.42813980  1
  Ca2+  Ca71  1  0.53922967  0.58866071  0.07387198  1
  Ca2+  Ca72  1  0.89772992  0.90852625  0.42382219  1
  Ca2+  Ca73  1  0.59315003  0.90829461  0.08170627  1
  Ca2+  Ca74  1  0.24944255  0.91285708  0.41126459  1
  Ca2+  Ca75  1  0.75627827  0.91175064  0.92825492  1
  Ca2+  Ca76  1  0.25568281  0.90830093  0.08861186  1
  Ca2+  Ca77  1  0.42594378  0.91370935  0.59201450  1
  Ca2+  Ca78  1  0.08197329  0.90198011  0.24959032  1
  Ca2+  Ca79  1  0.26526552  0.91268354  0.09104071  1
  Ca2+  Ca80  1  0.08207876  0.90412457  0.91747060  1
  Ca2+  Ca81  1  0.08886104  0.90920476  0.25314317  1
  Ca2+  Ca82  1  0.26526474  0.40809604  0.40946069  1
  Ca2+  Ca83  1  0.09050380  0.40327003  0.90527972  1
  Ca2+  Ca84  1  0.08103894  0.39723730  0.24276476  1
  Ca2+  Ca85  1  0.40929925  0.41642940  0.91563993  1
  Ca2+  Ca86  1  0.08417533  0.41442754  0.62194241  1
  Ca2+  Ca87  1  0.90449466  0.39168081  0.41591540  1
  Ca2+  Ca88  1  0.56814740  0.41169242  0.73757477  1
  Ca2+  Ca89  1  0.25504821  0.91062266  0.74140758  1
  Ca2+  Ca90  1  0.25565538  0.40579607  0.40586926  1
  Ca2+  Ca91  1  0.41994464  0.41137743  0.60375698  1
  Ca2+  Ca92  1  0.91402243  0.91174798  0.73775578  1
  Ca2+  Ca93  1  0.09947912  0.40498262  0.90060645  1
  Ca2+  Ca94  1  0.26128126  0.41531963  0.07932986  1
  Ca2+  Ca95  1  0.41696381  0.40334554  0.24027612  1
  Ca2+  Ca96  1  0.58500124  0.91725230  0.71812976  1
  Ca2+  Ca97  1  0.60389029  0.91014495  0.08823889  1
  Ca2+  Ca98  1  0.26168718  0.91096257  0.41400587  1
  Ca2+  Ca99  1  0.40581937  0.90635029  0.91261085  1
  Ca2+  Ca100  1  0.73831027  0.90899139  0.25038438  1
  Ca2+  Ca101  1  0.07349847  0.41420531  0.62053938  1
  Ca2+  Ca102  1  0.59608307  0.91866149  0.71765653  1
  Ca2+  Ca103  1  0.24249345  0.91165199  0.74261349  1
  Ca2+  Ca104  1  0.07811982  0.91041216  0.59658535  1
  Ca2+  Ca105  1  0.58245041  0.40146090  0.08473543  1
  Ca2+  Ca106  1  0.41864027  0.90612540  0.91234097  1
  Ca2+  Ca107  1  0.59441416  0.40152423  0.41882921  1
  Mn3.34+  Mn108  1  0.08179473  0.33507608  0.08262970  1
  Mn3.34+  Mn109  1  0.08236934  0.32801269  0.41919973  1
  Mn3.34+  Mn110  1  0.08525101  0.32565901  0.75427574  1
  Mn3.34+  Mn111  1  0.08243124  0.83067783  0.08238279  1
  Mn3.34+  Mn112  1  0.07721895  0.83294604  0.42358234  1
  Mn3.34+  Mn113  1  0.07900609  0.83300107  0.75007854  1
  Mn3.34+  Mn114  1  0.41686857  0.33651481  0.08311860  1
  Mn3.34+  Mn115  1  0.42304557  0.33094023  0.41684226  1
  Mn3.34+  Mn116  1  0.41582708  0.33604718  0.75450169  1
  Mn3.34+  Mn117  1  0.42134986  0.83502532  0.08734719  1
  Mn3.34+  Mn118  1  0.41917851  0.83254959  0.41924157  1
  Mn3.34+  Mn119  1  0.41882582  0.82291590  0.75434681  1
  Mn3.34+  Mn120  1  0.75051353  0.33625181  0.08568290  1
  Mn3.34+  Mn121  1  0.74823848  0.32911468  0.41810744  1
  Mn3.34+  Mn122  1  0.74932913  0.33140776  0.74957343  1
  Mn3.34+  Mn123  1  0.75549145  0.83679045  0.08570091  1
  Mn3.34+  Mn124  1  0.74620920  0.83896016  0.41972066  1
  Mn3.34+  Mn125  1  0.75008995  0.83464235  0.74944093  1
  Mn3.34+  Mn126  1  0.25297293  0.33222380  0.24334094  1
  Mn3.34+  Mn127  1  0.25041613  0.33279873  0.58132814  1
  Mn3.34+  Mn128  1  0.25580283  0.33554221  0.91274586  1
  Mn3.34+  Mn129  1  0.25511911  0.83488811  0.25008585  1
  Mn3.34+  Mn130  1  0.24968671  0.82854106  0.57952894  1
  Mn3.34+  Mn131  1  0.24650926  0.82890488  0.91746957  1
  Mn3.34+  Mn132  1  0.58621982  0.33037399  0.24846684  1
  Mn3.34+  Mn133  1  0.58765510  0.33793711  0.58059455  1
  Mn3.34+  Mn134  1  0.58565978  0.33591798  0.91447960  1
  Mn3.34+  Mn135  1  0.57500660  0.83999795  0.25755263  1
  Mn3.34+  Mn136  1  0.58886982  0.83622337  0.57161640  1
  Mn3.34+  Mn137  1  0.58480150  0.82828555  0.91353579  1
  Mn3.34+  Mn138  1  0.91143695  0.33132877  0.24931412  1
  Mn3.34+  Mn139  1  0.91081957  0.33110801  0.58409981  1
  Mn3.34+  Mn140  1  0.91271031  0.33366141  0.91647706  1
  Mn3.34+  Mn141  1  0.91268186  0.83539292  0.25122484  1
  Mn3.34+  Mn142  1  0.91316986  0.83673147  0.58327017  1
  Mn3.34+  Mn143  1  0.91518892  0.83578181  0.91530594  1
  Mn3.34+  Mn144  1  0.74818381  0.66407069  0.41837332  1
  Mn3.34+  Mn145  1  0.41905080  0.17028088  0.41042676  1
  Mn3.34+  Mn146  1  0.74727964  0.15813092  0.41583422  1
  Mn3.34+  Mn147  1  0.24851705  0.66718500  0.24821980  1
  Mn3.34+  Mn148  1  0.25772353  0.65577062  0.91175707  1
  Mn3.34+  Mn149  1  0.58433617  0.66342051  0.24690561  1
  Mn3.34+  Mn150  1  0.41491622  0.67260510  0.42006808  1
  Mn3.34+  Mn151  1  0.07199432  0.65480297  0.07440382  1
  Mn3.34+  Mn152  1  0.91715493  0.16798179  0.57720814  1
  Mn3.34+  Mn153  1  0.58556219  0.15983147  0.57471263  1
  Mn3.34+  Mn154  1  0.42379108  0.66712683  0.42287076  1
  Mn3.34+  Mn155  1  0.92296694  0.66553425  0.24539315  1
  Mn3.34+  Mn156  1  0.25712936  0.65672053  0.24442862  1
  Mn3.34+  Mn157  1  0.91089702  0.66657217  0.58501322  1
  Mn3.34+  Mn158  1  0.74759757  0.66510008  0.08340825  1
  Mn3.34+  Mn159  1  0.08262063  0.66023228  0.07357345  1
  Mn3.34+  Mn160  1  0.73777389  0.66955729  0.41640784  1
  Mn3.34+  Mn161  1  0.08400318  0.17108317  0.75042541  1
  Mn3.34+  Mn162  1  0.91001047  0.65921175  0.24178988  1
  Mn3.34+  Mn163  1  0.92265135  0.17305552  0.91103011  1
  Mn3.34+  Mn164  1  0.58223004  0.16716975  0.25113190  1
  Mn3.34+  Mn165  1  0.91218721  0.66151374  0.90785070  1
  Mn3.34+  Mn166  1  0.74996617  0.66894222  0.75583708  1
  Mn3.34+  Mn167  1  0.58088149  0.67540525  0.58290791  1
  Mn3.34+  Mn168  1  0.09138420  0.66005553  0.74597874  1
  Mn3.34+  Mn169  1  0.41619777  0.17454086  0.75342587  1
  Mn3.34+  Mn170  1  0.41532371  0.66810028  0.75581750  1
  Mn3.34+  Mn171  1  0.76163479  0.65920044  0.08383716  1
  Mn3.34+  Mn172  1  0.75188216  0.16901131  0.74902327  1
  Mn3.34+  Mn173  1  0.08662568  0.17388622  0.08020456  1
  Mn3.34+  Mn174  1  0.25464080  0.66853520  0.58178058  1
  Mn3.34+  Mn175  1  0.25092744  0.16663508  0.24965906  1
  Mn3.34+  Mn176  1  0.08123392  0.65504998  0.74763783  1
  Mn3.34+  Mn177  1  0.42463311  0.66219252  0.76008690  1
  Mn3.34+  Mn178  1  0.24319223  0.65974783  0.91624722  1
  Mn3.34+  Mn179  1  0.74180660  0.17037884  0.09190368  1
  Mn3.34+  Mn180  1  0.73484078  -0.00189268  0.41889374  1
  Mn3.34+  Mn181  1  0.75270973  0.49512424  0.41887103  1
  Mn3.34+  Mn182  1  0.41525582  0.50009466  0.41616794  1
  Mn3.34+  Mn183  1  0.75171127  0.49602515  0.08156284  1
  Mn3.34+  Mn184  1  0.09025330  0.00844370  0.08233922  1
  Mn3.34+  Mn185  1  0.91691478  0.00193174  0.59058840  1
  Mn3.34+  Mn186  1  0.74736844  0.49364265  0.75905632  1
  Mn3.34+  Mn187  1  0.74915061  0.00368135  0.74497871  1
  Mn3.34+  Mn188  1  0.58889161  -0.00464691  0.90840903  1
  Mn3.34+  Mn189  1  0.58794702  0.49410494  0.92957668  1
  Mn3.34+  Mn190  1  0.57554373  0.00250505  0.91058806  1
  Mn3.34+  Mn191  1  0.91087389  0.49465207  0.58951468  1
  Mn3.34+  Mn192  1  0.07628760  0.00252811  0.08467780  1
  Mn3.34+  Mn193  1  0.09015690  0.49850975  0.43171142  1
  Mn3.34+  Mn194  1  0.90393969  0.49668231  0.25122369  1
  Mn3.34+  Mn195  1  0.07602711  0.49200894  0.43014371  1
  Mn3.34+  Mn196  1  0.89143925  0.00000849  0.25650939  1
  Mn3.34+  Mn197  1  0.41472178  0.00256951  0.74902924  1
  Mn3.34+  Mn198  1  0.25069862  0.00493945  0.92006720  1
  Mn3.34+  Mn199  1  0.09292714  0.49605800  0.07099683  1
  Mn3.34+  Mn200  1  0.41899087  0.00791185  0.40100753  1
  Mn3.34+  Mn201  1  0.59543216  0.00959770  0.25358168  1
  Mn3.34+  Mn202  1  0.08469874  0.00523231  0.41805848  1
  Mn3.34+  Mn203  1  0.24926919  0.50281285  0.58121381  1
  Mn3.34+  Mn204  1  0.58355741  0.49445525  0.25133407  1
  Mn3.34+  Mn205  1  0.41813452  -0.00052863  0.08758414  1
  Mn3.34+  Mn206  1  0.42848541  0.00241643  0.40287985  1
  Mn3.34+  Mn207  1  0.06996366  0.00067609  0.42081534  1
  Mn3.34+  Mn208  1  0.91282602  0.00321133  0.91159642  1
  Mn3.34+  Mn209  1  0.08600238  0.00583074  0.74844436  1
  Mn3.34+  Mn210  1  0.90827950  0.49353260  0.92469801  1
  Mn3.34+  Mn211  1  0.73714257  0.49885633  0.75976466  1
  Mn3.34+  Mn212  1  0.89938215  0.00758669  0.25490673  1
  Mn3.34+  Mn213  1  0.91718524  0.49986630  0.92337437  1
  Mn3.34+  Mn214  1  0.92591504  0.00939801  0.91134937  1
  Mn3.34+  Mn215  1  0.25046501  -0.00041010  0.58470131  1
  O2-  O216  1  0.00002217  0.14959111  -0.00333397  1
  O2-  O217  1  0.00850788  0.17513930  0.32649048  1
  O2-  O218  1  0.00162870  0.15961298  0.66369414  1
  O2-  O219  1  -0.00872142  0.65835620  -0.00776126  1
  O2-  O220  1  0.00422225  0.63897950  0.32229140  1
  O2-  O221  1  -0.00143983  0.65183798  0.66067393  1
  O2-  O222  1  0.34196393  0.18758002  0.00158751  1
  O2-  O223  1  0.33120950  0.15476070  0.33796253  1
  O2-  O224  1  0.33300035  0.16657071  0.67171756  1
  O2-  O225  1  0.33778783  0.64842017  -0.00746820  1
  O2-  O226  1  0.32821996  0.64574988  0.34270283  1
  O2-  O227  1  0.33787926  0.68641746  0.66558647  1
  O2-  O228  1  0.66052466  0.15390168  0.01187406  1
  O2-  O229  1  0.66814004  0.17476107  0.34008830  1
  O2-  O230  1  0.66694841  0.15609476  0.66360561  1
  O2-  O231  1  0.65569675  0.65280122  0.01705166  1
  O2-  O232  1  0.66167082  0.64230350  0.33384617  1
  O2-  O233  1  0.66350515  0.66308573  0.66830172  1
  O2-  O234  1  0.17764428  0.17076943  0.01136410  1
  O2-  O235  1  0.17050551  0.15553126  0.32860689  1
  O2-  O236  1  0.15941354  0.18468250  0.67146563  1
  O2-  O237  1  0.17555473  0.63539150  0.00835874  1
  O2-  O238  1  0.16357447  0.64697143  0.32387136  1
  O2-  O239  1  0.17602232  0.66505095  0.66765696  1
  O2-  O240  1  0.48652468  0.18221617  0.00423096  1
  O2-  O241  1  0.50172451  0.15692378  0.33287953  1
  O2-  O242  1  0.50037162  0.16662346  0.66011689  1
  O2-  O243  1  0.50069033  0.65797686  -0.00615674  1
  O2-  O244  1  0.49818171  0.65102394  0.33142868  1
  O2-  O245  1  0.49817998  0.68513366  0.66398765  1
  O2-  O246  1  0.83426053  0.15831500  -0.00718366  1
  O2-  O247  1  0.82424806  0.17899271  0.34753469  1
  O2-  O248  1  0.83366561  0.15478423  0.66825797  1
  O2-  O249  1  0.81768814  0.65124616  -0.01513067  1
  O2-  O250  1  0.83571253  0.64164728  0.33662085  1
  O2-  O251  1  0.82433419  0.64334297  0.66195884  1
  O2-  O252  1  0.01084185  0.35531510  -0.00843053  1
  O2-  O253  1  0.00273188  0.34495456  0.33890651  1
  O2-  O254  1  0.00125212  0.33640561  0.67085663  1
  O2-  O255  1  0.00406055  0.84144141  -0.00436714  1
  O2-  O256  1  -0.00297557  0.85770159  0.34067906  1
  O2-  O257  1  -0.00235958  0.84719235  0.66891055  1
  O2-  O258  1  0.33240314  0.32644961  0.00105400  1
  O2-  O259  1  0.33872587  0.34731892  0.33090003  1
  O2-  O260  1  0.33337691  0.33263972  0.66172659  1
  O2-  O261  1  0.33593739  0.84797090  -0.00061296  1
  O2-  O262  1  0.32683288  0.84133278  0.34590645  1
  O2-  O263  1  0.33281256  0.83074142  0.66794246  1
  O2-  O264  1  0.66410729  0.34790298  -0.00084127  1
  O2-  O265  1  0.66218854  0.33205316  0.33936778  1
  O2-  O266  1  0.65712416  0.32502580  0.66690012  1
  O2-  O267  1  0.66577942  0.84509308  -0.00189771  1
  O2-  O268  1  0.66134846  0.84537099  0.33548908  1
  O2-  O269  1  0.66133207  0.83341942  0.66721019  1
  O2-  O270  1  0.17071368  0.33859735  -0.00205853  1
  O2-  O271  1  0.17118535  0.35014223  0.33366303  1
  O2-  O272  1  0.16020561  0.32574149  0.65996161  1
  O2-  O273  1  0.17429357  0.85601258  0.00373150  1
  O2-  O274  1  0.16236488  0.84900402  0.33776861  1
  O2-  O275  1  0.17080792  0.84274352  0.66933908  1
  O2-  O276  1  0.49474772  0.34520297  -0.00357269  1
  O2-  O277  1  0.50146640  0.35301688  0.33714634  1
  O2-  O278  1  0.50001928  0.33900631  0.66107509  1
  O2-  O279  1  0.50474800  0.85415105  0.00152424  1
  O2-  O280  1  0.48607468  0.81316069  0.33109554  1
  O2-  O281  1  0.50326707  0.82522812  0.67084910  1
  O2-  O282  1  0.83795784  0.33960159  0.00328923  1
  O2-  O283  1  0.83230886  0.32410260  0.33780989  1
  O2-  O284  1  0.82991316  0.34112023  0.66431703  1
  O2-  O285  1  0.83397361  0.84670879  -0.00083243  1
  O2-  O286  1  0.82725416  0.85250613  0.32952061  1
  O2-  O287  1  0.83190582  0.84847998  0.66699732  1
  O2-  O288  1  -0.00006661  0.17762479  0.15479922  1
  O2-  O289  1  -0.00112449  0.17682415  0.50704088  1
  O2-  O290  1  -0.00703846  0.18884840  0.82263916  1
  O2-  O291  1  0.00328626  0.68821623  0.16323580  1
  O2-  O292  1  -0.02062657  0.67628249  0.49237506  1
  O2-  O293  1  0.00174870  0.67738026  0.82766421  1
  O2-  O294  1  0.32651754  0.18512807  0.16527499  1
  O2-  O295  1  0.34425150  0.17975508  0.49870327  1
  O2-  O296  1  0.33761776  0.18418563  0.83060755  1
  O2-  O297  1  0.34027333  0.67567548  0.17136552  1
  O2-  O298  1  0.33470693  0.69548846  0.49952147  1
  O2-  O299  1  0.33217200  0.69825966  0.83195288  1
  O2-  O300  1  0.66779081  0.18346335  0.17170817  1
  O2-  O301  1  0.66783332  0.18495735  0.50453972  1
  O2-  O302  1  0.67312461  0.17507309  0.82958706  1
  O2-  O303  1  0.67749182  0.67880362  0.17293014  1
  O2-  O304  1  0.66679889  0.68994892  0.50857076  1
  O2-  O305  1  0.68046074  0.68605088  0.84006918  1
  O2-  O306  1  0.16211438  0.18593341  0.16790090  1
  O2-  O307  1  0.17738895  0.18625539  0.50957382  1
  O2-  O308  1  0.16269439  0.19078537  0.82341279  1
  O2-  O309  1  0.16403013  0.68101079  0.16427317  1
  O2-  O310  1  0.17705727  0.68115841  0.50337837  1
  O2-  O311  1  0.16873117  0.68142125  0.83471709  1
  O2-  O312  1  0.50932531  0.18206512  0.16693705  1
  O2-  O313  1  0.49843976  0.18543374  0.50636949  1
  O2-  O314  1  0.49897315  0.17442953  0.82863791  1
  O2-  O315  1  0.50870350  0.67118482  0.16612459  1
  O2-  O316  1  0.50561310  0.69862601  0.49726648  1
  O2-  O317  1  0.50326111  0.69530150  0.82953647  1
  O2-  O318  1  0.83453965  0.18838472  0.15414281  1
  O2-  O319  1  0.82459822  0.17941240  0.50655839  1
  O2-  O320  1  0.82829078  0.17952213  0.84008631  1
  O2-  O321  1  0.83509859  0.68803174  0.16421298  1
  O2-  O322  1  0.82701361  0.68002336  0.50319735  1
  O2-  O323  1  0.84221869  0.68167862  0.82145637  1
  O2-  O324  1  0.00493432  0.32711892  0.16832127  1
  O2-  O325  1  0.00585626  0.32563967  0.50640543  1
  O2-  O326  1  0.00986289  0.31515949  0.83845898  1
  O2-  O327  1  0.00922667  0.82201769  0.18290120  1
  O2-  O328  1  0.00123063  0.81875710  0.50677875  1
  O2-  O329  1  -0.00312232  0.82327096  0.83145751  1
  O2-  O330  1  0.33656960  0.31463568  0.16496072  1
  O2-  O331  1  0.32951434  0.32149576  0.49212229  1
  O2-  O332  1  0.33757048  0.31663023  0.83802336  1
  O2-  O333  1  0.32913875  0.82212933  0.15833030  1
  O2-  O334  1  0.33266290  0.81360830  0.49988370  1
  O2-  O335  1  0.32680234  0.82378020  0.82987969  1
  O2-  O336  1  0.65921282  0.31869761  0.16149495  1
  O2-  O337  1  0.66400909  0.31081050  0.49911484  1
  O2-  O338  1  0.66379933  0.31950753  0.82953325  1
  O2-  O339  1  0.66545523  0.82494973  0.16043816  1
  O2-  O340  1  0.67093839  0.81026572  0.50147104  1
  O2-  O341  1  0.66583905  0.81594604  0.83328609  1
  O2-  O342  1  0.16519039  0.32045017  0.16722385  1
  O2-  O343  1  0.17325065  0.31761205  0.49551771  1
  O2-  O344  1  0.16830840  0.31352276  0.83934064  1
  O2-  O345  1  0.16574341  0.82298640  0.16789389  1
  O2-  O346  1  0.16666503  0.81861246  0.49823703  1
  O2-  O347  1  0.16283336  0.82221495  0.83576996  1
  O2-  O348  1  0.49702804  0.31850462  0.16166145  1
  O2-  O349  1  0.50197134  0.31664440  0.50143761  1
  O2-  O350  1  0.50153708  0.32348394  0.83134109  1
  O2-  O351  1  0.51010006  0.82764025  0.15949534  1
  O2-  O352  1  0.50165797  0.81595430  0.49969793  1
  O2-  O353  1  0.48734276  0.81361641  0.84967682  1
  O2-  O354  1  0.82918116  0.31988620  0.16949736  1
  O2-  O355  1  0.83934997  0.31513803  0.49400251  1
  O2-  O356  1  0.83254627  0.31692563  0.83576314  1
  O2-  O357  1  0.83270267  0.81836504  0.16742188  1
  O2-  O358  1  0.83823062  0.82094952  0.49318485  1
  O2-  O359  1  0.83045647  0.82974717  0.83305934  1
  O2-  O360  1  0.08377989  0.08831371  0.10853799  1
  O2-  O361  1  0.10329996  0.08116457  0.45094498  1
  O2-  O362  1  0.09447501  0.08747931  0.76487400  1
  O2-  O363  1  0.07743136  0.57333046  0.12224467  1
  O2-  O364  1  0.07651391  0.57901437  0.45576783  1
  O2-  O365  1  0.09413637  0.57561979  0.77200073  1
  O2-  O366  1  0.41417220  0.07982275  0.07261478  1
  O2-  O367  1  0.42172794  0.08427048  0.45022578  1
  O2-  O368  1  0.41702393  0.08509881  0.75899690  1
  O2-  O369  1  0.42524659  0.56202027  0.12108970  1
  O2-  O370  1  0.43276301  0.58064663  0.46409455  1
  O2-  O371  1  0.40336508  0.57792888  0.76257089  1
  O2-  O372  1  0.77290795  0.08814005  0.09773786  1
  O2-  O373  1  0.73898140  0.07744191  0.44924810  1
  O2-  O374  1  0.76193123  0.08174765  0.78348440  1
  O2-  O375  1  0.75875349  0.57884310  0.12603907  1
  O2-  O376  1  0.73333721  0.57861696  0.46378652  1
  O2-  O377  1  0.74922418  0.58237404  0.78221019  1
  O2-  O378  1  0.24001021  0.08659007  0.20144310  1
  O2-  O379  1  0.27453521  0.07770144  0.56320233  1
  O2-  O380  1  0.27695119  0.08273707  0.90794400  1
  O2-  O381  1  0.23824443  0.57513333  0.21141766  1
  O2-  O382  1  0.28190463  0.58185531  0.55710732  1
  O2-  O383  1  0.26513924  0.57748884  0.87749385  1
  O2-  O384  1  0.58614450  0.08387893  0.21494478  1
  O2-  O385  1  0.55616147  0.08390768  0.56999853  1
  O2-  O386  1  0.59773972  0.08235828  0.89185098  1
  O2-  O387  1  0.58911705  0.57628325  0.21096386  1
  O2-  O388  1  0.57891155  0.58680365  0.55511512  1
  O2-  O389  1  0.58031181  0.56331158  0.88066855  1
  O2-  O390  1  0.93307896  0.08127587  0.22468392  1
  O2-  O391  1  0.90738502  0.08120027  0.56507785  1
  O2-  O392  1  0.92009371  0.08754490  0.87473340  1
  O2-  O393  1  0.92696844  0.57835892  0.20745531  1
  O2-  O394  1  0.90101240  0.57625125  0.55396826  1
  O2-  O395  1  0.90937322  0.57382205  0.86892182  1
  O2-  O396  1  0.09950463  0.41856571  0.10716900  1
  O2-  O397  1  0.09741067  0.41259558  0.45001878  1
  O2-  O398  1  0.09262626  0.41464364  0.76573981  1
  O2-  O399  1  0.08880436  0.92227944  0.11864836  1
  O2-  O400  1  0.08257703  0.92087737  0.46218677  1
  O2-  O401  1  0.10428922  0.92567053  0.78623443  1
  O2-  O402  1  0.40885664  0.41483772  0.10222309  1
  O2-  O403  1  0.40736693  0.41815163  0.44814563  1
  O2-  O404  1  0.42107291  0.41548655  0.77030872  1
  O2-  O405  1  0.40682560  0.91905078  0.11918144  1
  O2-  O406  1  0.40161128  0.92376765  0.45403067  1
  O2-  O407  1  0.41102886  0.91801948  0.77827443  1
  O2-  O408  1  0.73173822  0.41900238  0.11204192  1
  O2-  O409  1  0.75046855  0.41375707  0.43771878  1
  O2-  O410  1  0.72789324  0.41278525  0.76681213  1
  O2-  O411  1  0.74057403  0.91702822  0.11077092  1
  O2-  O412  1  0.75017865  0.91926456  0.45254466  1
  O2-  O413  1  0.72804155  0.92140296  0.77688553  1
  O2-  O414  1  0.26091224  0.41497285  0.22633654  1
  O2-  O415  1  0.23850894  0.42353160  0.54502052  1
  O2-  O416  1  0.23784776  0.41620199  0.89869144  1
  O2-  O417  1  0.23629424  0.92012893  0.22050822  1
  O2-  O418  1  0.24698566  0.91917965  0.54816591  1
  O2-  O419  1  0.26875923  0.92661764  0.87335552  1
  O2-  O420  1  0.56868775  0.41525872  0.22156726  1
  O2-  O421  1  0.58219779  0.41330743  0.55643825  1
  O2-  O422  1  0.57364132  0.42342396  0.88208554  1
  O2-  O423  1  0.59161795  0.92844806  0.21635387  1
  O2-  O424  1  0.56975391  0.91602120  0.58193830  1
  O2-  O425  1  0.55896594  0.91970695  0.86164161  1
  O2-  O426  1  0.92515262  0.41646618  0.24800037  1
  O2-  O427  1  0.93302138  0.41756621  0.55504448  1
  O2-  O428  1  0.93238575  0.41776628  0.87848700  1
  O2-  O429  1  0.92832643  0.92579943  0.21320794  1
  O2-  O430  1  0.92740320  0.92218027  0.55467812  1
  O2-  O431  1  0.92361448  0.92277453  0.87852666  1
  O2-  O432  1  0.00455620  -0.00589233  -0.00593477  1
  O2-  O433  1  0.00189315  -0.00202215  0.32495695  1
  O2-  O434  1  0.00663404  -0.01069161  0.66563577  1
  O2-  O435  1  0.02309774  0.49318865  -0.02411756  1
  O2-  O436  1  0.00203796  0.51259185  0.33415184  1
  O2-  O437  1  0.00255437  0.50053921  0.64505830  1
  O2-  O438  1  0.33187693  -0.02205077  0.00474136  1
  O2-  O439  1  0.30216296  0.00252168  0.38184466  1
  O2-  O440  1  0.33068577  -0.02192505  0.66850203  1
  O2-  O441  1  0.34584054  0.49615065  -0.01959775  1
  O2-  O442  1  0.30471516  0.50396401  0.38772535  1
  O2-  O443  1  0.33418686  0.49964161  0.65272502  1
  O2-  O444  1  0.65588994  -0.02205250  0.00071548  1
  O2-  O445  1  0.68942787  -0.00565458  0.31095327  1
  O2-  O446  1  0.63740870  0.01189582  0.72361813  1
  O2-  O447  1  0.64563990  0.51941414  0.02397279  1
  O2-  O448  1  0.66136033  0.50683865  0.34027248  1
  O2-  O449  1  0.66809030  0.51021354  0.66762294  1
  O2-  O450  1  0.16862291  -0.02022277  0.00213345  1
  O2-  O451  1  0.15681213  -0.02943421  0.33703317  1
  O2-  O452  1  0.17288579  -0.01508552  0.67112656  1
  O2-  O453  1  0.19336918  0.50084763  0.03574842  1
  O2-  O454  1  0.16069177  0.50633721  0.33470293  1
  O2-  O455  1  0.16544886  0.49343650  0.65167714  1
  O2-  O456  1  0.49518443  -0.02047449  -0.00372465  1
  O2-  O457  1  0.50383288  -0.00342632  0.31839536  1
  O2-  O458  1  0.49286026  -0.01441454  0.67632340  1
  O2-  O459  1  0.49521475  0.50110307  -0.01119785  1
  O2-  O460  1  0.48931090  0.51133088  0.32479574  1
  O2-  O461  1  0.49780953  0.48664787  0.64394263  1
  O2-  O462  1  0.80934621  0.01048455  -0.03828548  1
  O2-  O463  1  0.84203774  -0.00949086  0.35909651  1
  O2-  O464  1  0.84923130  -0.00113258  0.69045154  1
  O2-  O465  1  0.81371014  0.51304203  -0.01497046  1
  O2-  O466  1  0.84504427  0.52721838  0.35363908  1
  O2-  O467  1  0.83340663  0.51203385  0.67559283  1
  O2-  O468  1  0.42284214  0.75571415  0.07149197  1
  O2-  O469  1  0.42553504  0.25345531  0.72898640  1
  O2-  O470  1  0.07151633  0.25422906  0.05668923  1
  O2-  O471  1  0.75506721  0.74882104  0.05660266  1
  O2-  O472  1  0.08327442  0.74313830  0.72940747  1
  O2-  O473  1  0.91627345  0.74475199  0.28397443  1
  O2-  O474  1  0.75784279  0.24897510  0.72698242  1
  O2-  O475  1  0.08850579  0.74494001  0.05030054  1
  O2-  O476  1  0.91551288  0.25001916  0.60698621  1
  O2-  O477  1  0.07586438  0.75556194  0.39351873  1
  O2-  O478  1  0.91208215  0.75195719  0.93373652  1
  O2-  O479  1  0.24624159  0.25114304  0.27694702  1
  O2-  O480  1  0.92760472  0.25300192  0.26123982  1
  O2-  O481  1  0.08469661  0.25126997  0.39897997  1
  O2-  O482  1  0.57142898  0.25118348  0.27316419  1
  O2-  O483  1  0.91151373  0.74940885  0.61036279  1
  O2-  O484  1  0.75507352  0.75152527  0.38192677  1
  O2-  O485  1  0.73994981  0.25238481  0.05764973  1
  O2-  O486  1  0.92650926  0.25129768  0.94681590  1
  O2-  O487  1  0.58604659  0.25706153  0.93127270  1
  O2-  O488  1  0.59114979  0.74478454  0.26588895  1
  O2-  O489  1  0.42056746  0.25148691  0.38484873  1
  O2-  O490  1  0.76158761  0.75011360  0.72607468  1
  O2-  O491  1  0.24236586  0.74099534  0.95054358  1
  O2-  O492  1  0.24468982  0.74953405  0.27616994  1
