# generated using pymatgen
data_Ca108Mn108O277
_symmetry_space_group_name_H-M   'P 1'
_cell_length_a   16.02794954
_cell_length_b   22.30706172
_cell_length_c   16.38977933
_cell_angle_alpha   89.99953924
_cell_angle_beta   89.99867580
_cell_angle_gamma   90.00123653
_symmetry_Int_Tables_number   1
_chemical_formula_structural   Ca108Mn108O277
_chemical_formula_sum   'Ca108 Mn108 O277'
_cell_volume   5859.94367130
_cell_formula_units_Z   1
loop_
 _symmetry_equiv_pos_site_id
 _symmetry_equiv_pos_as_xyz
  1  'x, y, z'
loop_
 _atom_type_symbol
 _atom_type_oxidation_number
  Ca2+  2.0
  Mn3.34+  3.34
  O2-  -2.0
loop_
 _atom_site_type_symbol
 _atom_site_label
 _atom_site_symmetry_multiplicity
 _atom_site_fract_x
 _atom_site_fract_y
 _atom_site_fract_z
 _atom_site_occupancy
  Ca2+  Ca0  1  0.10318613  0.24483879  0.25684130  1
  Ca2+  Ca1  1  0.08585082  0.23197419  0.61172840  1
  Ca2+  Ca2  1  0.08064322  0.24688545  0.88452999  1
  Ca2+  Ca3  1  0.09431622  0.76123053  0.23842539  1
  Ca2+  Ca4  1  0.07538741  0.75390800  0.58776561  1
  Ca2+  Ca5  1  0.07067017  0.75305492  0.91597701  1
  Ca2+  Ca6  1  0.40491827  0.23898896  0.25417016  1
  Ca2+  Ca7  1  0.41729144  0.24164310  0.58116163  1
  Ca2+  Ca8  1  0.42526969  0.23851645  0.92295443  1
  Ca2+  Ca9  1  0.41604532  0.76568264  0.24835758  1
  Ca2+  Ca10  1  0.42513625  0.75393572  0.57871801  1
  Ca2+  Ca11  1  0.41123164  0.73734143  0.93298666  1
  Ca2+  Ca12  1  0.74093056  0.26740454  0.24313149  1
  Ca2+  Ca13  1  0.74763148  0.23617586  0.61401480  1
  Ca2+  Ca14  1  0.73767290  0.24780957  0.89951386  1
  Ca2+  Ca15  1  0.74177470  0.75165491  0.23945946  1
  Ca2+  Ca16  1  0.73823067  0.74810830  0.59689143  1
  Ca2+  Ca17  1  0.76337795  0.73279191  0.91324883  1
  Ca2+  Ca18  1  0.27972626  0.25686935  0.08145487  1
  Ca2+  Ca19  1  0.28272359  0.23948066  0.42555964  1
  Ca2+  Ca20  1  0.24283627  0.24665635  0.74089056  1
  Ca2+  Ca21  1  0.26429733  0.74754712  0.07293448  1
  Ca2+  Ca22  1  0.26599595  0.76097459  0.42690972  1
  Ca2+  Ca23  1  0.24973078  0.75646675  0.74835714  1
  Ca2+  Ca24  1  0.56947023  0.24295972  0.07004837  1
  Ca2+  Ca25  1  0.55863059  0.24572327  0.43507216  1
  Ca2+  Ca26  1  0.59366841  0.23885613  0.74835482  1
  Ca2+  Ca27  1  0.56971400  0.73822474  0.08496059  1
  Ca2+  Ca28  1  0.57146137  0.75163788  0.44334942  1
  Ca2+  Ca29  1  0.59527926  0.74576192  0.73574440  1
  Ca2+  Ca30  1  0.89545223  0.26126215  0.07259438  1
  Ca2+  Ca31  1  0.92005187  0.25743700  0.44283756  1
  Ca2+  Ca32  1  0.91237116  0.24819956  0.74122912  1
  Ca2+  Ca33  1  0.90974182  0.75747140  0.06486298  1
  Ca2+  Ca34  1  0.91410905  0.75416796  0.43877566  1
  Ca2+  Ca35  1  0.91292829  0.75532088  0.75151700  1
  Ca2+  Ca36  1  0.22504749  0.09441798  0.73729020  1
  Ca2+  Ca37  1  0.90226601  0.08412912  0.72005983  1
  Ca2+  Ca38  1  0.45536789  0.59433519  0.23174108  1
  Ca2+  Ca39  1  0.91234335  0.08417628  0.71826417  1
  Ca2+  Ca40  1  0.54755524  0.08310747  0.42698532  1
  Ca2+  Ca41  1  0.11185453  0.08711208  0.25777672  1
  Ca2+  Ca42  1  0.91224254  0.07936248  0.07566918  1
  Ca2+  Ca43  1  0.53755689  0.08129281  0.42563088  1
  Ca2+  Ca44  1  0.09381768  0.10014018  0.89829433  1
  Ca2+  Ca45  1  0.73068032  0.60745411  0.59428526  1
  Ca2+  Ca46  1  0.90208427  0.60055709  0.42831295  1
  Ca2+  Ca47  1  0.25043402  0.59762561  0.43164734  1
  Ca2+  Ca48  1  0.29177182  0.58213220  0.05071873  1
  Ca2+  Ca49  1  0.88994156  0.61759726  0.76306135  1
  Ca2+  Ca50  1  0.07348771  0.60246328  0.90540654  1
  Ca2+  Ca51  1  0.08403812  0.60228198  0.90570924  1
  Ca2+  Ca52  1  0.44110709  0.59423374  0.58469250  1
  Ca2+  Ca53  1  0.74147619  0.07356149  0.25504009  1
  Ca2+  Ca54  1  0.71710985  0.57814275  0.24850275  1
  Ca2+  Ca55  1  0.62463675  0.60620630  0.75352822  1
  Ca2+  Ca56  1  0.89120750  0.58860734  0.06590271  1
  Ca2+  Ca57  1  0.07066937  0.59097061  0.25389629  1
  Ca2+  Ca58  1  0.27722200  0.11557913  0.09953518  1
  Ca2+  Ca59  1  0.91028437  0.07595130  0.44398894  1
  Ca2+  Ca60  1  0.70622243  0.57853545  0.24232792  1
  Ca2+  Ca61  1  0.59169067  0.60435948  0.43075341  1
  Ca2+  Ca62  1  0.28124093  0.12145070  0.09419968  1
  Ca2+  Ca63  1  0.29188726  0.09719945  0.42517985  1
  Ca2+  Ca64  1  0.08205988  0.58904163  0.24792506  1
  Ca2+  Ca65  1  0.39158030  0.09968724  0.26884674  1
  Ca2+  Ca66  1  0.44885625  0.59056961  0.22503698  1
  Ca2+  Ca67  1  0.90317381  0.58752061  0.06278739  1
  Ca2+  Ca68  1  0.75428912  0.07336756  0.25483375  1
  Ca2+  Ca69  1  0.07916469  0.59473937  0.59792348  1
  Ca2+  Ca70  1  0.26325067  0.59683774  0.43242466  1
  Ca2+  Ca71  1  0.40572182  0.09499795  0.58037574  1
  Ca2+  Ca72  1  0.58605674  0.89485394  0.09365555  1
  Ca2+  Ca73  1  0.59217675  0.41321996  0.41035614  1
  Ca2+  Ca74  1  0.75087667  0.40820981  0.59062070  1
  Ca2+  Ca75  1  0.89139162  0.41374654  0.08155106  1
  Ca2+  Ca76  1  0.07582864  0.90655003  0.58621143  1
  Ca2+  Ca77  1  0.60300963  0.42130159  0.08765229  1
  Ca2+  Ca78  1  0.41208901  0.40498416  0.58234825  1
  Ca2+  Ca79  1  0.90899897  0.90170294  0.42137416  1
  Ca2+  Ca80  1  0.06821954  0.90378871  0.91383520  1
  Ca2+  Ca81  1  0.27765355  0.92058224  0.42127397  1
  Ca2+  Ca82  1  0.24180036  0.91545902  0.73054022  1
  Ca2+  Ca83  1  0.07792828  0.39627044  0.23988032  1
  Ca2+  Ca84  1  0.40970636  0.41392328  0.92335456  1
  Ca2+  Ca85  1  0.24660728  0.90060746  0.08435454  1
  Ca2+  Ca86  1  0.56003420  0.92119087  0.40635112  1
  Ca2+  Ca87  1  0.74191835  0.40896419  0.92235021  1
  Ca2+  Ca88  1  0.09913175  0.40713844  0.59656299  1
  Ca2+  Ca89  1  0.07505540  0.90267226  0.25558474  1
  Ca2+  Ca90  1  0.09076062  0.39685098  0.24130319  1
  Ca2+  Ca91  1  0.91204237  0.40578517  0.41689333  1
  Ca2+  Ca92  1  0.42070306  0.41410090  0.92227680  1
  Ca2+  Ca93  1  0.08827815  0.40722330  0.59655026  1
  Ca2+  Ca94  1  0.25911463  0.41320493  0.06656462  1
  Ca2+  Ca95  1  0.58442948  0.40811972  0.75079828  1
  Ca2+  Ca96  1  0.59956940  0.90619773  0.73996929  1
  Ca2+  Ca97  1  0.75147674  0.90679140  0.26216647  1
  Ca2+  Ca98  1  0.76119334  0.89840030  0.91126103  1
  Ca2+  Ca99  1  0.43662138  0.41062592  0.24242299  1
  Ca2+  Ca100  1  0.42702099  0.40632574  0.24464558  1
  Ca2+  Ca101  1  0.40757580  0.89629803  0.91315735  1
  Ca2+  Ca102  1  0.89914142  0.40514338  0.41689038  1
  Ca2+  Ca103  1  0.58112620  0.41189725  0.40969708  1
  Ca2+  Ca104  1  0.42014256  0.89521487  0.91420943  1
  Ca2+  Ca105  1  0.76401581  0.90762283  0.26196547  1
  Ca2+  Ca106  1  0.09441821  0.39769327  0.90995775  1
  Ca2+  Ca107  1  0.41482192  0.91278752  0.57640990  1
  Mn3.34+  Mn108  1  0.08568106  0.32512611  0.07970457  1
  Mn3.34+  Mn109  1  0.09057584  0.33149169  0.42133058  1
  Mn3.34+  Mn110  1  0.08231515  0.33231321  0.75287055  1
  Mn3.34+  Mn111  1  0.07920731  0.83253859  0.08111599  1
  Mn3.34+  Mn112  1  0.08601645  0.82610335  0.41816177  1
  Mn3.34+  Mn113  1  0.07787651  0.83958214  0.75073368  1
  Mn3.34+  Mn114  1  0.42218748  0.33480843  0.08511325  1
  Mn3.34+  Mn115  1  0.41471457  0.33429554  0.41846942  1
  Mn3.34+  Mn116  1  0.41398257  0.33317601  0.75046933  1
  Mn3.34+  Mn117  1  0.41844372  0.82993448  0.08844548  1
  Mn3.34+  Mn118  1  0.41889968  0.83812038  0.41584721  1
  Mn3.34+  Mn119  1  0.41886060  0.83314335  0.74379947  1
  Mn3.34+  Mn120  1  0.74473433  0.33753266  0.08229369  1
  Mn3.34+  Mn121  1  0.74563404  0.33141941  0.41671481  1
  Mn3.34+  Mn122  1  0.75177232  0.33596159  0.75388372  1
  Mn3.34+  Mn123  1  0.75018616  0.82959242  0.08154956  1
  Mn3.34+  Mn124  1  0.74621711  0.82648481  0.42281029  1
  Mn3.34+  Mn125  1  0.75439422  0.84199249  0.75027545  1
  Mn3.34+  Mn126  1  0.25525969  0.32794879  0.24862657  1
  Mn3.34+  Mn127  1  0.25441243  0.33105785  0.58558981  1
  Mn3.34+  Mn128  1  0.25267535  0.32812739  0.90991980  1
  Mn3.34+  Mn129  1  0.25137470  0.83926847  0.25041963  1
  Mn3.34+  Mn130  1  0.24846056  0.83670742  0.58048782  1
  Mn3.34+  Mn131  1  0.24350934  0.83302758  0.91097307  1
  Mn3.34+  Mn132  1  0.58792736  0.33545755  0.24526174  1
  Mn3.34+  Mn133  1  0.58189597  0.33308501  0.58744814  1
  Mn3.34+  Mn134  1  0.58295095  0.33626839  0.91548073  1
  Mn3.34+  Mn135  1  0.58320210  0.83855972  0.25037860  1
  Mn3.34+  Mn136  1  0.58618613  0.83724406  0.58242284  1
  Mn3.34+  Mn137  1  0.58936751  0.82676597  0.91091443  1
  Mn3.34+  Mn138  1  0.91386701  0.33036383  0.24458106  1
  Mn3.34+  Mn139  1  0.91419897  0.33541893  0.59001302  1
  Mn3.34+  Mn140  1  0.91487685  0.33257554  0.91400348  1
  Mn3.34+  Mn141  1  0.91673683  0.82945537  0.24951545  1
  Mn3.34+  Mn142  1  0.91096816  0.83925004  0.58765630  1
  Mn3.34+  Mn143  1  0.91391569  0.82904484  0.91371314  1
  Mn3.34+  Mn144  1  0.91921319  0.16535645  0.58641312  1
  Mn3.34+  Mn145  1  0.90984224  0.16907222  0.24782819  1
  Mn3.34+  Mn146  1  0.58213097  0.16741805  0.91248098  1
  Mn3.34+  Mn147  1  0.25222550  0.16152845  0.58654170  1
  Mn3.34+  Mn148  1  0.74218059  0.16589657  0.42607841  1
  Mn3.34+  Mn149  1  0.58510619  0.65697627  0.91911941  1
  Mn3.34+  Mn150  1  0.74847768  0.67502965  0.42116038  1
  Mn3.34+  Mn151  1  0.25013553  0.66783388  0.91373854  1
  Mn3.34+  Mn152  1  0.58366680  0.68184188  0.25633899  1
  Mn3.34+  Mn153  1  0.90352720  0.15833534  0.91070799  1
  Mn3.34+  Mn154  1  0.74180785  0.66607742  0.08089137  1
  Mn3.34+  Mn155  1  0.75324719  0.16170844  0.42832961  1
  Mn3.34+  Mn156  1  0.74308606  0.17003300  0.07576502  1
  Mn3.34+  Mn157  1  0.09223585  0.16345615  0.42290639  1
  Mn3.34+  Mn158  1  0.91402103  0.16305443  0.91172406  1
  Mn3.34+  Mn159  1  0.57709937  0.15877497  0.24220459  1
  Mn3.34+  Mn160  1  0.41772379  0.17048525  0.75404730  1
  Mn3.34+  Mn161  1  0.25100159  0.67189694  0.59027749  1
  Mn3.34+  Mn162  1  0.25656100  0.16529953  0.90578209  1
  Mn3.34+  Mn163  1  0.08367939  0.67024756  0.74894712  1
  Mn3.34+  Mn164  1  0.42274748  0.66266860  0.75304136  1
  Mn3.34+  Mn165  1  0.26430579  0.67202284  0.24673258  1
  Mn3.34+  Mn166  1  0.24984920  0.66585917  0.24411871  1
  Mn3.34+  Mn167  1  0.58042393  0.16116716  0.59385228  1
  Mn3.34+  Mn168  1  0.91892749  0.16324848  0.24481385  1
  Mn3.34+  Mn169  1  0.07726362  0.17426364  0.08033855  1
  Mn3.34+  Mn170  1  0.08543009  0.18056859  0.07822227  1
  Mn3.34+  Mn171  1  0.40991909  0.65866681  0.75729619  1
  Mn3.34+  Mn172  1  0.08546971  0.67886917  0.42095172  1
  Mn3.34+  Mn173  1  0.08383898  0.66796620  0.08210120  1
  Mn3.34+  Mn174  1  0.91053088  0.68323388  0.25064907  1
  Mn3.34+  Mn175  1  0.58861738  0.16699181  0.24506371  1
  Mn3.34+  Mn176  1  0.91396422  0.67094840  0.58651176  1
  Mn3.34+  Mn177  1  0.91815069  0.67657038  0.24931433  1
  Mn3.34+  Mn178  1  0.08185286  0.16844299  0.42219396  1
  Mn3.34+  Mn179  1  0.42120182  0.66746502  0.42111133  1
  Mn3.34+  Mn180  1  0.74212650  0.00092970  0.07331788  1
  Mn3.34+  Mn181  1  0.58275895  0.49979280  0.59834036  1
  Mn3.34+  Mn182  1  0.08482239  0.49828542  0.74477448  1
  Mn3.34+  Mn183  1  0.58054603  0.00764681  0.89970937  1
  Mn3.34+  Mn184  1  0.90168704  0.50252245  0.90492899  1
  Mn3.34+  Mn185  1  0.60390592  -0.00106985  0.60341255  1
  Mn3.34+  Mn186  1  0.08004431  -0.00287205  0.72867762  1
  Mn3.34+  Mn187  1  0.07641758  -0.00434538  0.42634396  1
  Mn3.34+  Mn188  1  0.08627018  -0.00112635  0.08335515  1
  Mn3.34+  Mn189  1  0.26015598  -0.00548919  0.25964979  1
  Mn3.34+  Mn190  1  0.27342825  0.50322931  0.23592357  1
  Mn3.34+  Mn191  1  0.40444051  0.49814956  0.73792578  1
  Mn3.34+  Mn192  1  0.07531448  0.00315991  0.08006299  1
  Mn3.34+  Mn193  1  0.07994100  0.50568851  0.42106316  1
  Mn3.34+  Mn194  1  0.24940034  0.50083129  0.90757562  1
  Mn3.34+  Mn195  1  0.74770923  -0.00365631  0.42104341  1
  Mn3.34+  Mn196  1  0.41779791  0.50246578  0.41045972  1
  Mn3.34+  Mn197  1  0.58446342  0.50403864  0.93528721  1
  Mn3.34+  Mn198  1  0.08701477  0.00050385  0.42624478  1
  Mn3.34+  Mn199  1  0.91352362  0.50425909  0.59230928  1
  Mn3.34+  Mn200  1  0.41253302  0.00860095  0.74474096  1
  Mn3.34+  Mn201  1  0.59208621  0.00135225  0.89745641  1
  Mn3.34+  Mn202  1  0.42838022  0.00892551  0.74650734  1
  Mn3.34+  Mn203  1  0.75279340  -0.00439170  0.07371992  1
  Mn3.34+  Mn204  1  0.08819963  0.49876739  0.07617316  1
  Mn3.34+  Mn205  1  0.90121169  0.49999964  0.24956504  1
  Mn3.34+  Mn206  1  0.43441753  0.00344954  0.08633384  1
  Mn3.34+  Mn207  1  0.91335120  -0.00478477  0.90594312  1
  Mn3.34+  Mn208  1  0.25462893  0.00014535  0.91659322  1
  Mn3.34+  Mn209  1  0.75037211  0.50408966  0.41979035  1
  Mn3.34+  Mn210  1  0.09424541  0.49920338  0.41968294  1
  Mn3.34+  Mn211  1  0.91310797  0.49816041  0.90465797  1
  Mn3.34+  Mn212  1  0.26191642  0.50119350  0.23540674  1
  Mn3.34+  Mn213  1  0.25432991  0.50043241  0.59602775  1
  Mn3.34+  Mn214  1  0.42268875  -0.00394306  0.08802662  1
  Mn3.34+  Mn215  1  0.75790883  0.49917160  0.74462987  1
  O2-  O216  1  -0.00039843  0.14997072  -0.00506045  1
  O2-  O217  1  0.00458946  0.15269703  0.32960997  1
  O2-  O218  1  -0.00676823  0.15989578  0.66818679  1
  O2-  O219  1  0.00169107  0.64768715  0.00775633  1
  O2-  O220  1  0.00405582  0.66097044  0.33154551  1
  O2-  O221  1  -0.00350730  0.66233149  0.66892660  1
  O2-  O222  1  0.32581216  0.17548129  -0.00334810  1
  O2-  O223  1  0.32686783  0.17072178  0.33380332  1
  O2-  O224  1  0.32961864  0.15481196  0.67519383  1
  O2-  O225  1  0.32970811  0.66213087  -0.00911104  1
  O2-  O226  1  0.33677795  0.64325538  0.33378465  1
  O2-  O227  1  0.33858128  0.64571920  0.66522160  1
  O2-  O228  1  0.66426896  0.16440445  -0.00130278  1
  O2-  O229  1  0.66681065  0.14413808  0.33024536  1
  O2-  O230  1  0.66061760  0.16683647  0.66657533  1
  O2-  O231  1  0.66389706  0.67073881  -0.00029468  1
  O2-  O232  1  0.67432506  0.66363588  0.32859068  1
  O2-  O233  1  0.67338228  0.67558611  0.67194935  1
  O2-  O234  1  0.16959329  0.16213676  -0.00152622  1
  O2-  O235  1  0.16417193  0.16105781  0.33491351  1
  O2-  O236  1  0.17112202  0.16529725  0.66543362  1
  O2-  O237  1  0.16444566  0.64908679  0.00208371  1
  O2-  O238  1  0.17035007  0.65646645  0.33390022  1
  O2-  O239  1  0.15757040  0.67640860  0.65901164  1
  O2-  O240  1  0.50483261  0.16499163  -0.00784869  1
  O2-  O241  1  0.50230697  0.15037911  0.32896278  1
  O2-  O242  1  0.48995199  0.15321445  0.66453765  1
  O2-  O243  1  0.51107055  0.68223350  -0.00958408  1
  O2-  O244  1  0.50250314  0.65055124  0.33635504  1
  O2-  O245  1  0.50569436  0.65345639  0.68217414  1
  O2-  O246  1  0.84196300  0.15047732  0.00622266  1
  O2-  O247  1  0.83049535  0.14800766  0.33458703  1
  O2-  O248  1  0.83848243  0.16641618  0.66291079  1
  O2-  O249  1  0.82919246  0.65842321  0.00835812  1
  O2-  O250  1  0.83705318  0.67915858  0.34166258  1
  O2-  O251  1  0.82976174  0.66528632  0.65668211  1
  O2-  O252  1  -0.00197438  0.33875001  0.00549600  1
  O2-  O253  1  -0.00273020  0.34413717  0.33121687  1
  O2-  O254  1  0.00367913  0.34899294  0.66418899  1
  O2-  O255  1  0.00057543  0.83753433  -0.00471244  1
  O2-  O256  1  0.00072976  0.81354540  0.33122983  1
  O2-  O257  1  0.00404084  0.83493283  0.66292569  1
  O2-  O258  1  0.33498305  0.34355674  0.00027336  1
  O2-  O259  1  0.34267819  0.34801799  0.32371791  1
  O2-  O260  1  0.33488620  0.34548717  0.66625756  1
  O2-  O261  1  0.33270319  0.84686285  0.00086705  1
  O2-  O262  1  0.32913911  0.84476785  0.33968396  1
  O2-  O263  1  0.33148029  0.85347240  0.66532759  1
  O2-  O264  1  0.66339874  0.34981160  -0.00078692  1
  O2-  O265  1  0.66830524  0.35101444  0.32947639  1
  O2-  O266  1  0.66754608  0.34832043  0.66603937  1
  O2-  O267  1  0.66700889  0.84457967  -0.00061605  1
  O2-  O268  1  0.67274658  0.82072615  0.32690176  1
  O2-  O269  1  0.66738808  0.83191180  0.66993207  1
  O2-  O270  1  0.17034188  0.31686915  -0.00277475  1
  O2-  O271  1  0.16380433  0.33196598  0.32405298  1
  O2-  O272  1  0.16423668  0.33782492  0.66787797  1
  O2-  O273  1  0.16289983  0.85309144  -0.00484991  1
  O2-  O274  1  0.16086405  0.83810336  0.32872635  1
  O2-  O275  1  0.16384555  0.83556164  0.66586169  1
  O2-  O276  1  0.50282675  0.35753110  0.00429078  1
  O2-  O277  1  0.50564814  0.35016910  0.33484436  1
  O2-  O278  1  0.49928281  0.35291540  0.66775185  1
  O2-  O279  1  0.50119800  0.83889935  -0.00362415  1
  O2-  O280  1  0.50651996  0.83025307  0.33560553  1
  O2-  O281  1  0.50095116  0.85543982  0.66325715  1
  O2-  O282  1  0.83229205  0.34543627  0.00099083  1
  O2-  O283  1  0.83865837  0.33555101  0.33764607  1
  O2-  O284  1  0.83012981  0.34174167  0.66624285  1
  O2-  O285  1  0.83336581  0.84109374  0.00194959  1
  O2-  O286  1  0.83444808  0.81448659  0.33536890  1
  O2-  O287  1  0.82908713  0.82255327  0.67093679  1
  O2-  O288  1  -0.00217673  0.19450329  0.16488791  1
  O2-  O289  1  0.00263977  0.17743557  0.50057137  1
  O2-  O290  1  -0.00257827  0.17242577  0.83657163  1
  O2-  O291  1  0.00250335  0.68730217  0.16772562  1
  O2-  O292  1  0.00071267  0.67940110  0.49943439  1
  O2-  O293  1  0.00912000  0.67860848  0.83182968  1
  O2-  O294  1  0.32599008  0.18685553  0.17016730  1
  O2-  O295  1  0.33781838  0.17453678  0.51139664  1
  O2-  O296  1  0.33343930  0.19238211  0.83021206  1
  O2-  O297  1  0.34095299  0.66075132  0.16366990  1
  O2-  O298  1  0.33064966  0.67337499  0.49584614  1
  O2-  O299  1  0.32817547  0.68295838  0.82622916  1
  O2-  O300  1  0.67514235  0.18194887  0.17570731  1
  O2-  O301  1  0.65713029  0.17344666  0.50169652  1
  O2-  O302  1  0.66255956  0.18099862  0.83763313  1
  O2-  O303  1  0.66723697  0.67595078  0.17307443  1
  O2-  O304  1  0.66721322  0.68280936  0.49353862  1
  O2-  O305  1  0.65284138  0.68592699  0.84326795  1
  O2-  O306  1  0.16632748  0.18187275  0.16291745  1
  O2-  O307  1  0.17480092  0.18366788  0.49909471  1
  O2-  O308  1  0.17124832  0.17889915  0.83620998  1
  O2-  O309  1  0.15824902  0.68103510  0.17184503  1
  O2-  O310  1  0.17880864  0.68388010  0.49212417  1
  O2-  O311  1  0.16014816  0.68403225  0.83729966  1
  O2-  O312  1  0.49879757  0.18007632  0.17093181  1
  O2-  O313  1  0.50255090  0.16628877  0.50425403  1
  O2-  O314  1  0.50117425  0.18666946  0.82927183  1
  O2-  O315  1  0.49639879  0.68596569  0.18595546  1
  O2-  O316  1  0.49623745  0.67349289  0.50005157  1
  O2-  O317  1  0.49736241  0.68008674  0.83653657  1
  O2-  O318  1  0.83093288  0.19314575  0.16756133  1
  O2-  O319  1  0.84665284  0.18049797  0.49335880  1
  O2-  O320  1  0.83295815  0.17333225  0.82642604  1
  O2-  O321  1  0.82913169  0.68409996  0.16846143  1
  O2-  O322  1  0.83381064  0.68117557  0.50008961  1
  O2-  O323  1  0.83197960  0.69309938  0.81634118  1
  O2-  O324  1  0.00933887  0.31131515  0.17346409  1
  O2-  O325  1  -0.00681868  0.33890311  0.49658089  1
  O2-  O326  1  0.00408936  0.32632089  0.84035705  1
  O2-  O327  1  -0.00274907  0.81543392  0.16887777  1
  O2-  O328  1  0.00389189  0.81715702  0.49636933  1
  O2-  O329  1  0.00115443  0.81925500  0.83286319  1
  O2-  O330  1  0.33750611  0.32109541  0.16936268  1
  O2-  O331  1  0.33652390  0.32512115  0.50218987  1
  O2-  O332  1  0.34233314  0.31663682  0.84219943  1
  O2-  O333  1  0.32895853  0.82633694  0.16369337  1
  O2-  O334  1  0.33671011  0.82967392  0.50226343  1
  O2-  O335  1  0.33606973  0.82415968  0.83431274  1
  O2-  O336  1  0.65699781  0.32001302  0.15723261  1
  O2-  O337  1  0.65863263  0.33334882  0.49147578  1
  O2-  O338  1  0.66221821  0.32917077  0.83370697  1
  O2-  O339  1  0.66166108  0.81502160  0.16443569  1
  O2-  O340  1  0.66413796  0.81650096  0.49920465  1
  O2-  O341  1  0.66896926  0.81236333  0.82868986  1
  O2-  O342  1  0.16880317  0.30929466  0.16746031  1
  O2-  O343  1  0.15579379  0.32730529  0.51519011  1
  O2-  O344  1  0.16762146  0.31682359  0.83306862  1
  O2-  O345  1  0.16798095  0.82352113  0.16149574  1
  O2-  O346  1  0.16688038  0.80951142  0.50046597  1
  O2-  O347  1  0.16277128  0.81987338  0.82934343  1
  O2-  O348  1  0.49312195  0.32452389  0.17850078  1
  O2-  O349  1  0.50204600  0.33056939  0.49690953  1
  O2-  O350  1  0.49518574  0.33455553  0.84142413  1
  O2-  O351  1  0.50542994  0.81860225  0.16714474  1
  O2-  O352  1  0.49828304  0.82963337  0.50067635  1
  O2-  O353  1  0.49513356  0.81860233  0.83865259  1
  O2-  O354  1  0.83280951  0.32156563  0.16350843  1
  O2-  O355  1  0.83322586  0.32745760  0.49901862  1
  O2-  O356  1  0.82911810  0.32168375  0.83983267  1
  O2-  O357  1  0.82727791  0.82006407  0.17606688  1
  O2-  O358  1  0.83389245  0.82459007  0.49796040  1
  O2-  O359  1  0.82757652  0.82038478  0.83530239  1
  O2-  O360  1  0.06429863  0.08381309  0.12433142  1
  O2-  O361  1  0.07756341  0.08158284  0.45540646  1
  O2-  O362  1  0.07873015  0.06499517  0.77835993  1
  O2-  O363  1  0.07383470  0.58011980  0.12110540  1
  O2-  O364  1  0.10376063  0.58548754  0.44646641  1
  O2-  O365  1  0.07863097  0.57914071  0.77107732  1
  O2-  O366  1  0.40349752  0.07825610  0.12876730  1
  O2-  O367  1  0.41733515  0.06663320  0.45314541  1
  O2-  O368  1  0.40550715  0.08678640  0.78501905  1
  O2-  O369  1  0.36093297  0.53611854  0.16057548  1
  O2-  O370  1  0.40467994  0.58113173  0.45128182  1
  O2-  O371  1  0.41455451  0.57788347  0.78069757  1
  O2-  O372  1  0.75462025  0.08058331  0.11758409  1
  O2-  O373  1  0.76477860  0.07774533  0.45296469  1
  O2-  O374  1  0.78209186  0.06102172  0.76809981  1
  O2-  O375  1  0.76901335  0.58075835  0.12442453  1
  O2-  O376  1  0.75253786  0.58545888  0.43842885  1
  O2-  O377  1  0.76057317  0.57420542  0.77677313  1
  O2-  O378  1  0.23880981  0.06657262  0.20513050  1
  O2-  O379  1  0.25829651  0.08330039  0.56252748  1
  O2-  O380  1  0.23803152  0.07914281  0.88511874  1
  O2-  O381  1  0.21773040  0.58338197  0.21607631  1
  O2-  O382  1  0.23720371  0.58202983  0.56195966  1
  O2-  O383  1  0.22716539  0.58342526  0.89283551  1
  O2-  O384  1  0.60321630  0.08060882  0.21640000  1
  O2-  O385  1  0.58648833  0.07311974  0.55935746  1
  O2-  O386  1  0.58689685  0.08687414  0.88759666  1
  O2-  O387  1  0.58270068  0.57807570  0.21668292  1
  O2-  O388  1  0.58624810  0.57291766  0.55726126  1
  O2-  O389  1  0.58749059  0.57401924  0.88493266  1
  O2-  O390  1  0.89179649  0.08104930  0.20946895  1
  O2-  O391  1  0.91527068  0.08285901  0.57512928  1
  O2-  O392  1  0.92576232  0.07640409  0.87412312  1
  O2-  O393  1  0.92762036  0.58597983  0.21609740  1
  O2-  O394  1  0.92590171  0.58407522  0.56028162  1
  O2-  O395  1  0.93110668  0.58392637  0.88882352  1
  O2-  O396  1  0.09754486  0.41505546  0.10942205  1
  O2-  O397  1  0.07257626  0.41813057  0.42530055  1
  O2-  O398  1  0.09251602  0.41817668  0.77146673  1
  O2-  O399  1  0.07653745  0.91902990  0.11948289  1
  O2-  O400  1  0.08099636  0.91305440  0.43693423  1
  O2-  O401  1  0.09459645  0.92904774  0.78297094  1
  O2-  O402  1  0.40033761  0.41863847  0.11434962  1
  O2-  O403  1  0.43683930  0.42226512  0.43856842  1
  O2-  O404  1  0.41106209  0.42075959  0.78589083  1
  O2-  O405  1  0.43725134  0.91582563  0.10769156  1
  O2-  O406  1  0.41789403  0.91828515  0.43675207  1
  O2-  O407  1  0.42566565  0.92766193  0.78751568  1
  O2-  O408  1  0.75051345  0.41662091  0.10431217  1
  O2-  O409  1  0.76018232  0.42191285  0.44401690  1
  O2-  O410  1  0.74402669  0.42262597  0.78243528  1
  O2-  O411  1  0.74563647  0.91791050  0.12317783  1
  O2-  O412  1  0.75497682  0.91375502  0.40052947  1
  O2-  O413  1  0.73582386  0.91639960  0.78192454  1
  O2-  O414  1  0.23206779  0.41799599  0.21426208  1
  O2-  O415  1  0.23751201  0.41999686  0.56355327  1
  O2-  O416  1  0.25122794  0.41753505  0.89922793  1
  O2-  O417  1  0.23067880  0.92176577  0.22018188  1
  O2-  O418  1  0.23022093  0.91508811  0.55304390  1
  O2-  O419  1  0.26846021  0.91919468  0.88337737  1
  O2-  O420  1  0.57286248  0.41828458  0.22652233  1
  O2-  O421  1  0.58772926  0.42703508  0.54723725  1
  O2-  O422  1  0.58137490  0.42966078  0.88540767  1
  O2-  O423  1  0.61844507  0.91948365  0.23129080  1
  O2-  O424  1  0.58863883  0.92741845  0.55003261  1
  O2-  O425  1  0.57256843  0.91928446  0.87834678  1
  O2-  O426  1  0.94278688  0.42117417  0.21518852  1
  O2-  O427  1  0.90980022  0.42577735  0.55078079  1
  O2-  O428  1  0.91668031  0.41608408  0.90064519  1
  O2-  O429  1  0.90584991  0.91013578  0.25699446  1
  O2-  O430  1  0.93420731  0.91606954  0.55245755  1
  O2-  O431  1  0.91566162  0.91438057  0.89268068  1
  O2-  O432  1  0.00440805  0.00821690  -0.01263141  1
  O2-  O433  1  -0.00984194  0.01013344  0.35220431  1
  O2-  O434  1  -0.00811426  -0.00260262  0.67363027  1
  O2-  O435  1  -0.00290472  0.51172903  -0.00499794  1
  O2-  O436  1  0.01061323  0.51679287  0.32036554  1
  O2-  O437  1  0.01076617  0.49305896  0.64813424  1
  O2-  O438  1  0.33614628  -0.00600984  0.00605138  1
  O2-  O439  1  0.32865937  0.01621626  0.33611932  1
  O2-  O440  1  0.33305020  -0.01081662  0.67096051  1
  O2-  O441  1  0.33335175  0.49415885  -0.01536060  1
  O2-  O442  1  0.31373936  0.51194742  0.34998254  1
  O2-  O443  1  0.36559278  0.50186187  0.61942898  1
  O2-  O444  1  0.66680692  -0.01450627  -0.01220901  1
  O2-  O445  1  0.66007347  0.01594033  0.35243553  1
  O2-  O446  1  0.66090376  -0.00896123  0.68776463  1
  O2-  O447  1  0.66652159  0.48843433  -0.00385180  1
  O2-  O448  1  0.65596266  0.50766276  0.34962452  1
  O2-  O449  1  0.66366963  0.50370372  0.67490304  1
  O2-  O450  1  0.17086221  -0.00625984  0.00257829  1
  O2-  O451  1  0.15988853  0.00069119  0.33046100  1
  O2-  O452  1  0.16821402  -0.00119474  0.67389845  1
  O2-  O453  1  0.15936243  0.49781760  -0.01945095  1
  O2-  O454  1  0.16046293  0.50489626  0.31464095  1
  O2-  O455  1  0.15156513  0.50015684  0.64437897  1
  O2-  O456  1  0.50239216  -0.00842485  -0.00966180  1
  O2-  O457  1  0.51462835  0.00492426  0.35115743  1
  O2-  O458  1  0.49648272  -0.00460176  0.65558261  1
  O2-  O459  1  0.49777456  0.48645976  -0.00688000  1
  O2-  O460  1  0.47236737  0.50198509  0.30421970  1
  O2-  O461  1  0.50851431  0.49051180  0.67886624  1
  O2-  O462  1  0.83867352  0.01070511  -0.00239131  1
  O2-  O463  1  0.81207560  0.00221304  0.31893541  1
  O2-  O464  1  0.82160538  0.00870859  0.68010864  1
  O2-  O465  1  0.84202735  0.50605404  0.00562694  1
  O2-  O466  1  0.85821308  0.49972251  0.36665879  1
  O2-  O467  1  0.81232645  0.50264328  0.64067493  1
  O2-  O468  1  0.25526863  0.75344924  0.27184303  1
  O2-  O469  1  0.42766316  0.25807090  0.06073663  1
  O2-  O470  1  0.06539555  0.25006656  0.39627290  1
  O2-  O471  1  0.92256694  0.75149953  0.59637588  1
  O2-  O472  1  0.42429314  0.25236888  0.72121351  1
  O2-  O473  1  0.58869232  0.24814410  0.27959229  1
  O2-  O474  1  0.91628455  0.75019890  0.93035911  1
  O2-  O475  1  0.56955816  0.75817867  0.59662958  1
  O2-  O476  1  0.07034538  0.25435630  0.74143398  1
  O2-  O477  1  0.75057712  0.25258237  0.05443675  1
  O2-  O478  1  0.27352122  0.75209409  0.60613196  1
  O2-  O479  1  0.09169734  0.74818581  0.05634684  1
  O2-  O480  1  0.91470950  0.24704379  0.93612920  1
  O2-  O481  1  0.92784504  0.25312373  0.59414835  1
  O2-  O482  1  0.24865896  0.75197522  0.93776102  1
  O2-  O483  1  0.42136936  0.25622982  0.39864653  1
  O2-  O484  1  0.41481791  0.74502684  0.72058250  1
  O2-  O485  1  0.58082624  0.25584494  0.93378757  1
  O2-  O486  1  0.75537765  0.74939909  0.06534379  1
  O2-  O487  1  0.74322724  0.24610350  0.39043242  1
  O2-  O488  1  0.25739493  0.25101345  0.60049910  1
  O2-  O489  1  0.57795756  0.24982943  0.59517034  1
  O2-  O490  1  0.74788293  0.25675147  0.74393244  1
  O2-  O491  1  0.41183615  0.74899430  0.39739623  1
  O2-  O492  1  0.40932387  0.75321008  0.07124982  1
