# generated using pymatgen
data_Ca108Mn108O277
_symmetry_space_group_name_H-M   'P 1'
_cell_length_a   16.02476544
_cell_length_b   22.30411303
_cell_length_c   16.38709326
_cell_angle_alpha   89.99990660
_cell_angle_beta   90.00284575
_cell_angle_gamma   90.00813159
_symmetry_Int_Tables_number   1
_chemical_formula_structural   Ca108Mn108O277
_chemical_formula_sum   'Ca108 Mn108 O277'
_cell_volume   5857.04497539
_cell_formula_units_Z   1
loop_
 _symmetry_equiv_pos_site_id
 _symmetry_equiv_pos_as_xyz
  1  'x, y, z'
loop_
 _atom_type_symbol
 _atom_type_oxidation_number
  Ca2+  2.0
  Mn3.34+  3.34
  O2-  -2.0
loop_
 _atom_site_type_symbol
 _atom_site_label
 _atom_site_symmetry_multiplicity
 _atom_site_fract_x
 _atom_site_fract_y
 _atom_site_fract_z
 _atom_site_occupancy
  Ca2+  Ca0  1  0.09376544  0.24867899  0.22748099  1
  Ca2+  Ca1  1  0.06377312  0.24091564  0.58939008  1
  Ca2+  Ca2  1  0.08021381  0.24192597  0.92487190  1
  Ca2+  Ca3  1  0.09688617  0.74529342  0.23335239  1
  Ca2+  Ca4  1  0.10641695  0.74196929  0.60287100  1
  Ca2+  Ca5  1  0.08523018  0.76505230  0.92064121  1
  Ca2+  Ca6  1  0.39964602  0.26008573  0.24176009  1
  Ca2+  Ca7  1  0.42271431  0.26870071  0.57763850  1
  Ca2+  Ca8  1  0.42486007  0.25846506  0.92101855  1
  Ca2+  Ca9  1  0.38134426  0.73180597  0.25762542  1
  Ca2+  Ca10  1  0.40990750  0.73628434  0.59872409  1
  Ca2+  Ca11  1  0.42411670  0.74367908  0.89005406  1
  Ca2+  Ca12  1  0.75855728  0.25883155  0.24502504  1
  Ca2+  Ca13  1  0.76745943  0.25687215  0.58768550  1
  Ca2+  Ca14  1  0.74515762  0.25727065  0.92006369  1
  Ca2+  Ca15  1  0.75530021  0.74982390  0.24549253  1
  Ca2+  Ca16  1  0.74260262  0.72824360  0.59562558  1
  Ca2+  Ca17  1  0.73794355  0.74719897  0.89562219  1
  Ca2+  Ca18  1  0.23823061  0.24469833  0.08817963  1
  Ca2+  Ca19  1  0.24762510  0.26048530  0.40749927  1
  Ca2+  Ca20  1  0.23881521  0.25621803  0.75109757  1
  Ca2+  Ca21  1  0.24086367  0.75560588  0.09140589  1
  Ca2+  Ca22  1  0.26324399  0.74027374  0.42858295  1
  Ca2+  Ca23  1  0.26072545  0.74098700  0.73284643  1
  Ca2+  Ca24  1  0.58655361  0.25718317  0.07086505  1
  Ca2+  Ca25  1  0.59182273  0.25565244  0.43083737  1
  Ca2+  Ca26  1  0.58935393  0.25566591  0.76415750  1
  Ca2+  Ca27  1  0.59575517  0.74868209  0.06911666  1
  Ca2+  Ca28  1  0.57689755  0.75000526  0.43102060  1
  Ca2+  Ca29  1  0.58142583  0.72230767  0.74445526  1
  Ca2+  Ca30  1  0.92556327  0.25109057  0.07574220  1
  Ca2+  Ca31  1  0.90687828  0.25466483  0.43442946  1
  Ca2+  Ca32  1  0.91744197  0.24948101  0.74173294  1
  Ca2+  Ca33  1  0.92047720  0.75619406  0.09117286  1
  Ca2+  Ca34  1  0.89819172  0.74646507  0.40937676  1
  Ca2+  Ca35  1  0.90117676  0.75064684  0.74831814  1
  Ca2+  Ca36  1  0.76826299  0.09386073  0.58558757  1
  Ca2+  Ca37  1  0.89945940  0.58140640  0.08979341  1
  Ca2+  Ca38  1  0.77739542  0.09887807  0.59096510  1
  Ca2+  Ca39  1  0.75828381  0.58375388  0.28256106  1
  Ca2+  Ca40  1  0.75747970  0.10170137  0.91228977  1
  Ca2+  Ca41  1  0.92282938  0.59307823  0.73363801  1
  Ca2+  Ca42  1  0.18444898  0.08840868  0.73392851  1
  Ca2+  Ca43  1  0.57790236  0.08505463  0.07735087  1
  Ca2+  Ca44  1  0.72592958  0.57930524  0.91107502  1
  Ca2+  Ca45  1  0.42322627  0.08046946  0.94209933  1
  Ca2+  Ca46  1  0.25942009  0.59176320  0.72999439  1
  Ca2+  Ca47  1  0.95817370  0.10365165  0.75059908  1
  Ca2+  Ca48  1  0.23025238  0.09984966  0.41322588  1
  Ca2+  Ca49  1  0.91233909  0.59324606  0.73392350  1
  Ca2+  Ca50  1  0.39250457  0.09292107  0.59526869  1
  Ca2+  Ca51  1  0.92645105  0.10653112  0.42839553  1
  Ca2+  Ca52  1  0.43479590  0.08002451  0.94104651  1
  Ca2+  Ca53  1  0.91627841  0.10316220  0.42569363  1
  Ca2+  Ca54  1  0.26182933  0.61023862  0.10599640  1
  Ca2+  Ca55  1  0.58423459  0.58247766  0.05505992  1
  Ca2+  Ca56  1  0.74796536  0.06734035  0.27080263  1
  Ca2+  Ca57  1  0.38864197  0.60013294  0.59304004  1
  Ca2+  Ca58  1  0.91232654  0.58081017  0.09018843  1
  Ca2+  Ca59  1  0.10504580  0.59046730  0.60619762  1
  Ca2+  Ca60  1  0.09214755  0.58557433  0.89895863  1
  Ca2+  Ca61  1  0.40130922  0.08755326  0.22536556  1
  Ca2+  Ca62  1  0.71789378  0.58139239  0.91633469  1
  Ca2+  Ca63  1  0.62580570  0.60584945  0.42794503  1
  Ca2+  Ca64  1  0.61392676  0.06447954  0.38914013  1
  Ca2+  Ca65  1  0.38040997  0.09044794  0.59380088  1
  Ca2+  Ca66  1  0.25378892  0.59710721  0.42746010  1
  Ca2+  Ca67  1  0.87042946  0.59944848  0.42813350  1
  Ca2+  Ca68  1  0.11428898  0.58819083  0.60300586  1
  Ca2+  Ca69  1  0.08662325  0.58392020  0.89048358  1
  Ca2+  Ca70  1  0.10512388  0.58979836  0.25306714  1
  Ca2+  Ca71  1  0.19250260  0.09217010  0.73104334  1
  Ca2+  Ca72  1  0.25637308  0.90776246  0.07030822  1
  Ca2+  Ca73  1  0.59200772  0.40480366  0.41353438  1
  Ca2+  Ca74  1  0.43022916  0.41035574  0.92035226  1
  Ca2+  Ca75  1  0.40126371  0.89971248  0.58670678  1
  Ca2+  Ca76  1  0.90641149  0.40336299  0.07896695  1
  Ca2+  Ca77  1  0.08041586  0.40657215  0.90232216  1
  Ca2+  Ca78  1  0.41175510  0.91160550  0.23968306  1
  Ca2+  Ca79  1  0.57539180  0.91534912  0.07690842  1
  Ca2+  Ca80  1  0.40941095  0.90296509  0.92061515  1
  Ca2+  Ca81  1  0.10209113  0.42718926  0.61250275  1
  Ca2+  Ca82  1  0.91946682  0.41610870  0.41654918  1
  Ca2+  Ca83  1  0.25154536  0.90046062  0.42674294  1
  Ca2+  Ca84  1  0.93041635  0.41601955  0.41625307  1
  Ca2+  Ca85  1  0.60422960  0.40472547  0.41302961  1
  Ca2+  Ca86  1  0.75662759  0.90313030  0.90890237  1
  Ca2+  Ca87  1  0.75307937  0.89840689  0.58397329  1
  Ca2+  Ca88  1  0.58881716  0.40933783  0.76711905  1
  Ca2+  Ca89  1  0.56298104  0.91722459  0.07632762  1
  Ca2+  Ca90  1  0.61904515  0.43021081  0.04132306  1
  Ca2+  Ca91  1  0.42439058  0.91133066  0.24106503  1
  Ca2+  Ca92  1  0.22907069  0.41484946  0.41822390  1
  Ca2+  Ca93  1  0.91866645  0.90324362  0.08309644  1
  Ca2+  Ca94  1  0.09301636  0.40544075  0.90392039  1
  Ca2+  Ca95  1  0.75668372  0.40913525  0.58713284  1
  Ca2+  Ca96  1  0.07804610  0.89991628  0.24839983  1
  Ca2+  Ca97  1  0.24915413  0.40006749  0.08447933  1
  Ca2+  Ca98  1  0.23860280  0.90034078  0.42676021  1
  Ca2+  Ca99  1  0.08623832  0.41015945  0.25307379  1
  Ca2+  Ca100  1  0.92849265  0.90030014  0.75342416  1
  Ca2+  Ca101  1  0.74052450  0.91784212  0.26490011  1
  Ca2+  Ca102  1  0.75506627  0.41100181  0.24492400  1
  Ca2+  Ca103  1  0.60574581  0.91617212  0.40062095  1
  Ca2+  Ca104  1  0.89016928  0.91188293  0.41020597  1
  Ca2+  Ca105  1  0.12409965  0.92988400  0.63063504  1
  Ca2+  Ca106  1  0.58690028  0.89482505  0.75726527  1
  Ca2+  Ca107  1  0.90166375  0.90808081  0.40718173  1
  Mn3.34+  Mn108  1  0.08299938  0.33369930  0.08287099  1
  Mn3.34+  Mn109  1  0.08441034  0.33868673  0.42641795  1
  Mn3.34+  Mn110  1  0.08368458  0.33591455  0.74855570  1
  Mn3.34+  Mn111  1  0.08513433  0.83687316  0.07750425  1
  Mn3.34+  Mn112  1  0.07954214  0.82654666  0.42047577  1
  Mn3.34+  Mn113  1  0.08571072  0.83245784  0.75377257  1
  Mn3.34+  Mn114  1  0.41711047  0.33126024  0.08391293  1
  Mn3.34+  Mn115  1  0.41457609  0.33681893  0.41680867  1
  Mn3.34+  Mn116  1  0.40791040  0.34074325  0.74792749  1
  Mn3.34+  Mn117  1  0.41549841  0.82730656  0.08258726  1
  Mn3.34+  Mn118  1  0.42149670  0.83172733  0.41840110  1
  Mn3.34+  Mn119  1  0.41531319  0.83037596  0.74979204  1
  Mn3.34+  Mn120  1  0.74945045  0.33572512  0.08245376  1
  Mn3.34+  Mn121  1  0.75488262  0.33478959  0.41775486  1
  Mn3.34+  Mn122  1  0.75363004  0.33287997  0.75358204  1
  Mn3.34+  Mn123  1  0.75098823  0.83261368  0.08237914  1
  Mn3.34+  Mn124  1  0.74435171  0.82943679  0.42339246  1
  Mn3.34+  Mn125  1  0.75112346  0.83101798  0.74771227  1
  Mn3.34+  Mn126  1  0.25131645  0.33676371  0.24917682  1
  Mn3.34+  Mn127  1  0.25016051  0.33910711  0.58481086  1
  Mn3.34+  Mn128  1  0.25451010  0.33351294  0.91211222  1
  Mn3.34+  Mn129  1  0.24825520  0.83354551  0.24748212  1
  Mn3.34+  Mn130  1  0.24830012  0.82978026  0.58768712  1
  Mn3.34+  Mn131  1  0.24716798  0.83309120  0.90930105  1
  Mn3.34+  Mn132  1  0.58083711  0.33085869  0.24143629  1
  Mn3.34+  Mn133  1  0.58161385  0.33930590  0.58984455  1
  Mn3.34+  Mn134  1  0.58507473  0.33741576  0.91548431  1
  Mn3.34+  Mn135  1  0.58276411  0.83560844  0.24634342  1
  Mn3.34+  Mn136  1  0.58189622  0.83030768  0.58481274  1
  Mn3.34+  Mn137  1  0.58436521  0.83199584  0.91327675  1
  Mn3.34+  Mn138  1  0.91951267  0.33493770  0.24785915  1
  Mn3.34+  Mn139  1  0.92103485  0.33401055  0.58909857  1
  Mn3.34+  Mn140  1  0.91280566  0.33392644  0.90865374  1
  Mn3.34+  Mn141  1  0.91690564  0.83181332  0.24608578  1
  Mn3.34+  Mn142  1  0.92241948  0.82483399  0.58178152  1
  Mn3.34+  Mn143  1  0.91940961  0.83710915  0.91537229  1
  Mn3.34+  Mn144  1  0.07467911  0.66814359  0.41758858  1
  Mn3.34+  Mn145  1  0.24478745  0.16671815  0.24435156  1
  Mn3.34+  Mn146  1  0.41089990  0.17072965  0.75869878  1
  Mn3.34+  Mn147  1  0.23863579  0.17386491  0.58051782  1
  Mn3.34+  Mn148  1  0.07745001  0.65689407  0.42326108  1
  Mn3.34+  Mn149  1  0.42074882  0.67110673  0.07968797  1
  Mn3.34+  Mn150  1  0.58087175  0.66712172  0.58366985  1
  Mn3.34+  Mn151  1  0.58332813  0.67220994  0.24890209  1
  Mn3.34+  Mn152  1  0.25793102  0.66236472  0.91245169  1
  Mn3.34+  Mn153  1  0.74974552  0.66404691  0.08868029  1
  Mn3.34+  Mn154  1  0.92460285  0.16246040  0.23944922  1
  Mn3.34+  Mn155  1  0.41901632  0.16541493  0.41644826  1
  Mn3.34+  Mn156  1  0.58919779  0.16738319  0.59288779  1
  Mn3.34+  Mn157  1  0.24767486  0.16570745  0.91807910  1
  Mn3.34+  Mn158  1  0.75434210  0.16747494  0.75658330  1
  Mn3.34+  Mn159  1  0.92323667  0.66615315  0.91438526  1
  Mn3.34+  Mn160  1  0.57849191  0.16222749  0.59172864  1
  Mn3.34+  Mn161  1  0.59107368  0.16919888  0.24501937  1
  Mn3.34+  Mn162  1  0.56980308  0.66613044  0.24739829  1
  Mn3.34+  Mn163  1  0.58457112  0.16888978  0.91265361  1
  Mn3.34+  Mn164  1  0.08398342  0.66294462  0.08608303  1
  Mn3.34+  Mn165  1  0.23723160  0.16109271  0.91645609  1
  Mn3.34+  Mn166  1  0.40871799  0.17085051  0.41514634  1
  Mn3.34+  Mn167  1  0.92057273  0.16409033  0.91182048  1
  Mn3.34+  Mn168  1  0.91209507  0.67057590  0.91561941  1
  Mn3.34+  Mn169  1  0.91473018  0.16765845  0.24173493  1
  Mn3.34+  Mn170  1  0.41602884  0.66752941  0.42179594  1
  Mn3.34+  Mn171  1  0.75126506  0.16703366  0.41698472  1
  Mn3.34+  Mn172  1  0.08568507  0.17770249  0.41413405  1
  Mn3.34+  Mn173  1  0.91653365  0.67068766  0.57732548  1
  Mn3.34+  Mn174  1  0.41282027  0.16799027  0.08472938  1
  Mn3.34+  Mn175  1  0.91335965  0.66862286  0.24828877  1
  Mn3.34+  Mn176  1  0.24802721  0.66761492  0.91437809  1
  Mn3.34+  Mn177  1  0.75083392  0.17009519  0.07861143  1
  Mn3.34+  Mn178  1  0.57450044  0.66343267  0.90900476  1
  Mn3.34+  Mn179  1  0.58230480  0.16319561  0.24277281  1
  Mn3.34+  Mn180  1  0.40574603  0.49630005  0.09552299  1
  Mn3.34+  Mn181  1  0.58788415  0.51023159  0.59714665  1
  Mn3.34+  Mn182  1  0.23666485  0.00213707  0.24431660  1
  Mn3.34+  Mn183  1  0.76979469  0.00978948  0.07958820  1
  Mn3.34+  Mn184  1  0.08693679  0.01383987  0.07435404  1
  Mn3.34+  Mn185  1  0.41124870  0.49773115  0.42637700  1
  Mn3.34+  Mn186  1  0.57822759  0.50421446  0.59599139  1
  Mn3.34+  Mn187  1  0.58882413  0.00033573  0.58122766  1
  Mn3.34+  Mn188  1  0.09001768  0.50140441  0.07364969  1
  Mn3.34+  Mn189  1  0.75086898  0.00242169  0.74992468  1
  Mn3.34+  Mn190  1  0.07934868  -0.00180882  0.43141485  1
  Mn3.34+  Mn191  1  0.07659720  0.00622212  0.07581278  1
  Mn3.34+  Mn192  1  0.42356577  0.00204333  0.41404052  1
  Mn3.34+  Mn193  1  0.59099843  0.00112947  0.91281816  1
  Mn3.34+  Mn194  1  0.41740639  0.00258286  0.75710022  1
  Mn3.34+  Mn195  1  0.76272503  0.49182652  0.74739488  1
  Mn3.34+  Mn196  1  0.08983292  0.00311447  0.42897281  1
  Mn3.34+  Mn197  1  0.92064543  0.50029376  0.26366346  1
  Mn3.34+  Mn198  1  0.76138808  0.00308954  0.08304217  1
  Mn3.34+  Mn199  1  0.41960881  0.50087995  0.09018944  1
  Mn3.34+  Mn200  1  0.58331083  0.50344758  0.24617451  1
  Mn3.34+  Mn201  1  0.57524537  -0.00646345  0.58048346  1
  Mn3.34+  Mn202  1  0.26416529  0.49724790  0.90665897  1
  Mn3.34+  Mn203  1  0.42231379  0.50516292  0.42505310  1
  Mn3.34+  Mn204  1  0.94426591  -0.00143177  0.59618157  1
  Mn3.34+  Mn205  1  0.40357805  -0.00357681  0.75447184  1
  Mn3.34+  Mn206  1  0.92080073  0.50381756  0.58293380  1
  Mn3.34+  Mn207  1  0.91984430  -0.00231309  0.25092659  1
  Mn3.34+  Mn208  1  0.24320721  -0.00365297  0.91455161  1
  Mn3.34+  Mn209  1  0.90461599  0.49825648  0.91953634  1
  Mn3.34+  Mn210  1  0.56954193  0.49714548  0.24438380  1
  Mn3.34+  Mn211  1  0.40324837  0.49915706  0.73703865  1
  Mn3.34+  Mn212  1  0.93157334  -0.00513535  0.59395009  1
  Mn3.34+  Mn213  1  0.92753944  0.00225220  0.91084383  1
  Mn3.34+  Mn214  1  0.41211041  -0.00111318  0.41488349  1
  Mn3.34+  Mn215  1  0.24829757  0.49773779  0.26417404  1
  O2-  O216  1  -0.01562067  0.18548753  -0.00919771  1
  O2-  O217  1  0.00104216  0.15673148  0.32947644  1
  O2-  O218  1  0.00522450  0.18107262  0.68038607  1
  O2-  O219  1  0.00218391  0.64389707  -0.00456727  1
  O2-  O220  1  -0.00119258  0.65821901  0.33082694  1
  O2-  O221  1  0.00506813  0.65716141  0.65347612  1
  O2-  O222  1  0.33247764  0.14679042  -0.00657569  1
  O2-  O223  1  0.32976774  0.15085675  0.33365826  1
  O2-  O224  1  0.31963768  0.15723200  0.67388723  1
  O2-  O225  1  0.33806883  0.66080874  -0.00649964  1
  O2-  O226  1  0.33183269  0.66145260  0.34743974  1
  O2-  O227  1  0.32825580  0.66509403  0.66879571  1
  O2-  O228  1  0.66363601  0.14937078  0.00214053  1
  O2-  O229  1  0.67111411  0.15320522  0.33006392  1
  O2-  O230  1  0.67483776  0.14325363  0.66761347  1
  O2-  O231  1  0.67331394  0.65320839  0.00396346  1
  O2-  O232  1  0.66889076  0.66139185  0.32138776  1
  O2-  O233  1  0.65814962  0.66073504  0.66052397  1
  O2-  O234  1  0.16294452  0.16202780  -0.00199959  1
  O2-  O235  1  0.17014344  0.17447105  0.33658378  1
  O2-  O236  1  0.16398312  0.18039776  0.66399160  1
  O2-  O237  1  0.16855169  0.64065694  -0.00282338  1
  O2-  O238  1  0.15912135  0.66288700  0.33742461  1
  O2-  O239  1  0.16703362  0.66312856  0.67568452  1
  O2-  O240  1  0.50007463  0.16030155  -0.00040043  1
  O2-  O241  1  0.50403289  0.15270528  0.33035344  1
  O2-  O242  1  0.48206960  0.15535819  0.66361818  1
  O2-  O243  1  0.50860590  0.67335949  0.00714492  1
  O2-  O244  1  0.50529112  0.65278820  0.34003232  1
  O2-  O245  1  0.49340979  0.65672807  0.65531905  1
  O2-  O246  1  0.82731194  0.16538679  -0.00669993  1
  O2-  O247  1  0.83862253  0.14909522  0.32972104  1
  O2-  O248  1  0.83570245  0.15612593  0.67604588  1
  O2-  O249  1  0.83875968  0.64796814  0.00104353  1
  O2-  O250  1  0.83263327  0.66850222  0.32588519  1
  O2-  O251  1  0.84837114  0.66892093  0.66795881  1
  O2-  O252  1  0.00200250  0.33816859  -0.00341757  1
  O2-  O253  1  -0.00076559  0.34662457  0.33804530  1
  O2-  O254  1  0.00699661  0.33267273  0.66406327  1
  O2-  O255  1  -0.00331946  0.84463218  0.00229951  1
  O2-  O256  1  -0.00545876  0.84816323  0.34045948  1
  O2-  O257  1  0.00099878  0.81152656  0.66931856  1
  O2-  O258  1  0.33736628  0.35176602  -0.00589717  1
  O2-  O259  1  0.32788416  0.34429681  0.33963559  1
  O2-  O260  1  0.33050418  0.30755348  0.66599312  1
  O2-  O261  1  0.33268337  0.83474496  0.00429091  1
  O2-  O262  1  0.33250146  0.85282096  0.33211545  1
  O2-  O263  1  0.33286280  0.83942406  0.66682881  1
  O2-  O264  1  0.66591443  0.33862232  0.00115651  1
  O2-  O265  1  0.66973997  0.33748949  0.33041354  1
  O2-  O266  1  0.66550925  0.34887533  0.66825781  1
  O2-  O267  1  0.66314973  0.85304044  0.00399501  1
  O2-  O268  1  0.66907870  0.84255823  0.33148761  1
  O2-  O269  1  0.66762279  0.84536313  0.66570546  1
  O2-  O270  1  0.16515385  0.34910257  -0.00284190  1
  O2-  O271  1  0.16223671  0.33991682  0.33744525  1
  O2-  O272  1  0.16479088  0.32206624  0.66517039  1
  O2-  O273  1  0.16973182  0.84362543  -0.00054406  1
  O2-  O274  1  0.16283509  0.84852119  0.33366733  1
  O2-  O275  1  0.16067651  0.83117553  0.66430944  1
  O2-  O276  1  0.50178256  0.34042834  0.00230479  1
  O2-  O277  1  0.51207129  0.33866015  0.33748191  1
  O2-  O278  1  0.49700526  0.32985321  0.67436015  1
  O2-  O279  1  0.50196250  0.84228223  0.00091998  1
  O2-  O280  1  0.49967171  0.85744239  0.33212240  1
  O2-  O281  1  0.49909468  0.85301985  0.66410011  1
  O2-  O282  1  0.84036468  0.33152461  0.00231084  1
  O2-  O283  1  0.83785007  0.35394033  0.33605194  1
  O2-  O284  1  0.82977578  0.34255284  0.66254356  1
  O2-  O285  1  0.83299266  0.85039426  0.00057241  1
  O2-  O286  1  0.83036916  0.83654864  0.33697738  1
  O2-  O287  1  0.84034340  0.84124410  0.66635976  1
  O2-  O288  1  -0.00117729  0.18659540  0.16417904  1
  O2-  O289  1  -0.00558541  0.18373123  0.48141765  1
  O2-  O290  1  -0.01075903  0.18834307  0.83462202  1
  O2-  O291  1  -0.00734401  0.67338413  0.15741256  1
  O2-  O292  1  -0.00252269  0.69560517  0.49486487  1
  O2-  O293  1  -0.00285289  0.68309963  0.83008901  1
  O2-  O294  1  0.33915821  0.17610670  0.17332982  1
  O2-  O295  1  0.33712508  0.18835331  0.51282601  1
  O2-  O296  1  0.32716645  0.18496007  0.83831556  1
  O2-  O297  1  0.33278180  0.69036992  0.14547691  1
  O2-  O298  1  0.33937041  0.67566667  0.50145108  1
  O2-  O299  1  0.32617052  0.67852698  0.82729727  1
  O2-  O300  1  0.66654742  0.19012897  0.16333661  1
  O2-  O301  1  0.66765156  0.17469174  0.50183782  1
  O2-  O302  1  0.67031312  0.17931361  0.83780313  1
  O2-  O303  1  0.66244093  0.68380434  0.16559321  1
  O2-  O304  1  0.65927230  0.68587197  0.50019236  1
  O2-  O305  1  0.66787765  0.66653775  0.84627782  1
  O2-  O306  1  0.17173368  0.17923088  0.17011004  1
  O2-  O307  1  0.16746889  0.19384989  0.49446914  1
  O2-  O308  1  0.16666752  0.18074829  0.83062700  1
  O2-  O309  1  0.16321016  0.67315479  0.16212614  1
  O2-  O310  1  0.16168361  0.68300582  0.49570632  1
  O2-  O311  1  0.15445781  0.67509311  0.84762074  1
  O2-  O312  1  0.49930437  0.18503919  0.16737654  1
  O2-  O313  1  0.49846963  0.17728854  0.50321673  1
  O2-  O314  1  0.49500886  0.18798107  0.83645015  1
  O2-  O315  1  0.49644069  0.69009409  0.16776106  1
  O2-  O316  1  0.49958314  0.68241618  0.49868596  1
  O2-  O317  1  0.50145768  0.67378580  0.83586175  1
  O2-  O318  1  0.83028733  0.18344389  0.16611728  1
  O2-  O319  1  0.83237362  0.17214925  0.49808208  1
  O2-  O320  1  0.83021436  0.18630736  0.83839955  1
  O2-  O321  1  0.83757763  0.68264285  0.16159655  1
  O2-  O322  1  0.83698086  0.68787692  0.50190211  1
  O2-  O323  1  0.83272657  0.67702505  0.83564182  1
  O2-  O324  1  -0.00119315  0.32426917  0.16543707  1
  O2-  O325  1  -0.00516809  0.32069079  0.49461044  1
  O2-  O326  1  0.00471874  0.31643385  0.83425380  1
  O2-  O327  1  0.00492992  0.82729221  0.16704282  1
  O2-  O328  1  -0.00577809  0.80983662  0.49341032  1
  O2-  O329  1  -0.00113116  0.81480864  0.82919375  1
  O2-  O330  1  0.32530427  0.32327377  0.15680429  1
  O2-  O331  1  0.33087050  0.32155112  0.50010604  1
  O2-  O332  1  0.33570475  0.31634586  0.83347608  1
  O2-  O333  1  0.33892215  0.82329499  0.17258051  1
  O2-  O334  1  0.32943938  0.82554602  0.49444956  1
  O2-  O335  1  0.33964084  0.81995502  0.84044322  1
  O2-  O336  1  0.66810552  0.31532861  0.16849847  1
  O2-  O337  1  0.67025244  0.32418796  0.49648090  1
  O2-  O338  1  0.66440477  0.32383342  0.83096380  1
  O2-  O339  1  0.66277677  0.82885358  0.16229809  1
  O2-  O340  1  0.66553480  0.81483645  0.50297645  1
  O2-  O341  1  0.67105007  0.82938506  0.83687786  1
  O2-  O342  1  0.16490984  0.32823429  0.16749333  1
  O2-  O343  1  0.16573679  0.31334938  0.49868964  1
  O2-  O344  1  0.16023685  0.31565419  0.83657281  1
  O2-  O345  1  0.16640843  0.82910744  0.16625932  1
  O2-  O346  1  0.17156894  0.81566723  0.49084525  1
  O2-  O347  1  0.16883708  0.81195961  0.82610272  1
  O2-  O348  1  0.49799850  0.30738284  0.16588114  1
  O2-  O349  1  0.51014465  0.33040557  0.49394432  1
  O2-  O350  1  0.49939413  0.32495352  0.83378951  1
  O2-  O351  1  0.50002961  0.81961104  0.16303600  1
  O2-  O352  1  0.50051534  0.83019108  0.50017427  1
  O2-  O353  1  0.50385293  0.82376450  0.83319629  1
  O2-  O354  1  0.83305069  0.32587613  0.16911455  1
  O2-  O355  1  0.83721767  0.33294849  0.49771632  1
  O2-  O356  1  0.83301980  0.31072780  0.83169664  1
  O2-  O357  1  0.83296172  0.82044402  0.16543170  1
  O2-  O358  1  0.83415725  0.81623885  0.49933071  1
  O2-  O359  1  0.83431447  0.82318979  0.83357488  1
  O2-  O360  1  0.08149505  0.08420990  0.11459302  1
  O2-  O361  1  0.07900201  0.08629028  0.43776260  1
  O2-  O362  1  0.07779745  0.07163875  0.78710802  1
  O2-  O363  1  0.07241086  0.57882372  0.11955040  1
  O2-  O364  1  0.08651193  0.57898203  0.46010336  1
  O2-  O365  1  0.04566416  0.56797292  0.77710317  1
  O2-  O366  1  0.42977936  0.08400247  0.09311335  1
  O2-  O367  1  0.40664926  0.08043680  0.45945149  1
  O2-  O368  1  0.41144665  0.08105283  0.79483694  1
  O2-  O369  1  0.41828018  0.58252409  0.10705870  1
  O2-  O370  1  0.40878155  0.58355800  0.45370243  1
  O2-  O371  1  0.39531192  0.56330773  0.78640420  1
  O2-  O372  1  0.74414271  0.08635157  0.12042456  1
  O2-  O373  1  0.76076894  0.08136465  0.44516721  1
  O2-  O374  1  0.75917617  0.08242083  0.77915540  1
  O2-  O375  1  0.76426278  0.58508267  0.12680960  1
  O2-  O376  1  0.74738860  0.57332844  0.42079171  1
  O2-  O377  1  0.78874487  0.56604815  0.79419648  1
  O2-  O378  1  0.25669293  0.08353382  0.23447580  1
  O2-  O379  1  0.25847867  0.08694336  0.54466926  1
  O2-  O380  1  0.24661042  0.07862678  0.87331134  1
  O2-  O381  1  0.24216635  0.56922319  0.22254529  1
  O2-  O382  1  0.23724830  0.57240460  0.55598892  1
  O2-  O383  1  0.23506323  0.58045757  0.87261472  1
  O2-  O384  1  0.58949632  0.08019324  0.21669071  1
  O2-  O385  1  0.57789260  0.07741799  0.53686072  1
  O2-  O386  1  0.57072303  0.08342216  0.89392755  1
  O2-  O387  1  0.58356780  0.58247988  0.20853392  1
  O2-  O388  1  0.57316946  0.58415622  0.54817436  1
  O2-  O389  1  0.58023777  0.58388606  0.91072143  1
  O2-  O390  1  0.90449509  0.07880360  0.22822914  1
  O2-  O391  1  0.91166337  0.07809727  0.55454800  1
  O2-  O392  1  0.90922949  0.08338556  0.88394621  1
  O2-  O393  1  0.91003490  0.57985917  0.22826418  1
  O2-  O394  1  0.91888885  0.58217918  0.55409286  1
  O2-  O395  1  0.92900472  0.57964021  0.87713237  1
  O2-  O396  1  0.08087324  0.42083539  0.10626742  1
  O2-  O397  1  0.07371617  0.41795978  0.45153655  1
  O2-  O398  1  0.08547396  0.41628407  0.76833593  1
  O2-  O399  1  0.08578830  0.93298312  0.12011225  1
  O2-  O400  1  0.09327902  0.91676566  0.45567224  1
  O2-  O401  1  0.07229817  0.90835063  0.75861187  1
  O2-  O402  1  0.41716404  0.41595601  0.11418035  1
  O2-  O403  1  0.43172641  0.41809873  0.43853832  1
  O2-  O404  1  0.41895533  0.42996765  0.78519353  1
  O2-  O405  1  0.42673158  0.92290491  0.10790346  1
  O2-  O406  1  0.39767532  0.91922314  0.44987985  1
  O2-  O407  1  0.42262163  0.91643651  0.77759205  1
  O2-  O408  1  0.75201279  0.41601594  0.10592449  1
  O2-  O409  1  0.73895773  0.41604785  0.44102298  1
  O2-  O410  1  0.74324467  0.41524868  0.77587866  1
  O2-  O411  1  0.75886576  0.92251501  0.11985669  1
  O2-  O412  1  0.75953237  0.91649322  0.44948178  1
  O2-  O413  1  0.75007675  0.92071878  0.77116498  1
  O2-  O414  1  0.24175627  0.42177665  0.22342219  1
  O2-  O415  1  0.23312478  0.41497462  0.55522351  1
  O2-  O416  1  0.23474663  0.41451089  0.88659541  1
  O2-  O417  1  0.26570895  0.92140621  0.21191879  1
  O2-  O418  1  0.24723588  0.91639395  0.55773207  1
  O2-  O419  1  0.26063295  0.91522067  0.90364928  1
  O2-  O420  1  0.59090220  0.41766144  0.21878435  1
  O2-  O421  1  0.59675332  0.42736068  0.54617746  1
  O2-  O422  1  0.57411836  0.41745148  0.90219090  1
  O2-  O423  1  0.56625709  0.91952299  0.21268801  1
  O2-  O424  1  0.59849014  0.91555166  0.54988915  1
  O2-  O425  1  0.58455608  0.91879765  0.89330835  1
  O2-  O426  1  0.91744517  0.42426403  0.21878042  1
  O2-  O427  1  0.91571342  0.42280368  0.55432596  1
  O2-  O428  1  0.94199467  0.42130594  0.90127339  1
  O2-  O429  1  0.91691168  0.91625380  0.22601264  1
  O2-  O430  1  0.92065919  0.91776553  0.54421073  1
  O2-  O431  1  0.91222163  0.92067420  0.88421189  1
  O2-  O432  1  -0.01207539  -0.00676847  0.01519104  1
  O2-  O433  1  0.00187263  -0.01151900  0.34194325  1
  O2-  O434  1  -0.01195371  -0.01092910  0.69631521  1
  O2-  O435  1  -0.01124415  0.51546788  0.00840741  1
  O2-  O436  1  -0.00121742  0.48710520  0.33533142  1
  O2-  O437  1  0.01531075  0.51008001  0.63561427  1
  O2-  O438  1  0.35443347  -0.00068260  -0.05067942  1
  O2-  O439  1  0.34481002  -0.00649570  0.31647014  1
  O2-  O440  1  0.34280260  0.01170874  0.65671454  1
  O2-  O441  1  0.32657483  0.49067382  0.01038514  1
  O2-  O442  1  0.31376588  0.50068450  0.35940849  1
  O2-  O443  1  0.33589115  0.50821272  0.66152184  1
  O2-  O444  1  0.65804591  -0.00248588  0.02070401  1
  O2-  O445  1  0.67552766  -0.00699666  0.32815201  1
  O2-  O446  1  0.66797034  0.00317736  0.66307666  1
  O2-  O447  1  0.67115647  0.51606334  -0.00119725  1
  O2-  O448  1  0.66141588  0.48973837  0.32892205  1
  O2-  O449  1  0.67393534  0.49192944  0.67149945  1
  O2-  O450  1  0.18301593  -0.00254127  0.02073940  1
  O2-  O451  1  0.18263919  -0.00868537  0.35537832  1
  O2-  O452  1  0.16955507  0.01163278  0.66832670  1
  O2-  O453  1  0.14517711  0.50231523  -0.03827613  1
  O2-  O454  1  0.15572358  0.49647656  0.31888925  1
  O2-  O455  1  0.16978108  0.51101727  0.66106416  1
  O2-  O456  1  0.50587782  -0.00142531  -0.00497263  1
  O2-  O457  1  0.50676399  -0.00289281  0.33554585  1
  O2-  O458  1  0.49808578  0.00586975  0.66666687  1
  O2-  O459  1  0.50771993  0.49723309  0.02507856  1
  O2-  O460  1  0.49445836  0.50121221  0.33331613  1
  O2-  O461  1  0.50097445  0.49799759  0.68239916  1
  O2-  O462  1  0.82188410  -0.00110829  -0.02406199  1
  O2-  O463  1  0.84138814  -0.01096163  0.33512766  1
  O2-  O464  1  0.82353347  0.00497717  0.65071719  1
  O2-  O465  1  0.83140651  0.52604558  -0.00501599  1
  O2-  O466  1  0.83921018  0.49178577  0.33648998  1
  O2-  O467  1  0.84867711  0.50635921  0.67181887  1
  O2-  O468  1  0.56952186  0.75195273  0.60788370  1
  O2-  O469  1  0.58729964  0.25048663  0.93343650  1
  O2-  O470  1  0.92454667  0.75091037  0.26456470  1
  O2-  O471  1  0.90871300  0.24987902  0.27875652  1
  O2-  O472  1  0.75687608  0.25026660  0.39492361  1
  O2-  O473  1  0.74672768  0.75285333  0.73895111  1
  O2-  O474  1  0.59245618  0.75152872  0.93095088  1
  O2-  O475  1  0.74782684  0.25015511  0.06074831  1
  O2-  O476  1  0.58483584  0.75456639  0.27827520  1
  O2-  O477  1  0.08310618  0.74469826  0.06241931  1
  O2-  O478  1  0.42207782  0.75185067  0.39236539  1
  O2-  O479  1  0.74813582  0.74999049  0.05862878  1
  O2-  O480  1  0.90957455  0.25477754  0.59419837  1
  O2-  O481  1  0.25359033  0.25002635  0.94509920  1
  O2-  O482  1  0.25697350  0.25247567  0.26553318  1
  O2-  O483  1  0.73851874  0.24852581  0.72318290  1
  O2-  O484  1  0.23968467  0.74848603  0.94452955  1
  O2-  O485  1  0.91566617  0.75197275  0.94898109  1
  O2-  O486  1  0.42200022  0.75291464  0.73724632  1
  O2-  O487  1  0.42469149  0.25412829  0.39731435  1
  O2-  O488  1  0.40178340  0.24976108  0.05786613  1
  O2-  O489  1  0.58266586  0.25216281  0.59141618  1
  O2-  O490  1  0.25486116  0.75179694  0.59432280  1
  O2-  O491  1  0.09057323  0.25572472  0.07145699  1
  O2-  O492  1  0.24186617  0.75603968  0.26938041  1
