# generated using pymatgen
data_Ca108Mn108O277
_symmetry_space_group_name_H-M   'P 1'
_cell_length_a   16.01069744
_cell_length_b   22.28424823
_cell_length_c   16.37654507
_cell_angle_alpha   90.00142941
_cell_angle_beta   90.00217496
_cell_angle_gamma   90.00201225
_symmetry_Int_Tables_number   1
_chemical_formula_structural   Ca108Mn108O277
_chemical_formula_sum   'Ca108 Mn108 O277'
_cell_volume   5842.92783179
_cell_formula_units_Z   1
loop_
 _symmetry_equiv_pos_site_id
 _symmetry_equiv_pos_as_xyz
  1  'x, y, z'
loop_
 _atom_type_symbol
 _atom_type_oxidation_number
  Ca2+  2.0
  Mn3.34+  3.34
  O2-  -2.0
loop_
 _atom_site_type_symbol
 _atom_site_label
 _atom_site_symmetry_multiplicity
 _atom_site_fract_x
 _atom_site_fract_y
 _atom_site_fract_z
 _atom_site_occupancy
  Ca2+  Ca0  1  0.09885526  0.24133453  0.27451463  1
  Ca2+  Ca1  1  0.10259356  0.24270831  0.59197085  1
  Ca2+  Ca2  1  0.08960692  0.24257225  0.88811752  1
  Ca2+  Ca3  1  0.08045047  0.75247436  0.27113462  1
  Ca2+  Ca4  1  0.08457144  0.75203722  0.57594621  1
  Ca2+  Ca5  1  0.08499360  0.76318692  0.90275593  1
  Ca2+  Ca6  1  0.40373788  0.23984167  0.23385890  1
  Ca2+  Ca7  1  0.39523056  0.24812119  0.57605662  1
  Ca2+  Ca8  1  0.41154030  0.24572312  0.92648858  1
  Ca2+  Ca9  1  0.42757374  0.75204026  0.25583863  1
  Ca2+  Ca10  1  0.40581766  0.75194440  0.57476985  1
  Ca2+  Ca11  1  0.41450158  0.75524353  0.91811381  1
  Ca2+  Ca12  1  0.74353862  0.25140292  0.24392509  1
  Ca2+  Ca13  1  0.74596072  0.25616172  0.59905439  1
  Ca2+  Ca14  1  0.75239346  0.25178719  0.90255915  1
  Ca2+  Ca15  1  0.74424227  0.74491038  0.26736514  1
  Ca2+  Ca16  1  0.75531027  0.74693845  0.55658608  1
  Ca2+  Ca17  1  0.74955275  0.75882355  0.92303227  1
  Ca2+  Ca18  1  0.27521613  0.23668321  0.06906597  1
  Ca2+  Ca19  1  0.23719763  0.22396417  0.42957742  1
  Ca2+  Ca20  1  0.23556186  0.23521340  0.74837518  1
  Ca2+  Ca21  1  0.26081124  0.76319502  0.08089244  1
  Ca2+  Ca22  1  0.23379791  0.74843863  0.41331887  1
  Ca2+  Ca23  1  0.24126363  0.75284976  0.75398277  1
  Ca2+  Ca24  1  0.57794828  0.25346956  0.07112310  1
  Ca2+  Ca25  1  0.57634939  0.25416219  0.42046515  1
  Ca2+  Ca26  1  0.60060790  0.25158910  0.76116617  1
  Ca2+  Ca27  1  0.58011054  0.76279797  0.09205946  1
  Ca2+  Ca28  1  0.59315929  0.74265065  0.39253141  1
  Ca2+  Ca29  1  0.57495585  0.76044375  0.76375966  1
  Ca2+  Ca30  1  0.90213963  0.25844111  0.06863365  1
  Ca2+  Ca31  1  0.93120925  0.24784063  0.41726869  1
  Ca2+  Ca32  1  0.91429349  0.24722889  0.76485668  1
  Ca2+  Ca33  1  0.90892607  0.76262587  0.09096473  1
  Ca2+  Ca34  1  0.92319610  0.73603651  0.41178508  1
  Ca2+  Ca35  1  0.93487007  0.75131492  0.75228939  1
  Ca2+  Ca36  1  0.23095795  0.10014313  0.75173906  1
  Ca2+  Ca37  1  0.08180605  0.61124379  0.56920791  1
  Ca2+  Ca38  1  0.07144312  0.59861970  0.90749821  1
  Ca2+  Ca39  1  0.39456329  0.09845721  0.91771450  1
  Ca2+  Ca40  1  0.59495874  0.09347041  0.74925649  1
  Ca2+  Ca41  1  0.27667629  0.08478217  0.08896193  1
  Ca2+  Ca42  1  0.40226233  0.09394936  0.91427907  1
  Ca2+  Ca43  1  0.40724073  0.08632726  0.58339485  1
  Ca2+  Ca44  1  0.55504823  0.08849205  0.08191056  1
  Ca2+  Ca45  1  0.10010112  0.09917472  0.90020121  1
  Ca2+  Ca46  1  0.28324615  0.08961838  0.08468934  1
  Ca2+  Ca47  1  0.43855071  0.60143468  0.25387349  1
  Ca2+  Ca48  1  0.39788391  0.08111166  0.25204719  1
  Ca2+  Ca49  1  0.73880717  0.60463722  0.26924123  1
  Ca2+  Ca50  1  0.25560452  0.59113395  0.08088845  1
  Ca2+  Ca51  1  0.73823725  0.58745517  0.91881062  1
  Ca2+  Ca52  1  0.10204806  0.10491600  0.58488369  1
  Ca2+  Ca53  1  0.57200360  0.58417595  0.08160975  1
  Ca2+  Ca54  1  0.74801834  0.09085859  0.58810281  1
  Ca2+  Ca55  1  0.54959735  0.57636367  0.76291437  1
  Ca2+  Ca56  1  0.90671793  0.07510415  0.08548336  1
  Ca2+  Ca57  1  0.56752218  0.08742726  0.08054722  1
  Ca2+  Ca58  1  0.23765970  0.61053277  0.42474667  1
  Ca2+  Ca59  1  0.58071820  0.08132265  0.41975945  1
  Ca2+  Ca60  1  0.92825215  0.10240753  0.75543313  1
  Ca2+  Ca61  1  0.08434283  0.59867709  0.90755513  1
  Ca2+  Ca62  1  0.10222695  0.08108337  0.26545031  1
  Ca2+  Ca63  1  0.39919094  0.09138580  0.58238708  1
  Ca2+  Ca64  1  0.56147982  0.57568784  0.75865156  1
  Ca2+  Ca65  1  0.74920920  0.10317330  0.90631016  1
  Ca2+  Ca66  1  0.59344284  0.08322106  0.42090976  1
  Ca2+  Ca67  1  0.92218921  0.08875443  0.40591842  1
  Ca2+  Ca68  1  0.92187413  0.59166532  0.08386825  1
  Ca2+  Ca69  1  0.59569320  0.60644983  0.40246692  1
  Ca2+  Ca70  1  0.07453760  0.60093057  0.26773170  1
  Ca2+  Ca71  1  0.89441788  0.07321861  0.08829504  1
  Ca2+  Ca72  1  0.25502350  0.91855805  0.39908144  1
  Ca2+  Ca73  1  0.08032844  0.91433994  0.24885485  1
  Ca2+  Ca74  1  0.43246310  0.40543604  0.24176749  1
  Ca2+  Ca75  1  0.07288977  0.39785856  0.91573220  1
  Ca2+  Ca76  1  0.56852047  0.91201840  0.41592346  1
  Ca2+  Ca77  1  0.58102281  0.91160109  0.41610929  1
  Ca2+  Ca78  1  0.75938222  0.91470827  0.23764496  1
  Ca2+  Ca79  1  0.75588815  0.39646355  0.24887176  1
  Ca2+  Ca80  1  0.43247151  0.41741565  0.90961315  1
  Ca2+  Ca81  1  0.73328489  0.90803384  0.58520635  1
  Ca2+  Ca82  1  0.24932173  0.40699839  0.07803368  1
  Ca2+  Ca83  1  0.07512009  0.40105198  0.24486159  1
  Ca2+  Ca84  1  0.41991630  0.40519705  0.24347070  1
  Ca2+  Ca85  1  0.44082524  0.92230106  0.59727007  1
  Ca2+  Ca86  1  0.25882949  0.40306680  0.74669652  1
  Ca2+  Ca87  1  0.76840090  0.91263400  0.24212624  1
  Ca2+  Ca88  1  0.25044062  0.39685537  0.42410256  1
  Ca2+  Ca89  1  0.41623731  0.41145196  0.60163355  1
  Ca2+  Ca90  1  0.43198405  0.91968906  0.60318788  1
  Ca2+  Ca91  1  0.44406383  0.41981365  0.90756368  1
  Ca2+  Ca92  1  0.74997507  0.90105778  0.91556324  1
  Ca2+  Ca93  1  0.40618126  0.91478388  0.24175399  1
  Ca2+  Ca94  1  0.42749639  0.41188095  0.60250857  1
  Ca2+  Ca95  1  0.59115969  0.39852325  0.42220340  1
  Ca2+  Ca96  1  0.57916571  0.41437770  0.06429990  1
  Ca2+  Ca97  1  0.40573463  0.90639936  0.91207618  1
  Ca2+  Ca98  1  0.91177771  0.39587949  0.42141659  1
  Ca2+  Ca99  1  0.92873995  0.90085750  0.75062969  1
  Ca2+  Ca100  1  0.74623418  0.90733530  0.58371718  1
  Ca2+  Ca101  1  0.24867332  0.91453039  0.08848579  1
  Ca2+  Ca102  1  0.07738765  0.40032035  0.58547512  1
  Ca2+  Ca103  1  0.92602105  0.90970829  0.08922841  1
  Ca2+  Ca104  1  0.06271233  0.40034860  0.24208904  1
  Ca2+  Ca105  1  0.91342073  0.39663078  0.75179451  1
  Ca2+  Ca106  1  0.26213854  0.40702012  0.07776490  1
  Ca2+  Ca107  1  0.24462350  0.91757376  0.39743429  1
  Mn3.34+  Mn108  1  0.08175912  0.32688139  0.08125145  1
  Mn3.34+  Mn109  1  0.08288641  0.32839132  0.42202029  1
  Mn3.34+  Mn110  1  0.08269715  0.32908569  0.74916423  1
  Mn3.34+  Mn111  1  0.08465540  0.84205744  0.08407728  1
  Mn3.34+  Mn112  1  0.07784196  0.83333946  0.42194904  1
  Mn3.34+  Mn113  1  0.08905064  0.84080569  0.74650614  1
  Mn3.34+  Mn114  1  0.41860197  0.33196016  0.08131366  1
  Mn3.34+  Mn115  1  0.41729688  0.32991258  0.41846800  1
  Mn3.34+  Mn116  1  0.42014872  0.33234225  0.75491280  1
  Mn3.34+  Mn117  1  0.41769489  0.84301479  0.08354500  1
  Mn3.34+  Mn118  1  0.41393579  0.83487031  0.42100071  1
  Mn3.34+  Mn119  1  0.41234801  0.83746619  0.75131234  1
  Mn3.34+  Mn120  1  0.74843033  0.32978740  0.07850953  1
  Mn3.34+  Mn121  1  0.75308385  0.32585117  0.42173903  1
  Mn3.34+  Mn122  1  0.74957113  0.32976529  0.75112617  1
  Mn3.34+  Mn123  1  0.74826733  0.84224757  0.08276599  1
  Mn3.34+  Mn124  1  0.75432993  0.83186810  0.41603280  1
  Mn3.34+  Mn125  1  0.75001550  0.83150743  0.75124336  1
  Mn3.34+  Mn126  1  0.24915384  0.32837985  0.25149608  1
  Mn3.34+  Mn127  1  0.24837043  0.33097593  0.58376660  1
  Mn3.34+  Mn128  1  0.24970581  0.32682661  0.91167524  1
  Mn3.34+  Mn129  1  0.24846952  0.83518416  0.24538723  1
  Mn3.34+  Mn130  1  0.24680541  0.83333737  0.58463214  1
  Mn3.34+  Mn131  1  0.24515409  0.83608197  0.91342081  1
  Mn3.34+  Mn132  1  0.58770462  0.33494381  0.24792083  1
  Mn3.34+  Mn133  1  0.58900637  0.33653205  0.58738198  1
  Mn3.34+  Mn134  1  0.59088273  0.33602194  0.91234821  1
  Mn3.34+  Mn135  1  0.58256300  0.83327643  0.24615967  1
  Mn3.34+  Mn136  1  0.58177232  0.82763349  0.58482832  1
  Mn3.34+  Mn137  1  0.58068585  0.83056894  0.91759238  1
  Mn3.34+  Mn138  1  0.91356298  0.32534886  0.24689773  1
  Mn3.34+  Mn139  1  0.91286944  0.33421401  0.58345747  1
  Mn3.34+  Mn140  1  0.91212901  0.33493735  0.91766795  1
  Mn3.34+  Mn141  1  0.92082826  0.83579291  0.25116248  1
  Mn3.34+  Mn142  1  0.91944682  0.83066615  0.58080287  1
  Mn3.34+  Mn143  1  0.92021259  0.83034203  0.91641228  1
  Mn3.34+  Mn144  1  0.08047650  0.67229284  0.08624241  1
  Mn3.34+  Mn145  1  0.40125270  0.65774489  0.74758121  1
  Mn3.34+  Mn146  1  0.91514370  0.66803835  0.91288088  1
  Mn3.34+  Mn147  1  0.90588803  0.16618694  0.25232248  1
  Mn3.34+  Mn148  1  0.08577193  0.16349650  0.08643983  1
  Mn3.34+  Mn149  1  0.57872476  0.66510918  0.91009263  1
  Mn3.34+  Mn150  1  0.90851711  0.17041310  0.57973474  1
  Mn3.34+  Mn151  1  0.74289462  0.66572001  0.08410763  1
  Mn3.34+  Mn152  1  0.57557492  0.66544549  0.58119472  1
  Mn3.34+  Mn153  1  0.59156403  0.16500666  0.58213824  1
  Mn3.34+  Mn154  1  0.08918558  0.67847782  0.08497842  1
  Mn3.34+  Mn155  1  0.24912396  0.16200107  0.25196682  1
  Mn3.34+  Mn156  1  0.91587195  0.66212581  0.57700959  1
  Mn3.34+  Mn157  1  0.59149305  0.16312371  0.25140551  1
  Mn3.34+  Mn158  1  0.41012997  0.16175357  0.41717366  1
  Mn3.34+  Mn159  1  0.41160177  0.66587205  0.08121281  1
  Mn3.34+  Mn160  1  0.25470534  0.66409931  0.58751510  1
  Mn3.34+  Mn161  1  0.92187116  0.17420993  0.58047004  1
  Mn3.34+  Mn162  1  0.58372435  0.16849621  0.91229900  1
  Mn3.34+  Mn163  1  0.41548605  0.16014783  0.75448633  1
  Mn3.34+  Mn164  1  0.74910485  0.16305501  0.08117164  1
  Mn3.34+  Mn165  1  0.58073920  0.16911598  0.58445195  1
  Mn3.34+  Mn166  1  0.75959236  0.66836262  0.74585258  1
  Mn3.34+  Mn167  1  0.08356428  0.67134628  0.74380113  1
  Mn3.34+  Mn168  1  0.91518508  0.66824233  0.25687439  1
  Mn3.34+  Mn169  1  0.58373102  0.67184064  0.58201147  1
  Mn3.34+  Mn170  1  0.25407645  0.67186908  0.90791645  1
  Mn3.34+  Mn171  1  0.75003347  0.67391250  0.74569467  1
  Mn3.34+  Mn172  1  0.42193009  0.66143612  0.08347974  1
  Mn3.34+  Mn173  1  0.91622575  0.16156349  0.25071614  1
  Mn3.34+  Mn174  1  0.41314764  0.67196061  0.41708297  1
  Mn3.34+  Mn175  1  0.25017823  0.67171721  0.25380235  1
  Mn3.34+  Mn176  1  0.58097115  0.16785143  0.25174385  1
  Mn3.34+  Mn177  1  0.07697236  0.16965087  0.08485089  1
  Mn3.34+  Mn178  1  0.75330759  0.67050180  0.08445299  1
  Mn3.34+  Mn179  1  0.91604105  0.16873901  0.91220232  1
  Mn3.34+  Mn180  1  0.74368252  -0.00056626  0.73621377  1
  Mn3.34+  Mn181  1  0.57645229  -0.00423462  0.91473178  1
  Mn3.34+  Mn182  1  0.24263593  -0.00242244  0.93103634  1
  Mn3.34+  Mn183  1  0.74650147  0.50162258  0.42269484  1
  Mn3.34+  Mn184  1  0.25207871  0.50098868  0.91064193  1
  Mn3.34+  Mn185  1  0.25529798  0.50158904  0.24125591  1
  Mn3.34+  Mn186  1  0.92744983  0.00204741  0.58465915  1
  Mn3.34+  Mn187  1  0.74698838  0.49278521  0.07795843  1
  Mn3.34+  Mn188  1  0.92956171  -0.00539826  0.91897933  1
  Mn3.34+  Mn189  1  0.26326396  0.50550732  0.91194893  1
  Mn3.34+  Mn190  1  0.08754962  0.49877207  0.74542811  1
  Mn3.34+  Mn191  1  0.59246259  -0.00246986  0.91758253  1
  Mn3.34+  Mn192  1  0.22770874  -0.00627544  0.59961377  1
  Mn3.34+  Mn193  1  0.06900594  0.50597720  0.42175796  1
  Mn3.34+  Mn194  1  0.91238711  0.50205281  0.58051172  1
  Mn3.34+  Mn195  1  0.91295245  0.50155351  0.24650909  1
  Mn3.34+  Mn196  1  0.08266094  0.49945413  0.42425101  1
  Mn3.34+  Mn197  1  0.07512497  0.50042728  0.08157895  1
  Mn3.34+  Mn198  1  0.91701306  0.50001761  0.91335479  1
  Mn3.34+  Mn199  1  0.74701840  0.49248685  0.75019286  1
  Mn3.34+  Mn200  1  0.58766803  0.50158450  0.24877769  1
  Mn3.34+  Mn201  1  0.57523606  -0.00322039  0.25234536  1
  Mn3.34+  Mn202  1  0.41209198  0.50185912  0.42596112  1
  Mn3.34+  Mn203  1  0.25882599  0.50256590  0.59122590  1
  Mn3.34+  Mn204  1  0.91859558  -0.00103309  0.91686450  1
  Mn3.34+  Mn205  1  0.42422646  0.50748944  0.42467036  1
  Mn3.34+  Mn206  1  0.75760695  0.49744934  0.08036393  1
  Mn3.34+  Mn207  1  0.07728705  0.50399802  0.74416463  1
  Mn3.34+  Mn208  1  0.24636583  0.50502229  0.24762186  1
  Mn3.34+  Mn209  1  0.23683540  0.00196164  0.59495908  1
  Mn3.34+  Mn210  1  0.76171816  0.50517740  0.42474638  1
  Mn3.34+  Mn211  1  0.76039409  0.00085074  0.40548639  1
  Mn3.34+  Mn212  1  0.58282399  0.50119015  0.58857139  1
  Mn3.34+  Mn213  1  0.75863925  0.49984962  0.75050530  1
  Mn3.34+  Mn214  1  0.93930902  -0.00475788  0.58861346  1
  Mn3.34+  Mn215  1  0.07826545  -0.00145783  0.40289254  1
  O2-  O216  1  -0.00328190  0.16091964  0.00264299  1
  O2-  O217  1  -0.00322958  0.16371114  0.33178630  1
  O2-  O218  1  -0.00301372  0.16906583  0.66174403  1
  O2-  O219  1  0.00132035  0.66105532  -0.00047103  1
  O2-  O220  1  -0.00096856  0.66808264  0.32600572  1
  O2-  O221  1  0.00041114  0.67353329  0.66468254  1
  O2-  O222  1  0.33140317  0.15227471  0.00142508  1
  O2-  O223  1  0.33919616  0.16071445  0.32717838  1
  O2-  O224  1  0.34441797  0.16343359  0.66848493  1
  O2-  O225  1  0.32766756  0.66083587  0.00373838  1
  O2-  O226  1  0.33368169  0.65665172  0.33222735  1
  O2-  O227  1  0.33259113  0.69217352  0.66733669  1
  O2-  O228  1  0.65979812  0.15249028  0.00308306  1
  O2-  O229  1  0.66060248  0.16564660  0.34058666  1
  O2-  O230  1  0.66861778  0.15915785  0.66559264  1
  O2-  O231  1  0.66797051  0.65580078  -0.00354386  1
  O2-  O232  1  0.66459261  0.66900513  0.33121269  1
  O2-  O233  1  0.66407435  0.67046518  0.66488804  1
  O2-  O234  1  0.16615361  0.16046754  0.00485492  1
  O2-  O235  1  0.16650466  0.16095808  0.32657204  1
  O2-  O236  1  0.16889506  0.16632099  0.66730473  1
  O2-  O237  1  0.16516223  0.66036541  -0.00192518  1
  O2-  O238  1  0.16890686  0.66361397  0.32767011  1
  O2-  O239  1  0.16572015  0.67087285  0.66452395  1
  O2-  O240  1  0.49928768  0.15072318  -0.00797344  1
  O2-  O241  1  0.50126824  0.15247450  0.33725626  1
  O2-  O242  1  0.50168525  0.16028709  0.66935574  1
  O2-  O243  1  0.50261346  0.65907199  0.00061976  1
  O2-  O244  1  0.49610258  0.66440254  0.34107745  1
  O2-  O245  1  0.49968243  0.67300514  0.66811366  1
  O2-  O246  1  0.83843240  0.15586361  0.00509489  1
  O2-  O247  1  0.83517076  0.18597291  0.33624063  1
  O2-  O248  1  0.83543849  0.16480360  0.66283445  1
  O2-  O249  1  0.83280821  0.65419278  0.00223195  1
  O2-  O250  1  0.83267505  0.66592712  0.32459351  1
  O2-  O251  1  0.83893995  0.68700695  0.66376146  1
  O2-  O252  1  0.00435127  0.32771368  -0.00324631  1
  O2-  O253  1  -0.00114142  0.33368203  0.33242567  1
  O2-  O254  1  -0.00002098  0.33508345  0.66522327  1
  O2-  O255  1  -0.00056712  0.82660883  0.00621585  1
  O2-  O256  1  0.00691654  0.84042125  0.32681061  1
  O2-  O257  1  -0.00502245  0.82573290  0.66899317  1
  O2-  O258  1  0.33475322  0.34514471  -0.00206108  1
  O2-  O259  1  0.33816966  0.34792212  0.32913087  1
  O2-  O260  1  0.33601391  0.33731023  0.66616755  1
  O2-  O261  1  0.33263798  0.83922521  -0.00021995  1
  O2-  O262  1  0.33222411  0.84682144  0.33680899  1
  O2-  O263  1  0.33829438  0.82574150  0.66168823  1
  O2-  O264  1  0.65777042  0.33716239  0.00767530  1
  O2-  O265  1  0.67115918  0.33362865  0.33493133  1
  O2-  O266  1  0.66726971  0.32934355  0.66887124  1
  O2-  O267  1  0.66973324  0.83671496  -0.00427489  1
  O2-  O268  1  0.66528678  0.84772943  0.33806265  1
  O2-  O269  1  0.67114226  0.82303922  0.66109984  1
  O2-  O270  1  0.17113510  0.34275764  0.00338038  1
  O2-  O271  1  0.15982396  0.34779206  0.33024858  1
  O2-  O272  1  0.16719912  0.34347110  0.66693271  1
  O2-  O273  1  0.16753944  0.82791818  0.00594049  1
  O2-  O274  1  0.16816428  0.84519226  0.33391889  1
  O2-  O275  1  0.16757799  0.81952841  0.66390043  1
  O2-  O276  1  0.49658018  0.34216160  -0.00260231  1
  O2-  O277  1  0.50205553  0.34646771  0.33221957  1
  O2-  O278  1  0.49219938  0.33391758  0.66268254  1
  O2-  O279  1  0.49543583  0.83508940  -0.00412713  1
  O2-  O280  1  0.49997902  0.84518063  0.33735892  1
  O2-  O281  1  0.49691403  0.81982113  0.66614508  1
  O2-  O282  1  0.82994375  0.33147610  -0.00174206  1
  O2-  O283  1  0.83436551  0.32297693  0.33453607  1
  O2-  O284  1  0.83863003  0.32479344  0.66984518  1
  O2-  O285  1  0.83392727  0.84140215  -0.00049937  1
  O2-  O286  1  0.82530560  0.84382934  0.32426050  1
  O2-  O287  1  0.83121834  0.82688368  0.66530443  1
  O2-  O288  1  -0.00113544  0.19063794  0.16906158  1
  O2-  O289  1  -0.00192710  0.17800217  0.50141934  1
  O2-  O290  1  -0.00197334  0.17142567  0.83791389  1
  O2-  O291  1  -0.00253644  0.68102898  0.16469374  1
  O2-  O292  1  -0.00157882  0.68275874  0.51210275  1
  O2-  O293  1  0.00527334  0.67406090  0.83863915  1
  O2-  O294  1  0.32739756  0.16816717  0.16632432  1
  O2-  O295  1  0.34145443  0.16837336  0.50180468  1
  O2-  O296  1  0.33965133  0.17501293  0.83062233  1
  O2-  O297  1  0.33302031  0.67291338  0.16757826  1
  O2-  O298  1  0.32751534  0.68344764  0.49813791  1
  O2-  O299  1  0.33619616  0.68634810  0.83139822  1
  O2-  O300  1  0.66459868  0.17298469  0.16186652  1
  O2-  O301  1  0.66452181  0.17513445  0.49596626  1
  O2-  O302  1  0.66340248  0.17328141  0.83721578  1
  O2-  O303  1  0.66692043  0.67309022  0.16452258  1
  O2-  O304  1  0.65766807  0.68250220  0.49926493  1
  O2-  O305  1  0.66724360  0.67842968  0.82902783  1
  O2-  O306  1  0.16615762  0.18223420  0.16527021  1
  O2-  O307  1  0.15941868  0.17443265  0.51164984  1
  O2-  O308  1  0.16622051  0.16919555  0.82905622  1
  O2-  O309  1  0.17227317  0.68072579  0.16450575  1
  O2-  O310  1  0.17441593  0.68134043  0.51105886  1
  O2-  O311  1  0.15901945  0.67269289  0.83938514  1
  O2-  O312  1  0.50515534  0.16995002  0.16757514  1
  O2-  O313  1  0.50026549  0.17415336  0.50074139  1
  O2-  O314  1  0.49823692  0.17827914  0.83320436  1
  O2-  O315  1  0.49847499  0.67301852  0.16376700  1
  O2-  O316  1  0.49646346  0.68162077  0.50148021  1
  O2-  O317  1  0.50339788  0.67465045  0.82011423  1
  O2-  O318  1  0.83589120  0.18096830  0.16428269  1
  O2-  O319  1  0.83202787  0.18302826  0.50271827  1
  O2-  O320  1  0.83606356  0.17133301  0.83792833  1
  O2-  O321  1  0.83815230  0.67172705  0.16221658  1
  O2-  O322  1  0.84369758  0.68508586  0.50568785  1
  O2-  O323  1  0.82749186  0.67530076  0.83893815  1
  O2-  O324  1  0.00567822  0.31520680  0.17229503  1
  O2-  O325  1  -0.00210974  0.32134247  0.50180517  1
  O2-  O326  1  0.00015743  0.32577634  0.83188360  1
  O2-  O327  1  0.00116328  0.82393207  0.16399329  1
  O2-  O328  1  -0.00399654  0.81513554  0.49959431  1
  O2-  O329  1  -0.00289892  0.82596604  0.83175342  1
  O2-  O330  1  0.33242299  0.33063893  0.16401189  1
  O2-  O331  1  0.33585431  0.33105946  0.50441187  1
  O2-  O332  1  0.33600124  0.32187164  0.83416543  1
  O2-  O333  1  0.33317665  0.82732080  0.16743688  1
  O2-  O334  1  0.33318738  0.82590532  0.50173585  1
  O2-  O335  1  0.33530187  0.82343692  0.83396010  1
  O2-  O336  1  0.66826906  0.32708602  0.16901143  1
  O2-  O337  1  0.66372737  0.32062024  0.49484691  1
  O2-  O338  1  0.66982107  0.32345482  0.83561215  1
  O2-  O339  1  0.67515747  0.83064465  0.17362273  1
  O2-  O340  1  0.66497111  0.82902269  0.49983130  1
  O2-  O341  1  0.67045706  0.81889655  0.83494212  1
  O2-  O342  1  0.16595294  0.32810092  0.16574833  1
  O2-  O343  1  0.16663718  0.33456646  0.50130274  1
  O2-  O344  1  0.16543107  0.33086011  0.83337700  1
  O2-  O345  1  0.16520146  0.82087796  0.16521686  1
  O2-  O346  1  0.17417822  0.82608056  0.49348887  1
  O2-  O347  1  0.16736134  0.82660911  0.83140338  1
  O2-  O348  1  0.49644067  0.33141360  0.16756672  1
  O2-  O349  1  0.50008696  0.32998700  0.50032700  1
  O2-  O350  1  0.49769780  0.32115374  0.83850353  1
  O2-  O351  1  0.49513836  0.82766703  0.17052659  1
  O2-  O352  1  0.49969451  0.82544658  0.50243709  1
  O2-  O353  1  0.49224009  0.82145952  0.83488001  1
  O2-  O354  1  0.82846676  0.31727295  0.17058387  1
  O2-  O355  1  0.83728691  0.30952996  0.49955597  1
  O2-  O356  1  0.83935421  0.32522026  0.82977144  1
  O2-  O357  1  0.83302043  0.83013484  0.16543558  1
  O2-  O358  1  0.82502515  0.82720645  0.50778325  1
  O2-  O359  1  0.83299601  0.82017126  0.83223625  1
  O2-  O360  1  0.06821483  0.08340314  0.12049310  1
  O2-  O361  1  0.06537823  0.06542893  0.45328197  1
  O2-  O362  1  0.08644476  0.08260000  0.76854397  1
  O2-  O363  1  0.08202657  0.58399757  0.10931193  1
  O2-  O364  1  0.09284335  0.58497724  0.43586029  1
  O2-  O365  1  0.08289501  0.58489524  0.77170039  1
  O2-  O366  1  0.42154765  0.07132555  0.11494507  1
  O2-  O367  1  0.43925113  0.08017806  0.44691724  1
  O2-  O368  1  0.42154955  0.08002089  0.77721811  1
  O2-  O369  1  0.41386763  0.57932524  0.10908142  1
  O2-  O370  1  0.41403181  0.58830260  0.43698412  1
  O2-  O371  1  0.42095884  0.57751874  0.76718436  1
  O2-  O372  1  0.76163303  0.08372377  0.10225092  1
  O2-  O373  1  0.73812381  0.07171771  0.44949716  1
  O2-  O374  1  0.74400229  0.07206528  0.77527060  1
  O2-  O375  1  0.75255283  0.57929459  0.11322116  1
  O2-  O376  1  0.74003511  0.58462070  0.42631641  1
  O2-  O377  1  0.74337081  0.58066984  0.77613258  1
  O2-  O378  1  0.24471160  0.08011975  0.22083988  1
  O2-  O379  1  0.25424216  0.07872397  0.56728917  1
  O2-  O380  1  0.25277864  0.06906817  0.88269653  1
  O2-  O381  1  0.24569082  0.58707122  0.22571685  1
  O2-  O382  1  0.24236780  0.57861957  0.55717470  1
  O2-  O383  1  0.24019118  0.58725792  0.90214061  1
  O2-  O384  1  0.58150608  0.07748744  0.22197492  1
  O2-  O385  1  0.58910250  0.08141491  0.55662874  1
  O2-  O386  1  0.58413278  0.07868700  0.88483992  1
  O2-  O387  1  0.58456913  0.57861448  0.22705000  1
  O2-  O388  1  0.58363454  0.58179876  0.55731278  1
  O2-  O389  1  0.59378818  0.58207639  0.88798712  1
  O2-  O390  1  0.92560376  0.07980590  0.22025542  1
  O2-  O391  1  0.91118765  0.08059807  0.55090664  1
  O2-  O392  1  0.91869592  0.08167882  0.89442902  1
  O2-  O393  1  0.92146351  0.58279293  0.22307731  1
  O2-  O394  1  0.92880323  0.58173976  0.56055868  1
  O2-  O395  1  0.92918063  0.58390292  0.89707275  1
  O2-  O396  1  0.09805286  0.41979551  0.11382599  1
  O2-  O397  1  0.07143067  0.41720910  0.43554419  1
  O2-  O398  1  0.07855190  0.41704974  0.76900370  1
  O2-  O399  1  0.08480223  0.91984095  0.10806237  1
  O2-  O400  1  0.09820600  0.92393468  0.43713127  1
  O2-  O401  1  0.06886079  0.91593237  0.75526503  1
  O2-  O402  1  0.39963875  0.42154149  0.11402475  1
  O2-  O403  1  0.41804736  0.41975859  0.44056628  1
  O2-  O404  1  0.40674843  0.42140054  0.77653195  1
  O2-  O405  1  0.40147973  0.92070438  0.09979078  1
  O2-  O406  1  0.42771796  0.91802889  0.45056943  1
  O2-  O407  1  0.41977518  0.91662532  0.74918366  1
  O2-  O408  1  0.74727837  0.41304782  0.10791711  1
  O2-  O409  1  0.75866658  0.41875408  0.43226187  1
  O2-  O410  1  0.76349374  0.41360541  0.76290721  1
  O2-  O411  1  0.76046725  0.92241247  0.10482493  1
  O2-  O412  1  0.73879503  0.92450331  0.44887058  1
  O2-  O413  1  0.76057480  0.92095543  0.76622201  1
  O2-  O414  1  0.25097882  0.41761038  0.22756664  1
  O2-  O415  1  0.25926152  0.42125988  0.56018957  1
  O2-  O416  1  0.25257613  0.41707806  0.89605005  1
  O2-  O417  1  0.24534176  0.91723099  0.23406212  1
  O2-  O418  1  0.25803764  0.92142726  0.55441779  1
  O2-  O419  1  0.25801250  0.92035287  0.90692927  1
  O2-  O420  1  0.57390639  0.42027544  0.22543280  1
  O2-  O421  1  0.56824879  0.42076790  0.55938796  1
  O2-  O422  1  0.57602693  0.41697851  0.90544369  1
  O2-  O423  1  0.59125789  0.91819977  0.24201443  1
  O2-  O424  1  0.58577719  0.92111224  0.55250928  1
  O2-  O425  1  0.58733783  0.91466319  0.89945740  1
  O2-  O426  1  0.92493642  0.41698790  0.23493205  1
  O2-  O427  1  0.92493439  0.42175993  0.55278111  1
  O2-  O428  1  0.92818891  0.41834943  0.89345823  1
  O2-  O429  1  0.90885007  0.91846240  0.22562601  1
  O2-  O430  1  0.89518027  0.91790420  0.57424615  1
  O2-  O431  1  0.90880379  0.91422234  0.89438804  1
  O2-  O432  1  -0.00837762  0.00964248  0.01454167  1
  O2-  O433  1  0.00478551  0.00632641  0.32920720  1
  O2-  O434  1  -0.00773052  0.01211873  0.68313769  1
  O2-  O435  1  0.01168158  0.50983438  -0.01814533  1
  O2-  O436  1  0.01021685  0.49802488  0.31759945  1
  O2-  O437  1  0.00311839  0.49422108  0.65726392  1
  O2-  O438  1  0.33655800  0.01206882  -0.01083074  1
  O2-  O439  1  0.33533301  -0.01562224  0.33025208  1
  O2-  O440  1  0.33926747  0.00206834  0.64771754  1
  O2-  O441  1  0.32839241  0.49006856  0.00424282  1
  O2-  O442  1  0.33391441  0.49760366  0.33297642  1
  O2-  O443  1  0.34202082  0.48548945  0.65496960  1
  O2-  O444  1  0.66232167  0.01270961  0.00088275  1
  O2-  O445  1  0.66053927  -0.00147994  0.34767890  1
  O2-  O446  1  0.67573113  -0.00110979  0.65255115  1
  O2-  O447  1  0.65607329  0.51081946  0.01438459  1
  O2-  O448  1  0.66299457  0.49711896  0.34130395  1
  O2-  O449  1  0.65609317  0.51094457  0.68061814  1
  O2-  O450  1  0.17899566  0.01468148  0.01302408  1
  O2-  O451  1  0.16501326  -0.00233684  0.33796814  1
  O2-  O452  1  0.15420999  0.01743675  0.67363688  1
  O2-  O453  1  0.17296652  0.49915598  0.00407047  1
  O2-  O454  1  0.16835462  0.49956160  0.33676713  1
  O2-  O455  1  0.16861433  0.49371073  0.66212335  1
  O2-  O456  1  0.49538711  0.01321617  -0.01081648  1
  O2-  O457  1  0.50882973  0.00074256  0.34404318  1
  O2-  O458  1  0.47928052  0.01084568  0.62082178  1
  O2-  O459  1  0.49659403  0.48595758  -0.00095984  1
  O2-  O460  1  0.49229180  0.49738604  0.32397329  1
  O2-  O461  1  0.49940329  0.49861632  0.65849889  1
  O2-  O462  1  0.83602102  0.00318070  -0.00076970  1
  O2-  O463  1  0.82969137  -0.00020145  0.32751445  1
  O2-  O464  1  0.82945069  0.00655121  0.65637697  1
  O2-  O465  1  0.83457768  0.51380641  -0.00388915  1
  O2-  O466  1  0.83262631  0.49919640  0.33505285  1
  O2-  O467  1  0.83709212  0.49622071  0.66795841  1
  O2-  O468  1  0.24862236  0.25214889  0.58802245  1
  O2-  O469  1  0.74942886  0.75411217  0.40542577  1
  O2-  O470  1  0.25377170  0.24815069  0.26354952  1
  O2-  O471  1  0.25511493  0.75227164  0.26677491  1
  O2-  O472  1  0.74372104  0.24760068  0.07046791  1
  O2-  O473  1  0.41856029  0.25237891  0.07393002  1
  O2-  O474  1  0.91224786  0.75259721  0.25629969  1
  O2-  O475  1  0.58227720  0.24947837  0.93304543  1
  O2-  O476  1  0.58293982  0.74806711  0.92921994  1
  O2-  O477  1  0.58318778  0.75515512  0.25598389  1
  O2-  O478  1  0.91219338  0.74872310  0.93135662  1
  O2-  O479  1  0.09149577  0.25115502  0.41012743  1
  O2-  O480  1  0.24909094  0.25042728  0.92848281  1
  O2-  O481  1  0.75084661  0.75435230  0.06928863  1
  O2-  O482  1  0.91382369  0.25017589  0.92499189  1
  O2-  O483  1  0.41524103  0.75332391  0.40013177  1
  O2-  O484  1  0.41465157  0.74983552  0.07235636  1
  O2-  O485  1  0.42270832  0.24755174  0.40511101  1
  O2-  O486  1  0.58024800  0.25107827  0.59087136  1
  O2-  O487  1  0.08832507  0.25159553  0.74352444  1
  O2-  O488  1  0.24966278  0.75154293  0.92868788  1
  O2-  O489  1  0.08300831  0.75107820  0.75369500  1
  O2-  O490  1  0.08623909  0.75477856  0.40650931  1
  O2-  O491  1  0.74899201  0.25112653  0.74765233  1
  O2-  O492  1  0.57873120  0.25209598  0.26106660  1
