# generated using pymatgen
data_Ca108Mn108O277
_symmetry_space_group_name_H-M   'P 1'
_cell_length_a   16.02574974
_cell_length_b   22.30440630
_cell_length_c   16.38865125
_cell_angle_alpha   89.99964474
_cell_angle_beta   89.99823590
_cell_angle_gamma   89.99801357
_symmetry_Int_Tables_number   1
_chemical_formula_structural   Ca108Mn108O277
_chemical_formula_sum   'Ca108 Mn108 O277'
_cell_volume   5858.03871072
_cell_formula_units_Z   1
loop_
 _symmetry_equiv_pos_site_id
 _symmetry_equiv_pos_as_xyz
  1  'x, y, z'
loop_
 _atom_type_symbol
 _atom_type_oxidation_number
  Ca2+  2.0
  Mn3.34+  3.34
  O2-  -2.0
loop_
 _atom_site_type_symbol
 _atom_site_label
 _atom_site_symmetry_multiplicity
 _atom_site_fract_x
 _atom_site_fract_y
 _atom_site_fract_z
 _atom_site_occupancy
  Ca2+  Ca0  1  0.08087727  0.27767737  0.25422068  1
  Ca2+  Ca1  1  0.07567258  0.26430010  0.58515801  1
  Ca2+  Ca2  1  0.11114637  0.24274267  0.91881341  1
  Ca2+  Ca3  1  0.06277786  0.74707220  0.23181270  1
  Ca2+  Ca4  1  0.08361786  0.76020055  0.58196549  1
  Ca2+  Ca5  1  0.07493256  0.75639494  0.92866026  1
  Ca2+  Ca6  1  0.44441950  0.23816060  0.25966274  1
  Ca2+  Ca7  1  0.42978621  0.24853422  0.57245123  1
  Ca2+  Ca8  1  0.41687823  0.24246751  0.91824674  1
  Ca2+  Ca9  1  0.43184138  0.75837060  0.25182993  1
  Ca2+  Ca10  1  0.41876898  0.74633770  0.58722186  1
  Ca2+  Ca11  1  0.42739068  0.75994667  0.90758286  1
  Ca2+  Ca12  1  0.72522178  0.24502422  0.26136590  1
  Ca2+  Ca13  1  0.73617178  0.22891731  0.56261622  1
  Ca2+  Ca14  1  0.71721791  0.23931780  0.92869225  1
  Ca2+  Ca15  1  0.75858047  0.74346661  0.22472147  1
  Ca2+  Ca16  1  0.75235237  0.74546231  0.59718232  1
  Ca2+  Ca17  1  0.73921617  0.73889392  0.93257735  1
  Ca2+  Ca18  1  0.25735580  0.25184651  0.06596014  1
  Ca2+  Ca19  1  0.26681433  0.26044491  0.41363147  1
  Ca2+  Ca20  1  0.24849293  0.25262393  0.77327072  1
  Ca2+  Ca21  1  0.22851412  0.75655304  0.08196559  1
  Ca2+  Ca22  1  0.25072191  0.75347029  0.42891700  1
  Ca2+  Ca23  1  0.25856456  0.75316958  0.74057903  1
  Ca2+  Ca24  1  0.57964168  0.24055994  0.09091850  1
  Ca2+  Ca25  1  0.57867117  0.24659026  0.40350981  1
  Ca2+  Ca26  1  0.57692113  0.25115957  0.76075423  1
  Ca2+  Ca27  1  0.60620928  0.74837493  0.08965375  1
  Ca2+  Ca28  1  0.57690004  0.75314965  0.41359146  1
  Ca2+  Ca29  1  0.58431050  0.74448399  0.75070220  1
  Ca2+  Ca30  1  0.92136380  0.25248645  0.09000736  1
  Ca2+  Ca31  1  0.89422218  0.25689064  0.42419584  1
  Ca2+  Ca32  1  0.92638718  0.25205011  0.73804226  1
  Ca2+  Ca33  1  0.91385567  0.73151528  0.09140143  1
  Ca2+  Ca34  1  0.92389989  0.75652260  0.40393500  1
  Ca2+  Ca35  1  0.90688269  0.75732896  0.74698416  1
  Ca2+  Ca36  1  0.57874489  0.10776704  0.42898153  1
  Ca2+  Ca37  1  0.30695313  0.08648368  0.42020929  1
  Ca2+  Ca38  1  0.70974992  0.10740791  0.24429697  1
  Ca2+  Ca39  1  0.57601820  0.60368241  0.41934091  1
  Ca2+  Ca40  1  0.73127987  0.59285441  0.60457806  1
  Ca2+  Ca41  1  0.08061227  0.58387909  0.94247236  1
  Ca2+  Ca42  1  0.92184134  0.58551049  0.39873519  1
  Ca2+  Ca43  1  0.57846229  0.10566047  0.74458721  1
  Ca2+  Ca44  1  0.22781135  0.59441754  0.08355675  1
  Ca2+  Ca45  1  0.42820969  0.59669047  0.59095161  1
  Ca2+  Ca46  1  0.88453500  0.09528607  0.06764699  1
  Ca2+  Ca47  1  0.11110771  0.58304147  0.58275490  1
  Ca2+  Ca48  1  0.89995090  0.07967074  0.71782897  1
  Ca2+  Ca49  1  0.44473504  0.10660295  0.56792183  1
  Ca2+  Ca50  1  0.11251615  0.09729593  0.91726102  1
  Ca2+  Ca51  1  0.58758022  0.10421461  0.73925806  1
  Ca2+  Ca52  1  0.43307369  0.58441939  0.90276492  1
  Ca2+  Ca53  1  0.58718034  0.59531017  0.74416517  1
  Ca2+  Ca54  1  0.10555644  0.07983779  0.24219701  1
  Ca2+  Ca55  1  0.05814985  0.08092629  0.60483847  1
  Ca2+  Ca56  1  0.77260424  0.60192093  0.23504976  1
  Ca2+  Ca57  1  0.04600504  0.59996911  0.22323395  1
  Ca2+  Ca58  1  0.06924015  0.58323269  0.94275803  1
  Ca2+  Ca59  1  0.88740354  0.58564087  0.74077386  1
  Ca2+  Ca60  1  0.27230912  0.57410369  0.71535252  1
  Ca2+  Ca61  1  0.61973293  0.59874369  0.08359215  1
  Ca2+  Ca62  1  0.09359718  0.07675105  0.24322380  1
  Ca2+  Ca63  1  0.44133575  0.09269518  0.91206969  1
  Ca2+  Ca64  1  0.87753389  0.10106078  0.43935145  1
  Ca2+  Ca65  1  0.44891398  0.09283835  0.26614441  1
  Ca2+  Ca66  1  0.25345527  0.10129926  0.76476153  1
  Ca2+  Ca67  1  0.28165064  0.57622554  0.71910334  1
  Ca2+  Ca68  1  0.69396856  0.09468027  0.92254844  1
  Ca2+  Ca69  1  0.25944418  0.09068952  0.06042918  1
  Ca2+  Ca70  1  0.59457955  0.10686971  0.09087240  1
  Ca2+  Ca71  1  0.43083910  0.09214987  0.91213254  1
  Ca2+  Ca72  1  0.42222789  0.91913077  0.92431679  1
  Ca2+  Ca73  1  0.90372272  0.40497770  0.08579936  1
  Ca2+  Ca74  1  0.41710498  0.39743036  0.25052957  1
  Ca2+  Ca75  1  0.92952647  0.91579264  0.72445519  1
  Ca2+  Ca76  1  0.27161401  0.91881253  0.39591357  1
  Ca2+  Ca77  1  0.41818624  0.91914401  0.58689445  1
  Ca2+  Ca78  1  0.89992056  0.40449150  0.75074718  1
  Ca2+  Ca79  1  0.25637079  0.91049082  0.09635093  1
  Ca2+  Ca80  1  0.75154222  0.39802699  0.58809538  1
  Ca2+  Ca81  1  0.41065913  0.40275396  0.90081779  1
  Ca2+  Ca82  1  0.09611609  0.89761783  0.25066584  1
  Ca2+  Ca83  1  0.42889312  0.39812185  0.24971509  1
  Ca2+  Ca84  1  0.26227055  0.91509332  0.74401640  1
  Ca2+  Ca85  1  0.56142100  0.91835176  0.74873677  1
  Ca2+  Ca86  1  0.74600898  0.91428368  0.91758130  1
  Ca2+  Ca87  1  0.42171875  0.40206723  0.90223313  1
  Ca2+  Ca88  1  0.75510611  0.90841527  0.58768408  1
  Ca2+  Ca89  1  0.57125086  0.91964055  0.75202529  1
  Ca2+  Ca90  1  0.92181406  0.90467826  0.08028858  1
  Ca2+  Ca91  1  0.22202510  0.41660694  0.42994603  1
  Ca2+  Ca92  1  0.76739157  0.90660939  0.58590732  1
  Ca2+  Ca93  1  0.74644657  0.89797006  0.24878582  1
  Ca2+  Ca94  1  0.25103674  0.91500583  0.74333796  1
  Ca2+  Ca95  1  0.59618586  0.40224277  0.08365483  1
  Ca2+  Ca96  1  0.74292721  0.40429149  0.91285673  1
  Ca2+  Ca97  1  0.57361808  0.91333231  0.07654895  1
  Ca2+  Ca98  1  0.73474227  0.91494821  0.91769218  1
  Ca2+  Ca99  1  0.73498502  0.89812407  0.24748960  1
  Ca2+  Ca100  1  0.57722836  0.40376449  0.74826539  1
  Ca2+  Ca101  1  0.74017463  0.39759459  0.58797683  1
  Ca2+  Ca102  1  0.26682649  0.91231953  0.39593060  1
  Ca2+  Ca103  1  0.91666550  0.40609781  0.08701906  1
  Ca2+  Ca104  1  0.93611935  0.41228959  0.41222330  1
  Ca2+  Ca105  1  0.07426111  0.39919904  0.92122174  1
  Ca2+  Ca106  1  0.08409497  0.91172933  0.92162020  1
  Ca2+  Ca107  1  0.08544369  0.39970101  0.92006803  1
  Mn3.34+  Mn108  1  0.08832760  0.33110128  0.08910210  1
  Mn3.34+  Mn109  1  0.08432117  0.33900039  0.41925898  1
  Mn3.34+  Mn110  1  0.08736379  0.33195590  0.74447951  1
  Mn3.34+  Mn111  1  0.08185193  0.83334744  0.08403351  1
  Mn3.34+  Mn112  1  0.08408348  0.83080154  0.41647489  1
  Mn3.34+  Mn113  1  0.08446860  0.83467089  0.75246045  1
  Mn3.34+  Mn114  1  0.41691000  0.32909050  0.08393221  1
  Mn3.34+  Mn115  1  0.41850098  0.33003191  0.42365235  1
  Mn3.34+  Mn116  1  0.40360752  0.34278999  0.73065931  1
  Mn3.34+  Mn117  1  0.41588934  0.83553801  0.08352621  1
  Mn3.34+  Mn118  1  0.42329941  0.83881457  0.42318058  1
  Mn3.34+  Mn119  1  0.41697625  0.83556436  0.75008049  1
  Mn3.34+  Mn120  1  0.74834720  0.32796433  0.08747596  1
  Mn3.34+  Mn121  1  0.74589024  0.33385013  0.41480539  1
  Mn3.34+  Mn122  1  0.74759894  0.33162982  0.75670775  1
  Mn3.34+  Mn123  1  0.75276747  0.83431229  0.08115484  1
  Mn3.34+  Mn124  1  0.74762321  0.82838044  0.42040181  1
  Mn3.34+  Mn125  1  0.74871681  0.83179319  0.75507506  1
  Mn3.34+  Mn126  1  0.24925961  0.33519024  0.24878561  1
  Mn3.34+  Mn127  1  0.25325215  0.34030358  0.58456667  1
  Mn3.34+  Mn128  1  0.25382250  0.33195216  0.91550977  1
  Mn3.34+  Mn129  1  0.25583848  0.83365535  0.24752028  1
  Mn3.34+  Mn130  1  0.24992521  0.83555120  0.57739976  1
  Mn3.34+  Mn131  1  0.25025422  0.83566862  0.91801330  1
  Mn3.34+  Mn132  1  0.59072445  0.33446739  0.25043751  1
  Mn3.34+  Mn133  1  0.57843787  0.32378222  0.58183232  1
  Mn3.34+  Mn134  1  0.58147563  0.32901139  0.91848270  1
  Mn3.34+  Mn135  1  0.57528171  0.83283070  0.25084935  1
  Mn3.34+  Mn136  1  0.58367735  0.83315412  0.57703450  1
  Mn3.34+  Mn137  1  0.58142486  0.83405854  0.91595838  1
  Mn3.34+  Mn138  1  0.91260143  0.33794715  0.25682344  1
  Mn3.34+  Mn139  1  0.92041901  0.33205184  0.58123304  1
  Mn3.34+  Mn140  1  0.91161104  0.32548361  0.91178739  1
  Mn3.34+  Mn141  1  0.91781319  0.82883868  0.25056305  1
  Mn3.34+  Mn142  1  0.92326483  0.83405587  0.57617553  1
  Mn3.34+  Mn143  1  0.91840300  0.83799849  0.91145763  1
  Mn3.34+  Mn144  1  0.41543950  0.16618123  0.75157983  1
  Mn3.34+  Mn145  1  0.24617633  0.16706346  0.58304985  1
  Mn3.34+  Mn146  1  0.07493437  0.16546524  0.41909926  1
  Mn3.34+  Mn147  1  0.07869892  0.65734755  0.42183217  1
  Mn3.34+  Mn148  1  0.08031011  0.66577526  0.75010374  1
  Mn3.34+  Mn149  1  0.75677233  0.66296077  0.42380812  1
  Mn3.34+  Mn150  1  0.90445651  0.66308469  0.91488223  1
  Mn3.34+  Mn151  1  0.58628564  0.66586910  0.91554620  1
  Mn3.34+  Mn152  1  0.24945729  0.16813145  0.24782512  1
  Mn3.34+  Mn153  1  0.90723704  0.16233040  0.24562481  1
  Mn3.34+  Mn154  1  0.91993807  0.16940233  0.24914425  1
  Mn3.34+  Mn155  1  0.25430460  0.17348399  0.58488507  1
  Mn3.34+  Mn156  1  0.26310449  0.66632644  0.25363471  1
  Mn3.34+  Mn157  1  0.08385619  0.16742668  0.08284569  1
  Mn3.34+  Mn158  1  0.25481946  0.66817951  0.57977807  1
  Mn3.34+  Mn159  1  0.24987233  0.67287989  0.25413476  1
  Mn3.34+  Mn160  1  0.58497670  0.66539001  0.24791944  1
  Mn3.34+  Mn161  1  0.24491741  0.67089088  0.90965997  1
  Mn3.34+  Mn162  1  0.42316420  0.66939332  0.74980331  1
  Mn3.34+  Mn163  1  0.74978230  0.17194321  0.75028687  1
  Mn3.34+  Mn164  1  0.08209185  0.16686670  0.75179435  1
  Mn3.34+  Mn165  1  0.91824871  0.67050238  0.58484282  1
  Mn3.34+  Mn166  1  0.91688832  0.17492543  0.91259972  1
  Mn3.34+  Mn167  1  0.91283071  0.16763773  0.58592111  1
  Mn3.34+  Mn168  1  0.08646317  0.17031051  0.41855305  1
  Mn3.34+  Mn169  1  0.74495259  0.67043489  0.42201044  1
  Mn3.34+  Mn170  1  0.26180587  0.16130621  0.24414377  1
  Mn3.34+  Mn171  1  0.42567123  0.66359849  0.08411790  1
  Mn3.34+  Mn172  1  0.91360592  0.66895709  0.91504214  1
  Mn3.34+  Mn173  1  0.08998391  0.66103253  0.42008789  1
  Mn3.34+  Mn174  1  0.41738376  0.66935718  0.41902286  1
  Mn3.34+  Mn175  1  0.74316149  0.66523091  0.75083570  1
  Mn3.34+  Mn176  1  0.41285283  0.67035976  0.08124532  1
  Mn3.34+  Mn177  1  0.41987716  0.16285598  0.08385289  1
  Mn3.34+  Mn178  1  0.90768288  0.16941054  0.91013875  1
  Mn3.34+  Mn179  1  0.25521822  0.66523514  0.90845596  1
  Mn3.34+  Mn180  1  0.08208075  0.00219975  0.74954920  1
  Mn3.34+  Mn181  1  0.91636027  0.49768910  0.26730311  1
  Mn3.34+  Mn182  1  0.25325095  -0.00119649  0.91951336  1
  Mn3.34+  Mn183  1  0.07191019  -0.00332450  0.42388451  1
  Mn3.34+  Mn184  1  0.24313869  0.50301511  0.25831479  1
  Mn3.34+  Mn185  1  0.73342403  -0.00110164  0.42141921  1
  Mn3.34+  Mn186  1  0.08224867  -0.00127736  0.07711044  1
  Mn3.34+  Mn187  1  0.90156860  0.00412169  0.24987368  1
  Mn3.34+  Mn188  1  0.09233276  0.50123612  0.74743571  1
  Mn3.34+  Mn189  1  0.08603239  0.49548882  0.08302099  1
  Mn3.34+  Mn190  1  0.56763445  0.49335456  0.57892067  1
  Mn3.34+  Mn191  1  0.25208242  0.49978396  0.90643460  1
  Mn3.34+  Mn192  1  0.90277720  0.49991316  0.91202730  1
  Mn3.34+  Mn193  1  0.58320622  -0.00042881  0.58612492  1
  Mn3.34+  Mn194  1  0.91907747  0.00229093  0.91336598  1
  Mn3.34+  Mn195  1  0.59373484  0.50083559  0.91669715  1
  Mn3.34+  Mn196  1  0.42048067  0.50483348  0.08149982  1
  Mn3.34+  Mn197  1  0.40896510  0.50169475  0.42370810  1
  Mn3.34+  Mn198  1  0.73884480  0.49920995  0.41141509  1
  Mn3.34+  Mn199  1  0.75220388  0.00204621  0.74882031  1
  Mn3.34+  Mn200  1  0.92291435  0.50051893  0.57410843  1
  Mn3.34+  Mn201  1  0.25446559  0.00016189  0.58844798  1
  Mn3.34+  Mn202  1  0.40637917  0.49872827  0.08114789  1
  Mn3.34+  Mn203  1  0.08582706  0.00297292  0.42438259  1
  Mn3.34+  Mn204  1  0.23169540  0.49518462  0.25891767  1
  Mn3.34+  Mn205  1  0.07884385  0.49531614  0.74501753  1
  Mn3.34+  Mn206  1  0.58640064  0.50265345  0.25678005  1
  Mn3.34+  Mn207  1  0.58040145  0.49914153  0.58495859  1
  Mn3.34+  Mn208  1  0.75366639  0.49677162  0.07610022  1
  Mn3.34+  Mn209  1  0.74449142  0.00169385  0.07445934  1
  Mn3.34+  Mn210  1  0.42066946  0.00147267  0.08338090  1
  Mn3.34+  Mn211  1  0.57485653  -0.00715317  0.26597568  1
  Mn3.34+  Mn212  1  0.91484273  -0.00294303  0.25002239  1
  Mn3.34+  Mn213  1  0.91219893  0.50538874  0.57519270  1
  Mn3.34+  Mn214  1  0.74355951  0.00439871  0.42349822  1
  Mn3.34+  Mn215  1  0.42096254  0.49477064  0.42288221  1
  O2-  O216  1  -0.00862945  0.15398350  -0.00268682  1
  O2-  O217  1  -0.00159512  0.13426727  0.32605368  1
  O2-  O218  1  -0.00549458  0.15345387  0.67567923  1
  O2-  O219  1  -0.00159439  0.65896183  -0.00900144  1
  O2-  O220  1  0.00417820  0.65460585  0.33536764  1
  O2-  O221  1  0.00044997  0.65170328  0.66690447  1
  O2-  O222  1  0.34908159  0.14857255  -0.00522747  1
  O2-  O223  1  0.34331273  0.15287900  0.32074870  1
  O2-  O224  1  0.32872213  0.16749348  0.67262083  1
  O2-  O225  1  0.33095406  0.64181842  0.00216266  1
  O2-  O226  1  0.33766669  0.69459023  0.33417348  1
  O2-  O227  1  0.33675708  0.66273248  0.66678962  1
  O2-  O228  1  0.66765516  0.16857952  0.01158620  1
  O2-  O229  1  0.65075296  0.16554881  0.33276905  1
  O2-  O230  1  0.66335216  0.17959068  0.67660080  1
  O2-  O231  1  0.65878919  0.66739445  -0.00259818  1
  O2-  O232  1  0.66922756  0.65787509  0.33691930  1
  O2-  O233  1  0.66480917  0.67089224  0.67141871  1
  O2-  O234  1  0.16702908  0.16079093  0.00884730  1
  O2-  O235  1  0.17082776  0.14054796  0.33722231  1
  O2-  O236  1  0.16329257  0.15398680  0.66266567  1
  O2-  O237  1  0.16447564  0.65465381  -0.00778787  1
  O2-  O238  1  0.17438915  0.65643029  0.33645577  1
  O2-  O239  1  0.17266778  0.65383166  0.67594028  1
  O2-  O240  1  0.50135957  0.14714462  0.00624809  1
  O2-  O241  1  0.51127740  0.16361236  0.33563149  1
  O2-  O242  1  0.49603067  0.17149442  0.67115435  1
  O2-  O243  1  0.49759102  0.64534305  -0.00463573  1
  O2-  O244  1  0.50219827  0.67044337  0.33646647  1
  O2-  O245  1  0.50139584  0.66451369  0.67250550  1
  O2-  O246  1  0.83067356  0.17777639  -0.00540862  1
  O2-  O247  1  0.82835735  0.15427455  0.32583041  1
  O2-  O248  1  0.83471094  0.17096254  0.67189931  1
  O2-  O249  1  0.83000863  0.66151536  -0.00342625  1
  O2-  O250  1  0.83459534  0.66160820  0.34275379  1
  O2-  O251  1  0.83011756  0.65702876  0.66189574  1
  O2-  O252  1  -0.00815782  0.33939977  -0.00205728  1
  O2-  O253  1  0.00351718  0.34924906  0.33069273  1
  O2-  O254  1  -0.00579995  0.34645542  0.67206031  1
  O2-  O255  1  0.00294940  0.84927817  -0.00476577  1
  O2-  O256  1  0.00801711  0.83466269  0.32521236  1
  O2-  O257  1  0.00271769  0.83226268  0.66878946  1
  O2-  O258  1  0.34064487  0.34384257  -0.00533359  1
  O2-  O259  1  0.33177193  0.35048035  0.33632749  1
  O2-  O260  1  0.32941005  0.29956038  0.66294071  1
  O2-  O261  1  0.33246086  0.85553846  -0.00075357  1
  O2-  O262  1  0.33586200  0.82807452  0.33840244  1
  O2-  O263  1  0.33552565  0.85039108  0.66408140  1
  O2-  O264  1  0.67171761  0.33977626  -0.00380417  1
  O2-  O265  1  0.66958271  0.34124839  0.33130076  1
  O2-  O266  1  0.66473252  0.33115065  0.67151463  1
  O2-  O267  1  0.66660898  0.84997148  -0.00002875  1
  O2-  O268  1  0.66695963  0.84049218  0.33414653  1
  O2-  O269  1  0.66658178  0.84371592  0.66783826  1
  O2-  O270  1  0.16405924  0.34082737  -0.00324013  1
  O2-  O271  1  0.17118811  0.34483477  0.33776932  1
  O2-  O272  1  0.17369803  0.32256398  0.66306567  1
  O2-  O273  1  0.16878711  0.84826640  0.00472830  1
  O2-  O274  1  0.18055635  0.83699422  0.33883299  1
  O2-  O275  1  0.17603692  0.84396040  0.67473435  1
  O2-  O276  1  0.50021755  0.35575335  -0.00132834  1
  O2-  O277  1  0.49899991  0.34187511  0.32943959  1
  O2-  O278  1  0.50080316  0.31621971  0.67036687  1
  O2-  O279  1  0.49753880  0.85147840  -0.00723926  1
  O2-  O280  1  0.49747890  0.82298690  0.34009120  1
  O2-  O281  1  0.50363838  0.84715224  0.66652433  1
  O2-  O282  1  0.83351833  0.32351566  0.00185988  1
  O2-  O283  1  0.84101985  0.34546389  0.34839344  1
  O2-  O284  1  0.82923156  0.33894953  0.66930876  1
  O2-  O285  1  0.83099972  0.85802913  -0.00432005  1
  O2-  O286  1  0.82635140  0.83468667  0.33023417  1
  O2-  O287  1  0.83082702  0.84514398  0.67196216  1
  O2-  O288  1  -0.00069830  0.17648580  0.16690419  1
  O2-  O289  1  0.00215975  0.18157194  0.50782455  1
  O2-  O290  1  0.00151842  0.18482276  0.83855426  1
  O2-  O291  1  -0.00481652  0.67713343  0.16712284  1
  O2-  O292  1  -0.00149800  0.68784311  0.50213069  1
  O2-  O293  1  -0.00470316  0.68600475  0.83280291  1
  O2-  O294  1  0.32260723  0.18173667  0.15020706  1
  O2-  O295  1  0.33879972  0.18013343  0.50765585  1
  O2-  O296  1  0.34011940  0.17833442  0.82922556  1
  O2-  O297  1  0.33449175  0.68701272  0.16666677  1
  O2-  O298  1  0.33441556  0.68582188  0.50023328  1
  O2-  O299  1  0.33504202  0.68405321  0.82899606  1
  O2-  O300  1  0.67002845  0.18105522  0.15959539  1
  O2-  O301  1  0.63336775  0.18713035  0.50154758  1
  O2-  O302  1  0.66651940  0.17304284  0.82920089  1
  O2-  O303  1  0.66925784  0.67172255  0.17338013  1
  O2-  O304  1  0.66707435  0.68476561  0.49880218  1
  O2-  O305  1  0.66434816  0.68263972  0.83330634  1
  O2-  O306  1  0.15665416  0.17534125  0.18324427  1
  O2-  O307  1  0.17219805  0.19327171  0.50062946  1
  O2-  O308  1  0.16503896  0.17409249  0.82717314  1
  O2-  O309  1  0.17340042  0.68229431  0.17097462  1
  O2-  O310  1  0.16127386  0.67526536  0.50769128  1
  O2-  O311  1  0.15882774  0.69383029  0.83009770  1
  O2-  O312  1  0.49585999  0.17151362  0.16533014  1
  O2-  O313  1  0.51331947  0.18390389  0.50325032  1
  O2-  O314  1  0.49837578  0.17630863  0.82731470  1
  O2-  O315  1  0.50402922  0.68401786  0.16324527  1
  O2-  O316  1  0.49556110  0.68788697  0.49380986  1
  O2-  O317  1  0.49835566  0.67923429  0.83490285  1
  O2-  O318  1  0.83708340  0.18300601  0.16193316  1
  O2-  O319  1  0.84036179  0.18061624  0.50338793  1
  O2-  O320  1  0.83208313  0.19522327  0.83230499  1
  O2-  O321  1  0.83942854  0.67436405  0.17151305  1
  O2-  O322  1  0.83479351  0.68969232  0.49980517  1
  O2-  O323  1  0.83479894  0.67453224  0.82680277  1
  O2-  O324  1  -0.00460786  0.32787020  0.16168144  1
  O2-  O325  1  -0.00675676  0.32029470  0.49314387  1
  O2-  O326  1  0.00520678  0.31804778  0.84413660  1
  O2-  O327  1  -0.00427629  0.83113535  0.16312221  1
  O2-  O328  1  0.00014172  0.81721446  0.49491692  1
  O2-  O329  1  0.00070711  0.81605348  0.83139646  1
  O2-  O330  1  0.34534490  0.31918610  0.17784604  1
  O2-  O331  1  0.33478516  0.31638171  0.50588113  1
  O2-  O332  1  0.33795071  0.32578545  0.83141306  1
  O2-  O333  1  0.32888910  0.81243339  0.16368797  1
  O2-  O334  1  0.33634949  0.81616383  0.50008774  1
  O2-  O335  1  0.33029129  0.82777026  0.82725219  1
  O2-  O336  1  0.66173469  0.31901759  0.15901321  1
  O2-  O337  1  0.67398475  0.32372061  0.51397321  1
  O2-  O338  1  0.66524779  0.31449531  0.83481186  1
  O2-  O339  1  0.67242282  0.82782749  0.16757218  1
  O2-  O340  1  0.66914476  0.80669420  0.50501967  1
  O2-  O341  1  0.66668480  0.82271755  0.83595637  1
  O2-  O342  1  0.17348113  0.31685424  0.16155636  1
  O2-  O343  1  0.17255819  0.31864665  0.50011436  1
  O2-  O344  1  0.16153307  0.32654855  0.84180054  1
  O2-  O345  1  0.16345212  0.81933341  0.17451431  1
  O2-  O346  1  0.16731984  0.82001812  0.49920079  1
  O2-  O347  1  0.16685458  0.81752755  0.83569983  1
  O2-  O348  1  0.50042415  0.32504683  0.16635059  1
  O2-  O349  1  0.50607526  0.31244599  0.49561075  1
  O2-  O350  1  0.49544685  0.32259536  0.84000951  1
  O2-  O351  1  0.50573462  0.82189805  0.15720600  1
  O2-  O352  1  0.49761833  0.81251534  0.50496635  1
  O2-  O353  1  0.50545674  0.82589453  0.82644616  1
  O2-  O354  1  0.83838498  0.31800661  0.16199212  1
  O2-  O355  1  0.82641663  0.32479232  0.51231706  1
  O2-  O356  1  0.83475714  0.31154812  0.82759452  1
  O2-  O357  1  0.82980991  0.83107351  0.16857752  1
  O2-  O358  1  0.82753476  0.81760390  0.50548934  1
  O2-  O359  1  0.82605733  0.83088989  0.83916057  1
  O2-  O360  1  0.08334893  0.08002845  0.10926652  1
  O2-  O361  1  0.07792482  0.08097128  0.46631396  1
  O2-  O362  1  0.08332663  0.08198441  0.78072150  1
  O2-  O363  1  0.09203340  0.57628063  0.09713501  1
  O2-  O364  1  0.06489012  0.57851733  0.45515669  1
  O2-  O365  1  0.07958936  0.57579213  0.80355153  1
  O2-  O366  1  0.40813730  0.07813043  0.12140182  1
  O2-  O367  1  0.43926205  0.07541866  0.44445290  1
  O2-  O368  1  0.42433155  0.08428327  0.76924252  1
  O2-  O369  1  0.40695881  0.58221173  0.12414521  1
  O2-  O370  1  0.43197167  0.58130949  0.44999215  1
  O2-  O371  1  0.40503119  0.58711835  0.77292353  1
  O2-  O372  1  0.75405321  0.07453854  0.11343975  1
  O2-  O373  1  0.73361814  0.08491895  0.43863629  1
  O2-  O374  1  0.75038897  0.08103644  0.77734674  1
  O2-  O375  1  0.74546487  0.56885386  0.11404017  1
  O2-  O376  1  0.74644208  0.57872920  0.46303400  1
  O2-  O377  1  0.74112910  0.58507139  0.75441476  1
  O2-  O378  1  0.23850402  0.08001548  0.20944928  1
  O2-  O379  1  0.24887512  0.08126504  0.55324063  1
  O2-  O380  1  0.26073322  0.07604278  0.89355152  1
  O2-  O381  1  0.24833882  0.58112986  0.21793308  1
  O2-  O382  1  0.25620323  0.58810359  0.57189064  1
  O2-  O383  1  0.24248593  0.58255578  0.86457772  1
  O2-  O384  1  0.58243047  0.06043416  0.21088345  1
  O2-  O385  1  0.57995940  0.07694519  0.57301811  1
  O2-  O386  1  0.56792530  0.06948052  0.86790079  1
  O2-  O387  1  0.57963018  0.58073177  0.21822967  1
  O2-  O388  1  0.58197521  0.57739394  0.55272633  1
  O2-  O389  1  0.57732492  0.58082628  0.88308512  1
  O2-  O390  1  0.92708859  0.07841575  0.19904340  1
  O2-  O391  1  0.91900947  0.08542935  0.56979347  1
  O2-  O392  1  0.90818808  0.08455635  0.88391392  1
  O2-  O393  1  0.91205882  0.56685909  0.22184598  1
  O2-  O394  1  0.91159528  0.58681912  0.54586516  1
  O2-  O395  1  0.93133925  0.58131792  0.87793660  1
  O2-  O396  1  0.05959369  0.41490636  0.08192005  1
  O2-  O397  1  0.08057246  0.41554512  0.44680794  1
  O2-  O398  1  0.07375504  0.41752357  0.78518524  1
  O2-  O399  1  0.09054862  0.92017749  0.11404634  1
  O2-  O400  1  0.09709207  0.91579792  0.42330046  1
  O2-  O401  1  0.09248220  0.92311112  0.78222326  1
  O2-  O402  1  0.41891371  0.41880304  0.11522601  1
  O2-  O403  1  0.40950666  0.41516536  0.44171503  1
  O2-  O404  1  0.43715808  0.41977699  0.77227158  1
  O2-  O405  1  0.41479487  0.92181535  0.11033449  1
  O2-  O406  1  0.40309730  0.91611435  0.44846941  1
  O2-  O407  1  0.42339934  0.91883940  0.78043130  1
  O2-  O408  1  0.76218858  0.41715055  0.10620297  1
  O2-  O409  1  0.75532204  0.42262760  0.45637139  1
  O2-  O410  1  0.74831094  0.41316163  0.77367395  1
  O2-  O411  1  0.74999380  0.92410241  0.11510814  1
  O2-  O412  1  0.74680838  0.91822930  0.45160765  1
  O2-  O413  1  0.73851230  0.92112806  0.77999213  1
  O2-  O414  1  0.26853186  0.42228087  0.21486690  1
  O2-  O415  1  0.25294141  0.41548238  0.56495409  1
  O2-  O416  1  0.26061010  0.41630429  0.89429814  1
  O2-  O417  1  0.24428056  0.91560981  0.23845812  1
  O2-  O418  1  0.25300330  0.92060783  0.54259412  1
  O2-  O419  1  0.24335573  0.92123417  0.88008961  1
  O2-  O420  1  0.56679028  0.42251194  0.21811474  1
  O2-  O421  1  0.58723697  0.41342100  0.57756868  1
  O2-  O422  1  0.58731745  0.41847665  0.88523039  1
  O2-  O423  1  0.59665977  0.92058765  0.21842502  1
  O2-  O424  1  0.60653018  0.92086504  0.55648768  1
  O2-  O425  1  0.59380145  0.91964119  0.88476136  1
  O2-  O426  1  0.91180795  0.42653898  0.21782839  1
  O2-  O427  1  0.90756226  0.41738735  0.55708118  1
  O2-  O428  1  0.91687542  0.41589938  0.88589849  1
  O2-  O429  1  0.90265620  0.91610018  0.23223961  1
  O2-  O430  1  0.90281837  0.91484296  0.56813954  1
  O2-  O431  1  0.92374459  0.92330298  0.87445341  1
  O2-  O432  1  -0.00703309  -0.00543104  0.00411159  1
  O2-  O433  1  -0.00011407  0.01334478  0.32857286  1
  O2-  O434  1  -0.00747547  0.00477262  0.68623445  1
  O2-  O435  1  0.01171083  0.49687145  -0.02425959  1
  O2-  O436  1  -0.00670288  0.50532157  0.33719695  1
  O2-  O437  1  0.01027025  0.51667283  0.65362286  1
  O2-  O438  1  0.33168521  -0.00044833  0.00638405  1
  O2-  O439  1  0.30610821  0.00029843  0.37042438  1
  O2-  O440  1  0.33203115  -0.02014338  0.66552357  1
  O2-  O441  1  0.33312117  0.51366849  -0.00640132  1
  O2-  O442  1  0.32730670  0.49668246  0.33965654  1
  O2-  O443  1  0.35457197  0.52004391  0.64464077  1
  O2-  O444  1  0.66995170  -0.00839660  -0.00606028  1
  O2-  O445  1  0.68502392  -0.00650067  0.30976348  1
  O2-  O446  1  0.65744691  -0.00531364  0.68234358  1
  O2-  O447  1  0.65791251  0.48892654  0.01448472  1
  O2-  O448  1  0.65980714  0.52587055  0.33892508  1
  O2-  O449  1  0.68033289  0.49798287  0.63614247  1
  O2-  O450  1  0.16305558  0.00708274  -0.00875376  1
  O2-  O451  1  0.15116386  0.01034018  0.32644336  1
  O2-  O452  1  0.18025237  0.00201105  0.68796011  1
  O2-  O453  1  0.16280543  0.50676868  -0.01379160  1
  O2-  O454  1  0.16144913  0.49982626  0.34377691  1
  O2-  O455  1  0.17535743  0.51512384  0.67166539  1
  O2-  O456  1  0.49363053  0.00188652  0.00206956  1
  O2-  O457  1  0.50117284  0.00932015  0.33448688  1
  O2-  O458  1  0.50395856  -0.01182630  0.66471036  1
  O2-  O459  1  0.49017141  0.49530976  -0.01568381  1
  O2-  O460  1  0.48939099  0.49421158  0.32580093  1
  O2-  O461  1  0.51721786  0.51715085  0.67971340  1
  O2-  O462  1  0.82847472  -0.00783862  -0.00726152  1
  O2-  O463  1  0.84010923  0.00610255  0.35027329  1
  O2-  O464  1  0.82898844  -0.01282534  0.67459593  1
  O2-  O465  1  0.84917133  0.48272797  0.01579086  1
  O2-  O466  1  0.83669879  0.50802983  0.34504329  1
  O2-  O467  1  0.84456501  0.49629350  0.66904755  1
  O2-  O468  1  0.91548014  0.75048902  0.25798307  1
  O2-  O469  1  0.41130623  0.25426411  0.39496580  1
  O2-  O470  1  0.25418287  0.25292878  0.92859540  1
  O2-  O471  1  0.75404011  0.75557216  0.06947962  1
  O2-  O472  1  0.24372492  0.75262363  0.60390614  1
  O2-  O473  1  0.57601643  0.75220540  0.93861453  1
  O2-  O474  1  0.59244812  0.74962715  0.26131777  1
  O2-  O475  1  0.08023094  0.75505318  0.06694254  1
  O2-  O476  1  0.26414681  0.75111115  0.94723693  1
  O2-  O477  1  0.91456576  0.75005112  0.61051917  1
  O2-  O478  1  0.08074859  0.25138562  0.38613078  1
  O2-  O479  1  0.24631480  0.24759277  0.27799996  1
  O2-  O480  1  0.92775604  0.25244613  0.60332290  1
  O2-  O481  1  0.09090764  0.74417342  0.39601155  1
  O2-  O482  1  0.91001966  0.75318140  0.94044021  1
  O2-  O483  1  0.57247102  0.25281418  0.94284686  1
  O2-  O484  1  0.41828483  0.24766095  0.05763724  1
  O2-  O485  1  0.41903259  0.75047761  0.04772173  1
  O2-  O486  1  0.75839890  0.75207440  0.73610853  1
  O2-  O487  1  0.93018539  0.25117018  0.27728340  1
  O2-  O488  1  0.07502642  0.25030931  0.06255468  1
  O2-  O489  1  0.07758843  0.24816545  0.72748922  1
  O2-  O490  1  0.41438184  0.75379448  0.73055018  1
  O2-  O491  1  0.58398742  0.25588291  0.26107695  1
  O2-  O492  1  0.74956393  0.25440186  0.40422177  1
