# generated using pymatgen
data_Ca108Mn108O277
_symmetry_space_group_name_H-M   'P 1'
_cell_length_a   16.03030696
_cell_length_b   22.30969799
_cell_length_c   16.39079503
_cell_angle_alpha   89.99619440
_cell_angle_beta   90.00226325
_cell_angle_gamma   90.00154028
_symmetry_Int_Tables_number   1
_chemical_formula_structural   Ca108Mn108O277
_chemical_formula_sum   'Ca108 Mn108 O277'
_cell_volume   5861.86142859
_cell_formula_units_Z   1
loop_
 _symmetry_equiv_pos_site_id
 _symmetry_equiv_pos_as_xyz
  1  'x, y, z'
loop_
 _atom_type_symbol
 _atom_type_oxidation_number
  Ca2+  2.0
  Mn3.34+  3.34
  O2-  -2.0
loop_
 _atom_site_type_symbol
 _atom_site_label
 _atom_site_symmetry_multiplicity
 _atom_site_fract_x
 _atom_site_fract_y
 _atom_site_fract_z
 _atom_site_occupancy
  Ca2+  Ca0  1  0.07494220  0.24068335  0.25042805  1
  Ca2+  Ca1  1  0.06991689  0.25067141  0.57013325  1
  Ca2+  Ca2  1  0.09084926  0.26264197  0.92524133  1
  Ca2+  Ca3  1  0.09846091  0.75619909  0.26752147  1
  Ca2+  Ca4  1  0.09566320  0.75660475  0.57475999  1
  Ca2+  Ca5  1  0.08645226  0.75796985  0.89604938  1
  Ca2+  Ca6  1  0.40818327  0.24277532  0.24754813  1
  Ca2+  Ca7  1  0.42769368  0.24521699  0.55877840  1
  Ca2+  Ca8  1  0.42403689  0.23779690  0.93349277  1
  Ca2+  Ca9  1  0.39555195  0.74258171  0.26671301  1
  Ca2+  Ca10  1  0.40439958  0.74908086  0.55591377  1
  Ca2+  Ca11  1  0.41714429  0.75542212  0.92941619  1
  Ca2+  Ca12  1  0.77760219  0.24170917  0.26115392  1
  Ca2+  Ca13  1  0.75034349  0.24702669  0.58681822  1
  Ca2+  Ca14  1  0.73376919  0.24388086  0.90875654  1
  Ca2+  Ca15  1  0.75226357  0.74587700  0.24918633  1
  Ca2+  Ca16  1  0.74808699  0.76174635  0.57185163  1
  Ca2+  Ca17  1  0.74316941  0.75316574  0.93286542  1
  Ca2+  Ca18  1  0.25741167  0.24891468  0.09857175  1
  Ca2+  Ca19  1  0.26643495  0.23573799  0.40151411  1
  Ca2+  Ca20  1  0.24248695  0.25431760  0.75589322  1
  Ca2+  Ca21  1  0.25533337  0.74066103  0.11898112  1
  Ca2+  Ca22  1  0.24070022  0.75975373  0.40809862  1
  Ca2+  Ca23  1  0.22877885  0.75575049  0.74271906  1
  Ca2+  Ca24  1  0.55613671  0.24320008  0.08652052  1
  Ca2+  Ca25  1  0.56954281  0.24517369  0.41677543  1
  Ca2+  Ca26  1  0.58887873  0.24792998  0.74997343  1
  Ca2+  Ca27  1  0.59554080  0.75484301  0.08295405  1
  Ca2+  Ca28  1  0.58247533  0.75037167  0.41259733  1
  Ca2+  Ca29  1  0.58857657  0.75487648  0.75281198  1
  Ca2+  Ca30  1  0.93262253  0.25348072  0.10716218  1
  Ca2+  Ca31  1  0.92490284  0.24887451  0.40314215  1
  Ca2+  Ca32  1  0.90716591  0.24688219  0.74035031  1
  Ca2+  Ca33  1  0.89592924  0.75195433  0.09317528  1
  Ca2+  Ca34  1  0.92977254  0.74723766  0.40482088  1
  Ca2+  Ca35  1  0.93104912  0.76123382  0.74604316  1
  Ca2+  Ca36  1  0.09407381  0.61048641  0.25305057  1
  Ca2+  Ca37  1  0.56400116  0.09766240  0.07489078  1
  Ca2+  Ca38  1  0.92667230  0.08962639  0.09738072  1
  Ca2+  Ca39  1  0.74720436  0.60152359  0.56340354  1
  Ca2+  Ca40  1  0.26045612  0.09159248  0.09213865  1
  Ca2+  Ca41  1  0.76976425  0.08701272  0.60869359  1
  Ca2+  Ca42  1  0.55357194  0.09988644  0.07737529  1
  Ca2+  Ca43  1  0.10641081  0.59814122  0.57998543  1
  Ca2+  Ca44  1  0.25544093  0.61301196  0.42660830  1
  Ca2+  Ca45  1  0.76592460  0.58569912  0.28018936  1
  Ca2+  Ca46  1  0.76451552  0.09355500  0.60899112  1
  Ca2+  Ca47  1  0.07680515  0.58688392  0.91604904  1
  Ca2+  Ca48  1  0.06359695  0.06605171  0.93401701  1
  Ca2+  Ca49  1  0.88449818  0.60008641  0.08976807  1
  Ca2+  Ca50  1  0.59589891  0.10745360  0.76205466  1
  Ca2+  Ca51  1  0.73502044  0.09647089  0.90712268  1
  Ca2+  Ca52  1  0.44124720  0.09853527  0.91703742  1
  Ca2+  Ca53  1  0.25948412  0.06136252  0.71636337  1
  Ca2+  Ca54  1  0.40605927  0.09917440  0.25766728  1
  Ca2+  Ca55  1  0.92787087  0.09259326  0.39732523  1
  Ca2+  Ca56  1  0.39779149  0.09639730  0.25256080  1
  Ca2+  Ca57  1  0.25100469  0.61539221  0.41813674  1
  Ca2+  Ca58  1  0.93782800  0.08871946  0.39920082  1
  Ca2+  Ca59  1  0.41658231  0.09368895  0.57283850  1
  Ca2+  Ca60  1  0.75712957  0.60292494  0.56619630  1
  Ca2+  Ca61  1  0.59989160  0.59023573  0.41102111  1
  Ca2+  Ca62  1  0.62717192  0.60627749  0.07326423  1
  Ca2+  Ca63  1  0.60084772  0.11478648  0.76463297  1
  Ca2+  Ca64  1  0.08399715  0.60935573  0.25549482  1
  Ca2+  Ca65  1  0.24750110  0.57764976  0.72290491  1
  Ca2+  Ca66  1  0.91798353  0.59058609  0.75182776  1
  Ca2+  Ca67  1  0.06427951  0.58575999  0.91633170  1
  Ca2+  Ca68  1  0.56097498  0.09527868  0.41807157  1
  Ca2+  Ca69  1  0.06562150  0.06774713  0.57364301  1
  Ca2+  Ca70  1  0.09684989  0.60054784  0.57693176  1
  Ca2+  Ca71  1  0.08970042  0.09064636  0.25390053  1
  Ca2+  Ca72  1  0.59514964  0.91169017  0.75308019  1
  Ca2+  Ca73  1  0.08996802  0.40597072  0.58581810  1
  Ca2+  Ca74  1  0.07363526  0.90781271  0.91947540  1
  Ca2+  Ca75  1  0.90867367  0.91816559  0.06068816  1
  Ca2+  Ca76  1  0.41392533  0.90352498  0.92309078  1
  Ca2+  Ca77  1  0.75082820  0.39880085  0.57638425  1
  Ca2+  Ca78  1  0.75121016  0.89551639  0.24081097  1
  Ca2+  Ca79  1  0.59128218  0.40469078  0.74812718  1
  Ca2+  Ca80  1  0.07236272  0.40429381  0.24333416  1
  Ca2+  Ca81  1  0.61559992  0.41224825  0.39563100  1
  Ca2+  Ca82  1  0.59746078  0.39933827  0.09023526  1
  Ca2+  Ca83  1  0.77279659  0.41708114  0.93305380  1
  Ca2+  Ca84  1  0.92260962  0.92146366  0.73783699  1
  Ca2+  Ca85  1  0.78417813  0.42014962  0.92945968  1
  Ca2+  Ca86  1  0.42228739  0.39745885  0.25301294  1
  Ca2+  Ca87  1  0.09191526  0.91589247  0.56614469  1
  Ca2+  Ca88  1  0.41757387  0.39562023  0.91654706  1
  Ca2+  Ca89  1  0.57831553  0.40509387  0.74732954  1
  Ca2+  Ca90  1  0.25105382  0.90128714  0.09231357  1
  Ca2+  Ca91  1  0.91908500  0.40493174  0.74744958  1
  Ca2+  Ca92  1  0.04890543  0.41377444  0.93012752  1
  Ca2+  Ca93  1  0.24168863  0.90408558  0.08907094  1
  Ca2+  Ca94  1  0.38303429  0.91889199  0.58336937  1
  Ca2+  Ca95  1  0.58288286  0.90596400  0.40876361  1
  Ca2+  Ca96  1  0.09742127  0.92296106  0.28543794  1
  Ca2+  Ca97  1  0.57145723  0.90651972  0.40993092  1
  Ca2+  Ca98  1  0.58475881  0.40071699  0.08985051  1
  Ca2+  Ca99  1  0.88639811  0.41349756  0.39437491  1
  Ca2+  Ca100  1  0.40378909  0.40331577  0.59079344  1
  Ca2+  Ca101  1  0.39418512  0.91542841  0.58657570  1
  Ca2+  Ca102  1  0.23627115  0.41019695  0.73414401  1
  Ca2+  Ca103  1  0.77030683  0.91278556  0.58897232  1
  Ca2+  Ca104  1  0.25030733  0.40502630  0.42653752  1
  Ca2+  Ca105  1  0.58386075  0.91133308  0.75130823  1
  Ca2+  Ca106  1  0.24764621  0.41005017  0.73377068  1
  Ca2+  Ca107  1  0.23849072  0.40600124  0.42739877  1
  Mn3.34+  Mn108  1  0.08656230  0.33556269  0.08350077  1
  Mn3.34+  Mn109  1  0.07982911  0.33288090  0.41532795  1
  Mn3.34+  Mn110  1  0.07736562  0.32840340  0.75061076  1
  Mn3.34+  Mn111  1  0.07670481  0.82911737  0.08693329  1
  Mn3.34+  Mn112  1  0.08098142  0.83827532  0.41825399  1
  Mn3.34+  Mn113  1  0.08415058  0.83827032  0.74590041  1
  Mn3.34+  Mn114  1  0.41019159  0.33007733  0.08705300  1
  Mn3.34+  Mn115  1  0.41907105  0.33109023  0.41470740  1
  Mn3.34+  Mn116  1  0.41696975  0.32504886  0.75387844  1
  Mn3.34+  Mn117  1  0.41931447  0.83100362  0.08906246  1
  Mn3.34+  Mn118  1  0.40939586  0.83381315  0.41294026  1
  Mn3.34+  Mn119  1  0.41156961  0.83381434  0.75271614  1
  Mn3.34+  Mn120  1  0.75807377  0.32865241  0.08903752  1
  Mn3.34+  Mn121  1  0.75046153  0.32952512  0.41772654  1
  Mn3.34+  Mn122  1  0.75278614  0.33257801  0.75449833  1
  Mn3.34+  Mn123  1  0.74863956  0.83392781  0.08191591  1
  Mn3.34+  Mn124  1  0.75626984  0.82839966  0.41476309  1
  Mn3.34+  Mn125  1  0.75557631  0.83052639  0.75462401  1
  Mn3.34+  Mn126  1  0.24699160  0.33348016  0.24585481  1
  Mn3.34+  Mn127  1  0.24927387  0.32522854  0.57967456  1
  Mn3.34+  Mn128  1  0.24814825  0.33445189  0.92082892  1
  Mn3.34+  Mn129  1  0.24987434  0.83983386  0.25540334  1
  Mn3.34+  Mn130  1  0.24440598  0.83885043  0.58196868  1
  Mn3.34+  Mn131  1  0.24840093  0.83664195  0.91335435  1
  Mn3.34+  Mn132  1  0.58960118  0.32671882  0.25193671  1
  Mn3.34+  Mn133  1  0.58406903  0.32844238  0.57628315  1
  Mn3.34+  Mn134  1  0.58427019  0.32693016  0.91551855  1
  Mn3.34+  Mn135  1  0.57884218  0.83374411  0.24295694  1
  Mn3.34+  Mn136  1  0.58245786  0.84014007  0.57977028  1
  Mn3.34+  Mn137  1  0.58502539  0.83707713  0.91941714  1
  Mn3.34+  Mn138  1  0.91722188  0.33409137  0.24962214  1
  Mn3.34+  Mn139  1  0.91651767  0.32872524  0.57794607  1
  Mn3.34+  Mn140  1  0.91681598  0.32711962  0.91579306  1
  Mn3.34+  Mn141  1  0.92298910  0.83846381  0.24633760  1
  Mn3.34+  Mn142  1  0.92118998  0.84281094  0.57885253  1
  Mn3.34+  Mn143  1  0.91273004  0.83927107  0.91176933  1
  Mn3.34+  Mn144  1  0.08573120  0.16588624  0.08566102  1
  Mn3.34+  Mn145  1  0.74672103  0.16660833  0.09190176  1
  Mn3.34+  Mn146  1  0.41371307  0.66802392  0.75138135  1
  Mn3.34+  Mn147  1  0.75661439  0.16128889  0.09259262  1
  Mn3.34+  Mn148  1  0.74285096  0.66984598  0.75585718  1
  Mn3.34+  Mn149  1  0.58231215  0.67251158  0.58453890  1
  Mn3.34+  Mn150  1  0.08635169  0.16572065  0.41457197  1
  Mn3.34+  Mn151  1  0.91544172  0.66960880  0.58086732  1
  Mn3.34+  Mn152  1  0.91155349  0.66332870  0.25090212  1
  Mn3.34+  Mn153  1  0.41518851  0.16889975  0.74812272  1
  Mn3.34+  Mn154  1  0.91098368  0.67585079  0.91615029  1
  Mn3.34+  Mn155  1  0.58231411  0.67271252  0.91664976  1
  Mn3.34+  Mn156  1  0.57146714  0.66825637  0.58341800  1
  Mn3.34+  Mn157  1  0.91639518  0.16673461  0.57542928  1
  Mn3.34+  Mn158  1  0.07637722  0.66771791  0.08701741  1
  Mn3.34+  Mn159  1  0.06924618  0.15327092  0.75038328  1
  Mn3.34+  Mn160  1  0.91711277  0.15445318  0.90894640  1
  Mn3.34+  Mn161  1  0.41644248  0.67003693  0.08719633  1
  Mn3.34+  Mn162  1  0.25430913  0.16175625  0.57667064  1
  Mn3.34+  Mn163  1  0.74761292  0.16853617  0.42050379  1
  Mn3.34+  Mn164  1  0.25562782  0.67066328  0.58763536  1
  Mn3.34+  Mn165  1  0.58538592  0.16641648  0.57727189  1
  Mn3.34+  Mn166  1  0.24171800  0.16270915  0.91366477  1
  Mn3.34+  Mn167  1  0.92576174  0.67420970  0.58307800  1
  Mn3.34+  Mn168  1  0.58700996  0.66651367  0.24742868  1
  Mn3.34+  Mn169  1  0.24703541  0.16480281  0.24983395  1
  Mn3.34+  Mn170  1  0.24509974  0.66906937  0.92332243  1
  Mn3.34+  Mn171  1  0.58668758  0.16450986  0.25399926  1
  Mn3.34+  Mn172  1  0.08092142  0.15765122  0.74820659  1
  Mn3.34+  Mn173  1  0.25455040  0.15758639  0.91034084  1
  Mn3.34+  Mn174  1  0.24568227  0.16773548  0.57949797  1
  Mn3.34+  Mn175  1  0.91617482  0.16673290  0.91042264  1
  Mn3.34+  Mn176  1  0.42323436  0.66288812  0.75503238  1
  Mn3.34+  Mn177  1  0.25492820  0.66379888  0.92100013  1
  Mn3.34+  Mn178  1  0.57255851  0.66058172  0.24655437  1
  Mn3.34+  Mn179  1  0.90430538  0.66487834  0.91220322  1
  Mn3.34+  Mn180  1  0.58228135  -0.00228474  0.24752439  1
  Mn3.34+  Mn181  1  0.75950205  -0.00102762  0.41688110  1
  Mn3.34+  Mn182  1  0.41795963  0.50628172  0.41794513  1
  Mn3.34+  Mn183  1  0.40436200  -0.00446615  0.39424419  1
  Mn3.34+  Mn184  1  0.07764267  0.49617566  0.74972429  1
  Mn3.34+  Mn185  1  0.08289843  -0.00160810  0.08458990  1
  Mn3.34+  Mn186  1  0.91648960  0.50039026  0.25815388  1
  Mn3.34+  Mn187  1  0.25070221  0.49732894  0.92191934  1
  Mn3.34+  Mn188  1  0.26294948  0.50438645  0.92238299  1
  Mn3.34+  Mn189  1  0.59125653  -0.00322794  0.93315408  1
  Mn3.34+  Mn190  1  0.75922691  0.49650001  0.08890591  1
  Mn3.34+  Mn191  1  0.57280127  0.50301934  0.91114284  1
  Mn3.34+  Mn192  1  0.75839712  -0.00293160  0.75319626  1
  Mn3.34+  Mn193  1  0.92762703  -0.00372717  0.25599472  1
  Mn3.34+  Mn194  1  0.42423804  0.50003333  0.75678250  1
  Mn3.34+  Mn195  1  0.91743329  0.49870896  0.57242810  1
  Mn3.34+  Mn196  1  0.42748013  0.49991155  0.41937945  1
  Mn3.34+  Mn197  1  0.59057281  0.50086834  0.25234953  1
  Mn3.34+  Mn198  1  0.07114254  0.49998405  0.07745184  1
  Mn3.34+  Mn199  1  0.24466067  0.49480272  0.23879513  1
  Mn3.34+  Mn200  1  0.41147352  0.50103983  0.09356138  1
  Mn3.34+  Mn201  1  0.08176834  -0.00232092  0.73304023  1
  Mn3.34+  Mn202  1  0.41633280  -0.00029084  0.75294593  1
  Mn3.34+  Mn203  1  0.25727257  0.50242905  0.23896190  1
  Mn3.34+  Mn204  1  0.58622152  0.50858094  0.91389798  1
  Mn3.34+  Mn205  1  0.25328959  0.00176951  0.91949760  1
  Mn3.34+  Mn206  1  0.74848541  0.50571495  0.75522900  1
  Mn3.34+  Mn207  1  0.41787078  -0.00406927  0.08249207  1
  Mn3.34+  Mn208  1  0.90565688  0.49422023  0.57118072  1
  Mn3.34+  Mn209  1  0.42457859  0.50691341  0.09120477  1
  Mn3.34+  Mn210  1  0.58253700  0.00345537  0.58846042  1
  Mn3.34+  Mn211  1  0.07339457  0.49669495  0.40708025  1
  Mn3.34+  Mn212  1  0.75190678  0.00136908  0.07773156  1
  Mn3.34+  Mn213  1  0.74920335  0.00407177  0.41480115  1
  Mn3.34+  Mn214  1  0.59087365  0.49557664  0.57444636  1
  Mn3.34+  Mn215  1  0.57928063  0.49931605  0.57390987  1
  O2-  O216  1  -0.00297928  0.15554806  -0.00125609  1
  O2-  O217  1  0.00852308  0.15680700  0.33308108  1
  O2-  O218  1  0.00644240  0.14316351  0.64902133  1
  O2-  O219  1  -0.00398852  0.66246118  -0.00327002  1
  O2-  O220  1  0.00293112  0.67829162  0.31602215  1
  O2-  O221  1  -0.00070698  0.64434273  0.66193439  1
  O2-  O222  1  0.33459810  0.14665385  -0.01051543  1
  O2-  O223  1  0.33049912  0.16360865  0.32674098  1
  O2-  O224  1  0.33875478  0.18684759  0.66033563  1
  O2-  O225  1  0.33381929  0.65492306  0.00000708  1
  O2-  O226  1  0.32239880  0.67773382  0.34224496  1
  O2-  O227  1  0.33964447  0.64949856  0.66812158  1
  O2-  O228  1  0.66854437  0.15251177  0.00994519  1
  O2-  O229  1  0.66375329  0.18267299  0.33896842  1
  O2-  O230  1  0.67263994  0.15773037  0.65849262  1
  O2-  O231  1  0.65929873  0.68214613  -0.00599015  1
  O2-  O232  1  0.66641143  0.64948840  0.32627101  1
  O2-  O233  1  0.66753645  0.64876245  0.65764772  1
  O2-  O234  1  0.16416669  0.13791872  -0.00526087  1
  O2-  O235  1  0.16510363  0.16202711  0.33235003  1
  O2-  O236  1  0.18195479  0.15349811  0.67360826  1
  O2-  O237  1  0.15832649  0.64923975  0.00101499  1
  O2-  O238  1  0.16811005  0.65603965  0.33871293  1
  O2-  O239  1  0.17389436  0.65486557  0.66914872  1
  O2-  O240  1  0.50665438  0.16748715  -0.00202385  1
  O2-  O241  1  0.49820528  0.15219525  0.32606350  1
  O2-  O242  1  0.50333170  0.14951607  0.66716040  1
  O2-  O243  1  0.50281925  0.68126546  -0.00111008  1
  O2-  O244  1  0.50388847  0.65410968  0.33167356  1
  O2-  O245  1  0.50919075  0.65094656  0.67477476  1
  O2-  O246  1  0.82921515  0.15300085  -0.00777873  1
  O2-  O247  1  0.83734475  0.16265839  0.35044291  1
  O2-  O248  1  0.83642753  0.16752225  0.65935016  1
  O2-  O249  1  0.83203067  0.67074721  -0.00029365  1
  O2-  O250  1  0.83999855  0.67257450  0.32926921  1
  O2-  O251  1  0.83633960  0.65419393  0.66346186  1
  O2-  O252  1  -0.00335939  0.32821235  -0.00140707  1
  O2-  O253  1  -0.00402147  0.35312059  0.34063643  1
  O2-  O254  1  -0.00123436  0.35009223  0.66300002  1
  O2-  O255  1  0.00045516  0.82222399  -0.00512331  1
  O2-  O256  1  0.00067386  0.82913390  0.32972929  1
  O2-  O257  1  -0.00175886  0.85186073  0.66993997  1
  O2-  O258  1  0.33606239  0.34438601  -0.00017963  1
  O2-  O259  1  0.32941860  0.35102415  0.33852245  1
  O2-  O260  1  0.32964124  0.33218565  0.67043559  1
  O2-  O261  1  0.32708187  0.84484235  0.00125034  1
  O2-  O262  1  0.33149929  0.84167678  0.33432717  1
  O2-  O263  1  0.33433192  0.84816003  0.66695017  1
  O2-  O264  1  0.67249387  0.35219716  -0.01370418  1
  O2-  O265  1  0.66778242  0.31468261  0.33622788  1
  O2-  O266  1  0.66741066  0.34238579  0.66927245  1
  O2-  O267  1  0.66485438  0.82708025  -0.00108533  1
  O2-  O268  1  0.66668649  0.84479627  0.33789649  1
  O2-  O269  1  0.66614350  0.85394947  0.66257893  1
  O2-  O270  1  0.15595811  0.35273892  -0.01178044  1
  O2-  O271  1  0.16660136  0.35252929  0.33302736  1
  O2-  O272  1  0.16610278  0.33995216  0.66493340  1
  O2-  O273  1  0.16245170  0.84822328  -0.00046965  1
  O2-  O274  1  0.16307081  0.83937403  0.33076265  1
  O2-  O275  1  0.15902435  0.84805198  0.65875031  1
  O2-  O276  1  0.50757328  0.34052995  0.00637120  1
  O2-  O277  1  0.50823001  0.34735901  0.33856736  1
  O2-  O278  1  0.50125976  0.34375826  0.66880290  1
  O2-  O279  1  0.49450734  0.83166462  -0.00564743  1
  O2-  O280  1  0.50242828  0.84215619  0.33784830  1
  O2-  O281  1  0.49839919  0.86255221  0.66070125  1
  O2-  O282  1  0.83168072  0.33916082  -0.00432013  1
  O2-  O283  1  0.83369083  0.32847157  0.33808156  1
  O2-  O284  1  0.83268272  0.33695405  0.66816132  1
  O2-  O285  1  0.83886614  0.83308400  0.00176791  1
  O2-  O286  1  0.83278443  0.82917772  0.32752103  1
  O2-  O287  1  0.83677872  0.84776319  0.67469513  1
  O2-  O288  1  0.00704404  0.17622047  0.15967332  1
  O2-  O289  1  -0.00741912  0.17811665  0.48803253  1
  O2-  O290  1  -0.00023626  0.19619469  0.84036597  1
  O2-  O291  1  -0.01149969  0.67898104  0.15882920  1
  O2-  O292  1  0.00968277  0.67032833  0.50772023  1
  O2-  O293  1  -0.00426539  0.68600491  0.83920215  1
  O2-  O294  1  0.33120251  0.17145934  0.17177956  1
  O2-  O295  1  0.33367056  0.18097073  0.50131700  1
  O2-  O296  1  0.33211629  0.19084360  0.83061764  1
  O2-  O297  1  0.34636764  0.67540517  0.16965571  1
  O2-  O298  1  0.32250083  0.68245502  0.49977935  1
  O2-  O299  1  0.32630919  0.68565065  0.83123716  1
  O2-  O300  1  0.66243671  0.18839024  0.17017826  1
  O2-  O301  1  0.66493072  0.18843856  0.49963047  1
  O2-  O302  1  0.66156528  0.18398833  0.82906859  1
  O2-  O303  1  0.66404639  0.67628244  0.16880764  1
  O2-  O304  1  0.66747319  0.67319218  0.50424559  1
  O2-  O305  1  0.66151318  0.69465146  0.83639661  1
  O2-  O306  1  0.17070411  0.17599053  0.16083022  1
  O2-  O307  1  0.16249162  0.18680015  0.50359560  1
  O2-  O308  1  0.16435857  0.18258366  0.83381302  1
  O2-  O309  1  0.14719959  0.68424534  0.16881964  1
  O2-  O310  1  0.16913683  0.67666890  0.51304376  1
  O2-  O311  1  0.16047737  0.67430481  0.84777655  1
  O2-  O312  1  0.50371440  0.17663153  0.17434145  1
  O2-  O313  1  0.50246677  0.17037802  0.50235292  1
  O2-  O314  1  0.49783299  0.18014430  0.82240177  1
  O2-  O315  1  0.50912920  0.68457824  0.15930305  1
  O2-  O316  1  0.50495206  0.68329010  0.49685849  1
  O2-  O317  1  0.49560506  0.69101692  0.83519157  1
  O2-  O318  1  0.84104380  0.17852397  0.16140045  1
  O2-  O319  1  0.82756269  0.18824452  0.50397938  1
  O2-  O320  1  0.83384975  0.19101264  0.83864261  1
  O2-  O321  1  0.83634645  0.68071482  0.17454586  1
  O2-  O322  1  0.82965454  0.68014285  0.50737297  1
  O2-  O323  1  0.83608688  0.69207164  0.82815595  1
  O2-  O324  1  0.00816659  0.32475172  0.17393798  1
  O2-  O325  1  0.00352141  0.32437670  0.50086594  1
  O2-  O326  1  -0.00249701  0.31575871  0.83268600  1
  O2-  O327  1  -0.00049895  0.80492990  0.16681626  1
  O2-  O328  1  0.00461964  0.82384685  0.50667775  1
  O2-  O329  1  -0.00140462  0.82321363  0.83346740  1
  O2-  O330  1  0.34022536  0.32030266  0.17741584  1
  O2-  O331  1  0.33110380  0.31573996  0.49653984  1
  O2-  O332  1  0.33151639  0.31949626  0.83200513  1
  O2-  O333  1  0.32615815  0.83131177  0.16141596  1
  O2-  O334  1  0.33810982  0.83072175  0.50715612  1
  O2-  O335  1  0.33820222  0.82015505  0.84258461  1
  O2-  O336  1  0.65784692  0.31747031  0.15340611  1
  O2-  O337  1  0.66899536  0.31147880  0.49907318  1
  O2-  O338  1  0.65950031  0.31479485  0.82608312  1
  O2-  O339  1  0.67003981  0.82488010  0.17245190  1
  O2-  O340  1  0.65876484  0.82524217  0.49613133  1
  O2-  O341  1  0.66089454  0.82519855  0.82736945  1
  O2-  O342  1  0.16553908  0.32071614  0.16928155  1
  O2-  O343  1  0.16830460  0.31731498  0.49631417  1
  O2-  O344  1  0.17087283  0.32476291  0.82654405  1
  O2-  O345  1  0.16982299  0.82070938  0.15746377  1
  O2-  O346  1  0.16787740  0.82482283  0.50077724  1
  O2-  O347  1  0.16434117  0.82898608  0.83374426  1
  O2-  O348  1  0.50141802  0.31973751  0.17097339  1
  O2-  O349  1  0.49428214  0.32476218  0.50199330  1
  O2-  O350  1  0.49911516  0.30797451  0.83845201  1
  O2-  O351  1  0.49868953  0.81361577  0.16673403  1
  O2-  O352  1  0.50120253  0.82899332  0.49874875  1
  O2-  O353  1  0.50507774  0.82026535  0.82698033  1
  O2-  O354  1  0.83436939  0.31587231  0.17086970  1
  O2-  O355  1  0.83065896  0.31127534  0.50032003  1
  O2-  O356  1  0.83021748  0.31113995  0.83549798  1
  O2-  O357  1  0.83287237  0.82453243  0.17097100  1
  O2-  O358  1  0.83086033  0.82525601  0.50547981  1
  O2-  O359  1  0.83447160  0.81086690  0.83658572  1
  O2-  O360  1  0.07989534  0.07943902  0.11097531  1
  O2-  O361  1  0.07028988  0.08484459  0.44311931  1
  O2-  O362  1  0.08721948  0.06887274  0.79410645  1
  O2-  O363  1  0.06673452  0.57755809  0.11974247  1
  O2-  O364  1  0.11000379  0.57141228  0.45053259  1
  O2-  O365  1  0.07763364  0.57382957  0.78358506  1
  O2-  O366  1  0.42499438  0.07315467  0.12377740  1
  O2-  O367  1  0.42579704  0.06103356  0.44969961  1
  O2-  O368  1  0.40916962  0.08072690  0.77854383  1
  O2-  O369  1  0.43210982  0.58675071  0.10304909  1
  O2-  O370  1  0.39338481  0.58296921  0.44003440  1
  O2-  O371  1  0.40816789  0.58173307  0.78298977  1
  O2-  O372  1  0.75037692  0.08049091  0.12745330  1
  O2-  O373  1  0.74685308  0.08091240  0.46523356  1
  O2-  O374  1  0.73512950  0.07720012  0.77225786  1
  O2-  O375  1  0.75266017  0.57086668  0.13115993  1
  O2-  O376  1  0.71185925  0.54773392  0.47057712  1
  O2-  O377  1  0.76882128  0.58811261  0.77214232  1
  O2-  O378  1  0.25756685  0.08370109  0.22685039  1
  O2-  O379  1  0.26601804  0.08040342  0.57200093  1
  O2-  O380  1  0.25256546  0.07910552  0.86547929  1
  O2-  O381  1  0.22285859  0.57925008  0.22273433  1
  O2-  O382  1  0.24285191  0.58415392  0.56121609  1
  O2-  O383  1  0.24546567  0.57999491  0.87184954  1
  O2-  O384  1  0.57122074  0.07660043  0.21324297  1
  O2-  O385  1  0.60144866  0.08388806  0.55324172  1
  O2-  O386  1  0.58763007  0.07316280  0.88438960  1
  O2-  O387  1  0.58275776  0.58029454  0.21319332  1
  O2-  O388  1  0.57564714  0.58180026  0.55418879  1
  O2-  O389  1  0.58482117  0.58875362  0.90811136  1
  O2-  O390  1  0.93139921  0.07163542  0.22769700  1
  O2-  O391  1  0.89968808  0.08525299  0.53980773  1
  O2-  O392  1  0.92166122  0.07431840  0.88948247  1
  O2-  O393  1  0.91456845  0.58067077  0.22452337  1
  O2-  O394  1  0.89426728  0.58084345  0.54664222  1
  O2-  O395  1  0.93013135  0.58352550  0.88426347  1
  O2-  O396  1  0.07993790  0.42027548  0.10431400  1
  O2-  O397  1  0.10011102  0.41723997  0.45252851  1
  O2-  O398  1  0.08051072  0.41535754  0.77987113  1
  O2-  O399  1  0.09141256  0.91922447  0.10984093  1
  O2-  O400  1  0.08063382  0.91873565  0.42894187  1
  O2-  O401  1  0.07022114  0.92710161  0.78327308  1
  O2-  O402  1  0.43580789  0.41884565  0.11946032  1
  O2-  O403  1  0.39688604  0.42070614  0.45312382  1
  O2-  O404  1  0.44258560  0.41695960  0.78529725  1
  O2-  O405  1  0.40070893  0.91612084  0.09099938  1
  O2-  O406  1  0.42995295  0.92584381  0.45201686  1
  O2-  O407  1  0.43025139  0.92093452  0.78553952  1
  O2-  O408  1  0.73716459  0.41435399  0.10125881  1
  O2-  O409  1  0.75012286  0.41076726  0.44091776  1
  O2-  O410  1  0.72769833  0.42249963  0.80071917  1
  O2-  O411  1  0.75919182  0.92145162  0.10290133  1
  O2-  O412  1  0.74016002  0.91818269  0.44391275  1
  O2-  O413  1  0.74453313  0.91701670  0.77892103  1
  O2-  O414  1  0.26417720  0.41645631  0.21334249  1
  O2-  O415  1  0.25505645  0.41702717  0.56097090  1
  O2-  O416  1  0.26924730  0.42481515  0.86655952  1
  O2-  O417  1  0.23096704  0.92110613  0.22143915  1
  O2-  O418  1  0.25021450  0.91960293  0.56123106  1
  O2-  O419  1  0.25827219  0.92062473  0.90156078  1
  O2-  O420  1  0.58639921  0.41962243  0.22306357  1
  O2-  O421  1  0.59660911  0.41407140  0.54176398  1
  O2-  O422  1  0.57589237  0.42087266  0.88166277  1
  O2-  O423  1  0.59835122  0.91734518  0.24759234  1
  O2-  O424  1  0.58604497  0.92322770  0.54339151  1
  O2-  O425  1  0.56759922  0.92369917  0.88675561  1
  O2-  O426  1  0.92056945  0.42096697  0.23841034  1
  O2-  O427  1  0.90325110  0.41309455  0.54317269  1
  O2-  O428  1  0.90776096  0.41842964  0.87915369  1
  O2-  O429  1  0.92028146  0.92449603  0.20693441  1
  O2-  O430  1  0.91404890  0.92074364  0.56914174  1
  O2-  O431  1  0.92588775  0.91719366  0.89738582  1
  O2-  O432  1  0.00174155  -0.00574924  0.01295764  1
  O2-  O433  1  0.01067037  0.00853490  0.32793673  1
  O2-  O434  1  0.00216246  -0.00210987  0.66315082  1
  O2-  O435  1  0.01259650  0.50750797  -0.02044032  1
  O2-  O436  1  0.02345105  0.51040432  0.29824735  1
  O2-  O437  1  0.00599546  0.50206189  0.65096223  1
  O2-  O438  1  0.32662159  0.01083078  0.01257038  1
  O2-  O439  1  0.34700458  0.01163761  0.30926376  1
  O2-  O440  1  0.35168884  -0.00113746  0.65623194  1
  O2-  O441  1  0.34110880  0.48757697  0.00231788  1
  O2-  O442  1  0.33767970  0.49153941  0.32738028  1
  O2-  O443  1  0.32427673  0.48461392  0.70231304  1
  O2-  O444  1  0.66135715  0.02757074  0.01463257  1
  O2-  O445  1  0.66510689  0.00947380  0.33578018  1
  O2-  O446  1  0.66266775  -0.00812554  0.68208354  1
  O2-  O447  1  0.65613896  0.49185920  0.01138713  1
  O2-  O448  1  0.66196077  0.50552053  0.33037425  1
  O2-  O449  1  0.66836178  0.48339063  0.66327948  1
  O2-  O450  1  0.16231912  0.00231142  -0.00304770  1
  O2-  O451  1  0.15223329  0.01140139  0.30966351  1
  O2-  O452  1  0.15744550  0.01003974  0.65828589  1
  O2-  O453  1  0.16447187  0.51424036  -0.00487174  1
  O2-  O454  1  0.18016434  0.48268715  0.33694369  1
  O2-  O455  1  0.16865850  0.49142636  0.68020383  1
  O2-  O456  1  0.49640661  0.02060088  -0.00048655  1
  O2-  O457  1  0.50900215  -0.00385021  0.34578697  1
  O2-  O458  1  0.51064531  -0.00488710  0.68563619  1
  O2-  O459  1  0.50041499  0.48369801  0.00255161  1
  O2-  O460  1  0.50339739  0.48869337  0.33249375  1
  O2-  O461  1  0.49934174  0.47885682  0.66017827  1
  O2-  O462  1  0.84941817  0.01108711  0.03530717  1
  O2-  O463  1  0.84986120  0.00963694  0.34280603  1
  O2-  O464  1  0.82043448  0.00541874  0.65538544  1
  O2-  O465  1  0.82452800  0.49814049  -0.00137340  1
  O2-  O466  1  0.84022952  0.50318422  0.33290339  1
  O2-  O467  1  0.83934693  0.48541011  0.67117980  1
  O2-  O468  1  0.91834309  0.75608158  0.60886501  1
  O2-  O469  1  0.58206129  0.75700682  0.61171771  1
  O2-  O470  1  0.08398047  0.24509458  0.71755920  1
  O2-  O471  1  0.39704826  0.75121067  0.06686108  1
  O2-  O472  1  0.42003522  0.74850509  0.71545886  1
  O2-  O473  1  0.74026044  0.75050345  0.71494074  1
  O2-  O474  1  0.59071955  0.74786324  0.27392511  1
  O2-  O475  1  0.25402056  0.75312775  0.60929233  1
  O2-  O476  1  0.57316781  0.24788831  0.60921397  1
  O2-  O477  1  0.75199312  0.24685208  0.05301238  1
  O2-  O478  1  0.24922772  0.25262833  0.26744321  1
  O2-  O479  1  0.07625034  0.25225729  0.39155316  1
  O2-  O480  1  0.41816002  0.75587374  0.40660587  1
  O2-  O481  1  0.09493126  0.24831212  0.06069710  1
  O2-  O482  1  0.93229403  0.24855914  0.60555707  1
  O2-  O483  1  0.42266831  0.25426158  0.39115222  1
  O2-  O484  1  0.74000112  0.75215655  0.40638351  1
  O2-  O485  1  0.92646462  0.25466965  0.26400384  1
  O2-  O486  1  0.75035508  0.75540652  0.07996415  1
  O2-  O487  1  0.24190952  0.24351353  0.94779770  1
  O2-  O488  1  0.08691244  0.75589209  0.41289856  1
  O2-  O489  1  0.24147507  0.75256021  0.94070212  1
  O2-  O490  1  0.24997347  0.75701598  0.26195884  1
  O2-  O491  1  0.08426273  0.75894968  0.72943182  1
  O2-  O492  1  0.40851628  0.25260416  0.06848184  1
