# generated using pymatgen
data_Ca108Mn108O277
_symmetry_space_group_name_H-M   'P 1'
_cell_length_a   16.02941567
_cell_length_b   22.31006984
_cell_length_c   16.39292520
_cell_angle_alpha   89.99859529
_cell_angle_beta   90.00056156
_cell_angle_gamma   90.00338105
_symmetry_Int_Tables_number   1
_chemical_formula_structural   Ca108Mn108O277
_chemical_formula_sum   'Ca108 Mn108 O277'
_cell_volume   5862.39499812
_cell_formula_units_Z   1
loop_
 _symmetry_equiv_pos_site_id
 _symmetry_equiv_pos_as_xyz
  1  'x, y, z'
loop_
 _atom_type_symbol
 _atom_type_oxidation_number
  Ca2+  2.0
  Mn3.34+  3.34
  O2-  -2.0
loop_
 _atom_site_type_symbol
 _atom_site_label
 _atom_site_symmetry_multiplicity
 _atom_site_fract_x
 _atom_site_fract_y
 _atom_site_fract_z
 _atom_site_occupancy
  Ca2+  Ca0  1  0.10840475  0.24076824  0.25522683  1
  Ca2+  Ca1  1  0.09228118  0.23990701  0.56661691  1
  Ca2+  Ca2  1  0.08419490  0.24152427  0.92881318  1
  Ca2+  Ca3  1  0.09636694  0.74344084  0.26648745  1
  Ca2+  Ca4  1  0.08119499  0.74896603  0.58918001  1
  Ca2+  Ca5  1  0.08003613  0.74494650  0.89511734  1
  Ca2+  Ca6  1  0.39047196  0.22834703  0.27269727  1
  Ca2+  Ca7  1  0.40386642  0.24609096  0.55547455  1
  Ca2+  Ca8  1  0.40426564  0.25707971  0.92244802  1
  Ca2+  Ca9  1  0.40188336  0.75261048  0.27244187  1
  Ca2+  Ca10  1  0.40983313  0.76015414  0.57428632  1
  Ca2+  Ca11  1  0.40943067  0.75499514  0.90112441  1
  Ca2+  Ca12  1  0.75228432  0.25128306  0.23865710  1
  Ca2+  Ca13  1  0.75227555  0.24194607  0.59866896  1
  Ca2+  Ca14  1  0.75759925  0.25783643  0.91192489  1
  Ca2+  Ca15  1  0.75191515  0.77424851  0.25219275  1
  Ca2+  Ca16  1  0.76105730  0.75649514  0.57707229  1
  Ca2+  Ca17  1  0.76036968  0.75267887  0.92520444  1
  Ca2+  Ca18  1  0.24579737  0.24651328  0.09269728  1
  Ca2+  Ca19  1  0.25418039  0.24633813  0.40612755  1
  Ca2+  Ca20  1  0.24590111  0.25940694  0.74873466  1
  Ca2+  Ca21  1  0.23919648  0.76378186  0.09544588  1
  Ca2+  Ca22  1  0.26088446  0.74595766  0.41500351  1
  Ca2+  Ca23  1  0.23786421  0.76371319  0.74413897  1
  Ca2+  Ca24  1  0.59157083  0.26216418  0.08797244  1
  Ca2+  Ca25  1  0.55735779  0.24433037  0.41865304  1
  Ca2+  Ca26  1  0.61000198  0.24007941  0.74912986  1
  Ca2+  Ca27  1  0.59956484  0.75702882  0.09443811  1
  Ca2+  Ca28  1  0.55779023  0.74949638  0.41398500  1
  Ca2+  Ca29  1  0.57100521  0.75336219  0.74090125  1
  Ca2+  Ca30  1  0.91577455  0.24707843  0.07935849  1
  Ca2+  Ca31  1  0.92558750  0.24818262  0.41814259  1
  Ca2+  Ca32  1  0.89264042  0.23698817  0.75475598  1
  Ca2+  Ca33  1  0.91267618  0.75347783  0.08947707  1
  Ca2+  Ca34  1  0.92884274  0.74937512  0.42959431  1
  Ca2+  Ca35  1  0.93437273  0.75826722  0.73582940  1
  Ca2+  Ca36  1  0.97269085  0.08178212  0.42610352  1
  Ca2+  Ca37  1  0.23043480  0.07495072  0.73764357  1
  Ca2+  Ca38  1  0.74661810  0.10684448  0.88905293  1
  Ca2+  Ca39  1  0.55625473  0.08865043  0.42163694  1
  Ca2+  Ca40  1  0.58776947  0.58437257  0.05338078  1
  Ca2+  Ca41  1  0.20928411  0.11434503  0.09053822  1
  Ca2+  Ca42  1  0.97480217  0.59920857  0.42458391  1
  Ca2+  Ca43  1  0.43332875  0.60447654  0.55443357  1
  Ca2+  Ca44  1  0.95204107  0.61548214  0.76522902  1
  Ca2+  Ca45  1  0.20296384  0.60347437  0.41194991  1
  Ca2+  Ca46  1  0.20932001  0.60789066  0.40655533  1
  Ca2+  Ca47  1  0.21849640  0.59333650  0.74234998  1
  Ca2+  Ca48  1  0.59457620  0.08162252  0.07262963  1
  Ca2+  Ca49  1  0.75703589  0.59074570  0.58703760  1
  Ca2+  Ca50  1  0.75625308  0.58671083  0.92516510  1
  Ca2+  Ca51  1  0.91903608  0.59562220  0.07286849  1
  Ca2+  Ca52  1  0.93680490  0.09206523  0.07255026  1
  Ca2+  Ca53  1  0.75761223  0.59787260  0.23612719  1
  Ca2+  Ca54  1  0.92534701  0.09169415  0.07244731  1
  Ca2+  Ca55  1  0.76841545  0.58874299  0.92257407  1
  Ca2+  Ca56  1  0.77024656  0.59815750  0.23518376  1
  Ca2+  Ca57  1  0.42407877  0.60739641  0.55174827  1
  Ca2+  Ca58  1  0.22847912  0.59105210  0.73939542  1
  Ca2+  Ca59  1  0.41445358  0.10177687  0.56854924  1
  Ca2+  Ca60  1  0.75588876  0.09378853  0.62656271  1
  Ca2+  Ca61  1  0.39702613  0.09049636  0.27364576  1
  Ca2+  Ca62  1  0.58156008  0.58190859  0.06137128  1
  Ca2+  Ca63  1  0.09682457  0.09929595  0.27020503  1
  Ca2+  Ca64  1  0.06425290  0.61087857  0.58499864  1
  Ca2+  Ca65  1  0.38243910  0.60109324  0.27374591  1
  Ca2+  Ca66  1  0.40229347  0.08617398  0.92188375  1
  Ca2+  Ca67  1  0.22900917  0.10602033  0.41934563  1
  Ca2+  Ca68  1  0.39159572  0.60311088  0.27809707  1
  Ca2+  Ca69  1  0.42638762  0.58029007  0.92190192  1
  Ca2+  Ca70  1  0.23794346  0.10848977  0.41539747  1
  Ca2+  Ca71  1  0.75934610  0.10601390  0.88982725  1
  Ca2+  Ca72  1  0.40609393  0.41311309  0.91922176  1
  Ca2+  Ca73  1  0.93710593  0.40407427  0.08500391  1
  Ca2+  Ca74  1  0.40143781  0.89975914  0.92289825  1
  Ca2+  Ca75  1  0.94584934  0.41153595  0.41112839  1
  Ca2+  Ca76  1  0.40449800  0.40470305  0.24625878  1
  Ca2+  Ca77  1  0.58141087  0.89999842  0.08555181  1
  Ca2+  Ca78  1  0.74485558  0.90935391  0.57678828  1
  Ca2+  Ca79  1  0.75559975  0.91114253  0.57838947  1
  Ca2+  Ca80  1  0.41585482  0.40443938  0.24702836  1
  Ca2+  Ca81  1  0.73599361  0.41501339  0.92020254  1
  Ca2+  Ca82  1  0.24945352  0.41318197  0.05873670  1
  Ca2+  Ca83  1  0.58211283  0.40650766  0.75095384  1
  Ca2+  Ca84  1  0.92460790  0.40828215  0.75145450  1
  Ca2+  Ca85  1  0.24802572  0.90164127  0.42074144  1
  Ca2+  Ca86  1  0.76605149  0.40471187  0.24155929  1
  Ca2+  Ca87  1  0.73889590  0.40906142  0.59506506  1
  Ca2+  Ca88  1  0.09312346  0.41343581  0.58600523  1
  Ca2+  Ca89  1  0.24585925  0.41657045  0.06722224  1
  Ca2+  Ca90  1  0.10390299  0.40963498  0.91395886  1
  Ca2+  Ca91  1  0.92648332  0.40611230  0.08187785  1
  Ca2+  Ca92  1  0.91190230  0.40895065  0.75227096  1
  Ca2+  Ca93  1  0.92668701  0.91927975  0.40223679  1
  Ca2+  Ca94  1  0.58315194  0.90089721  0.74781560  1
  Ca2+  Ca95  1  0.42654328  0.39971441  0.58486115  1
  Ca2+  Ca96  1  0.91395815  0.90177285  0.09408278  1
  Ca2+  Ca97  1  0.08033063  0.41429750  0.58517031  1
  Ca2+  Ca98  1  0.76173670  0.90114319  0.92524877  1
  Ca2+  Ca99  1  0.08710064  0.91935630  0.60940064  1
  Ca2+  Ca100  1  0.23103885  0.40963927  0.41659180  1
  Ca2+  Ca101  1  0.42037179  0.89849455  0.24702452  1
  Ca2+  Ca102  1  0.07411015  0.90673657  0.26424335  1
  Ca2+  Ca103  1  0.08548310  0.90181855  0.89862566  1
  Ca2+  Ca104  1  0.57511463  0.40615669  0.42163514  1
  Ca2+  Ca105  1  0.72785719  0.41203485  0.59153149  1
  Ca2+  Ca106  1  0.75317279  0.40464205  0.24240142  1
  Ca2+  Ca107  1  0.57950189  0.42108367  0.04894922  1
  Mn3.34+  Mn108  1  0.08668922  0.32866691  0.08677046  1
  Mn3.34+  Mn109  1  0.08655204  0.33181342  0.41875500  1
  Mn3.34+  Mn110  1  0.08284207  0.32705321  0.75286325  1
  Mn3.34+  Mn111  1  0.08225779  0.83251654  0.08569270  1
  Mn3.34+  Mn112  1  0.08509579  0.83965266  0.42588046  1
  Mn3.34+  Mn113  1  0.08342021  0.83855529  0.74842289  1
  Mn3.34+  Mn114  1  0.41911960  0.33340456  0.08331863  1
  Mn3.34+  Mn115  1  0.41134955  0.33458630  0.41841883  1
  Mn3.34+  Mn116  1  0.41867956  0.33144875  0.75104682  1
  Mn3.34+  Mn117  1  0.41589328  0.82987633  0.08658465  1
  Mn3.34+  Mn118  1  0.41614826  0.83442542  0.42110971  1
  Mn3.34+  Mn119  1  0.41063260  0.83294453  0.74512227  1
  Mn3.34+  Mn120  1  0.75074610  0.33188953  0.07803812  1
  Mn3.34+  Mn121  1  0.75157888  0.32637866  0.41989050  1
  Mn3.34+  Mn122  1  0.74679473  0.33364243  0.75537581  1
  Mn3.34+  Mn123  1  0.75134183  0.83611207  0.08573457  1
  Mn3.34+  Mn124  1  0.74876523  0.84337455  0.41070587  1
  Mn3.34+  Mn125  1  0.75415425  0.83451393  0.75416656  1
  Mn3.34+  Mn126  1  0.24376495  0.33411194  0.24860528  1
  Mn3.34+  Mn127  1  0.25109376  0.33062960  0.58546796  1
  Mn3.34+  Mn128  1  0.24986652  0.33007909  0.90932464  1
  Mn3.34+  Mn129  1  0.24772338  0.82897468  0.25198846  1
  Mn3.34+  Mn130  1  0.24971456  0.83558484  0.58452246  1
  Mn3.34+  Mn131  1  0.24499416  0.83471118  0.91826121  1
  Mn3.34+  Mn132  1  0.58463336  0.33088442  0.25246154  1
  Mn3.34+  Mn133  1  0.58140590  0.32824025  0.58092138  1
  Mn3.34+  Mn134  1  0.57849854  0.33680489  0.90903123  1
  Mn3.34+  Mn135  1  0.58362880  0.83666195  0.25472054  1
  Mn3.34+  Mn136  1  0.58197992  0.83309989  0.57911945  1
  Mn3.34+  Mn137  1  0.58237250  0.82608574  0.91370082  1
  Mn3.34+  Mn138  1  0.92607833  0.33137551  0.25310873  1
  Mn3.34+  Mn139  1  0.91763228  0.32949404  0.57916233  1
  Mn3.34+  Mn140  1  0.92176146  0.33307128  0.91292561  1
  Mn3.34+  Mn141  1  0.91853259  0.83619243  0.25270469  1
  Mn3.34+  Mn142  1  0.92023173  0.83593895  0.58245183  1
  Mn3.34+  Mn143  1  0.92047339  0.83494045  0.91209292  1
  Mn3.34+  Mn144  1  0.41363630  0.16684880  0.75278530  1
  Mn3.34+  Mn145  1  0.92684884  0.16174250  0.58395480  1
  Mn3.34+  Mn146  1  0.40922701  0.15791054  0.08558682  1
  Mn3.34+  Mn147  1  0.75528954  0.67114082  0.41685968  1
  Mn3.34+  Mn148  1  0.90886674  0.16272157  0.25133346  1
  Mn3.34+  Mn149  1  0.09023979  0.66245006  0.08910067  1
  Mn3.34+  Mn150  1  0.75458963  0.67055929  0.75099549  1
  Mn3.34+  Mn151  1  0.74467482  0.66684483  0.41920667  1
  Mn3.34+  Mn152  1  0.59593981  0.15426017  0.24639195  1
  Mn3.34+  Mn153  1  0.74201263  0.66559814  0.75089528  1
  Mn3.34+  Mn154  1  0.25169367  0.67051185  0.58230812  1
  Mn3.34+  Mn155  1  0.41991419  0.66595008  0.74873096  1
  Mn3.34+  Mn156  1  0.07692495  0.15018895  0.75043064  1
  Mn3.34+  Mn157  1  0.92416591  0.67113097  0.25442831  1
  Mn3.34+  Mn158  1  0.08095974  0.66721883  0.08586286  1
  Mn3.34+  Mn159  1  0.24568100  0.16542990  0.58367292  1
  Mn3.34+  Mn160  1  0.75218132  0.67215636  0.08338464  1
  Mn3.34+  Mn161  1  0.74857261  0.16424719  0.08249542  1
  Mn3.34+  Mn162  1  0.58280619  0.16494844  0.58195989  1
  Mn3.34+  Mn163  1  0.57957081  0.17222176  0.91770368  1
  Mn3.34+  Mn164  1  0.42077662  0.17401813  0.75165061  1
  Mn3.34+  Mn165  1  0.41912708  0.16333368  0.08434830  1
  Mn3.34+  Mn166  1  0.58446376  0.66690575  0.58334663  1
  Mn3.34+  Mn167  1  0.92010672  0.15845222  0.25029395  1
  Mn3.34+  Mn168  1  0.58292619  0.67162245  0.24758586  1
  Mn3.34+  Mn169  1  0.40962715  0.67390239  0.08501079  1
  Mn3.34+  Mn170  1  0.74614927  0.15622006  0.42345259  1
  Mn3.34+  Mn171  1  0.91910720  0.16985108  0.91627976  1
  Mn3.34+  Mn172  1  0.58241578  0.16051079  0.24749504  1
  Mn3.34+  Mn173  1  0.75933464  0.16233025  0.42093046  1
  Mn3.34+  Mn174  1  0.57996414  0.66792120  0.90690847  1
  Mn3.34+  Mn175  1  0.25320691  0.66182457  0.91660636  1
  Mn3.34+  Mn176  1  0.24318640  0.65632531  0.91445278  1
  Mn3.34+  Mn177  1  0.41785520  0.68023057  0.08248279  1
  Mn3.34+  Mn178  1  0.24068816  0.16732183  0.91106285  1
  Mn3.34+  Mn179  1  0.06545221  0.15258101  0.74824779  1
  Mn3.34+  Mn180  1  0.73958299  0.50410445  0.74004783  1
  Mn3.34+  Mn181  1  0.58972310  -0.00287820  0.91031167  1
  Mn3.34+  Mn182  1  0.57400896  0.50016580  0.24492349  1
  Mn3.34+  Mn183  1  0.75988862  0.49870749  0.08019526  1
  Mn3.34+  Mn184  1  0.92455535  0.00135667  0.59714598  1
  Mn3.34+  Mn185  1  0.24215365  -0.00148855  0.58885917  1
  Mn3.34+  Mn186  1  0.75413053  0.00172524  0.08514864  1
  Mn3.34+  Mn187  1  0.40821599  0.49480409  0.41297299  1
  Mn3.34+  Mn188  1  0.24870613  0.00163251  0.91371843  1
  Mn3.34+  Mn189  1  0.93187030  0.50351747  0.92131208  1
  Mn3.34+  Mn190  1  0.08339196  0.49725325  0.75475093  1
  Mn3.34+  Mn191  1  0.91752950  0.49954760  0.58728535  1
  Mn3.34+  Mn192  1  0.41050634  -0.00577038  0.74281996  1
  Mn3.34+  Mn193  1  0.41591369  0.49893658  0.73966515  1
  Mn3.34+  Mn194  1  0.24687512  0.50269620  0.57756152  1
  Mn3.34+  Mn195  1  0.40663202  -0.00353294  0.07739927  1
  Mn3.34+  Mn196  1  0.24078608  -0.00293044  0.23649833  1
  Mn3.34+  Mn197  1  0.75014124  0.49620715  0.41732084  1
  Mn3.34+  Mn198  1  0.58288299  -0.00248256  0.58079071  1
  Mn3.34+  Mn199  1  0.23276784  0.49742809  0.26014613  1
  Mn3.34+  Mn200  1  0.25574670  -0.00756177  0.24124820  1
  Mn3.34+  Mn201  1  0.75150065  -0.00674321  0.74509321  1
  Mn3.34+  Mn202  1  0.76187864  0.00754306  0.39495540  1
  Mn3.34+  Mn203  1  0.40569636  0.50745401  0.08278944  1
  Mn3.34+  Mn204  1  0.94442564  0.50578641  0.26296469  1
  Mn3.34+  Mn205  1  0.59400932  -0.00673038  0.26998091  1
  Mn3.34+  Mn206  1  0.91854817  0.00258583  0.91234334  1
  Mn3.34+  Mn207  1  0.76341765  0.50276563  0.41384634  1
  Mn3.34+  Mn208  1  0.57545479  0.00363771  0.91004358  1
  Mn3.34+  Mn209  1  0.42105781  -0.00030531  0.74380385  1
  Mn3.34+  Mn210  1  0.08675861  -0.00117100  0.08329908  1
  Mn3.34+  Mn211  1  0.58822201  0.50619324  0.24834002  1
  Mn3.34+  Mn212  1  0.09824690  -0.00861278  0.08044032  1
  Mn3.34+  Mn213  1  0.42872134  0.50523722  0.73618726  1
  Mn3.34+  Mn214  1  0.41980546  -0.00634654  0.40798771  1
  Mn3.34+  Mn215  1  0.08433386  0.50174379  0.08220459  1
  O2-  O216  1  -0.00744341  0.16627599  0.00376745  1
  O2-  O217  1  -0.00181846  0.16539265  0.33341014  1
  O2-  O218  1  0.00710352  0.20037714  0.67073872  1
  O2-  O219  1  0.00005303  0.66536213  0.00907838  1
  O2-  O220  1  -0.00218121  0.67564456  0.33462509  1
  O2-  O221  1  -0.00033795  0.67742038  0.66661546  1
  O2-  O222  1  0.32636338  0.14770217  -0.00042152  1
  O2-  O223  1  0.32433062  0.15375168  0.34067373  1
  O2-  O224  1  0.33106926  0.15067830  0.67120907  1
  O2-  O225  1  0.33760363  0.64988222  -0.00399122  1
  O2-  O226  1  0.31189864  0.65632932  0.35010305  1
  O2-  O227  1  0.33460097  0.63801247  0.67138040  1
  O2-  O228  1  0.66203933  0.15730187  0.00218336  1
  O2-  O229  1  0.66463237  0.14721629  0.34135544  1
  O2-  O230  1  0.66517464  0.17278360  0.65699142  1
  O2-  O231  1  0.66346384  0.66336041  0.00164144  1
  O2-  O232  1  0.67464931  0.64665462  0.33205355  1
  O2-  O233  1  0.66844365  0.64820463  0.66792505  1
  O2-  O234  1  0.16269737  0.16980316  -0.01077284  1
  O2-  O235  1  0.16381841  0.17459404  0.34010845  1
  O2-  O236  1  0.16012833  0.15646240  0.66937127  1
  O2-  O237  1  0.16725163  0.64738147  0.00384954  1
  O2-  O238  1  0.15436700  0.68379526  0.35094822  1
  O2-  O239  1  0.16861055  0.65659897  0.65935757  1
  O2-  O240  1  0.49473421  0.15187717  -0.00198146  1
  O2-  O241  1  0.49968385  0.15129759  0.32533029  1
  O2-  O242  1  0.49703428  0.18193709  0.66553494  1
  O2-  O243  1  0.49528229  0.66582168  -0.00630885  1
  O2-  O244  1  0.49091855  0.66269989  0.31256253  1
  O2-  O245  1  0.49602766  0.65565679  0.66309569  1
  O2-  O246  1  0.83326420  0.14967917  0.00022791  1
  O2-  O247  1  0.83420770  0.13642970  0.33396154  1
  O2-  O248  1  0.84455613  0.17104453  0.65915947  1
  O2-  O249  1  0.82709748  0.65937976  0.00019391  1
  O2-  O250  1  0.83629023  0.64444202  0.33360530  1
  O2-  O251  1  0.83418571  0.64374139  0.67850887  1
  O2-  O252  1  0.00786031  0.33999225  -0.00360068  1
  O2-  O253  1  0.00211806  0.32439325  0.33979800  1
  O2-  O254  1  -0.00235764  0.34416779  0.66646927  1
  O2-  O255  1  -0.00395622  0.83588219  0.00293903  1
  O2-  O256  1  0.00525881  0.82883516  0.33718768  1
  O2-  O257  1  0.00334842  0.84144381  0.66178777  1
  O2-  O258  1  0.33368048  0.34669569  0.00061062  1
  O2-  O259  1  0.32735805  0.35634814  0.33379793  1
  O2-  O260  1  0.34069805  0.33820216  0.66286903  1
  O2-  O261  1  0.33748755  0.82497670  -0.00011285  1
  O2-  O262  1  0.33307120  0.84300911  0.33265716  1
  O2-  O263  1  0.33298625  0.84572912  0.66508550  1
  O2-  O264  1  0.66172084  0.33631691  -0.00451586  1
  O2-  O265  1  0.67190290  0.35353456  0.33578328  1
  O2-  O266  1  0.66566299  0.34104441  0.66839605  1
  O2-  O267  1  0.66611305  0.83571892  -0.00190419  1
  O2-  O268  1  0.66621862  0.84325918  0.33209328  1
  O2-  O269  1  0.67254437  0.85063329  0.66848198  1
  O2-  O270  1  0.16958678  0.33779659  0.00396325  1
  O2-  O271  1  0.16802583  0.33283867  0.33770864  1
  O2-  O272  1  0.15975284  0.33632569  0.66389790  1
  O2-  O273  1  0.16211251  0.84656600  0.00045050  1
  O2-  O274  1  0.16544942  0.84146917  0.33787696  1
  O2-  O275  1  0.16349691  0.83771378  0.66176252  1
  O2-  O276  1  0.49854497  0.33832460  -0.00576054  1
  O2-  O277  1  0.49616789  0.34956746  0.33133744  1
  O2-  O278  1  0.50530505  0.32899131  0.66982647  1
  O2-  O279  1  0.50116305  0.81376556  0.00140211  1
  O2-  O280  1  0.49457532  0.83540278  0.32831509  1
  O2-  O281  1  0.50544090  0.83979765  0.67113896  1
  O2-  O282  1  0.83967606  0.35674481  -0.00338856  1
  O2-  O283  1  0.84029156  0.35692428  0.33533897  1
  O2-  O284  1  0.83188738  0.35143071  0.66492789  1
  O2-  O285  1  0.83594779  0.82979312  -0.00085334  1
  O2-  O286  1  0.83885749  0.84766785  0.33682142  1
  O2-  O287  1  0.83130210  0.85265169  0.66326518  1
  O2-  O288  1  -0.00576648  0.18497953  0.16866227  1
  O2-  O289  1  -0.00547266  0.18321403  0.50110704  1
  O2-  O290  1  -0.00110077  0.18303518  0.83288643  1
  O2-  O291  1  -0.00175692  0.68272376  0.16550742  1
  O2-  O292  1  0.01028188  0.68345107  0.50177226  1
  O2-  O293  1  -0.01515522  0.69602348  0.83101069  1
  O2-  O294  1  0.33272024  0.17223319  0.16618849  1
  O2-  O295  1  0.32672562  0.17077769  0.50622253  1
  O2-  O296  1  0.33103342  0.18639101  0.83160809  1
  O2-  O297  1  0.34908801  0.67982517  0.18133076  1
  O2-  O298  1  0.34138889  0.67711031  0.51427922  1
  O2-  O299  1  0.33332418  0.67934780  0.82984345  1
  O2-  O300  1  0.66917905  0.18341148  0.16649351  1
  O2-  O301  1  0.66339960  0.18536238  0.49577761  1
  O2-  O302  1  0.66838287  0.18837667  0.85292048  1
  O2-  O303  1  0.67633036  0.67252128  0.17283091  1
  O2-  O304  1  0.67457714  0.67944092  0.50957072  1
  O2-  O305  1  0.66764012  0.68894825  0.83559779  1
  O2-  O306  1  0.15788585  0.18844797  0.15607099  1
  O2-  O307  1  0.17438719  0.17977960  0.50011372  1
  O2-  O308  1  0.16062543  0.18866156  0.82250574  1
  O2-  O309  1  0.16723728  0.67932765  0.16354208  1
  O2-  O310  1  0.17485553  0.68255895  0.50439820  1
  O2-  O311  1  0.17230692  0.67133997  0.82647972  1
  O2-  O312  1  0.50848006  0.18550476  0.15966616  1
  O2-  O313  1  0.50055937  0.17860757  0.50574099  1
  O2-  O314  1  0.49712715  0.19111715  0.83762467  1
  O2-  O315  1  0.51550256  0.68651276  0.14615779  1
  O2-  O316  1  0.50385541  0.68532350  0.50907211  1
  O2-  O317  1  0.49787966  0.68767247  0.83217138  1
  O2-  O318  1  0.83971202  0.17440378  0.15869059  1
  O2-  O319  1  0.83285592  0.18424123  0.50304956  1
  O2-  O320  1  0.82865063  0.18031378  0.84625641  1
  O2-  O321  1  0.83346350  0.67296093  0.16493293  1
  O2-  O322  1  0.83321555  0.67874246  0.49684131  1
  O2-  O323  1  0.82285463  0.67999465  0.83927654  1
  O2-  O324  1  -0.00738137  0.31805892  0.15471617  1
  O2-  O325  1  0.00395686  0.31101300  0.50245873  1
  O2-  O326  1  -0.00925441  0.31097197  0.82205199  1
  O2-  O327  1  -0.00459697  0.81581253  0.16407151  1
  O2-  O328  1  0.00126671  0.82027796  0.49905723  1
  O2-  O329  1  0.00367430  0.82343948  0.83617824  1
  O2-  O330  1  0.33612102  0.33314878  0.16969009  1
  O2-  O331  1  0.32811597  0.32892512  0.49840130  1
  O2-  O332  1  0.33556275  0.31721498  0.83136050  1
  O2-  O333  1  0.33772152  0.81566557  0.17084792  1
  O2-  O334  1  0.32573805  0.82610460  0.49561714  1
  O2-  O335  1  0.33220381  0.82189073  0.83531164  1
  O2-  O336  1  0.67380395  0.32174946  0.17421183  1
  O2-  O337  1  0.66447024  0.30845462  0.50504417  1
  O2-  O338  1  0.66423642  0.31928368  0.83513927  1
  O2-  O339  1  0.66501248  0.83202016  0.16245447  1
  O2-  O340  1  0.67736882  0.82757794  0.50835726  1
  O2-  O341  1  0.66612737  0.81324648  0.83297984  1
  O2-  O342  1  0.17176278  0.31990535  0.16143533  1
  O2-  O343  1  0.16746729  0.31465680  0.49944243  1
  O2-  O344  1  0.15847505  0.31347081  0.83935915  1
  O2-  O345  1  0.15751364  0.82316917  0.17600186  1
  O2-  O346  1  0.16731169  0.81450617  0.49690599  1
  O2-  O347  1  0.16273351  0.82275031  0.83798299  1
  O2-  O348  1  0.50170091  0.32740232  0.16571516  1
  O2-  O349  1  0.49664743  0.31862179  0.50093724  1
  O2-  O350  1  0.50094550  0.30818811  0.83210419  1
  O2-  O351  1  0.50110289  0.81499739  0.16523386  1
  O2-  O352  1  0.50159505  0.82098360  0.50056063  1
  O2-  O353  1  0.49989256  0.81564901  0.83268870  1
  O2-  O354  1  0.83665202  0.32976116  0.16817178  1
  O2-  O355  1  0.83065251  0.31296782  0.50629208  1
  O2-  O356  1  0.83422285  0.33329554  0.83237983  1
  O2-  O357  1  0.83586139  0.82971396  0.16239838  1
  O2-  O358  1  0.83098209  0.83553608  0.50327269  1
  O2-  O359  1  0.83257773  0.81469763  0.83794162  1
  O2-  O360  1  0.07506586  0.07436381  0.12831928  1
  O2-  O361  1  0.10661476  0.07438219  0.41445822  1
  O2-  O362  1  0.09666571  0.07520750  0.78966136  1
  O2-  O363  1  0.06709373  0.58178241  0.10903777  1
  O2-  O364  1  0.09763351  0.56829444  0.46953225  1
  O2-  O365  1  0.08527990  0.57767703  0.76938344  1
  O2-  O366  1  0.42447794  0.07804653  0.12357281  1
  O2-  O367  1  0.41512784  0.06779925  0.44587316  1
  O2-  O368  1  0.42125639  0.08018678  0.78817897  1
  O2-  O369  1  0.43412356  0.58575002  0.11778121  1
  O2-  O370  1  0.40021618  0.57592424  0.42273756  1
  O2-  O371  1  0.42994644  0.57984118  0.78962263  1
  O2-  O372  1  0.74577830  0.08192862  0.11214456  1
  O2-  O373  1  0.75041885  0.07974295  0.46725785  1
  O2-  O374  1  0.74962861  0.07447335  0.76599576  1
  O2-  O375  1  0.74551168  0.58416193  0.10150327  1
  O2-  O376  1  0.74957366  0.58165156  0.45084464  1
  O2-  O377  1  0.73910226  0.58324133  0.79092465  1
  O2-  O378  1  0.24244113  0.07666543  0.21689655  1
  O2-  O379  1  0.24762626  0.07925968  0.55407952  1
  O2-  O380  1  0.25858398  0.08273444  0.87601690  1
  O2-  O381  1  0.25899582  0.57290935  0.23513162  1
  O2-  O382  1  0.25877398  0.58364237  0.54707931  1
  O2-  O383  1  0.26519934  0.57693478  0.87711913  1
  O2-  O384  1  0.58452693  0.07417609  0.20805967  1
  O2-  O385  1  0.57074507  0.07785488  0.55767374  1
  O2-  O386  1  0.59390752  0.08416304  0.88516167  1
  O2-  O387  1  0.58752542  0.58436109  0.20844425  1
  O2-  O388  1  0.56428548  0.58683588  0.55543204  1
  O2-  O389  1  0.58935573  0.58421056  0.91506341  1
  O2-  O390  1  0.92664120  0.07951156  0.20959723  1
  O2-  O391  1  0.91266628  0.07490477  0.55649473  1
  O2-  O392  1  0.90283822  0.08521264  0.89334407  1
  O2-  O393  1  0.90244396  0.57982707  0.21173842  1
  O2-  O394  1  0.90919976  0.57242930  0.54882671  1
  O2-  O395  1  0.89590649  0.57691354  0.88015269  1
  O2-  O396  1  0.07484833  0.42002648  0.11161310  1
  O2-  O397  1  0.08563969  0.41530829  0.45262780  1
  O2-  O398  1  0.06574369  0.41670406  0.78145985  1
  O2-  O399  1  0.06851327  0.91519048  0.11523792  1
  O2-  O400  1  0.08217843  0.91688328  0.44153503  1
  O2-  O401  1  0.08411807  0.91747383  0.76498881  1
  O2-  O402  1  0.42023889  0.42635303  0.11543852  1
  O2-  O403  1  0.42815185  0.41837342  0.45030555  1
  O2-  O404  1  0.43711663  0.42206281  0.78749612  1
  O2-  O405  1  0.43237878  0.91517639  0.10159601  1
  O2-  O406  1  0.40079330  0.91813586  0.43205118  1
  O2-  O407  1  0.42838625  0.91754956  0.78832086  1
  O2-  O408  1  0.74567019  0.41619917  0.10655016  1
  O2-  O409  1  0.75633470  0.41879351  0.45889652  1
  O2-  O410  1  0.73792128  0.42064588  0.78040102  1
  O2-  O411  1  0.75546869  0.91890424  0.08096393  1
  O2-  O412  1  0.75500472  0.92973801  0.44076681  1
  O2-  O413  1  0.73551398  0.91746586  0.79132942  1
  O2-  O414  1  0.24824131  0.42433064  0.20472240  1
  O2-  O415  1  0.23152469  0.41808021  0.55885000  1
  O2-  O416  1  0.24748351  0.41101842  0.90357681  1
  O2-  O417  1  0.26152656  0.91324236  0.22660976  1
  O2-  O418  1  0.23157599  0.91996807  0.55530461  1
  O2-  O419  1  0.25105186  0.91899562  0.89821936  1
  O2-  O420  1  0.59775374  0.42118631  0.21415599  1
  O2-  O421  1  0.59885922  0.41234272  0.55159969  1
  O2-  O422  1  0.58322767  0.41752465  0.89444605  1
  O2-  O423  1  0.56543517  0.92035474  0.22003465  1
  O2-  O424  1  0.60128283  0.91768931  0.56097677  1
  O2-  O425  1  0.57193506  0.91557646  0.89702109  1
  O2-  O426  1  0.90129396  0.42967628  0.20945094  1
  O2-  O427  1  0.93732921  0.42084957  0.54887277  1
  O2-  O428  1  0.93483503  0.41910318  0.88598176  1
  O2-  O429  1  0.93525605  0.91541124  0.23479174  1
  O2-  O430  1  0.91859834  0.92945579  0.54846594  1
  O2-  O431  1  0.91243537  0.92123023  0.90427211  1
  O2-  O432  1  -0.00176299  0.00825798  0.00414333  1
  O2-  O433  1  0.00425757  0.00209455  0.33639702  1
  O2-  O434  1  0.00695518  0.00073872  0.65615923  1
  O2-  O435  1  -0.02770202  0.49562724  0.03704716  1
  O2-  O436  1  -0.03313778  0.50328791  0.37313270  1
  O2-  O437  1  0.00030124  0.48336301  0.66849080  1
  O2-  O438  1  0.35237724  0.00027340  -0.03171793  1
  O2-  O439  1  0.32508752  0.00538675  0.33190327  1
  O2-  O440  1  0.33163595  0.01672812  0.66228964  1
  O2-  O441  1  0.33642139  0.48413337  -0.00016950  1
  O2-  O442  1  0.35085800  0.48673937  0.30463326  1
  O2-  O443  1  0.32289855  0.50774094  0.66957583  1
  O2-  O444  1  0.66925514  0.00665321  -0.00204496  1
  O2-  O445  1  0.65410358  0.02296677  0.35690537  1
  O2-  O446  1  0.67854354  -0.00298258  0.64831818  1
  O2-  O447  1  0.66223875  0.50543122  0.01224291  1
  O2-  O448  1  0.65730274  0.49636471  0.34407390  1
  O2-  O449  1  0.68984061  0.49750563  0.63353448  1
  O2-  O450  1  0.17422895  0.01377051  0.00095747  1
  O2-  O451  1  0.15498271  -0.00871399  0.30686718  1
  O2-  O452  1  0.16554054  0.00306031  0.66038150  1
  O2-  O453  1  0.16317503  0.48270553  0.00623823  1
  O2-  O454  1  0.19710731  0.50451478  0.36442312  1
  O2-  O455  1  0.15900287  0.50345460  0.66122426  1
  O2-  O456  1  0.50930002  0.00878849  0.00708987  1
  O2-  O457  1  0.49016608  0.01165643  0.32066825  1
  O2-  O458  1  0.50643621  -0.00807680  0.66778520  1
  O2-  O459  1  0.50286230  0.50649394  0.01724689  1
  O2-  O460  1  0.49983327  0.49324055  0.33363540  1
  O2-  O461  1  0.49334248  0.47865792  0.64951758  1
  O2-  O462  1  0.84044545  0.01454728  0.00635233  1
  O2-  O463  1  0.87045637  0.01108568  0.37756946  1
  O2-  O464  1  0.82912695  -0.00843870  0.65154394  1
  O2-  O465  1  0.81659985  0.49946221  -0.02980947  1
  O2-  O466  1  0.80621586  0.49817631  0.30338063  1
  O2-  O467  1  0.84261095  0.47665284  0.67383364  1
  O2-  O468  1  0.75740938  0.24047446  0.37888970  1
  O2-  O469  1  0.59250557  0.24324193  0.27835045  1
  O2-  O470  1  0.59821085  0.75173560  0.60724832  1
  O2-  O471  1  0.75479307  0.75382990  0.39388414  1
  O2-  O472  1  0.90562397  0.25291790  0.94086505  1
  O2-  O473  1  0.26181023  0.75126748  0.60932959  1
  O2-  O474  1  0.60079574  0.75200336  0.27025089  1
  O2-  O475  1  0.75199612  0.75055039  0.71617182  1
  O2-  O476  1  0.74875249  0.75246847  0.07286386  1
  O2-  O477  1  0.40800492  0.25586193  0.40079123  1
  O2-  O478  1  0.89064674  0.24397493  0.27509961  1
  O2-  O479  1  0.75894777  0.24922315  0.06103591  1
  O2-  O480  1  0.25620572  0.24732226  0.61013561  1
  O2-  O481  1  0.89474989  0.75001429  0.26471474  1
  O2-  O482  1  0.25941549  0.24875786  0.94269669  1
  O2-  O483  1  0.08652798  0.75402909  0.73919285  1
  O2-  O484  1  0.24174428  0.74330329  0.94035392  1
  O2-  O485  1  0.90713355  0.75794186  0.59509290  1
  O2-  O486  1  0.25039137  0.75267986  0.26812931  1
  O2-  O487  1  0.41296783  0.75488305  0.40806608  1
  O2-  O488  1  0.09442575  0.74861162  0.05981025  1
  O2-  O489  1  0.75483952  0.25596749  0.73629699  1
  O2-  O490  1  0.41079993  0.74757263  0.72140965  1
  O2-  O491  1  0.40798465  0.24567660  0.06144124  1
  O2-  O492  1  0.25830266  0.25693232  0.26308297  1
