# generated using pymatgen
data_Ca108Mn108O277
_symmetry_space_group_name_H-M   'P 1'
_cell_length_a   16.00517775
_cell_length_b   22.27527505
_cell_length_c   16.37171086
_cell_angle_alpha   89.99906402
_cell_angle_beta   90.00070423
_cell_angle_gamma   89.99876253
_symmetry_Int_Tables_number   1
_chemical_formula_structural   Ca108Mn108O277
_chemical_formula_sum   'Ca108 Mn108 O277'
_cell_volume   5836.83804330
_cell_formula_units_Z   1
loop_
 _symmetry_equiv_pos_site_id
 _symmetry_equiv_pos_as_xyz
  1  'x, y, z'
loop_
 _atom_type_symbol
 _atom_type_oxidation_number
  Ca2+  2.0
  Mn3.34+  3.34
  O2-  -2.0
loop_
 _atom_site_type_symbol
 _atom_site_label
 _atom_site_symmetry_multiplicity
 _atom_site_fract_x
 _atom_site_fract_y
 _atom_site_fract_z
 _atom_site_occupancy
  Ca2+  Ca0  1  0.07463834  0.25664764  0.25679201  1
  Ca2+  Ca1  1  0.08498925  0.25533188  0.57603656  1
  Ca2+  Ca2  1  0.09282512  0.24897098  0.91045984  1
  Ca2+  Ca3  1  0.08438324  0.74570293  0.24762162  1
  Ca2+  Ca4  1  0.07213277  0.74967983  0.58588111  1
  Ca2+  Ca5  1  0.08312776  0.74705911  0.91549443  1
  Ca2+  Ca6  1  0.41708615  0.25008302  0.27030554  1
  Ca2+  Ca7  1  0.41728732  0.24297107  0.57945547  1
  Ca2+  Ca8  1  0.40701181  0.24739196  0.89549546  1
  Ca2+  Ca9  1  0.41801937  0.75184901  0.23732695  1
  Ca2+  Ca10  1  0.42164174  0.75115839  0.58211603  1
  Ca2+  Ca11  1  0.41014249  0.75456276  0.92767045  1
  Ca2+  Ca12  1  0.76250627  0.24521584  0.25442609  1
  Ca2+  Ca13  1  0.74736194  0.24981191  0.56484364  1
  Ca2+  Ca14  1  0.75052786  0.25364334  0.93096681  1
  Ca2+  Ca15  1  0.74804543  0.75630573  0.23392475  1
  Ca2+  Ca16  1  0.75144240  0.74220702  0.60599491  1
  Ca2+  Ca17  1  0.75901116  0.74492222  0.91174899  1
  Ca2+  Ca18  1  0.24251016  0.25344408  0.08799377  1
  Ca2+  Ca19  1  0.25489771  0.25454552  0.40690709  1
  Ca2+  Ca20  1  0.26176426  0.24426623  0.75573586  1
  Ca2+  Ca21  1  0.25021749  0.74995463  0.08763400  1
  Ca2+  Ca22  1  0.24288775  0.75206751  0.40208251  1
  Ca2+  Ca23  1  0.23727005  0.75428575  0.76292622  1
  Ca2+  Ca24  1  0.59828389  0.25084869  0.09855892  1
  Ca2+  Ca25  1  0.57872867  0.24973503  0.40721476  1
  Ca2+  Ca26  1  0.56603695  0.25399758  0.74860410  1
  Ca2+  Ca27  1  0.58384271  0.75483583  0.09314890  1
  Ca2+  Ca28  1  0.57776596  0.75890742  0.40682577  1
  Ca2+  Ca29  1  0.60091667  0.74531461  0.74600846  1
  Ca2+  Ca30  1  0.91142112  0.24997868  0.10712848  1
  Ca2+  Ca31  1  0.91468618  0.25374243  0.39498138  1
  Ca2+  Ca32  1  0.92728107  0.25785247  0.75013499  1
  Ca2+  Ca33  1  0.91515026  0.75214498  0.08516418  1
  Ca2+  Ca34  1  0.93202373  0.74283776  0.41293096  1
  Ca2+  Ca35  1  0.91106102  0.74217340  0.75043113  1
  Ca2+  Ca36  1  0.42408807  0.09276182  0.25934157  1
  Ca2+  Ca37  1  0.06829957  0.10036555  0.24386060  1
  Ca2+  Ca38  1  0.24052823  0.59735184  0.76272090  1
  Ca2+  Ca39  1  0.75445913  0.60315951  0.59760233  1
  Ca2+  Ca40  1  0.40904766  0.59508715  0.92263410  1
  Ca2+  Ca41  1  0.90157162  0.60947852  0.75289021  1
  Ca2+  Ca42  1  0.60550681  0.60508518  0.73928845  1
  Ca2+  Ca43  1  0.25708629  0.09986195  0.41776847  1
  Ca2+  Ca44  1  0.91009382  0.09582847  0.09967600  1
  Ca2+  Ca45  1  0.25630952  0.59626188  0.09726732  1
  Ca2+  Ca46  1  0.08891138  0.08769326  0.91083431  1
  Ca2+  Ca47  1  0.43731705  0.60288876  0.59165112  1
  Ca2+  Ca48  1  0.93269233  0.08539296  0.75595794  1
  Ca2+  Ca49  1  0.58362865  0.09604105  0.41662304  1
  Ca2+  Ca50  1  0.59466734  0.58744786  0.40790506  1
  Ca2+  Ca51  1  0.76550602  0.60311852  0.59577347  1
  Ca2+  Ca52  1  0.56158003  0.09631784  0.74514193  1
  Ca2+  Ca53  1  0.07392381  0.60534906  0.91097958  1
  Ca2+  Ca54  1  0.57412823  0.09507914  0.74397282  1
  Ca2+  Ca55  1  0.91654380  0.59997229  0.08848240  1
  Ca2+  Ca56  1  0.26794351  0.10201994  0.41642930  1
  Ca2+  Ca57  1  0.74495627  0.58259244  0.25045501  1
  Ca2+  Ca58  1  0.40559733  0.09227487  0.90440287  1
  Ca2+  Ca59  1  0.07904377  0.09932704  0.24386371  1
  Ca2+  Ca60  1  0.59436397  0.09601971  0.41632316  1
  Ca2+  Ca61  1  0.41893183  0.10619345  0.57979899  1
  Ca2+  Ca62  1  0.22154697  0.58891501  0.39513697  1
  Ca2+  Ca63  1  0.25236672  0.09852532  0.75283150  1
  Ca2+  Ca64  1  0.08345729  0.59114887  0.27095268  1
  Ca2+  Ca65  1  0.90540427  0.59996223  0.08847277  1
  Ca2+  Ca66  1  0.05616931  0.60291943  0.56494566  1
  Ca2+  Ca67  1  0.09101822  0.09437683  0.58912462  1
  Ca2+  Ca68  1  0.93991624  0.59243249  0.41736133  1
  Ca2+  Ca69  1  0.57831368  0.59164877  0.10026871  1
  Ca2+  Ca70  1  0.89962319  0.09281272  0.39443766  1
  Ca2+  Ca71  1  0.74987067  0.08228909  0.92997942  1
  Ca2+  Ca72  1  0.43001558  0.90394435  0.57768518  1
  Ca2+  Ca73  1  0.73382376  0.90354273  0.57082622  1
  Ca2+  Ca74  1  0.41719708  0.90436391  0.57845465  1
  Ca2+  Ca75  1  0.24674304  0.90370338  0.41046903  1
  Ca2+  Ca76  1  0.42893477  0.91062022  0.91863363  1
  Ca2+  Ca77  1  0.41222504  0.40537337  0.92064416  1
  Ca2+  Ca78  1  0.24428006  0.90666659  0.75486262  1
  Ca2+  Ca79  1  0.41779690  0.39321960  0.57795655  1
  Ca2+  Ca80  1  0.23272792  0.40991653  0.39755451  1
  Ca2+  Ca81  1  0.59487720  0.40906797  0.40026505  1
  Ca2+  Ca82  1  0.74637594  0.90466295  0.57270655  1
  Ca2+  Ca83  1  0.90837293  0.91000256  0.08603595  1
  Ca2+  Ca84  1  0.08235907  0.91280942  0.91076542  1
  Ca2+  Ca85  1  0.08377491  0.40185904  0.91492400  1
  Ca2+  Ca86  1  0.57999673  0.90387894  0.76245924  1
  Ca2+  Ca87  1  0.07689389  0.40684362  0.56669981  1
  Ca2+  Ca88  1  0.75163409  0.40604270  0.56879811  1
  Ca2+  Ca89  1  0.42375644  0.40505109  0.92110755  1
  Ca2+  Ca90  1  0.91447224  0.40595700  0.74048345  1
  Ca2+  Ca91  1  0.91923728  0.90794309  0.40836425  1
  Ca2+  Ca92  1  0.42068963  0.90610705  0.24508813  1
  Ca2+  Ca93  1  0.25397527  0.90681594  0.08603617  1
  Ca2+  Ca94  1  0.24452106  0.40099377  0.74898365  1
  Ca2+  Ca95  1  0.59233743  0.41090022  0.10146571  1
  Ca2+  Ca96  1  0.08373877  0.90474391  0.24635997  1
  Ca2+  Ca97  1  0.76315226  0.40691415  0.56652188  1
  Ca2+  Ca98  1  0.40488444  0.40773586  0.24389834  1
  Ca2+  Ca99  1  0.74394484  0.90825981  0.92574549  1
  Ca2+  Ca100  1  0.06967896  0.91251256  0.91198880  1
  Ca2+  Ca101  1  0.09553343  0.40148396  0.91521425  1
  Ca2+  Ca102  1  0.90667911  0.90962874  0.40792164  1
  Ca2+  Ca103  1  0.58196775  0.40991115  0.09755505  1
  Ca2+  Ca104  1  0.73614789  0.40458309  0.91333358  1
  Ca2+  Ca105  1  0.74765253  0.40514454  0.91395183  1
  Ca2+  Ca106  1  0.92986770  0.90634024  0.75844653  1
  Ca2+  Ca107  1  0.58969133  0.91190490  0.08374784  1
  Mn3.34+  Mn108  1  0.08057834  0.33146226  0.09052881  1
  Mn3.34+  Mn109  1  0.07939266  0.33977637  0.41085809  1
  Mn3.34+  Mn110  1  0.08406257  0.33096644  0.74612650  1
  Mn3.34+  Mn111  1  0.08260119  0.83290702  0.08505000  1
  Mn3.34+  Mn112  1  0.08281236  0.83212802  0.41923591  1
  Mn3.34+  Mn113  1  0.08191507  0.83408485  0.74803973  1
  Mn3.34+  Mn114  1  0.41378974  0.33044957  0.08784452  1
  Mn3.34+  Mn115  1  0.41600240  0.32718729  0.41606051  1
  Mn3.34+  Mn116  1  0.41688349  0.32842730  0.74660374  1
  Mn3.34+  Mn117  1  0.41874384  0.83397197  0.08407065  1
  Mn3.34+  Mn118  1  0.41858352  0.83657743  0.41233486  1
  Mn3.34+  Mn119  1  0.41681748  0.82914973  0.75242533  1
  Mn3.34+  Mn120  1  0.75714433  0.33279688  0.09173037  1
  Mn3.34+  Mn121  1  0.75382595  0.33572112  0.40744522  1
  Mn3.34+  Mn122  1  0.74765652  0.33100900  0.74753679  1
  Mn3.34+  Mn123  1  0.74884335  0.83470717  0.08556227  1
  Mn3.34+  Mn124  1  0.74629241  0.83590489  0.41131475  1
  Mn3.34+  Mn125  1  0.75214336  0.82780816  0.75346139  1
  Mn3.34+  Mn126  1  0.24501308  0.33767563  0.24556925  1
  Mn3.34+  Mn127  1  0.24965526  0.32752347  0.58040663  1
  Mn3.34+  Mn128  1  0.25079220  0.33099470  0.91959302  1
  Mn3.34+  Mn129  1  0.25014824  0.83161588  0.24761429  1
  Mn3.34+  Mn130  1  0.24494775  0.83330359  0.58248148  1
  Mn3.34+  Mn131  1  0.25102780  0.83328226  0.91755081  1
  Mn3.34+  Mn132  1  0.58430611  0.33386104  0.25219332  1
  Mn3.34+  Mn133  1  0.58325212  0.32793708  0.58158503  1
  Mn3.34+  Mn134  1  0.58185790  0.33149238  0.91456316  1
  Mn3.34+  Mn135  1  0.58686686  0.83560137  0.25055342  1
  Mn3.34+  Mn136  1  0.58508021  0.82493905  0.58162701  1
  Mn3.34+  Mn137  1  0.58435760  0.83768953  0.91621722  1
  Mn3.34+  Mn138  1  0.91820191  0.34132676  0.25003714  1
  Mn3.34+  Mn139  1  0.91955657  0.33445624  0.57693607  1
  Mn3.34+  Mn140  1  0.91684638  0.33233678  0.91981093  1
  Mn3.34+  Mn141  1  0.91415290  0.83144019  0.24677665  1
  Mn3.34+  Mn142  1  0.91732174  0.82672976  0.58298723  1
  Mn3.34+  Mn143  1  0.91429206  0.83732563  0.91645763  1
  Mn3.34+  Mn144  1  0.74974409  0.16384048  0.09604234  1
  Mn3.34+  Mn145  1  0.90761600  0.16492936  0.58260429  1
  Mn3.34+  Mn146  1  0.57955037  0.15846681  0.92199317  1
  Mn3.34+  Mn147  1  0.75155148  0.16421752  0.41191624  1
  Mn3.34+  Mn148  1  0.75200673  0.66872896  0.08451832  1
  Mn3.34+  Mn149  1  0.58443634  0.66322355  0.24346076  1
  Mn3.34+  Mn150  1  0.92040882  0.16030984  0.91747338  1
  Mn3.34+  Mn151  1  0.08171855  0.16912564  0.41674838  1
  Mn3.34+  Mn152  1  0.59288891  0.66340077  0.91806085  1
  Mn3.34+  Mn153  1  0.92118054  0.66455114  0.25263568  1
  Mn3.34+  Mn154  1  0.90997190  0.16519131  0.91700973  1
  Mn3.34+  Mn155  1  0.08747736  0.16344471  0.75114727  1
  Mn3.34+  Mn156  1  0.24551345  0.66205715  0.24919823  1
  Mn3.34+  Mn157  1  0.91826590  0.16958179  0.58197037  1
  Mn3.34+  Mn158  1  0.59192177  0.16571295  0.92181812  1
  Mn3.34+  Mn159  1  0.41352549  0.66872287  0.41087914  1
  Mn3.34+  Mn160  1  0.74901086  0.17227518  0.74846119  1
  Mn3.34+  Mn161  1  0.25066024  0.17312111  0.58404660  1
  Mn3.34+  Mn162  1  0.58638901  0.16445018  0.24843000  1
  Mn3.34+  Mn163  1  0.24923912  0.16652014  0.91640334  1
  Mn3.34+  Mn164  1  0.08820658  0.16723221  0.08286593  1
  Mn3.34+  Mn165  1  0.41413331  0.66690293  0.08920146  1
  Mn3.34+  Mn166  1  0.40808458  0.16427910  0.08610421  1
  Mn3.34+  Mn167  1  0.25004558  0.16909848  0.24881743  1
  Mn3.34+  Mn168  1  0.24947512  0.67072169  0.58330113  1
  Mn3.34+  Mn169  1  0.07398761  0.66871063  0.75119456  1
  Mn3.34+  Mn170  1  0.08423361  0.66842070  0.08310053  1
  Mn3.34+  Mn171  1  0.41686273  0.67302389  0.75116774  1
  Mn3.34+  Mn172  1  0.41963160  0.16565843  0.08822546  1
  Mn3.34+  Mn173  1  0.58726087  0.16933518  0.58148551  1
  Mn3.34+  Mn174  1  0.24979754  0.66761154  0.91731517  1
  Mn3.34+  Mn175  1  0.23949710  0.66527324  0.58272745  1
  Mn3.34+  Mn176  1  0.75466120  0.66532761  0.41640429  1
  Mn3.34+  Mn177  1  0.58113688  0.66892509  0.91771134  1
  Mn3.34+  Mn178  1  0.42526971  0.66350190  0.41186358  1
  Mn3.34+  Mn179  1  0.74616341  0.67167560  0.41559151  1
  Mn3.34+  Mn180  1  0.42450299  0.49771975  0.75450553  1
  Mn3.34+  Mn181  1  0.41843521  -0.00050506  0.75052798  1
  Mn3.34+  Mn182  1  0.25394769  0.49567876  0.57602815  1
  Mn3.34+  Mn183  1  0.42499283  0.00012589  0.06829547  1
  Mn3.34+  Mn184  1  0.41909013  0.00057689  0.41121717  1
  Mn3.34+  Mn185  1  0.58357822  0.00033678  0.57958452  1
  Mn3.34+  Mn186  1  0.24871827  0.00153019  0.25072799  1
  Mn3.34+  Mn187  1  0.93431570  -0.00452431  0.58718835  1
  Mn3.34+  Mn188  1  0.07778089  0.50272440  0.74735378  1
  Mn3.34+  Mn189  1  0.09372886  0.50023221  0.09422897  1
  Mn3.34+  Mn190  1  0.90864667  0.50708711  0.91213245  1
  Mn3.34+  Mn191  1  0.57839691  0.49821243  0.57562099  1
  Mn3.34+  Mn192  1  0.92245137  0.00016868  0.58199720  1
  Mn3.34+  Mn193  1  0.41463977  0.50266668  0.08175399  1
  Mn3.34+  Mn194  1  0.90550474  0.00039244  0.26120421  1
  Mn3.34+  Mn195  1  0.75125486  0.50436612  0.75072391  1
  Mn3.34+  Mn196  1  0.08334770  0.00128102  0.41775037  1
  Mn3.34+  Mn197  1  0.58733716  0.50063484  0.91708795  1
  Mn3.34+  Mn198  1  0.59464175  0.00022821  0.26641955  1
  Mn3.34+  Mn199  1  0.40722568  0.49497512  0.40978087  1
  Mn3.34+  Mn200  1  0.41311570  0.50288048  0.75532743  1
  Mn3.34+  Mn201  1  0.42025051  0.50004555  0.40519949  1
  Mn3.34+  Mn202  1  0.91755215  0.50178286  0.58303688  1
  Mn3.34+  Mn203  1  0.08170090  0.49434051  0.09446487  1
  Mn3.34+  Mn204  1  0.23951266  0.50157470  0.57617775  1
  Mn3.34+  Mn205  1  0.58918635  0.50347219  0.57514440  1
  Mn3.34+  Mn206  1  0.74926586  0.00142563  0.06711291  1
  Mn3.34+  Mn207  1  0.07722600  -0.00038367  0.07244866  1
  Mn3.34+  Mn208  1  0.25212365  0.00076819  0.92139173  1
  Mn3.34+  Mn209  1  0.75231495  0.49815432  0.08741362  1
  Mn3.34+  Mn210  1  0.74453350  0.00163699  0.75480735  1
  Mn3.34+  Mn211  1  0.24597651  -0.00329835  0.58813960  1
  Mn3.34+  Mn212  1  0.75543247  -0.00262351  0.75654833  1
  Mn3.34+  Mn213  1  0.25059827  0.50185114  0.91778612  1
  Mn3.34+  Mn214  1  0.23405809  0.00000903  0.58677051  1
  Mn3.34+  Mn215  1  0.91984381  0.50176883  0.91186223  1
  O2-  O216  1  0.00254945  0.16701080  0.00118348  1
  O2-  O217  1  0.00609488  0.15871831  0.33473874  1
  O2-  O218  1  -0.00106029  0.16153072  0.66736816  1
  O2-  O219  1  -0.00053310  0.66313791  0.00833401  1
  O2-  O220  1  -0.00063188  0.66867922  0.33155290  1
  O2-  O221  1  0.00116637  0.66920453  0.66845755  1
  O2-  O222  1  0.33509292  0.17084146  -0.00238265  1
  O2-  O223  1  0.32899224  0.16019453  0.33046703  1
  O2-  O224  1  0.32991361  0.17169963  0.66224945  1
  O2-  O225  1  0.33427349  0.66311127  -0.00082114  1
  O2-  O226  1  0.33057387  0.66455692  0.33534525  1
  O2-  O227  1  0.33104501  0.66490880  0.66612483  1
  O2-  O228  1  0.67317618  0.16322072  -0.00072878  1
  O2-  O229  1  0.66048701  0.16528111  0.33893178  1
  O2-  O230  1  0.66258057  0.17599703  0.67260694  1
  O2-  O231  1  0.66446407  0.66334771  0.00796521  1
  O2-  O232  1  0.66660306  0.66815422  0.33331561  1
  O2-  O233  1  0.66938098  0.66539126  0.65702518  1
  O2-  O234  1  0.16233450  0.17548309  -0.00459869  1
  O2-  O235  1  0.16773746  0.15750372  0.33437584  1
  O2-  O236  1  0.16517314  0.16901311  0.66459768  1
  O2-  O237  1  0.16647259  0.66120918  -0.00065984  1
  O2-  O238  1  0.16818696  0.67099018  0.32999200  1
  O2-  O239  1  0.16589147  0.66144731  0.67294985  1
  O2-  O240  1  0.49466771  0.17042714  0.00160497  1
  O2-  O241  1  0.50765171  0.15804888  0.33157657  1
  O2-  O242  1  0.50887617  0.16653887  0.66687119  1
  O2-  O243  1  0.49879568  0.66169813  -0.00126444  1
  O2-  O244  1  0.50842355  0.66503342  0.33272724  1
  O2-  O245  1  0.49488440  0.67971086  0.67012265  1
  O2-  O246  1  0.82801905  0.16146500  -0.00070647  1
  O2-  O247  1  0.83378818  0.16829877  0.34018499  1
  O2-  O248  1  0.83569028  0.17092814  0.67265721  1
  O2-  O249  1  0.83868401  0.66891724  0.01266348  1
  O2-  O250  1  0.83315875  0.66826266  0.33274643  1
  O2-  O251  1  0.83404328  0.66717599  0.66085042  1
  O2-  O252  1  0.00937826  0.33073026  -0.00711938  1
  O2-  O253  1  0.00001052  0.32776914  0.33282952  1
  O2-  O254  1  -0.00289966  0.33747936  0.66643457  1
  O2-  O255  1  0.00076348  0.83225274  -0.00338472  1
  O2-  O256  1  -0.00188343  0.83341855  0.33614193  1
  O2-  O257  1  -0.00583399  0.82571221  0.67025486  1
  O2-  O258  1  0.34211361  0.33237687  -0.00596639  1
  O2-  O259  1  0.33418226  0.33547941  0.33440566  1
  O2-  O260  1  0.33120930  0.33116640  0.66701965  1
  O2-  O261  1  0.33351581  0.83753783  0.00032299  1
  O2-  O262  1  0.32967278  0.83869805  0.33368714  1
  O2-  O263  1  0.33982110  0.83463832  0.66367889  1
  O2-  O264  1  0.66563766  0.33954504  -0.00198230  1
  O2-  O265  1  0.66110256  0.33229168  0.33799043  1
  O2-  O266  1  0.66989551  0.31952048  0.66157233  1
  O2-  O267  1  0.66754938  0.83774780  -0.00018425  1
  O2-  O268  1  0.66817023  0.81926271  0.33349505  1
  O2-  O269  1  0.66817782  0.83343224  0.66444758  1
  O2-  O270  1  0.16034866  0.32967099  -0.00506883  1
  O2-  O271  1  0.16992679  0.33050894  0.33707698  1
  O2-  O272  1  0.16922221  0.32957758  0.66628803  1
  O2-  O273  1  0.16308755  0.84104894  -0.00294696  1
  O2-  O274  1  0.16486578  0.83100991  0.33276498  1
  O2-  O275  1  0.17204323  0.83341943  0.67328943  1
  O2-  O276  1  0.49762375  0.33730289  0.00140342  1
  O2-  O277  1  0.49890519  0.33752356  0.33293173  1
  O2-  O278  1  0.49729733  0.32596879  0.66152609  1
  O2-  O279  1  0.49873431  0.83667244  -0.00121099  1
  O2-  O280  1  0.49708400  0.83207241  0.32816512  1
  O2-  O281  1  0.49874053  0.82727603  0.66373822  1
  O2-  O282  1  0.82310504  0.33832111  -0.00874667  1
  O2-  O283  1  0.83439547  0.32764286  0.33221143  1
  O2-  O284  1  0.83241853  0.33339981  0.66605788  1
  O2-  O285  1  0.83347218  0.83105855  -0.00072773  1
  O2-  O286  1  0.83963238  0.83145776  0.34116262  1
  O2-  O287  1  0.82816631  0.83568219  0.66045534  1
  O2-  O288  1  0.00838451  0.17253030  0.16213019  1
  O2-  O289  1  0.00224676  0.16668667  0.50270623  1
  O2-  O290  1  -0.00100395  0.16976205  0.83098892  1
  O2-  O291  1  -0.00259359  0.66737757  0.16447540  1
  O2-  O292  1  0.00338250  0.67927501  0.49876285  1
  O2-  O293  1  -0.00041459  0.67572287  0.83164456  1
  O2-  O294  1  0.33277017  0.17485505  0.17018635  1
  O2-  O295  1  0.32692399  0.17221266  0.50093843  1
  O2-  O296  1  0.32957130  0.16717494  0.83889796  1
  O2-  O297  1  0.32845650  0.67238168  0.16340172  1
  O2-  O298  1  0.33573907  0.66692485  0.50145986  1
  O2-  O299  1  0.33273381  0.67489849  0.83210650  1
  O2-  O300  1  0.66497464  0.17579522  0.16626430  1
  O2-  O301  1  0.66312194  0.17630612  0.49648176  1
  O2-  O302  1  0.66656228  0.17360660  0.82858005  1
  O2-  O303  1  0.66877396  0.66968379  0.16669036  1
  O2-  O304  1  0.66805457  0.67891394  0.49672467  1
  O2-  O305  1  0.66318824  0.67231532  0.83199597  1
  O2-  O306  1  0.16263064  0.17426498  0.17255400  1
  O2-  O307  1  0.16840417  0.17119327  0.49800464  1
  O2-  O308  1  0.16688641  0.17049146  0.83414063  1
  O2-  O309  1  0.16589877  0.67109238  0.16474130  1
  O2-  O310  1  0.16652357  0.67226582  0.49684662  1
  O2-  O311  1  0.16722291  0.66991303  0.83506926  1
  O2-  O312  1  0.49809769  0.17578139  0.16964700  1
  O2-  O313  1  0.50683782  0.17242240  0.50445389  1
  O2-  O314  1  0.50435045  0.16827060  0.83540379  1
  O2-  O315  1  0.50361624  0.67211229  0.16103487  1
  O2-  O316  1  0.49771333  0.67305004  0.49825244  1
  O2-  O317  1  0.49874388  0.67378201  0.83475300  1
  O2-  O318  1  0.83539960  0.17185990  0.16033276  1
  O2-  O319  1  0.83171536  0.17058363  0.49803922  1
  O2-  O320  1  0.83048779  0.17513221  0.83005363  1
  O2-  O321  1  0.83381929  0.66854959  0.16806284  1
  O2-  O322  1  0.83110527  0.67938091  0.49921357  1
  O2-  O323  1  0.83898745  0.68016059  0.83291419  1
  O2-  O324  1  -0.00047563  0.31790440  0.16530679  1
  O2-  O325  1  0.00533702  0.32936525  0.50424788  1
  O2-  O326  1  0.00206571  0.33537255  0.83540554  1
  O2-  O327  1  0.00095776  0.83172815  0.16707504  1
  O2-  O328  1  -0.00557741  0.81820665  0.49517090  1
  O2-  O329  1  0.00050767  0.82420609  0.83779778  1
  O2-  O330  1  0.33613439  0.32085353  0.16917741  1
  O2-  O331  1  0.33563949  0.32499448  0.50233105  1
  O2-  O332  1  0.33464294  0.33638417  0.83561876  1
  O2-  O333  1  0.33371184  0.83192673  0.16638566  1
  O2-  O334  1  0.33864585  0.83538214  0.50382768  1
  O2-  O335  1  0.33152244  0.82573383  0.83166027  1
  O2-  O336  1  0.65995045  0.33144137  0.15949230  1
  O2-  O337  1  0.66947328  0.32809569  0.50514032  1
  O2-  O338  1  0.67404407  0.32492578  0.83738243  1
  O2-  O339  1  0.66300067  0.82964749  0.16193595  1
  O2-  O340  1  0.67244677  0.81999316  0.50352354  1
  O2-  O341  1  0.66646828  0.83106649  0.83243864  1
  O2-  O342  1  0.16594549  0.31607561  0.16420903  1
  O2-  O343  1  0.16674712  0.32299193  0.50219144  1
  O2-  O344  1  0.16518261  0.33399544  0.83546904  1
  O2-  O345  1  0.16728274  0.83161628  0.16575094  1
  O2-  O346  1  0.16919961  0.82036470  0.49349290  1
  O2-  O347  1  0.16444495  0.83266122  0.83676990  1
  O2-  O348  1  0.50353084  0.32647119  0.16161191  1
  O2-  O349  1  0.50035226  0.32651178  0.50043648  1
  O2-  O350  1  0.49181768  0.33285201  0.84032660  1
  O2-  O351  1  0.49902538  0.83138876  0.16588020  1
  O2-  O352  1  0.49626627  0.82592259  0.50681561  1
  O2-  O353  1  0.50039508  0.82424237  0.83174224  1
  O2-  O354  1  0.83484992  0.32454787  0.16816880  1
  O2-  O355  1  0.82728909  0.33082613  0.50600005  1
  O2-  O356  1  0.83222284  0.32857806  0.83230496  1
  O2-  O357  1  0.83697410  0.82912062  0.16169851  1
  O2-  O358  1  0.83146948  0.82179944  0.50184110  1
  O2-  O359  1  0.83576315  0.82608001  0.83425496  1
  O2-  O360  1  0.07727826  0.07762928  0.10586898  1
  O2-  O361  1  0.09184984  0.08252236  0.43824774  1
  O2-  O362  1  0.08363659  0.08395377  0.76808582  1
  O2-  O363  1  0.08014946  0.58227801  0.10182381  1
  O2-  O364  1  0.08191303  0.57142690  0.42843783  1
  O2-  O365  1  0.08554005  0.58322527  0.76928440  1
  O2-  O366  1  0.41659476  0.07695246  0.10501239  1
  O2-  O367  1  0.41223897  0.07902714  0.43837586  1
  O2-  O368  1  0.43027910  0.07962666  0.76956077  1
  O2-  O369  1  0.41716229  0.58383824  0.09171142  1
  O2-  O370  1  0.41751896  0.57873719  0.43907917  1
  O2-  O371  1  0.41594920  0.58446321  0.76528146  1
  O2-  O372  1  0.75750568  0.07940158  0.09315481  1
  O2-  O373  1  0.73593383  0.08476108  0.42896461  1
  O2-  O374  1  0.74630840  0.08376196  0.76987624  1
  O2-  O375  1  0.76182215  0.58079143  0.10455050  1
  O2-  O376  1  0.74621734  0.58030756  0.44196493  1
  O2-  O377  1  0.75044614  0.58245611  0.75420017  1
  O2-  O378  1  0.24100449  0.08348332  0.23895487  1
  O2-  O379  1  0.24819117  0.08232379  0.56246197  1
  O2-  O380  1  0.24799814  0.08163210  0.89847905  1
  O2-  O381  1  0.23539726  0.58177973  0.23786908  1
  O2-  O382  1  0.25342793  0.58235617  0.56696404  1
  O2-  O383  1  0.25372376  0.58319157  0.89875513  1
  O2-  O384  1  0.57598343  0.07897451  0.23825063  1
  O2-  O385  1  0.58004602  0.08130775  0.56578593  1
  O2-  O386  1  0.58819154  0.07779355  0.88731460  1
  O2-  O387  1  0.59688467  0.58179446  0.23680131  1
  O2-  O388  1  0.58332872  0.58479151  0.56287029  1
  O2-  O389  1  0.57514880  0.58155117  0.89587521  1
  O2-  O390  1  0.93439009  0.07539688  0.22994934  1
  O2-  O391  1  0.91759333  0.08128107  0.56751646  1
  O2-  O392  1  0.91487633  0.07856639  0.89612735  1
  O2-  O393  1  0.91567509  0.58128153  0.22972147  1
  O2-  O394  1  0.90478561  0.57927648  0.55915670  1
  O2-  O395  1  0.92223574  0.58709669  0.90070588  1
  O2-  O396  1  0.08517638  0.41468893  0.08162939  1
  O2-  O397  1  0.09596513  0.41826334  0.43525430  1
  O2-  O398  1  0.08573392  0.42020655  0.77226860  1
  O2-  O399  1  0.08262328  0.91878339  0.09729404  1
  O2-  O400  1  0.06954543  0.91943494  0.42629131  1
  O2-  O401  1  0.07929800  0.91765307  0.77662472  1
  O2-  O402  1  0.43208339  0.42092918  0.09840041  1
  O2-  O403  1  0.41903913  0.41566435  0.43386480  1
  O2-  O404  1  0.41205942  0.41550040  0.76299993  1
  O2-  O405  1  0.41514822  0.92069070  0.09995480  1
  O2-  O406  1  0.41245759  0.92061933  0.44074942  1
  O2-  O407  1  0.41827307  0.91796134  0.76209708  1
  O2-  O408  1  0.73444824  0.41635322  0.08694330  1
  O2-  O409  1  0.73768776  0.41979480  0.43887237  1
  O2-  O410  1  0.75697564  0.42220137  0.77650742  1
  O2-  O411  1  0.75185645  0.92067751  0.09096797  1
  O2-  O412  1  0.77251201  0.92246612  0.44647535  1
  O2-  O413  1  0.75166115  0.91458499  0.76123820  1
  O2-  O414  1  0.25892967  0.41579954  0.24806519  1
  O2-  O415  1  0.24986140  0.41479321  0.57260384  1
  O2-  O416  1  0.24582833  0.41840788  0.90100100  1
  O2-  O417  1  0.24871399  0.91875720  0.23578773  1
  O2-  O418  1  0.26116864  0.91566393  0.56864478  1
  O2-  O419  1  0.24471541  0.91912663  0.89871750  1
  O2-  O420  1  0.57372404  0.41773121  0.23179590  1
  O2-  O421  1  0.58743937  0.41627085  0.57035106  1
  O2-  O422  1  0.58602021  0.41684345  0.90505803  1
  O2-  O423  1  0.57551373  0.92346603  0.22956591  1
  O2-  O424  1  0.58746672  0.91706509  0.57247690  1
  O2-  O425  1  0.58196711  0.91824413  0.89901039  1
  O2-  O426  1  0.91830470  0.41899534  0.24313722  1
  O2-  O427  1  0.90451012  0.41809883  0.57639365  1
  O2-  O428  1  0.91541005  0.41952602  0.90170712  1
  O2-  O429  1  0.92402929  0.91895199  0.24131003  1
  O2-  O430  1  0.90446318  0.91556018  0.56110173  1
  O2-  O431  1  0.93074644  0.92123113  0.89699847  1
  O2-  O432  1  0.00352331  -0.00183292  -0.00370411  1
  O2-  O433  1  0.00121340  0.00194570  0.33117303  1
  O2-  O434  1  -0.00346675  0.00752177  0.67645165  1
  O2-  O435  1  0.00064011  0.50455397  0.00109620  1
  O2-  O436  1  0.00296682  0.51413044  0.33570974  1
  O2-  O437  1  0.00000772  0.50032581  0.66260660  1
  O2-  O438  1  0.33701324  -0.00280606  -0.00253637  1
  O2-  O439  1  0.33068974  0.00514310  0.33622055  1
  O2-  O440  1  0.33664709  0.00104160  0.66513544  1
  O2-  O441  1  0.34242735  0.49819287  -0.01177223  1
  O2-  O442  1  0.32274363  0.50019592  0.33817906  1
  O2-  O443  1  0.33291420  0.50408962  0.66597806  1
  O2-  O444  1  0.67158999  -0.00155225  -0.00382984  1
  O2-  O445  1  0.66182265  0.00937076  0.34512318  1
  O2-  O446  1  0.66371545  0.00031637  0.66933580  1
  O2-  O447  1  0.66449325  0.49486529  0.00617165  1
  O2-  O448  1  0.66746000  0.50997096  0.33829884  1
  O2-  O449  1  0.66834689  0.50321747  0.66308732  1
  O2-  O450  1  0.15901526  -0.00379955  -0.00949717  1
  O2-  O451  1  0.16665404  0.00310363  0.33546799  1
  O2-  O452  1  0.16786750  0.00675141  0.67565478  1
  O2-  O453  1  0.16037235  0.50121682  -0.00564749  1
  O2-  O454  1  0.16033624  0.50905977  0.34090492  1
  O2-  O455  1  0.16958169  0.50067889  0.67058540  1
  O2-  O456  1  0.49979078  -0.00415761  -0.00431781  1
  O2-  O457  1  0.49730132  0.00599991  0.32700440  1
  O2-  O458  1  0.50113769  0.00157104  0.66486506  1
  O2-  O459  1  0.49895726  0.49608028  -0.00363875  1
  O2-  O460  1  0.51116621  0.50029117  0.34405644  1
  O2-  O461  1  0.49839667  0.50708898  0.66299759  1
  O2-  O462  1  0.83487354  0.00053031  0.00416698  1
  O2-  O463  1  0.84736728  -0.00258949  0.35056767  1
  O2-  O464  1  0.83275514  0.00154317  0.66658909  1
  O2-  O465  1  0.83359230  0.50051882  0.00188278  1
  O2-  O466  1  0.83441395  0.51266717  0.33093233  1
  O2-  O467  1  0.82673779  0.49966556  0.65918262  1
  O2-  O468  1  0.58259490  0.24900937  0.92038788  1
  O2-  O469  1  0.41632174  0.74997415  0.07823581  1
  O2-  O470  1  0.58065815  0.75005018  0.25079014  1
  O2-  O471  1  0.25389570  0.75029695  0.25254841  1
  O2-  O472  1  0.74820727  0.24992165  0.07369812  1
  O2-  O473  1  0.91575304  0.24763539  0.91695965  1
  O2-  O474  1  0.41665039  0.25080021  0.75344246  1
  O2-  O475  1  0.08252514  0.24981205  0.41430356  1
  O2-  O476  1  0.58260477  0.24946047  0.25404188  1
  O2-  O477  1  0.24716192  0.75030607  0.92173420  1
  O2-  O478  1  0.74795332  0.75124303  0.08240115  1
  O2-  O479  1  0.58430833  0.75201602  0.92269777  1
  O2-  O480  1  0.41222623  0.75313542  0.41635308  1
  O2-  O481  1  0.25131324  0.25001163  0.91349519  1
  O2-  O482  1  0.41710691  0.24969280  0.41110387  1
  O2-  O483  1  0.25137371  0.24927085  0.25942665  1
  O2-  O484  1  0.08474380  0.75054194  0.08031759  1
  O2-  O485  1  0.25646264  0.75229016  0.58719731  1
  O2-  O486  1  0.91855616  0.25274155  0.58887364  1
  O2-  O487  1  0.91594390  0.25496946  0.25299261  1
  O2-  O488  1  0.09194132  0.75086591  0.74696746  1
  O2-  O489  1  0.75035814  0.75009149  0.74872481  1
  O2-  O490  1  0.07815190  0.24866484  0.75033868  1
  O2-  O491  1  0.74992649  0.25160523  0.41704789  1
  O2-  O492  1  0.91626519  0.74947607  0.25070219  1
