# generated using pymatgen
data_Ca108Mn108O277
_symmetry_space_group_name_H-M   'P 1'
_cell_length_a   16.02353527
_cell_length_b   22.30185744
_cell_length_c   16.38557975
_cell_angle_alpha   90.00086578
_cell_angle_beta   90.00119585
_cell_angle_gamma   89.99767576
_symmetry_Int_Tables_number   1
_chemical_formula_structural   Ca108Mn108O277
_chemical_formula_sum   'Ca108 Mn108 O277'
_cell_volume   5855.46227801
_cell_formula_units_Z   1
loop_
 _symmetry_equiv_pos_site_id
 _symmetry_equiv_pos_as_xyz
  1  'x, y, z'
loop_
 _atom_type_symbol
 _atom_type_oxidation_number
  Ca2+  2.0
  Mn3.34+  3.34
  O2-  -2.0
loop_
 _atom_site_type_symbol
 _atom_site_label
 _atom_site_symmetry_multiplicity
 _atom_site_fract_x
 _atom_site_fract_y
 _atom_site_fract_z
 _atom_site_occupancy
  Ca2+  Ca0  1  0.07633853  0.25244740  0.25742420  1
  Ca2+  Ca1  1  0.07918016  0.25587133  0.57084558  1
  Ca2+  Ca2  1  0.06768565  0.24433875  0.92769167  1
  Ca2+  Ca3  1  0.08443107  0.74592353  0.25649182  1
  Ca2+  Ca4  1  0.06874916  0.75021458  0.56972430  1
  Ca2+  Ca5  1  0.05767406  0.75072949  0.92595743  1
  Ca2+  Ca6  1  0.42618661  0.24848407  0.26003074  1
  Ca2+  Ca7  1  0.42857418  0.25536861  0.57365747  1
  Ca2+  Ca8  1  0.41781219  0.26216604  0.91272619  1
  Ca2+  Ca9  1  0.43643721  0.74643092  0.25575734  1
  Ca2+  Ca10  1  0.41504024  0.74061320  0.59479737  1
  Ca2+  Ca11  1  0.43260973  0.75258375  0.90047945  1
  Ca2+  Ca12  1  0.74623500  0.25115122  0.24753131  1
  Ca2+  Ca13  1  0.74808155  0.25849886  0.57949535  1
  Ca2+  Ca14  1  0.75743974  0.25345988  0.92807960  1
  Ca2+  Ca15  1  0.73542049  0.74674724  0.25424920  1
  Ca2+  Ca16  1  0.77045874  0.72859516  0.59031819  1
  Ca2+  Ca17  1  0.75786320  0.74303719  0.90176841  1
  Ca2+  Ca18  1  0.23350431  0.24646787  0.07233122  1
  Ca2+  Ca19  1  0.22984684  0.25027698  0.40736695  1
  Ca2+  Ca20  1  0.24152003  0.25088911  0.77499378  1
  Ca2+  Ca21  1  0.25106449  0.76094022  0.10016043  1
  Ca2+  Ca22  1  0.24213518  0.74073428  0.41534608  1
  Ca2+  Ca23  1  0.27184497  0.75347520  0.74146406  1
  Ca2+  Ca24  1  0.59897371  0.25890206  0.08086723  1
  Ca2+  Ca25  1  0.58972155  0.24620846  0.40349902  1
  Ca2+  Ca26  1  0.58741572  0.26159917  0.76736055  1
  Ca2+  Ca27  1  0.59110893  0.75180759  0.09706608  1
  Ca2+  Ca28  1  0.59321047  0.75268183  0.39920475  1
  Ca2+  Ca29  1  0.58789336  0.74398631  0.76066236  1
  Ca2+  Ca30  1  0.91565208  0.24390061  0.06584790  1
  Ca2+  Ca31  1  0.93029858  0.24552073  0.41674429  1
  Ca2+  Ca32  1  0.91803397  0.26218828  0.77214849  1
  Ca2+  Ca33  1  0.90130044  0.74343287  0.07596762  1
  Ca2+  Ca34  1  0.91524212  0.75110471  0.42144044  1
  Ca2+  Ca35  1  0.89039321  0.74900222  0.75028224  1
  Ca2+  Ca36  1  0.08020279  0.10608319  0.93568495  1
  Ca2+  Ca37  1  0.87514989  0.60191493  0.74329364  1
  Ca2+  Ca38  1  0.39170583  0.06506298  0.58537020  1
  Ca2+  Ca39  1  0.72594100  0.08488331  0.27969577  1
  Ca2+  Ca40  1  0.74401772  0.60827059  0.25858160  1
  Ca2+  Ca41  1  0.86823081  0.59934128  0.74986151  1
  Ca2+  Ca42  1  0.09968005  0.60602161  0.56856401  1
  Ca2+  Ca43  1  0.76854273  0.11012707  0.52837883  1
  Ca2+  Ca44  1  0.89956732  0.57995634  0.09199473  1
  Ca2+  Ca45  1  0.25567168  0.08385267  0.40340783  1
  Ca2+  Ca46  1  0.07870374  0.58306975  0.26454288  1
  Ca2+  Ca47  1  0.26326512  0.07362039  0.75920667  1
  Ca2+  Ca48  1  0.93076956  0.10678973  0.76608465  1
  Ca2+  Ca49  1  0.29619954  0.60433862  0.71711297  1
  Ca2+  Ca50  1  0.58826929  0.08653981  0.39892889  1
  Ca2+  Ca51  1  0.09652731  0.10731860  0.23870311  1
  Ca2+  Ca52  1  0.89140160  0.58346906  0.08760185  1
  Ca2+  Ca53  1  0.90334452  0.60842188  0.41721135  1
  Ca2+  Ca54  1  0.91791187  0.10696593  0.76604969  1
  Ca2+  Ca55  1  0.43127130  0.59113590  0.90563827  1
  Ca2+  Ca56  1  0.23904463  0.08247602  0.06563698  1
  Ca2+  Ca57  1  0.93920935  0.10823773  0.06677017  1
  Ca2+  Ca58  1  0.74546876  0.09406859  0.93702590  1
  Ca2+  Ca59  1  0.44300254  0.06284302  0.26854303  1
  Ca2+  Ca60  1  0.08637145  0.10205345  0.56262498  1
  Ca2+  Ca61  1  0.39960774  0.06902947  0.93233791  1
  Ca2+  Ca62  1  0.75790690  0.59882466  0.91457218  1
  Ca2+  Ca63  1  0.06027488  0.58331027  0.91727759  1
  Ca2+  Ca64  1  0.59076797  0.61521271  0.38963296  1
  Ca2+  Ca65  1  0.58477167  0.08365346  0.08867124  1
  Ca2+  Ca66  1  0.07365626  0.10213010  0.56187265  1
  Ca2+  Ca67  1  0.74919347  0.59489532  0.91758563  1
  Ca2+  Ca68  1  0.59917222  0.59848121  0.75803775  1
  Ca2+  Ca69  1  0.59557046  0.59776758  0.09686278  1
  Ca2+  Ca70  1  0.24298458  0.08492793  0.40299985  1
  Ca2+  Ca71  1  0.08770799  0.60677704  0.56963155  1
  Ca2+  Ca72  1  0.09253300  0.89337463  0.58352069  1
  Ca2+  Ca73  1  0.58375907  0.39947598  0.41179802  1
  Ca2+  Ca74  1  0.27076147  0.92055033  0.75230815  1
  Ca2+  Ca75  1  0.40986626  0.91899357  0.92688287  1
  Ca2+  Ca76  1  0.57732545  0.92244159  0.38451797  1
  Ca2+  Ca77  1  0.39437058  0.92199296  0.59930151  1
  Ca2+  Ca78  1  0.41809521  0.41078590  0.58538720  1
  Ca2+  Ca79  1  0.40021958  0.91572554  0.59941222  1
  Ca2+  Ca80  1  0.57181899  0.90344951  0.75557785  1
  Ca2+  Ca81  1  0.08532624  0.40139110  0.92199793  1
  Ca2+  Ca82  1  0.74169016  0.89669748  0.91566886  1
  Ca2+  Ca83  1  0.08966594  0.90760061  0.25062704  1
  Ca2+  Ca84  1  0.55887677  0.91488483  0.09526707  1
  Ca2+  Ca85  1  0.92152133  0.40854601  0.08866283  1
  Ca2+  Ca86  1  0.25535130  0.91398108  0.41703005  1
  Ca2+  Ca87  1  0.41172906  0.40361846  0.24735679  1
  Ca2+  Ca88  1  0.91779078  0.90273296  0.08662285  1
  Ca2+  Ca89  1  0.24316766  0.40822059  0.75825473  1
  Ca2+  Ca90  1  0.10078994  0.90094032  0.91566552  1
  Ca2+  Ca91  1  0.75114568  0.88920603  0.57297105  1
  Ca2+  Ca92  1  0.07637642  0.40552776  0.58264297  1
  Ca2+  Ca93  1  0.09800919  0.90402154  0.24662198  1
  Ca2+  Ca94  1  0.24167151  0.41248054  0.40202638  1
  Ca2+  Ca95  1  0.76762618  0.40979150  0.24483254  1
  Ca2+  Ca96  1  0.27301586  0.92337571  0.06532506  1
  Ca2+  Ca97  1  0.39918137  0.40404264  0.24592844  1
  Ca2+  Ca98  1  0.25581867  0.40952962  0.75917935  1
  Ca2+  Ca99  1  0.91182551  0.40698445  0.08557759  1
  Ca2+  Ca100  1  0.75931062  0.41140994  0.61469479  1
  Ca2+  Ca101  1  0.40532849  0.41001244  0.58506966  1
  Ca2+  Ca102  1  0.90492190  0.90215702  0.08695926  1
  Ca2+  Ca103  1  0.60034563  0.41221029  0.75893408  1
  Ca2+  Ca104  1  0.26756121  0.91663875  0.41867188  1
  Ca2+  Ca105  1  0.08781694  0.40527960  0.58308114  1
  Ca2+  Ca106  1  0.74793899  0.41383409  0.91742470  1
  Ca2+  Ca107  1  0.72863492  0.91299344  0.26080002  1
  Mn3.34+  Mn108  1  0.08585331  0.33432068  0.09158699  1
  Mn3.34+  Mn109  1  0.07888021  0.33417063  0.40963713  1
  Mn3.34+  Mn110  1  0.08038487  0.33384911  0.75449316  1
  Mn3.34+  Mn111  1  0.08625313  0.83418666  0.08239861  1
  Mn3.34+  Mn112  1  0.08128436  0.83383203  0.41934985  1
  Mn3.34+  Mn113  1  0.08467077  0.82561215  0.75121216  1
  Mn3.34+  Mn114  1  0.41535523  0.33589760  0.08231217  1
  Mn3.34+  Mn115  1  0.41369248  0.33133524  0.41758336  1
  Mn3.34+  Mn116  1  0.42081806  0.33262451  0.75414022  1
  Mn3.34+  Mn117  1  0.41686689  0.83622135  0.08298723  1
  Mn3.34+  Mn118  1  0.42133869  0.83603001  0.42253675  1
  Mn3.34+  Mn119  1  0.41966723  0.83448636  0.75370152  1
  Mn3.34+  Mn120  1  0.74982982  0.33804379  0.08644752  1
  Mn3.34+  Mn121  1  0.75570162  0.33261012  0.41682234  1
  Mn3.34+  Mn122  1  0.75260373  0.33837591  0.75607319  1
  Mn3.34+  Mn123  1  0.74511085  0.83223569  0.08547700  1
  Mn3.34+  Mn124  1  0.74951460  0.83874496  0.41896132  1
  Mn3.34+  Mn125  1  0.74476798  0.82987684  0.74736474  1
  Mn3.34+  Mn126  1  0.24101029  0.33472576  0.23980193  1
  Mn3.34+  Mn127  1  0.25078625  0.32953362  0.58063795  1
  Mn3.34+  Mn128  1  0.25215529  0.33245551  0.92566553  1
  Mn3.34+  Mn129  1  0.26075617  0.83245458  0.25008991  1
  Mn3.34+  Mn130  1  0.24937676  0.82635861  0.58088981  1
  Mn3.34+  Mn131  1  0.25182448  0.83440497  0.91147649  1
  Mn3.34+  Mn132  1  0.58474217  0.33187962  0.24501796  1
  Mn3.34+  Mn133  1  0.58838058  0.33619261  0.58152796  1
  Mn3.34+  Mn134  1  0.58263239  0.33663463  0.92519081  1
  Mn3.34+  Mn135  1  0.57927011  0.83548805  0.24804938  1
  Mn3.34+  Mn136  1  0.58362445  0.83098253  0.57770684  1
  Mn3.34+  Mn137  1  0.58262463  0.83429517  0.92102309  1
  Mn3.34+  Mn138  1  0.91890378  0.33779579  0.25129975  1
  Mn3.34+  Mn139  1  0.91305200  0.32986692  0.58009299  1
  Mn3.34+  Mn140  1  0.91660697  0.33199044  0.91813551  1
  Mn3.34+  Mn141  1  0.91263406  0.82838264  0.25445303  1
  Mn3.34+  Mn142  1  0.91456536  0.82656044  0.58408777  1
  Mn3.34+  Mn143  1  0.91447952  0.82901028  0.91005242  1
  Mn3.34+  Mn144  1  0.25259637  0.16918336  0.24328848  1
  Mn3.34+  Mn145  1  0.58472504  0.16647737  0.24824214  1
  Mn3.34+  Mn146  1  0.42035070  0.16751194  0.08801936  1
  Mn3.34+  Mn147  1  0.42053810  0.16173078  0.75393781  1
  Mn3.34+  Mn148  1  0.74712930  0.16600492  0.08789678  1
  Mn3.34+  Mn149  1  0.25341993  0.66301079  0.25689422  1
  Mn3.34+  Mn150  1  0.57874516  0.16919668  0.58030269  1
  Mn3.34+  Mn151  1  0.40992393  0.65855953  0.09203260  1
  Mn3.34+  Mn152  1  0.24731476  0.66171609  0.91323343  1
  Mn3.34+  Mn153  1  0.09356806  0.65883537  0.08864522  1
  Mn3.34+  Mn154  1  0.73733387  0.16355220  0.75146452  1
  Mn3.34+  Mn155  1  0.90959390  0.16892898  0.25272044  1
  Mn3.34+  Mn156  1  0.57832551  0.66471168  0.57998349  1
  Mn3.34+  Mn157  1  0.74721007  0.66704907  0.08804460  1
  Mn3.34+  Mn158  1  0.07842060  0.67585165  0.75227219  1
  Mn3.34+  Mn159  1  0.25647167  0.66741083  0.91529116  1
  Mn3.34+  Mn160  1  0.58917429  0.16416168  0.57824401  1
  Mn3.34+  Mn161  1  0.41007234  0.66308707  0.42110950  1
  Mn3.34+  Mn162  1  0.91791402  0.16256826  0.25191887  1
  Mn3.34+  Mn163  1  0.74962278  0.17083677  0.74980502  1
  Mn3.34+  Mn164  1  0.25020523  0.17435654  0.58530187  1
  Mn3.34+  Mn165  1  0.91452437  0.66600555  0.25192949  1
  Mn3.34+  Mn166  1  0.58246948  0.66770435  0.91792371  1
  Mn3.34+  Mn167  1  0.41043088  0.16243508  0.08990204  1
  Mn3.34+  Mn168  1  0.08736495  0.17068695  0.75111646  1
  Mn3.34+  Mn169  1  0.24779562  0.16363020  0.91565779  1
  Mn3.34+  Mn170  1  0.58833561  0.66936751  0.57928810  1
  Mn3.34+  Mn171  1  0.58419286  0.16562918  0.92221500  1
  Mn3.34+  Mn172  1  0.08375262  0.66767389  0.41237074  1
  Mn3.34+  Mn173  1  0.42025830  0.66558279  0.08928033  1
  Mn3.34+  Mn174  1  0.08087527  0.66385386  0.08816669  1
  Mn3.34+  Mn175  1  0.25951410  0.16889250  0.58250081  1
  Mn3.34+  Mn176  1  0.91518101  0.17489984  0.58263186  1
  Mn3.34+  Mn177  1  0.09178639  0.66946703  0.75359268  1
  Mn3.34+  Mn178  1  0.43070696  0.15659672  0.75735536  1
  Mn3.34+  Mn179  1  0.41533750  0.16630125  0.41344128  1
  Mn3.34+  Mn180  1  0.41357019  0.49974545  0.06800512  1
  Mn3.34+  Mn181  1  0.92435039  -0.00614117  0.91297826  1
  Mn3.34+  Mn182  1  0.58981563  -0.00062118  0.56972459  1
  Mn3.34+  Mn183  1  0.91653241  0.49912133  0.57781340  1
  Mn3.34+  Mn184  1  0.41167980  0.50526235  0.41187170  1
  Mn3.34+  Mn185  1  0.07225374  -0.00352066  0.41328279  1
  Mn3.34+  Mn186  1  0.74493479  0.00158053  0.75416808  1
  Mn3.34+  Mn187  1  0.58899353  0.49598162  0.24490217  1
  Mn3.34+  Mn188  1  0.90525199  -0.00515941  0.56915921  1
  Mn3.34+  Mn189  1  0.91295897  0.00419391  0.27022788  1
  Mn3.34+  Mn190  1  0.57674753  0.50260448  0.24592424  1
  Mn3.34+  Mn191  1  0.58315475  0.00226216  0.92302496  1
  Mn3.34+  Mn192  1  0.08800514  0.00278526  0.07986768  1
  Mn3.34+  Mn193  1  0.91743311  -0.00055257  0.56917598  1
  Mn3.34+  Mn194  1  0.90285117  0.50591007  0.57569545  1
  Mn3.34+  Mn195  1  0.75676798  0.50383398  0.41459843  1
  Mn3.34+  Mn196  1  0.58698672  0.50012508  0.93273472  1
  Mn3.34+  Mn197  1  0.74814705  0.00133404  0.08875487  1
  Mn3.34+  Mn198  1  0.24728162  0.50273641  0.93135812  1
  Mn3.34+  Mn199  1  0.90510836  -0.00178616  0.27450062  1
  Mn3.34+  Mn200  1  0.90958719  -0.00033610  0.91297783  1
  Mn3.34+  Mn201  1  0.25010365  0.50340030  0.25144777  1
  Mn3.34+  Mn202  1  0.10124012  0.49811333  0.07718086  1
  Mn3.34+  Mn203  1  0.91708249  0.49827345  0.92189200  1
  Mn3.34+  Mn204  1  0.75188952  0.49991727  0.42879273  1
  Mn3.34+  Mn205  1  0.07493754  0.49826833  0.39893274  1
  Mn3.34+  Mn206  1  0.07557690  -0.00643326  0.75149291  1
  Mn3.34+  Mn207  1  0.26363719  -0.00038460  0.24632160  1
  Mn3.34+  Mn208  1  0.25140820  0.50361338  0.58020176  1
  Mn3.34+  Mn209  1  0.42073285  0.49806052  0.74894425  1
  Mn3.34+  Mn210  1  0.08877875  0.00089737  0.75249735  1
  Mn3.34+  Mn211  1  0.60064378  -0.00478553  0.56989876  1
  Mn3.34+  Mn212  1  0.58936720  0.50926243  0.58679470  1
  Mn3.34+  Mn213  1  0.75783174  -0.00543973  0.75243007  1
  Mn3.34+  Mn214  1  0.60094497  0.50411167  0.58763686  1
  Mn3.34+  Mn215  1  0.08194422  0.50201960  0.74635713  1
  O2-  O216  1  0.00779718  0.17509597  0.00233848  1
  O2-  O217  1  0.00164873  0.15747157  0.32779591  1
  O2-  O218  1  -0.00032812  0.15277150  0.66624441  1
  O2-  O219  1  0.00081686  0.64575710  0.00936378  1
  O2-  O220  1  -0.00016582  0.65270855  0.33052051  1
  O2-  O221  1  0.00816905  0.65147979  0.66760981  1
  O2-  O222  1  0.33308321  0.16031620  0.00357430  1
  O2-  O223  1  0.33270753  0.16655173  0.33267277  1
  O2-  O224  1  0.33583539  0.15091937  0.66748306  1
  O2-  O225  1  0.33274440  0.65603262  0.00389361  1
  O2-  O226  1  0.33546228  0.67341382  0.33612503  1
  O2-  O227  1  0.32472746  0.68714140  0.66060024  1
  O2-  O228  1  0.65861214  0.15341358  0.01089243  1
  O2-  O229  1  0.65980909  0.16753147  0.33024158  1
  O2-  O230  1  0.67326784  0.15050177  0.65851341  1
  O2-  O231  1  0.66754932  0.65130519  0.00287826  1
  O2-  O232  1  0.67282920  0.67997648  0.33380697  1
  O2-  O233  1  0.66545565  0.65430416  0.65913904  1
  O2-  O234  1  0.17295211  0.16381390  -0.00157589  1
  O2-  O235  1  0.18075719  0.15947021  0.33292178  1
  O2-  O236  1  0.16725275  0.14866492  0.66560747  1
  O2-  O237  1  0.16148246  0.66393256  -0.00831101  1
  O2-  O238  1  0.16142387  0.66099550  0.32654680  1
  O2-  O239  1  0.16227768  0.68147665  0.66616832  1
  O2-  O240  1  0.49319153  0.15345818  0.00043031  1
  O2-  O241  1  0.49463584  0.15161366  0.32959542  1
  O2-  O242  1  0.49822285  0.14353153  0.65750654  1
  O2-  O243  1  0.49844035  0.65050307  0.00383998  1
  O2-  O244  1  0.49083903  0.68424340  0.35250571  1
  O2-  O245  1  0.50764345  0.64936563  0.66160269  1
  O2-  O246  1  0.82545767  0.15512931  0.00823144  1
  O2-  O247  1  0.82789439  0.16288864  0.32956723  1
  O2-  O248  1  0.83507474  0.15210864  0.66614978  1
  O2-  O249  1  0.83399451  0.64957876  0.00903486  1
  O2-  O250  1  0.83503092  0.67077200  0.32703527  1
  O2-  O251  1  0.84147427  0.67238183  0.67370069  1
  O2-  O252  1  -0.00289738  0.33192166  0.00541861  1
  O2-  O253  1  -0.00218383  0.33845594  0.33335903  1
  O2-  O254  1  0.00427055  0.33729349  0.66094979  1
  O2-  O255  1  0.00066461  0.85037399  -0.00100566  1
  O2-  O256  1  0.00681968  0.85108634  0.32845895  1
  O2-  O257  1  0.00694468  0.82947251  0.66237960  1
  O2-  O258  1  0.33429857  0.31616408  0.00522509  1
  O2-  O259  1  0.32950461  0.33658377  0.33153178  1
  O2-  O260  1  0.33236565  0.33848416  0.66569514  1
  O2-  O261  1  0.33018499  0.83570076  -0.00226318  1
  O2-  O262  1  0.32795648  0.84076618  0.34674063  1
  O2-  O263  1  0.32976063  0.84248228  0.67019737  1
  O2-  O264  1  0.67387360  0.34217931  -0.00196049  1
  O2-  O265  1  0.66455776  0.33602889  0.33569220  1
  O2-  O266  1  0.66683879  0.34731103  0.66708594  1
  O2-  O267  1  0.65910697  0.85196661  0.00941421  1
  O2-  O268  1  0.66603940  0.83646183  0.33569742  1
  O2-  O269  1  0.65985759  0.85050932  0.66694801  1
  O2-  O270  1  0.15739284  0.32647911  -0.00063291  1
  O2-  O271  1  0.17043389  0.33492135  0.33489552  1
  O2-  O272  1  0.17013857  0.34830187  0.66565314  1
  O2-  O273  1  0.17054529  0.83523560  -0.00049326  1
  O2-  O274  1  0.17098252  0.85071503  0.33701096  1
  O2-  O275  1  0.16736860  0.81704845  0.66369449  1
  O2-  O276  1  0.49814925  0.31801308  0.00594872  1
  O2-  O277  1  0.49435304  0.34932187  0.33078000  1
  O2-  O278  1  0.49717222  0.35226316  0.66541087  1
  O2-  O279  1  0.49447206  0.84703877  -0.00637988  1
  O2-  O280  1  0.50087205  0.83217963  0.33821769  1
  O2-  O281  1  0.49281289  0.85598002  0.65908120  1
  O2-  O282  1  0.83582011  0.34623477  0.00289246  1
  O2-  O283  1  0.82507775  0.33361406  0.32392108  1
  O2-  O284  1  0.83242534  0.32695145  0.66359780  1
  O2-  O285  1  0.83274893  0.84854967  0.00069429  1
  O2-  O286  1  0.82564379  0.82372980  0.33165312  1
  O2-  O287  1  0.82836747  0.83448036  0.66499085  1
  O2-  O288  1  -0.00421365  0.17609043  0.17039251  1
  O2-  O289  1  0.00529163  0.18295019  0.51553055  1
  O2-  O290  1  0.00054725  0.18132618  0.82185564  1
  O2-  O291  1  -0.00178986  0.67245946  0.16796707  1
  O2-  O292  1  0.00555224  0.67148499  0.49225432  1
  O2-  O293  1  0.00176754  0.68308059  0.83236329  1
  O2-  O294  1  0.33400241  0.19642357  0.16356456  1
  O2-  O295  1  0.33374221  0.19312660  0.49928656  1
  O2-  O296  1  0.33364134  0.17870724  0.83126401  1
  O2-  O297  1  0.33219241  0.68175857  0.16959273  1
  O2-  O298  1  0.34144684  0.69476256  0.48945148  1
  O2-  O299  1  0.33585863  0.68196531  0.83661595  1
  O2-  O300  1  0.66477275  0.18397912  0.16779960  1
  O2-  O301  1  0.66870411  0.18556583  0.49964368  1
  O2-  O302  1  0.67492783  0.17417984  0.84747224  1
  O2-  O303  1  0.66944404  0.67842338  0.16243480  1
  O2-  O304  1  0.66004043  0.68464066  0.49840446  1
  O2-  O305  1  0.66594099  0.67047706  0.84417242  1
  O2-  O306  1  0.16807987  0.18549902  0.17700872  1
  O2-  O307  1  0.16572206  0.18790793  0.50858940  1
  O2-  O308  1  0.16650390  0.16960785  0.83170915  1
  O2-  O309  1  0.16860782  0.68367005  0.16540850  1
  O2-  O310  1  0.15768962  0.67953898  0.49824787  1
  O2-  O311  1  0.16616209  0.69329105  0.83520078  1
  O2-  O312  1  0.50120079  0.18743539  0.16324818  1
  O2-  O313  1  0.49766190  0.17620722  0.49643668  1
  O2-  O314  1  0.50562140  0.18233675  0.83899026  1
  O2-  O315  1  0.50271886  0.67547106  0.16310206  1
  O2-  O316  1  0.49784326  0.68380694  0.50336667  1
  O2-  O317  1  0.50545081  0.67474870  0.84077769  1
  O2-  O318  1  0.83396735  0.17853159  0.16703775  1
  O2-  O319  1  0.83705358  0.19537042  0.50854478  1
  O2-  O320  1  0.83713246  0.17822606  0.82440714  1
  O2-  O321  1  0.83566777  0.67861790  0.16406082  1
  O2-  O322  1  0.83798816  0.68437013  0.48590193  1
  O2-  O323  1  0.82900118  0.66601370  0.84079605  1
  O2-  O324  1  -0.00504441  0.31915927  0.16117402  1
  O2-  O325  1  0.00498921  0.32824362  0.50612958  1
  O2-  O326  1  0.00618766  0.32359027  0.84178466  1
  O2-  O327  1  -0.00015115  0.83630412  0.16702747  1
  O2-  O328  1  0.00320638  0.82688773  0.50127507  1
  O2-  O329  1  0.00289133  0.81732604  0.83510608  1
  O2-  O330  1  0.33657231  0.31813969  0.17417648  1
  O2-  O331  1  0.33401312  0.31477326  0.50306923  1
  O2-  O332  1  0.33074173  0.32333697  0.82690902  1
  O2-  O333  1  0.33446563  0.82434425  0.16414198  1
  O2-  O334  1  0.33370095  0.81374270  0.50430228  1
  O2-  O335  1  0.33576535  0.81721851  0.83535396  1
  O2-  O336  1  0.67273216  0.32429176  0.17146279  1
  O2-  O337  1  0.66647308  0.31515385  0.49443452  1
  O2-  O338  1  0.66736025  0.32743925  0.83498342  1
  O2-  O339  1  0.67200341  0.82584389  0.17106691  1
  O2-  O340  1  0.67017959  0.81198488  0.50009336  1
  O2-  O341  1  0.66495360  0.82282906  0.83878429  1
  O2-  O342  1  0.16256323  0.30415705  0.16692952  1
  O2-  O343  1  0.16323433  0.32706079  0.50558471  1
  O2-  O344  1  0.17190444  0.32917980  0.82890410  1
  O2-  O345  1  0.16077945  0.82785485  0.17444574  1
  O2-  O346  1  0.16652388  0.81327723  0.49835976  1
  O2-  O347  1  0.16617767  0.80900142  0.83842192  1
  O2-  O348  1  0.49288464  0.32133304  0.17252694  1
  O2-  O349  1  0.49664225  0.33053139  0.50494614  1
  O2-  O350  1  0.50292228  0.32728270  0.83247394  1
  O2-  O351  1  0.50491141  0.82557210  0.15856745  1
  O2-  O352  1  0.49744591  0.81683560  0.50375081  1
  O2-  O353  1  0.50676606  0.82555930  0.83019394  1
  O2-  O354  1  0.83728152  0.32172271  0.16209428  1
  O2-  O355  1  0.83648220  0.31179909  0.49649699  1
  O2-  O356  1  0.83012528  0.32546398  0.83963143  1
  O2-  O357  1  0.84142061  0.82136251  0.15667555  1
  O2-  O358  1  0.82880182  0.81772198  0.49892702  1
  O2-  O359  1  0.82571837  0.82132765  0.83715964  1
  O2-  O360  1  0.09060199  0.07948555  0.10417805  1
  O2-  O361  1  0.10615792  0.07767420  0.43918830  1
  O2-  O362  1  0.06288815  0.07947804  0.78505519  1
  O2-  O363  1  0.09034981  0.57790431  0.12453112  1
  O2-  O364  1  0.08927103  0.57644707  0.44075828  1
  O2-  O365  1  0.08999941  0.58417256  0.78116411  1
  O2-  O366  1  0.42140959  0.08113490  0.12247162  1
  O2-  O367  1  0.39016271  0.08765240  0.44385919  1
  O2-  O368  1  0.40744616  0.07635487  0.78295550  1
  O2-  O369  1  0.42201627  0.57804127  0.11846962  1
  O2-  O370  1  0.43415270  0.58437958  0.43529678  1
  O2-  O371  1  0.42147274  0.57501363  0.77399380  1
  O2-  O372  1  0.73825061  0.08167490  0.11941130  1
  O2-  O373  1  0.71904317  0.06140263  0.43233131  1
  O2-  O374  1  0.76970521  0.08007773  0.78881151  1
  O2-  O375  1  0.75168604  0.58322744  0.11592396  1
  O2-  O376  1  0.75063399  0.58414643  0.41941111  1
  O2-  O377  1  0.75696073  0.56356412  0.79428405  1
  O2-  O378  1  0.25257443  0.08003338  0.21652091  1
  O2-  O379  1  0.24028569  0.08387372  0.54011450  1
  O2-  O380  1  0.25136771  0.08212620  0.89886228  1
  O2-  O381  1  0.23441849  0.58237810  0.22958250  1
  O2-  O382  1  0.22837734  0.58213221  0.59103155  1
  O2-  O383  1  0.24637633  0.57861947  0.87406870  1
  O2-  O384  1  0.58317632  0.08567521  0.22532252  1
  O2-  O385  1  0.58720757  0.08153421  0.54236584  1
  O2-  O386  1  0.58734876  0.08112300  0.89676047  1
  O2-  O387  1  0.59657516  0.58287860  0.24014313  1
  O2-  O388  1  0.58415696  0.58459643  0.53427648  1
  O2-  O389  1  0.58199608  0.57826156  0.89177479  1
  O2-  O390  1  0.91936755  0.07825648  0.21201481  1
  O2-  O391  1  0.92479510  0.08145786  0.54435660  1
  O2-  O392  1  0.92245806  0.08149412  0.89515193  1
  O2-  O393  1  0.91188565  0.58392664  0.22412367  1
  O2-  O394  1  0.93271666  0.58112303  0.55165126  1
  O2-  O395  1  0.92827133  0.56981212  0.87120000  1
  O2-  O396  1  0.05944693  0.41895959  0.09412828  1
  O2-  O397  1  0.09308909  0.42442095  0.44998725  1
  O2-  O398  1  0.09801472  0.41911222  0.77918135  1
  O2-  O399  1  0.06971342  0.92485781  0.11424477  1
  O2-  O400  1  0.10556198  0.91645921  0.44858723  1
  O2-  O401  1  0.10599809  0.91443090  0.76994939  1
  O2-  O402  1  0.41648271  0.42406839  0.11544406  1
  O2-  O403  1  0.41107394  0.42268581  0.45099614  1
  O2-  O404  1  0.39843056  0.41674755  0.76708882  1
  O2-  O405  1  0.41417186  0.91645539  0.08960753  1
  O2-  O406  1  0.39805989  0.92258992  0.46156324  1
  O2-  O407  1  0.41222554  0.91774513  0.77760295  1
  O2-  O408  1  0.77228541  0.41911393  0.10511802  1
  O2-  O409  1  0.74510840  0.42025431  0.45002151  1
  O2-  O410  1  0.74792512  0.41654408  0.77016755  1
  O2-  O411  1  0.76714492  0.91969384  0.11629333  1
  O2-  O412  1  0.73878626  0.91539140  0.43774565  1
  O2-  O413  1  0.74121770  0.91564739  0.77778784  1
  O2-  O414  1  0.26390105  0.42200130  0.22068490  1
  O2-  O415  1  0.26991635  0.42253302  0.54691683  1
  O2-  O416  1  0.24682859  0.42064074  0.89367870  1
  O2-  O417  1  0.23829773  0.91983846  0.21935068  1
  O2-  O418  1  0.24819893  0.91508379  0.55303842  1
  O2-  O419  1  0.24581083  0.91431400  0.88992083  1
  O2-  O420  1  0.57742397  0.41627311  0.22412588  1
  O2-  O421  1  0.58504156  0.42426690  0.54323860  1
  O2-  O422  1  0.59029332  0.42245728  0.89739436  1
  O2-  O423  1  0.58974620  0.91835284  0.23455682  1
  O2-  O424  1  0.59602175  0.91392236  0.53878021  1
  O2-  O425  1  0.58840585  0.92256964  0.89050239  1
  O2-  O426  1  0.90897959  0.41754102  0.22144724  1
  O2-  O427  1  0.90933902  0.41940738  0.56350749  1
  O2-  O428  1  0.92814092  0.41751956  0.91804483  1
  O2-  O429  1  0.90935124  0.92089040  0.22261107  1
  O2-  O430  1  0.90785952  0.91281920  0.56697210  1
  O2-  O431  1  0.91372751  0.91419101  0.89228648  1
  O2-  O432  1  0.00210708  0.00539534  0.00012692  1
  O2-  O433  1  0.02617647  -0.00723860  0.29557294  1
  O2-  O434  1  0.00058802  0.00792883  0.65677422  1
  O2-  O435  1  -0.01468930  0.51544869  0.02421050  1
  O2-  O436  1  -0.00607133  0.51690949  0.33915838  1
  O2-  O437  1  0.00888311  0.49663547  0.64713042  1
  O2-  O438  1  0.33049569  0.00055196  -0.00071074  1
  O2-  O439  1  0.32733987  0.00354158  0.34269329  1
  O2-  O440  1  0.33140438  -0.00610525  0.65520569  1
  O2-  O441  1  0.35144667  0.51558751  -0.02555514  1
  O2-  O442  1  0.33709814  0.48215413  0.32756968  1
  O2-  O443  1  0.32336840  0.49186654  0.67693500  1
  O2-  O444  1  0.66765495  0.00345462  0.00155030  1
  O2-  O445  1  0.65136991  0.00384552  0.33888494  1
  O2-  O446  1  0.66240976  -0.00179520  0.67085445  1
  O2-  O447  1  0.69014604  0.50729434  -0.03498173  1
  O2-  O448  1  0.66447657  0.49463218  0.34010633  1
  O2-  O449  1  0.65363228  0.49532441  0.68689601  1
  O2-  O450  1  0.17200207  -0.00578312  0.01435844  1
  O2-  O451  1  0.17638571  -0.00477940  0.33797375  1
  O2-  O452  1  0.16787364  0.01403074  0.67329702  1
  O2-  O453  1  0.13444994  0.49957679  -0.04347306  1
  O2-  O454  1  0.16569494  0.49278128  0.33418777  1
  O2-  O455  1  0.16304335  0.47509153  0.65281077  1
  O2-  O456  1  0.49604034  0.00037184  -0.01153689  1
  O2-  O457  1  0.51519552  0.00834388  0.35676127  1
  O2-  O458  1  0.49140891  -0.00715418  0.63396212  1
  O2-  O459  1  0.51330258  0.51706549  0.01184580  1
  O2-  O460  1  0.50051025  0.48586277  0.33391981  1
  O2-  O461  1  0.48903587  0.48558727  0.64972201  1
  O2-  O462  1  0.83878420  -0.00216975  0.00764682  1
  O2-  O463  1  0.79565980  -0.00168396  0.29791346  1
  O2-  O464  1  0.83199874  0.01364870  0.66191097  1
  O2-  O465  1  0.83555076  0.51396177  -0.00503054  1
  O2-  O466  1  0.82501296  0.50224191  0.32987007  1
  O2-  O467  1  0.83632868  0.50740176  0.66689171  1
  O2-  O468  1  0.09477398  0.25145281  0.72334805  1
  O2-  O469  1  0.57519509  0.25007277  0.61687951  1
  O2-  O470  1  0.74943010  0.25014909  0.06577426  1
  O2-  O471  1  0.73849995  0.75248530  0.73821119  1
  O2-  O472  1  0.57607966  0.25193988  0.26833243  1
  O2-  O473  1  0.59261176  0.24887439  0.93167078  1
  O2-  O474  1  0.07424104  0.75180874  0.39289663  1
  O2-  O475  1  0.24655178  0.24845295  0.91886606  1
  O2-  O476  1  0.42931232  0.75578404  0.73513215  1
  O2-  O477  1  0.74916409  0.75073513  0.05563278  1
  O2-  O478  1  0.08141114  0.25513630  0.40301340  1
  O2-  O479  1  0.43676149  0.24991640  0.39773253  1
  O2-  O480  1  0.73545072  0.25234948  0.73024873  1
  O2-  O481  1  0.24111098  0.75214698  0.26492577  1
  O2-  O482  1  0.07384909  0.74732589  0.06660794  1
  O2-  O483  1  0.41653318  0.74697749  0.06339942  1
  O2-  O484  1  0.91393196  0.75350075  0.94038378  1
  O2-  O485  1  0.90944982  0.25355775  0.92578771  1
  O2-  O486  1  0.57582790  0.74955014  0.61652422  1
  O2-  O487  1  0.91913009  0.25135949  0.26996296  1
  O2-  O488  1  0.93766309  0.74963400  0.26189586  1
  O2-  O489  1  0.58234997  0.75418644  0.25385167  1
  O2-  O490  1  0.92038269  0.74854602  0.58807639  1
  O2-  O491  1  0.58163664  0.75057610  0.94355906  1
  O2-  O492  1  0.42986315  0.24435686  0.72724479  1
