# generated using pymatgen
data_Ca108Mn108O277
_symmetry_space_group_name_H-M   'P 1'
_cell_length_a   16.02772864
_cell_length_b   22.30587319
_cell_length_c   16.38841921
_cell_angle_alpha   90.00204876
_cell_angle_beta   89.99759011
_cell_angle_gamma   89.99554026
_symmetry_Int_Tables_number   1
_chemical_formula_structural   Ca108Mn108O277
_chemical_formula_sum   'Ca108 Mn108 O277'
_cell_volume   5859.06440892
_cell_formula_units_Z   1
loop_
 _symmetry_equiv_pos_site_id
 _symmetry_equiv_pos_as_xyz
  1  'x, y, z'
loop_
 _atom_type_symbol
 _atom_type_oxidation_number
  Ca2+  2.0
  Mn3.34+  3.34
  O2-  -2.0
loop_
 _atom_site_type_symbol
 _atom_site_label
 _atom_site_symmetry_multiplicity
 _atom_site_fract_x
 _atom_site_fract_y
 _atom_site_fract_z
 _atom_site_occupancy
  Ca2+  Ca0  1  0.11257720  0.24272469  0.26044837  1
  Ca2+  Ca1  1  0.06878536  0.23870722  0.57115670  1
  Ca2+  Ca2  1  0.10268453  0.25256742  0.91777242  1
  Ca2+  Ca3  1  0.07073497  0.74829371  0.24000164  1
  Ca2+  Ca4  1  0.09031532  0.75749733  0.58552908  1
  Ca2+  Ca5  1  0.07689800  0.74664810  0.92370621  1
  Ca2+  Ca6  1  0.40137149  0.24227599  0.24730034  1
  Ca2+  Ca7  1  0.40034485  0.24172465  0.60023319  1
  Ca2+  Ca8  1  0.38953113  0.24972394  0.90379068  1
  Ca2+  Ca9  1  0.40226282  0.74930656  0.25796050  1
  Ca2+  Ca10  1  0.41642838  0.76491189  0.58031000  1
  Ca2+  Ca11  1  0.41180178  0.76018792  0.91129446  1
  Ca2+  Ca12  1  0.73072709  0.24039668  0.27253734  1
  Ca2+  Ca13  1  0.76458318  0.24358281  0.55792973  1
  Ca2+  Ca14  1  0.76988872  0.25277060  0.91480630  1
  Ca2+  Ca15  1  0.77266910  0.74507760  0.25565291  1
  Ca2+  Ca16  1  0.75262931  0.74264027  0.58899748  1
  Ca2+  Ca17  1  0.76109613  0.74769482  0.90037234  1
  Ca2+  Ca18  1  0.25059755  0.24408443  0.07383232  1
  Ca2+  Ca19  1  0.23989934  0.24167907  0.41219684  1
  Ca2+  Ca20  1  0.26552213  0.23564014  0.75854855  1
  Ca2+  Ca21  1  0.23687094  0.75495311  0.08515318  1
  Ca2+  Ca22  1  0.25259033  0.75734012  0.42054537  1
  Ca2+  Ca23  1  0.25519380  0.77028514  0.74510047  1
  Ca2+  Ca24  1  0.57457218  0.25197928  0.10828846  1
  Ca2+  Ca25  1  0.60193903  0.24739887  0.41005227  1
  Ca2+  Ca26  1  0.55340232  0.24108868  0.74040209  1
  Ca2+  Ca27  1  0.58665804  0.75649273  0.08233672  1
  Ca2+  Ca28  1  0.58905440  0.74406057  0.42562687  1
  Ca2+  Ca29  1  0.60031905  0.75714649  0.74165726  1
  Ca2+  Ca30  1  0.92994556  0.26614951  0.07576132  1
  Ca2+  Ca31  1  0.90935258  0.25022248  0.43435923  1
  Ca2+  Ca32  1  0.92256113  0.25139865  0.73721585  1
  Ca2+  Ca33  1  0.92330761  0.75457054  0.09268398  1
  Ca2+  Ca34  1  0.91027134  0.75639625  0.40859033  1
  Ca2+  Ca35  1  0.90089694  0.74726639  0.74615214  1
  Ca2+  Ca36  1  0.23573322  0.58074449  0.07109389  1
  Ca2+  Ca37  1  0.74509697  0.10109515  0.58332961  1
  Ca2+  Ca38  1  0.88410157  0.10214782  0.42811763  1
  Ca2+  Ca39  1  0.42883046  0.58743506  0.26711590  1
  Ca2+  Ca40  1  0.92236104  0.61039501  0.09806552  1
  Ca2+  Ca41  1  0.75254846  0.08924689  0.91807869  1
  Ca2+  Ca42  1  0.76544861  0.60203969  0.90707395  1
  Ca2+  Ca43  1  0.41918940  0.59531045  0.57030807  1
  Ca2+  Ca44  1  0.54471001  0.08749113  0.73842933  1
  Ca2+  Ca45  1  0.61542134  0.60344414  0.41247405  1
  Ca2+  Ca46  1  0.73627688  0.09839906  0.57909861  1
  Ca2+  Ca47  1  0.89475440  0.10211086  0.42896323  1
  Ca2+  Ca48  1  0.40746515  0.08468606  0.60459490  1
  Ca2+  Ca49  1  0.11461583  0.07907452  0.92858636  1
  Ca2+  Ca50  1  0.26732085  0.58907973  0.41286765  1
  Ca2+  Ca51  1  0.24642642  0.59049370  0.75374980  1
  Ca2+  Ca52  1  0.23106397  0.08718426  0.39554864  1
  Ca2+  Ca53  1  0.88059198  0.61745295  0.41533910  1
  Ca2+  Ca54  1  0.10115270  0.08394781  0.57980529  1
  Ca2+  Ca55  1  0.76748983  0.61441613  0.58329643  1
  Ca2+  Ca56  1  0.23397768  0.59317160  0.75453164  1
  Ca2+  Ca57  1  0.93526868  0.06863667  0.07931147  1
  Ca2+  Ca58  1  0.63711232  0.09772933  0.40044235  1
  Ca2+  Ca59  1  0.40476619  0.56918953  0.92530056  1
  Ca2+  Ca60  1  0.37885735  0.10757175  0.91009196  1
  Ca2+  Ca61  1  0.05030055  0.60835423  0.59371564  1
  Ca2+  Ca62  1  0.90685050  0.08796663  0.73859951  1
  Ca2+  Ca63  1  0.89992139  0.61652205  0.74347608  1
  Ca2+  Ca64  1  0.91942090  0.08762439  0.74029902  1
  Ca2+  Ca65  1  0.38358193  0.10208299  0.90485808  1
  Ca2+  Ca66  1  0.60975321  0.59527018  0.73963403  1
  Ca2+  Ca67  1  0.76247256  0.60902734  0.25192170  1
  Ca2+  Ca68  1  0.62614735  0.09651866  0.40087990  1
  Ca2+  Ca69  1  0.26589980  0.08103897  0.73556879  1
  Ca2+  Ca70  1  0.22634372  0.58359585  0.07404457  1
  Ca2+  Ca71  1  0.88223504  0.61363529  0.42393647  1
  Ca2+  Ca72  1  0.40563459  0.91141330  0.25199845  1
  Ca2+  Ca73  1  0.41874978  0.40328014  0.58429062  1
  Ca2+  Ca74  1  0.75269842  0.40774372  0.92273943  1
  Ca2+  Ca75  1  0.92005466  0.89579264  0.74895684  1
  Ca2+  Ca76  1  0.39356552  0.90913489  0.24978614  1
  Ca2+  Ca77  1  0.75642462  0.39748321  0.57754761  1
  Ca2+  Ca78  1  0.59883640  0.90793257  0.42285514  1
  Ca2+  Ca79  1  0.25027635  0.40458306  0.75884665  1
  Ca2+  Ca80  1  0.74653039  0.89401416  0.91195413  1
  Ca2+  Ca81  1  0.40172186  0.41093546  0.92336656  1
  Ca2+  Ca82  1  0.09951317  0.41406694  0.93022412  1
  Ca2+  Ca83  1  0.23807249  0.91070231  0.42337125  1
  Ca2+  Ca84  1  0.11570159  0.92620793  0.61224018  1
  Ca2+  Ca85  1  0.09015907  0.90711828  0.91018329  1
  Ca2+  Ca86  1  0.40935036  0.90842501  0.90887518  1
  Ca2+  Ca87  1  0.76372084  0.90350559  0.25563043  1
  Ca2+  Ca88  1  0.26190609  0.40542307  0.41744713  1
  Ca2+  Ca89  1  0.07787064  0.39636154  0.58062090  1
  Ca2+  Ca90  1  0.91568467  0.39629642  0.74622198  1
  Ca2+  Ca91  1  0.58550929  0.90204287  0.07686539  1
  Ca2+  Ca92  1  0.07295625  0.39779703  0.24611503  1
  Ca2+  Ca93  1  0.42199310  0.40794839  0.24553542  1
  Ca2+  Ca94  1  0.73401659  0.91575051  0.58899302  1
  Ca2+  Ca95  1  0.58132932  0.41004464  0.74540449  1
  Ca2+  Ca96  1  0.59242791  0.40862747  0.41606688  1
  Ca2+  Ca97  1  0.57619946  0.40508868  0.07623719  1
  Ca2+  Ca98  1  0.07238779  0.91411252  0.24811787  1
  Ca2+  Ca99  1  0.23722252  0.91897297  0.07662144  1
  Ca2+  Ca100  1  0.22590495  0.92215239  0.08071045  1
  Ca2+  Ca101  1  0.56923310  0.40789717  0.74807556  1
  Ca2+  Ca102  1  0.73967483  0.40845253  0.92256014  1
  Ca2+  Ca103  1  0.75439609  0.39881894  0.25183926  1
  Ca2+  Ca104  1  0.74625289  0.91260853  0.59000577  1
  Ca2+  Ca105  1  0.25088692  0.41177694  0.07660683  1
  Ca2+  Ca106  1  0.58641572  0.90579585  0.42384415  1
  Ca2+  Ca107  1  0.25045522  0.40522160  0.41667319  1
  Mn3.34+  Mn108  1  0.08333866  0.33457329  0.08613324  1
  Mn3.34+  Mn109  1  0.07704599  0.33004740  0.41543439  1
  Mn3.34+  Mn110  1  0.08538916  0.33126928  0.75101719  1
  Mn3.34+  Mn111  1  0.07635644  0.83963893  0.08397892  1
  Mn3.34+  Mn112  1  0.07785125  0.83866799  0.41985732  1
  Mn3.34+  Mn113  1  0.08188062  0.83676183  0.75331820  1
  Mn3.34+  Mn114  1  0.41546571  0.33187327  0.08423416  1
  Mn3.34+  Mn115  1  0.42268353  0.33321343  0.41733391  1
  Mn3.34+  Mn116  1  0.41262560  0.33200938  0.75189111  1
  Mn3.34+  Mn117  1  0.41496205  0.83374619  0.08256064  1
  Mn3.34+  Mn118  1  0.41586148  0.83365486  0.42085914  1
  Mn3.34+  Mn119  1  0.41922693  0.84890050  0.74391014  1
  Mn3.34+  Mn120  1  0.75252467  0.32915027  0.09069764  1
  Mn3.34+  Mn121  1  0.75554360  0.33256559  0.41550473  1
  Mn3.34+  Mn122  1  0.74726897  0.32196198  0.75069692  1
  Mn3.34+  Mn123  1  0.75413880  0.83591778  0.08694666  1
  Mn3.34+  Mn124  1  0.75651274  0.83388435  0.42214003  1
  Mn3.34+  Mn125  1  0.74911119  0.83140521  0.75091273  1
  Mn3.34+  Mn126  1  0.25279293  0.33290068  0.24480196  1
  Mn3.34+  Mn127  1  0.24792956  0.33099934  0.58529529  1
  Mn3.34+  Mn128  1  0.24805827  0.33629471  0.91738748  1
  Mn3.34+  Mn129  1  0.24098964  0.83368359  0.25033636  1
  Mn3.34+  Mn130  1  0.25317902  0.84074814  0.58392422  1
  Mn3.34+  Mn131  1  0.24874611  0.83124870  0.91277681  1
  Mn3.34+  Mn132  1  0.58196126  0.33361904  0.25186432  1
  Mn3.34+  Mn133  1  0.58321111  0.32954821  0.57899928  1
  Mn3.34+  Mn134  1  0.58241034  0.32894686  0.91533643  1
  Mn3.34+  Mn135  1  0.58589802  0.83080743  0.24633306  1
  Mn3.34+  Mn136  1  0.57963578  0.83423728  0.58653240  1
  Mn3.34+  Mn137  1  0.57966767  0.83028422  0.91230298  1
  Mn3.34+  Mn138  1  0.91602982  0.33201689  0.24703519  1
  Mn3.34+  Mn139  1  0.91762892  0.32876953  0.58344972  1
  Mn3.34+  Mn140  1  0.92273071  0.33471023  0.91564699  1
  Mn3.34+  Mn141  1  0.91944241  0.83374682  0.25152657  1
  Mn3.34+  Mn142  1  0.91888991  0.82480639  0.57904085  1
  Mn3.34+  Mn143  1  0.91910675  0.82936548  0.91836808  1
  Mn3.34+  Mn144  1  0.41301857  0.16224350  0.41861521  1
  Mn3.34+  Mn145  1  0.24828223  0.66504464  0.24818179  1
  Mn3.34+  Mn146  1  0.58608430  0.66778196  0.57821722  1
  Mn3.34+  Mn147  1  0.74894643  0.16843559  0.09332480  1
  Mn3.34+  Mn148  1  0.59077319  0.65678194  0.91865880  1
  Mn3.34+  Mn149  1  0.42302360  0.66462633  0.75034935  1
  Mn3.34+  Mn150  1  0.74359761  0.16923076  0.75321523  1
  Mn3.34+  Mn151  1  0.09695937  0.15639550  0.08794654  1
  Mn3.34+  Mn152  1  0.57790835  0.18041268  0.91864906  1
  Mn3.34+  Mn153  1  0.42267268  0.16968203  0.41599334  1
  Mn3.34+  Mn154  1  0.24770388  0.66787146  0.91557966  1
  Mn3.34+  Mn155  1  0.08046576  0.66895437  0.08415185  1
  Mn3.34+  Mn156  1  0.09011968  0.15657033  0.75476289  1
  Mn3.34+  Mn157  1  0.41304923  0.67019895  0.74818750  1
  Mn3.34+  Mn158  1  0.24989323  0.16100344  0.57945142  1
  Mn3.34+  Mn159  1  0.41095520  0.16459626  0.09355190  1
  Mn3.34+  Mn160  1  0.08538519  0.16259745  0.08676332  1
  Mn3.34+  Mn161  1  0.08108904  0.16257270  0.75288994  1
  Mn3.34+  Mn162  1  0.41513717  0.66621137  0.08628258  1
  Mn3.34+  Mn163  1  0.08153674  0.16340179  0.41743111  1
  Mn3.34+  Mn164  1  0.42909304  0.66084171  0.08901273  1
  Mn3.34+  Mn165  1  0.58938116  0.67099359  0.24682501  1
  Mn3.34+  Mn166  1  0.08242495  0.67813231  0.75345568  1
  Mn3.34+  Mn167  1  0.92249122  0.66686176  0.91667404  1
  Mn3.34+  Mn168  1  0.92510803  0.15994280  0.24396908  1
  Mn3.34+  Mn169  1  0.41982853  0.66938097  0.41573437  1
  Mn3.34+  Mn170  1  0.91736908  0.16750473  0.91712711  1
  Mn3.34+  Mn171  1  0.57660902  0.16474412  0.57998328  1
  Mn3.34+  Mn172  1  0.75149567  0.67066839  0.08621810  1
  Mn3.34+  Mn173  1  0.74877042  0.16061143  0.08744597  1
  Mn3.34+  Mn174  1  0.25047977  0.66845515  0.57898681  1
  Mn3.34+  Mn175  1  0.91504406  0.16515062  0.24441255  1
  Mn3.34+  Mn176  1  0.08955309  0.66524646  0.41398665  1
  Mn3.34+  Mn177  1  0.58034082  0.66167135  0.91958389  1
  Mn3.34+  Mn178  1  0.58715848  0.17458511  0.91788543  1
  Mn3.34+  Mn179  1  0.08028927  0.67095301  0.41207716  1
  Mn3.34+  Mn180  1  0.59422536  0.00245618  0.24233848  1
  Mn3.34+  Mn181  1  0.25042224  0.49915363  0.25471609  1
  Mn3.34+  Mn182  1  0.07621443  0.50055821  0.75994644  1
  Mn3.34+  Mn183  1  0.06501656  0.49924054  0.41550596  1
  Mn3.34+  Mn184  1  0.58112226  0.00938232  0.24109825  1
  Mn3.34+  Mn185  1  0.58295479  0.50170796  0.58253174  1
  Mn3.34+  Mn186  1  0.90876245  0.49756299  0.24931500  1
  Mn3.34+  Mn187  1  0.41795760  0.00478524  0.08031637  1
  Mn3.34+  Mn188  1  0.42913434  0.49944303  0.41085743  1
  Mn3.34+  Mn189  1  0.73522744  -0.00073977  0.74852288  1
  Mn3.34+  Mn190  1  0.41582380  0.50053216  0.75205494  1
  Mn3.34+  Mn191  1  0.92580849  -0.00652186  0.91742069  1
  Mn3.34+  Mn192  1  0.92399767  -0.00923451  0.58048490  1
  Mn3.34+  Mn193  1  0.92091132  0.50241893  0.91647990  1
  Mn3.34+  Mn194  1  0.06620470  0.50582544  0.76065322  1
  Mn3.34+  Mn195  1  0.91766451  0.49625355  0.57556393  1
  Mn3.34+  Mn196  1  0.75369282  0.50225284  0.75236813  1
  Mn3.34+  Mn197  1  0.57526415  -0.00127743  0.90519645  1
  Mn3.34+  Mn198  1  0.90796233  -0.00083880  0.26493285  1
  Mn3.34+  Mn199  1  0.75076345  0.49632765  0.41347265  1
  Mn3.34+  Mn200  1  0.58955880  0.50190954  0.25172629  1
  Mn3.34+  Mn201  1  0.76417675  0.49692324  0.75093556  1
  Mn3.34+  Mn202  1  0.08035553  -0.00302723  0.40730143  1
  Mn3.34+  Mn203  1  0.58570143  0.00339529  0.90803337  1
  Mn3.34+  Mn204  1  0.41399207  0.00045789  0.42052734  1
  Mn3.34+  Mn205  1  0.93336209  -0.00322473  0.57797821  1
  Mn3.34+  Mn206  1  0.07618492  0.50380485  0.41507766  1
  Mn3.34+  Mn207  1  0.91184999  -0.00133657  0.92003431  1
  Mn3.34+  Mn208  1  0.42896863  0.50198459  0.07475753  1
  Mn3.34+  Mn209  1  0.74809813  -0.00108798  0.08482278  1
  Mn3.34+  Mn210  1  0.07190382  0.49820284  0.08019030  1
  Mn3.34+  Mn211  1  0.75307838  0.50002223  0.08610455  1
  Mn3.34+  Mn212  1  0.40147821  0.00415078  0.41993705  1
  Mn3.34+  Mn213  1  0.24747874  0.50277248  0.58827393  1
  Mn3.34+  Mn214  1  0.74103510  0.50523905  0.08566035  1
  Mn3.34+  Mn215  1  0.25021364  -0.00899729  0.91324768  1
  O2-  O216  1  0.00162378  0.14708902  0.00575196  1
  O2-  O217  1  -0.00139919  0.15808426  0.33247167  1
  O2-  O218  1  0.00366441  0.14896574  0.66911732  1
  O2-  O219  1  0.00325882  0.65792203  0.00042643  1
  O2-  O220  1  -0.00515812  0.64994591  0.34238671  1
  O2-  O221  1  0.00487309  0.68267941  0.67226993  1
  O2-  O222  1  0.35061206  0.17784706  -0.00081749  1
  O2-  O223  1  0.33758737  0.14877366  0.33814400  1
  O2-  O224  1  0.32799314  0.15732817  0.65925507  1
  O2-  O225  1  0.33462236  0.64181752  0.00363924  1
  O2-  O226  1  0.33815401  0.65314345  0.32898030  1
  O2-  O227  1  0.33148916  0.64522645  0.66712186  1
  O2-  O228  1  0.67418721  0.18285664  -0.00404803  1
  O2-  O229  1  0.67104666  0.17401018  0.34521866  1
  O2-  O230  1  0.66144633  0.17301978  0.66797162  1
  O2-  O231  1  0.67389305  0.67295709  -0.00092708  1
  O2-  O232  1  0.66460881  0.67982784  0.32772559  1
  O2-  O233  1  0.66453204  0.65917765  0.65677331  1
  O2-  O234  1  0.16866303  0.15436067  0.00266592  1
  O2-  O235  1  0.16569893  0.16249867  0.34256153  1
  O2-  O236  1  0.16854422  0.14900686  0.66849077  1
  O2-  O237  1  0.17034830  0.65681427  -0.00072728  1
  O2-  O238  1  0.16933035  0.64481905  0.33674445  1
  O2-  O239  1  0.16627634  0.65591600  0.66498959  1
  O2-  O240  1  0.50562647  0.17909526  0.00680289  1
  O2-  O241  1  0.50920580  0.14822521  0.35210794  1
  O2-  O242  1  0.49660304  0.16412203  0.65975811  1
  O2-  O243  1  0.49945948  0.63896508  -0.00440674  1
  O2-  O244  1  0.50529557  0.66400578  0.33532314  1
  O2-  O245  1  0.49978856  0.64581194  0.66696121  1
  O2-  O246  1  0.82798693  0.15535113  -0.00041938  1
  O2-  O247  1  0.84039462  0.16797271  0.33195924  1
  O2-  O248  1  0.82352694  0.15133502  0.67260963  1
  O2-  O249  1  0.83555688  0.65554489  0.00011154  1
  O2-  O250  1  0.82627161  0.67243672  0.33332177  1
  O2-  O251  1  0.84261814  0.67775075  0.65817751  1
  O2-  O252  1  0.00694967  0.34532965  -0.00599968  1
  O2-  O253  1  0.00129532  0.32555995  0.32792787  1
  O2-  O254  1  -0.00012636  0.34025847  0.66844667  1
  O2-  O255  1  0.00639283  0.84651942  -0.00897890  1
  O2-  O256  1  0.00122087  0.84897505  0.33155861  1
  O2-  O257  1  -0.00232249  0.82097636  0.66886137  1
  O2-  O258  1  0.33539598  0.33949428  -0.00084010  1
  O2-  O259  1  0.33705700  0.35357710  0.33049642  1
  O2-  O260  1  0.33394877  0.35092540  0.66734243  1
  O2-  O261  1  0.32673983  0.85634037  0.00603031  1
  O2-  O262  1  0.33171766  0.84777788  0.33521195  1
  O2-  O263  1  0.33511655  0.83791054  0.66521708  1
  O2-  O264  1  0.66893153  0.33252307  0.00027965  1
  O2-  O265  1  0.66801194  0.34445765  0.33466045  1
  O2-  O266  1  0.65880662  0.33468310  0.67327690  1
  O2-  O267  1  0.66476342  0.83271247  0.00401725  1
  O2-  O268  1  0.66492697  0.83786608  0.33760987  1
  O2-  O269  1  0.67123710  0.84360145  0.66243043  1
  O2-  O270  1  0.16944818  0.34601724  0.00378890  1
  O2-  O271  1  0.16849391  0.35247908  0.33282203  1
  O2-  O272  1  0.16684644  0.35200684  0.66797684  1
  O2-  O273  1  0.16877311  0.84855717  0.00329535  1
  O2-  O274  1  0.16315167  0.85706067  0.33137650  1
  O2-  O275  1  0.16210791  0.83385974  0.66793200  1
  O2-  O276  1  0.50099354  0.32590546  0.00061367  1
  O2-  O277  1  0.50435152  0.35573819  0.33631443  1
  O2-  O278  1  0.50036388  0.34063604  0.66789846  1
  O2-  O279  1  0.49665910  0.84742185  -0.00268119  1
  O2-  O280  1  0.49945797  0.85045606  0.32875503  1
  O2-  O281  1  0.50122962  0.83721582  0.66659389  1
  O2-  O282  1  0.82766341  0.33900767  -0.00335028  1
  O2-  O283  1  0.83154859  0.33345817  0.32776607  1
  O2-  O284  1  0.82891055  0.33386753  0.66803001  1
  O2-  O285  1  0.82735255  0.83448236  -0.00566013  1
  O2-  O286  1  0.82982797  0.83170813  0.33315450  1
  O2-  O287  1  0.83171740  0.83943004  0.66444773  1
  O2-  O288  1  0.00325169  0.18743621  0.16453072  1
  O2-  O289  1  -0.00999282  0.16968527  0.48580947  1
  O2-  O290  1  -0.00789930  0.17930927  0.82605982  1
  O2-  O291  1  0.00343720  0.68008196  0.15948740  1
  O2-  O292  1  0.00297856  0.68065195  0.49618320  1
  O2-  O293  1  -0.00123203  0.68710190  0.83214465  1
  O2-  O294  1  0.33001883  0.18260700  0.15420498  1
  O2-  O295  1  0.33039560  0.18274911  0.49513592  1
  O2-  O296  1  0.33030935  0.17070987  0.83301703  1
  O2-  O297  1  0.33587271  0.68311037  0.16901360  1
  O2-  O298  1  0.33340912  0.67578639  0.49633707  1
  O2-  O299  1  0.33501372  0.68242161  0.83391846  1
  O2-  O300  1  0.66763416  0.18973272  0.16460659  1
  O2-  O301  1  0.66148991  0.17792898  0.50714123  1
  O2-  O302  1  0.66475334  0.19242017  0.83409765  1
  O2-  O303  1  0.67000361  0.69425909  0.16704702  1
  O2-  O304  1  0.66401538  0.67838026  0.50116354  1
  O2-  O305  1  0.66463808  0.67601344  0.83566301  1
  O2-  O306  1  0.16905128  0.17988598  0.16514961  1
  O2-  O307  1  0.15728160  0.17206842  0.50572415  1
  O2-  O308  1  0.16166517  0.17287690  0.83633930  1
  O2-  O309  1  0.17550232  0.67541540  0.15681478  1
  O2-  O310  1  0.16459265  0.68378525  0.49773954  1
  O2-  O311  1  0.17835408  0.68576051  0.82266592  1
  O2-  O312  1  0.48402629  0.19190402  0.16047747  1
  O2-  O313  1  0.49445755  0.19137209  0.50191396  1
  O2-  O314  1  0.49512927  0.17812826  0.83936660  1
  O2-  O315  1  0.50058254  0.69103767  0.17191535  1
  O2-  O316  1  0.49433641  0.68117353  0.50210650  1
  O2-  O317  1  0.49874804  0.68040639  0.83578751  1
  O2-  O318  1  0.84038979  0.19162404  0.16169539  1
  O2-  O319  1  0.82284701  0.16479834  0.50505055  1
  O2-  O320  1  0.83084378  0.18537028  0.82669119  1
  O2-  O321  1  0.83347888  0.68523676  0.15644332  1
  O2-  O322  1  0.83469685  0.68466877  0.49801636  1
  O2-  O323  1  0.84001189  0.67790923  0.84110821  1
  O2-  O324  1  0.00484697  0.31583693  0.17129339  1
  O2-  O325  1  0.00431429  0.31951545  0.50625779  1
  O2-  O326  1  -0.00556050  0.31996740  0.82664879  1
  O2-  O327  1  0.00196622  0.82760901  0.16853785  1
  O2-  O328  1  -0.00053837  0.80773251  0.49940563  1
  O2-  O329  1  -0.00233816  0.81568221  0.82991005  1
  O2-  O330  1  0.33381686  0.31562530  0.16267296  1
  O2-  O331  1  0.33001847  0.32683104  0.49524730  1
  O2-  O332  1  0.33122047  0.32899690  0.83250536  1
  O2-  O333  1  0.33600802  0.82083635  0.17180780  1
  O2-  O334  1  0.33136000  0.82539513  0.49664341  1
  O2-  O335  1  0.33536457  0.82447750  0.83662972  1
  O2-  O336  1  0.66707356  0.31972433  0.16964808  1
  O2-  O337  1  0.66967302  0.32024811  0.50306750  1
  O2-  O338  1  0.67069112  0.30818552  0.83753965  1
  O2-  O339  1  0.66751419  0.81461398  0.16731053  1
  O2-  O340  1  0.66791526  0.81564057  0.49756642  1
  O2-  O341  1  0.67102090  0.81838191  0.83895612  1
  O2-  O342  1  0.16660367  0.32073245  0.16859878  1
  O2-  O343  1  0.17075778  0.32970142  0.49406924  1
  O2-  O344  1  0.16579504  0.32668638  0.83376000  1
  O2-  O345  1  0.16612857  0.82356810  0.16400302  1
  O2-  O346  1  0.16706067  0.82297728  0.49796332  1
  O2-  O347  1  0.15908102  0.81522110  0.83849500  1
  O2-  O348  1  0.49749965  0.32761249  0.16888785  1
  O2-  O349  1  0.49780597  0.31539448  0.50465607  1
  O2-  O350  1  0.50553884  0.31896614  0.82782124  1
  O2-  O351  1  0.49872461  0.82022310  0.16884720  1
  O2-  O352  1  0.50984167  0.82346729  0.48946739  1
  O2-  O353  1  0.49632950  0.82269022  0.83470771  1
  O2-  O354  1  0.83348178  0.30688245  0.16774456  1
  O2-  O355  1  0.83415557  0.32654061  0.50309656  1
  O2-  O356  1  0.83191432  0.32008510  0.83068673  1
  O2-  O357  1  0.83196290  0.82012278  0.16995129  1
  O2-  O358  1  0.82999519  0.80979771  0.50464559  1
  O2-  O359  1  0.83508075  0.82250323  0.83098920  1
  O2-  O360  1  0.07541384  0.07911298  0.11346091  1
  O2-  O361  1  0.07787054  0.07675524  0.44070908  1
  O2-  O362  1  0.05902064  0.07824739  0.79333542  1
  O2-  O363  1  0.08625667  0.58051446  0.10458805  1
  O2-  O364  1  0.08957546  0.58019626  0.46305114  1
  O2-  O365  1  0.09302618  0.58753532  0.77502463  1
  O2-  O366  1  0.42194147  0.08593608  0.08051951  1
  O2-  O367  1  0.42107479  0.08205218  0.46476302  1
  O2-  O368  1  0.43685499  0.05869599  0.80805814  1
  O2-  O369  1  0.42579507  0.58051436  0.12583267  1
  O2-  O370  1  0.42084152  0.58257783  0.43357064  1
  O2-  O371  1  0.40201921  0.58368069  0.78775635  1
  O2-  O372  1  0.76385744  0.07989360  0.11379190  1
  O2-  O373  1  0.75682921  0.06691475  0.45527370  1
  O2-  O374  1  0.75337570  0.07987617  0.78262327  1
  O2-  O375  1  0.74650077  0.58443131  0.11549707  1
  O2-  O376  1  0.75402690  0.57306987  0.45401120  1
  O2-  O377  1  0.75914622  0.58360181  0.77084147  1
  O2-  O378  1  0.24737739  0.07495929  0.25174354  1
  O2-  O379  1  0.25538365  0.08182212  0.55078259  1
  O2-  O380  1  0.25200567  0.06793954  0.87708446  1
  O2-  O381  1  0.26192934  0.57926502  0.21108815  1
  O2-  O382  1  0.25081259  0.58296064  0.55138772  1
  O2-  O383  1  0.25325694  0.58357689  0.88747121  1
  O2-  O384  1  0.60135272  0.08741844  0.25164826  1
  O2-  O385  1  0.60144186  0.08219484  0.54488909  1
  O2-  O386  1  0.60086141  0.08669447  0.88289226  1
  O2-  O387  1  0.59036024  0.58327356  0.23669654  1
  O2-  O388  1  0.57583617  0.58195537  0.55047832  1
  O2-  O389  1  0.58686997  0.57798353  0.87965211  1
  O2-  O390  1  0.91503626  0.07471970  0.21264846  1
  O2-  O391  1  0.90533315  0.07695751  0.56189961  1
  O2-  O392  1  0.89751323  0.07717999  0.87382314  1
  O2-  O393  1  0.89331575  0.57056982  0.21532058  1
  O2-  O394  1  0.92290536  0.57442242  0.54017216  1
  O2-  O395  1  0.91519551  0.58207433  0.88106469  1
  O2-  O396  1  0.08361504  0.41914630  0.11394242  1
  O2-  O397  1  0.07552414  0.41696875  0.44365918  1
  O2-  O398  1  0.06867420  0.41920769  0.78546215  1
  O2-  O399  1  0.09529773  0.92125866  0.11230860  1
  O2-  O400  1  0.07990032  0.92405408  0.46104450  1
  O2-  O401  1  0.06513589  0.91612165  0.76657957  1
  O2-  O402  1  0.42025647  0.42291065  0.10494278  1
  O2-  O403  1  0.41529723  0.42056153  0.45090349  1
  O2-  O404  1  0.43513905  0.41807513  0.78501245  1
  O2-  O405  1  0.42231518  0.92613683  0.12018598  1
  O2-  O406  1  0.43433328  0.91915042  0.44522172  1
  O2-  O407  1  0.42081065  0.92214271  0.77464174  1
  O2-  O408  1  0.74993947  0.41919087  0.11606678  1
  O2-  O409  1  0.74262785  0.41794892  0.44317872  1
  O2-  O410  1  0.74522081  0.41485752  0.77862474  1
  O2-  O411  1  0.72829562  0.92145998  0.11964250  1
  O2-  O412  1  0.73434903  0.91858487  0.45407496  1
  O2-  O413  1  0.75772531  0.91787165  0.77048327  1
  O2-  O414  1  0.25682812  0.41861396  0.21545976  1
  O2-  O415  1  0.25001992  0.42136738  0.55232670  1
  O2-  O416  1  0.25227533  0.42091108  0.89728757  1
  O2-  O417  1  0.26322820  0.91884730  0.21048081  1
  O2-  O418  1  0.24295465  0.91849983  0.56079087  1
  O2-  O419  1  0.24341250  0.91374617  0.88460131  1
  O2-  O420  1  0.59343813  0.42294274  0.21445036  1
  O2-  O421  1  0.58360566  0.42004161  0.55778137  1
  O2-  O422  1  0.60974831  0.41578263  0.87582438  1
  O2-  O423  1  0.57960373  0.92262748  0.21491603  1
  O2-  O424  1  0.59822061  0.91691160  0.55584537  1
  O2-  O425  1  0.59467205  0.91570607  0.89471493  1
  O2-  O426  1  0.90993591  0.41839548  0.22287414  1
  O2-  O427  1  0.91528146  0.41500295  0.57942169  1
  O2-  O428  1  0.89256957  0.42157458  0.88264036  1
  O2-  O429  1  0.90487234  0.92318342  0.22906372  1
  O2-  O430  1  0.89710568  0.91232813  0.56419029  1
  O2-  O431  1  0.91424914  0.91412496  0.88486459  1
  O2-  O432  1  0.01277267  0.01536860  -0.01613195  1
  O2-  O433  1  0.00487390  -0.00206590  0.32204044  1
  O2-  O434  1  0.01167359  0.01372025  0.65812016  1
  O2-  O435  1  0.01557579  0.49037339  -0.02040982  1
  O2-  O436  1  0.00177963  0.50006842  0.31910889  1
  O2-  O437  1  0.00016029  0.50970758  0.66221532  1
  O2-  O438  1  0.33000324  -0.01113212  -0.00208321  1
  O2-  O439  1  0.33298935  -0.02006816  0.33455844  1
  O2-  O440  1  0.33793139  0.01168102  0.66731360  1
  O2-  O441  1  0.32801696  0.51556070  0.02395510  1
  O2-  O442  1  0.32504098  0.49562233  0.35415570  1
  O2-  O443  1  0.32931105  0.51105965  0.67284691  1
  O2-  O444  1  0.67931200  0.00324519  -0.01566813  1
  O2-  O445  1  0.64873693  -0.00879573  0.34804909  1
  O2-  O446  1  0.69637448  0.00637305  0.63794518  1
  O2-  O447  1  0.66426490  0.47758914  0.00390170  1
  O2-  O448  1  0.64858661  0.49968112  0.35694776  1
  O2-  O449  1  0.65888638  0.49435255  0.67954045  1
  O2-  O450  1  0.16690834  -0.01193238  -0.01534370  1
  O2-  O451  1  0.17859141  -0.00591695  0.36375377  1
  O2-  O452  1  0.17426608  0.01615084  0.65291935  1
  O2-  O453  1  0.17577631  0.49474153  0.03608791  1
  O2-  O454  1  0.17203584  0.49287638  0.35009696  1
  O2-  O455  1  0.17232590  0.49966737  0.68791852  1
  O2-  O456  1  0.49650488  -0.01004946  -0.00826476  1
  O2-  O457  1  0.48867781  -0.00387086  0.32138585  1
  O2-  O458  1  0.48749000  0.01480259  0.66137468  1
  O2-  O459  1  0.48081229  0.48648205  -0.01878446  1
  O2-  O460  1  0.48444272  0.49515785  0.30523588  1
  O2-  O461  1  0.50389672  0.49199670  0.67113926  1
  O2-  O462  1  0.84313881  0.00061834  0.01265371  1
  O2-  O463  1  0.83517937  0.01403198  0.33658953  1
  O2-  O464  1  0.85290280  0.00409374  0.68300695  1
  O2-  O465  1  0.82176804  0.50304075  -0.01583251  1
  O2-  O466  1  0.82754195  0.51085219  0.33204846  1
  O2-  O467  1  0.82608577  0.50433305  0.65158858  1
  O2-  O468  1  0.25575304  0.74925730  0.60236927  1
  O2-  O469  1  0.26093112  0.75016320  0.94656128  1
  O2-  O470  1  0.24684574  0.74997606  0.27645078  1
  O2-  O471  1  0.25394021  0.25656474  0.27734149  1
  O2-  O472  1  0.41565666  0.75101386  0.72698803  1
  O2-  O473  1  0.24528185  0.25637458  0.92992798  1
  O2-  O474  1  0.74636286  0.75340997  0.73596468  1
  O2-  O475  1  0.91977336  0.25164904  0.94110253  1
  O2-  O476  1  0.57403682  0.74984610  0.60488300  1
  O2-  O477  1  0.40826932  0.25425566  0.73538265  1
  O2-  O478  1  0.56581027  0.74449478  0.94050811  1
  O2-  O479  1  0.92859114  0.75576659  0.26628944  1
  O2-  O480  1  0.92025218  0.74939668  0.94635688  1
  O2-  O481  1  0.24705105  0.24964065  0.60563593  1
  O2-  O482  1  0.91749139  0.25016071  0.59664249  1
  O2-  O483  1  0.09086417  0.24830232  0.40577968  1
  O2-  O484  1  0.75679749  0.25494729  0.41089844  1
  O2-  O485  1  0.08610872  0.75283470  0.06296232  1
  O2-  O486  1  0.57317174  0.25700449  0.27256212  1
  O2-  O487  1  0.40959623  0.24988109  0.38551824  1
  O2-  O488  1  0.09491218  0.75317222  0.38264490  1
  O2-  O489  1  0.41126208  0.75243353  0.39544778  1
  O2-  O490  1  0.08331668  0.24432433  0.72386544  1
  O2-  O491  1  0.41890346  0.74501359  0.04977284  1
  O2-  O492  1  0.08539232  0.24573707  0.05685124  1
