# generated using pymatgen
data_Ca108Mn108O277
_symmetry_space_group_name_H-M   'P 1'
_cell_length_a   16.03059066
_cell_length_b   22.30971848
_cell_length_c   16.39231785
_cell_angle_alpha   89.99690758
_cell_angle_beta   89.99576084
_cell_angle_gamma   90.00383816
_symmetry_Int_Tables_number   1
_chemical_formula_structural   Ca108Mn108O277
_chemical_formula_sum   'Ca108 Mn108 O277'
_cell_volume   5862.51515423
_cell_formula_units_Z   1
loop_
 _symmetry_equiv_pos_site_id
 _symmetry_equiv_pos_as_xyz
  1  'x, y, z'
loop_
 _atom_type_symbol
 _atom_type_oxidation_number
  Ca2+  2.0
  Mn3.34+  3.34
  O2-  -2.0
loop_
 _atom_site_type_symbol
 _atom_site_label
 _atom_site_symmetry_multiplicity
 _atom_site_fract_x
 _atom_site_fract_y
 _atom_site_fract_z
 _atom_site_occupancy
  Ca2+  Ca0  1  0.05967572  0.25118291  0.24838308  1
  Ca2+  Ca1  1  0.08104951  0.24916538  0.58239884  1
  Ca2+  Ca2  1  0.11200105  0.24236336  0.92013437  1
  Ca2+  Ca3  1  0.07451746  0.73543115  0.24678294  1
  Ca2+  Ca4  1  0.09325684  0.74985598  0.58366333  1
  Ca2+  Ca5  1  0.06525978  0.75033588  0.92994721  1
  Ca2+  Ca6  1  0.42813818  0.25239169  0.24455308  1
  Ca2+  Ca7  1  0.42627535  0.24756101  0.59466909  1
  Ca2+  Ca8  1  0.39945803  0.24975972  0.90045614  1
  Ca2+  Ca9  1  0.39698714  0.76141477  0.26463024  1
  Ca2+  Ca10  1  0.40463173  0.75465804  0.57754958  1
  Ca2+  Ca11  1  0.41633703  0.76768717  0.90368424  1
  Ca2+  Ca12  1  0.75845467  0.24891949  0.24766996  1
  Ca2+  Ca13  1  0.73679194  0.24858959  0.59375613  1
  Ca2+  Ca14  1  0.74760894  0.26003883  0.91529132  1
  Ca2+  Ca15  1  0.76993534  0.74935888  0.25360030  1
  Ca2+  Ca16  1  0.75597779  0.75931496  0.58901849  1
  Ca2+  Ca17  1  0.76806874  0.74892302  0.90203458  1
  Ca2+  Ca18  1  0.25213096  0.23622339  0.06283561  1
  Ca2+  Ca19  1  0.23236542  0.24749514  0.43521379  1
  Ca2+  Ca20  1  0.27008693  0.24193656  0.75447807  1
  Ca2+  Ca21  1  0.21768095  0.74979917  0.08950780  1
  Ca2+  Ca22  1  0.24699117  0.75054515  0.41010055  1
  Ca2+  Ca23  1  0.24967211  0.75574114  0.74103201  1
  Ca2+  Ca24  1  0.58570238  0.23649236  0.09096133  1
  Ca2+  Ca25  1  0.59232201  0.24935752  0.43693017  1
  Ca2+  Ca26  1  0.57750073  0.22812977  0.74148382  1
  Ca2+  Ca27  1  0.60097935  0.76171779  0.07701681  1
  Ca2+  Ca28  1  0.57899127  0.75713295  0.42522204  1
  Ca2+  Ca29  1  0.60009818  0.75544364  0.74714857  1
  Ca2+  Ca30  1  0.91793663  0.25034509  0.10030406  1
  Ca2+  Ca31  1  0.91904225  0.24882545  0.41879789  1
  Ca2+  Ca32  1  0.90053741  0.24883585  0.73322060  1
  Ca2+  Ca33  1  0.92942142  0.74803915  0.08034889  1
  Ca2+  Ca34  1  0.91702649  0.74640150  0.40882471  1
  Ca2+  Ca35  1  0.91596883  0.74754968  0.75975793  1
  Ca2+  Ca36  1  0.40449089  0.11384105  0.90574687  1
  Ca2+  Ca37  1  0.40430598  0.58443400  0.59193410  1
  Ca2+  Ca38  1  0.79021605  0.58492945  0.25912267  1
  Ca2+  Ca39  1  0.87712167  0.58944399  0.77287915  1
  Ca2+  Ca40  1  0.57266041  0.11510311  0.42105009  1
  Ca2+  Ca41  1  0.78000309  0.58433834  0.25881774  1
  Ca2+  Ca42  1  0.22764219  0.07699131  0.03006755  1
  Ca2+  Ca43  1  0.78033805  0.09879121  0.60039631  1
  Ca2+  Ca44  1  0.76055840  0.57211385  0.58020281  1
  Ca2+  Ca45  1  0.23567338  0.09097034  0.42045286  1
  Ca2+  Ca46  1  0.23088174  0.59549087  0.72484012  1
  Ca2+  Ca47  1  0.61611782  0.57788747  0.74481013  1
  Ca2+  Ca48  1  0.95282648  0.59091083  0.36115865  1
  Ca2+  Ca49  1  0.59884575  0.58974650  0.08685336  1
  Ca2+  Ca50  1  0.39343765  0.59227233  0.27268717  1
  Ca2+  Ca51  1  0.75088644  0.56835039  0.57774423  1
  Ca2+  Ca52  1  0.06925072  0.08321113  0.24937390  1
  Ca2+  Ca53  1  0.39632805  0.11089750  0.90071458  1
  Ca2+  Ca54  1  0.22018371  0.59600836  0.72843746  1
  Ca2+  Ca55  1  0.92569420  0.09123352  0.08771362  1
  Ca2+  Ca56  1  0.75583815  0.09333563  0.91097412  1
  Ca2+  Ca57  1  0.21134583  0.60651426  0.41942607  1
  Ca2+  Ca58  1  0.74332314  0.09434790  0.91132872  1
  Ca2+  Ca59  1  0.93414991  0.60180015  0.09954564  1
  Ca2+  Ca60  1  0.42813931  0.11026946  0.58996257  1
  Ca2+  Ca61  1  0.96206246  0.59324597  0.36380073  1
  Ca2+  Ca62  1  0.62669725  0.57940775  0.74926229  1
  Ca2+  Ca63  1  0.43452450  0.10828511  0.24854972  1
  Ca2+  Ca64  1  0.04619973  0.10287691  0.57224317  1
  Ca2+  Ca65  1  0.44693123  0.10895530  0.24622746  1
  Ca2+  Ca66  1  0.88872619  0.58990722  0.76827221  1
  Ca2+  Ca67  1  0.58629541  0.59164896  0.08744820  1
  Ca2+  Ca68  1  0.41883374  0.58668870  0.90648728  1
  Ca2+  Ca69  1  0.05594287  0.59538445  0.93207549  1
  Ca2+  Ca70  1  0.42799667  0.58501394  0.89914873  1
  Ca2+  Ca71  1  0.25594516  0.10054771  0.76329835  1
  Ca2+  Ca72  1  0.60011238  0.40570722  0.42610762  1
  Ca2+  Ca73  1  0.61161824  0.40739619  0.43079455  1
  Ca2+  Ca74  1  0.07390843  0.39837956  0.58754342  1
  Ca2+  Ca75  1  0.06672135  0.42099708  0.26076964  1
  Ca2+  Ca76  1  0.58035779  0.90486765  0.08194486  1
  Ca2+  Ca77  1  0.25551526  0.40362809  0.42211227  1
  Ca2+  Ca78  1  0.75501239  0.90167402  0.25338532  1
  Ca2+  Ca79  1  0.88768661  0.41788587  0.74677008  1
  Ca2+  Ca80  1  0.40365444  0.90279478  0.57889786  1
  Ca2+  Ca81  1  0.92502985  0.91038198  0.75104992  1
  Ca2+  Ca82  1  0.23102585  0.90537250  0.75866072  1
  Ca2+  Ca83  1  0.89906800  0.41238125  0.07305273  1
  Ca2+  Ca84  1  0.41859934  0.40350986  0.25397092  1
  Ca2+  Ca85  1  0.93198940  0.90588896  0.41477119  1
  Ca2+  Ca86  1  0.38433206  0.92323548  0.93550619  1
  Ca2+  Ca87  1  0.25541158  0.40701193  0.74103030  1
  Ca2+  Ca88  1  0.76363134  0.91050173  0.91813770  1
  Ca2+  Ca89  1  0.23578973  0.90353857  0.41125652  1
  Ca2+  Ca90  1  0.59002720  0.89966658  0.40833636  1
  Ca2+  Ca91  1  0.23813008  0.39828117  0.08682512  1
  Ca2+  Ca92  1  0.06448001  0.40387276  0.91349552  1
  Ca2+  Ca93  1  0.41757258  0.40477783  0.90088851  1
  Ca2+  Ca94  1  0.60056353  0.39370219  0.08330620  1
  Ca2+  Ca95  1  0.60143911  0.41076597  0.74543275  1
  Ca2+  Ca96  1  0.94428324  0.91486069  0.08097746  1
  Ca2+  Ca97  1  0.43024308  0.40392872  0.90010193  1
  Ca2+  Ca98  1  0.05526370  0.41821579  0.25735271  1
  Ca2+  Ca99  1  0.22591573  0.91451830  0.07633818  1
  Ca2+  Ca100  1  0.75956925  0.91333013  0.58992751  1
  Ca2+  Ca101  1  0.59885745  0.91009575  0.74972365  1
  Ca2+  Ca102  1  0.24280675  0.40520740  0.42171566  1
  Ca2+  Ca103  1  0.41671006  0.42205749  0.60877451  1
  Ca2+  Ca104  1  0.90794506  0.41604256  0.07622224  1
  Ca2+  Ca105  1  0.60971681  0.90831384  0.75266648  1
  Ca2+  Ca106  1  0.91973977  0.90744868  0.41307321  1
  Ca2+  Ca107  1  0.40564002  0.40304838  0.25350242  1
  Mn3.34+  Mn108  1  0.08102519  0.33079507  0.08293974  1
  Mn3.34+  Mn109  1  0.07374211  0.33205346  0.42114795  1
  Mn3.34+  Mn110  1  0.07918828  0.33087390  0.75256822  1
  Mn3.34+  Mn111  1  0.08263113  0.83554722  0.08678403  1
  Mn3.34+  Mn112  1  0.08444468  0.83000473  0.41681210  1
  Mn3.34+  Mn113  1  0.08150064  0.83508593  0.75734014  1
  Mn3.34+  Mn114  1  0.41673129  0.32895934  0.08044292  1
  Mn3.34+  Mn115  1  0.41689067  0.32631157  0.42316723  1
  Mn3.34+  Mn116  1  0.41975708  0.33251459  0.74592987  1
  Mn3.34+  Mn117  1  0.41196966  0.83593678  0.08935328  1
  Mn3.34+  Mn118  1  0.41240024  0.83279020  0.41497874  1
  Mn3.34+  Mn119  1  0.41524787  0.83451566  0.74928331  1
  Mn3.34+  Mn120  1  0.75035776  0.32735326  0.08108128  1
  Mn3.34+  Mn121  1  0.76210630  0.33688312  0.42337506  1
  Mn3.34+  Mn122  1  0.74708574  0.33429776  0.75233452  1
  Mn3.34+  Mn123  1  0.75635330  0.83556898  0.08418076  1
  Mn3.34+  Mn124  1  0.75011633  0.83066325  0.41984919  1
  Mn3.34+  Mn125  1  0.76020542  0.83477709  0.75141768  1
  Mn3.34+  Mn126  1  0.24325870  0.32776410  0.24779018  1
  Mn3.34+  Mn127  1  0.24819501  0.32943989  0.58854066  1
  Mn3.34+  Mn128  1  0.24641513  0.33498343  0.91347845  1
  Mn3.34+  Mn129  1  0.24495880  0.83512351  0.24570358  1
  Mn3.34+  Mn130  1  0.24229770  0.83696527  0.58192586  1
  Mn3.34+  Mn131  1  0.24292305  0.83684463  0.91795008  1
  Mn3.34+  Mn132  1  0.58970545  0.32788524  0.24817028  1
  Mn3.34+  Mn133  1  0.58549048  0.33155309  0.59024379  1
  Mn3.34+  Mn134  1  0.58747912  0.33350165  0.91255612  1
  Mn3.34+  Mn135  1  0.58075001  0.82953627  0.24595623  1
  Mn3.34+  Mn136  1  0.58193280  0.83629254  0.58084718  1
  Mn3.34+  Mn137  1  0.58437460  0.83435458  0.91789131  1
  Mn3.34+  Mn138  1  0.90597250  0.33936531  0.25216401  1
  Mn3.34+  Mn139  1  0.90877849  0.33714724  0.58212070  1
  Mn3.34+  Mn140  1  0.91366755  0.33911157  0.90794335  1
  Mn3.34+  Mn141  1  0.92324978  0.83805623  0.24273936  1
  Mn3.34+  Mn142  1  0.92514376  0.83409114  0.58675443  1
  Mn3.34+  Mn143  1  0.92260227  0.83635909  0.91909322  1
  Mn3.34+  Mn144  1  0.24790290  0.16323042  0.58326181  1
  Mn3.34+  Mn145  1  0.93056878  0.66178127  0.58022912  1
  Mn3.34+  Mn146  1  0.60477266  0.66391890  0.90781344  1
  Mn3.34+  Mn147  1  0.58505247  0.17266036  0.92070905  1
  Mn3.34+  Mn148  1  0.40333840  0.68065518  0.08754784  1
  Mn3.34+  Mn149  1  0.23604178  0.66892502  0.25107763  1
  Mn3.34+  Mn150  1  0.75036327  0.16653520  0.41730181  1
  Mn3.34+  Mn151  1  0.23884377  0.17054582  0.24789347  1
  Mn3.34+  Mn152  1  0.24326360  0.67314871  0.57686763  1
  Mn3.34+  Mn153  1  0.41040892  0.17797113  0.42100356  1
  Mn3.34+  Mn154  1  0.58789523  0.66510900  0.57590679  1
  Mn3.34+  Mn155  1  0.40751939  0.66578807  0.42163367  1
  Mn3.34+  Mn156  1  0.24792830  0.16478894  0.24572379  1
  Mn3.34+  Mn157  1  0.23705225  0.66763592  0.91304248  1
  Mn3.34+  Mn158  1  0.41315047  0.67777465  0.08330520  1
  Mn3.34+  Mn159  1  0.91877640  0.17055862  0.91618062  1
  Mn3.34+  Mn160  1  0.57921461  0.67231570  0.25506210  1
  Mn3.34+  Mn161  1  0.91327639  0.66598952  0.91967855  1
  Mn3.34+  Mn162  1  0.92752775  0.16456890  0.91349473  1
  Mn3.34+  Mn163  1  0.91604197  0.16384818  0.24963702  1
  Mn3.34+  Mn164  1  0.75342490  0.66574316  0.41948797  1
  Mn3.34+  Mn165  1  0.41675028  0.66563121  0.74698690  1
  Mn3.34+  Mn166  1  0.08626140  0.16620161  0.74831480  1
  Mn3.34+  Mn167  1  0.74640910  0.16550905  0.74697000  1
  Mn3.34+  Mn168  1  0.74740476  0.16633657  0.09423964  1
  Mn3.34+  Mn169  1  0.07560678  0.16221757  0.74943464  1
  Mn3.34+  Mn170  1  0.41632045  0.16723335  0.08206824  1
  Mn3.34+  Mn171  1  0.91963712  0.66663967  0.58096046  1
  Mn3.34+  Mn172  1  0.59323332  0.66758224  0.90990561  1
  Mn3.34+  Mn173  1  0.58796951  0.67798954  0.25728606  1
  Mn3.34+  Mn174  1  0.75853895  0.67228065  0.08334198  1
  Mn3.34+  Mn175  1  0.25106093  0.67288677  0.91647008  1
  Mn3.34+  Mn176  1  0.08633312  0.16436430  0.08417066  1
  Mn3.34+  Mn177  1  0.57726075  0.65988710  0.57445129  1
  Mn3.34+  Mn178  1  0.75962700  0.16124309  0.41911866  1
  Mn3.34+  Mn179  1  0.07377883  0.16772162  0.41832976  1
  Mn3.34+  Mn180  1  0.58547486  -0.00149446  0.24308169  1
  Mn3.34+  Mn181  1  0.23570932  0.50190531  0.90724798  1
  Mn3.34+  Mn182  1  0.91549531  -0.00001506  0.59866861  1
  Mn3.34+  Mn183  1  0.59870525  0.00484624  0.24448577  1
  Mn3.34+  Mn184  1  0.08135050  0.49993259  0.07755629  1
  Mn3.34+  Mn185  1  0.75065709  -0.00173466  0.41960504  1
  Mn3.34+  Mn186  1  0.40853733  0.00470113  0.41785197  1
  Mn3.34+  Mn187  1  0.40258331  0.50101227  0.08273970  1
  Mn3.34+  Mn188  1  0.24530045  -0.00303006  0.25330557  1
  Mn3.34+  Mn189  1  0.24587483  0.50261038  0.24987221  1
  Mn3.34+  Mn190  1  0.42326316  -0.00061187  0.41858668  1
  Mn3.34+  Mn191  1  0.58248792  0.00182512  0.58485571  1
  Mn3.34+  Mn192  1  0.75533145  -0.00083032  0.08115238  1
  Mn3.34+  Mn193  1  0.24322615  0.50150742  0.58380111  1
  Mn3.34+  Mn194  1  0.22228579  0.50413222  0.90876905  1
  Mn3.34+  Mn195  1  0.40944719  0.00000978  0.08978831  1
  Mn3.34+  Mn196  1  0.92910372  0.50230901  0.58627301  1
  Mn3.34+  Mn197  1  0.62417493  0.49471866  0.92336847  1
  Mn3.34+  Mn198  1  0.92773216  -0.00044119  0.93053422  1
  Mn3.34+  Mn199  1  0.58993149  0.49921273  0.25625146  1
  Mn3.34+  Mn200  1  0.60213602  0.49504772  0.25377203  1
  Mn3.34+  Mn201  1  0.57556477  0.50111444  0.58613266  1
  Mn3.34+  Mn202  1  0.59531106  0.00862831  0.58731779  1
  Mn3.34+  Mn203  1  0.41371676  0.50072112  0.41802578  1
  Mn3.34+  Mn204  1  0.41348552  0.00456336  0.75038238  1
  Mn3.34+  Mn205  1  0.90699359  0.00173115  0.25921067  1
  Mn3.34+  Mn206  1  0.75009008  0.50122868  0.06809150  1
  Mn3.34+  Mn207  1  0.57125257  0.00175250  0.91699464  1
  Mn3.34+  Mn208  1  0.08337741  0.49705977  0.42541691  1
  Mn3.34+  Mn209  1  0.08493748  0.00012995  0.74956245  1
  Mn3.34+  Mn210  1  0.08108629  0.00147108  0.41293818  1
  Mn3.34+  Mn211  1  0.58236168  0.00556501  0.92088711  1
  Mn3.34+  Mn212  1  0.41522101  0.50483500  0.08357466  1
  Mn3.34+  Mn213  1  0.07908169  0.49620552  0.75007216  1
  Mn3.34+  Mn214  1  0.40032247  -0.00208969  0.74886497  1
  Mn3.34+  Mn215  1  0.23932574  0.00027220  0.59209875  1
  O2-  O216  1  -0.00107710  0.15711884  0.00269298  1
  O2-  O217  1  0.00543696  0.15839317  0.32476098  1
  O2-  O218  1  -0.00122544  0.17103418  0.66814436  1
  O2-  O219  1  -0.00816384  0.66504785  0.00202276  1
  O2-  O220  1  -0.00849164  0.68559137  0.33436695  1
  O2-  O221  1  -0.00675469  0.65810943  0.67493270  1
  O2-  O222  1  0.33054092  0.15048853  0.01117213  1
  O2-  O223  1  0.33213679  0.16710266  0.33054090  1
  O2-  O224  1  0.32564575  0.15774710  0.66019877  1
  O2-  O225  1  0.33720170  0.64330000  -0.00621795  1
  O2-  O226  1  0.32189321  0.65701720  0.34849247  1
  O2-  O227  1  0.32878105  0.65253881  0.66774301  1
  O2-  O228  1  0.67268383  0.16581360  -0.00000596  1
  O2-  O229  1  0.66559609  0.16564194  0.34403057  1
  O2-  O230  1  0.67148771  0.15464878  0.67129994  1
  O2-  O231  1  0.66694476  0.64795365  0.00710030  1
  O2-  O232  1  0.67630452  0.65108985  0.32826375  1
  O2-  O233  1  0.67485039  0.63981218  0.64764260  1
  O2-  O234  1  0.16538054  0.16570961  0.00672424  1
  O2-  O235  1  0.16612251  0.15468865  0.33566150  1
  O2-  O236  1  0.15859552  0.14142346  0.66001072  1
  O2-  O237  1  0.16045031  0.65811924  -0.00944515  1
  O2-  O238  1  0.16128217  0.67182691  0.33051556  1
  O2-  O239  1  0.16679075  0.67137892  0.66182373  1
  O2-  O240  1  0.49683211  0.15552460  0.00052653  1
  O2-  O241  1  0.49025971  0.17914148  0.33436974  1
  O2-  O242  1  0.49736556  0.17285548  0.66217841  1
  O2-  O243  1  0.50091717  0.64499643  0.00384523  1
  O2-  O244  1  0.48805931  0.66380385  0.32969417  1
  O2-  O245  1  0.51253484  0.63854182  0.67172938  1
  O2-  O246  1  0.83743099  0.15460133  -0.00228166  1
  O2-  O247  1  0.83501908  0.15776406  0.33489958  1
  O2-  O248  1  0.83131545  0.17139600  0.67242002  1
  O2-  O249  1  0.83430736  0.65283375  0.00859892  1
  O2-  O250  1  0.83623564  0.65949384  0.34125691  1
  O2-  O251  1  0.83611844  0.63861516  0.65329901  1
  O2-  O252  1  -0.00810338  0.34896459  0.00671695  1
  O2-  O253  1  0.00054541  0.34662349  0.32935511  1
  O2-  O254  1  -0.00308961  0.32701561  0.66798059  1
  O2-  O255  1  -0.00006001  0.84004361  0.00143791  1
  O2-  O256  1  -0.00536373  0.82609936  0.33741722  1
  O2-  O257  1  -0.00028574  0.82714349  0.67622408  1
  O2-  O258  1  0.33320704  0.35721077  -0.00442478  1
  O2-  O259  1  0.32873116  0.33384296  0.33550958  1
  O2-  O260  1  0.33652701  0.34586515  0.66301504  1
  O2-  O261  1  0.33628141  0.84266873  -0.00157767  1
  O2-  O262  1  0.33115745  0.84564989  0.33478137  1
  O2-  O263  1  0.32932180  0.85127303  0.66917441  1
  O2-  O264  1  0.66031654  0.32022800  0.00225530  1
  O2-  O265  1  0.65658158  0.33813265  0.34214548  1
  O2-  O266  1  0.66772575  0.34473658  0.66668630  1
  O2-  O267  1  0.66700768  0.85195077  0.00131136  1
  O2-  O268  1  0.66787439  0.83640243  0.33130708  1
  O2-  O269  1  0.67044063  0.84713709  0.66417773  1
  O2-  O270  1  0.16061866  0.34809520  -0.00428041  1
  O2-  O271  1  0.16381733  0.35282035  0.33247648  1
  O2-  O272  1  0.16486881  0.35211183  0.66726886  1
  O2-  O273  1  0.16851552  0.83558823  0.00494853  1
  O2-  O274  1  0.16829927  0.83446506  0.33737271  1
  O2-  O275  1  0.16512069  0.82952235  0.67316444  1
  O2-  O276  1  0.50209619  0.35059136  -0.00322025  1
  O2-  O277  1  0.49241461  0.33377316  0.32636317  1
  O2-  O278  1  0.50245496  0.35023265  0.66899274  1
  O2-  O279  1  0.49818548  0.83448034  0.00339023  1
  O2-  O280  1  0.50609225  0.82763217  0.33761136  1
  O2-  O281  1  0.50418981  0.86007747  0.66862982  1
  O2-  O282  1  0.83558609  0.33960141  -0.00334833  1
  O2-  O283  1  0.83104872  0.33581815  0.33424321  1
  O2-  O284  1  0.83633362  0.33445319  0.67166063  1
  O2-  O285  1  0.84023403  0.85499889  0.00423148  1
  O2-  O286  1  0.83865891  0.84161636  0.33374054  1
  O2-  O287  1  0.83934919  0.85544377  0.66834634  1
  O2-  O288  1  -0.00287062  0.17603917  0.16591127  1
  O2-  O289  1  0.00141924  0.18435819  0.49724366  1
  O2-  O290  1  0.00347968  0.19265355  0.83503419  1
  O2-  O291  1  -0.02035005  0.68348380  0.17425626  1
  O2-  O292  1  0.00399646  0.68763550  0.50419817  1
  O2-  O293  1  -0.00398603  0.67628752  0.84218907  1
  O2-  O294  1  0.33460517  0.18681115  0.17243129  1
  O2-  O295  1  0.32544317  0.18476251  0.49908771  1
  O2-  O296  1  0.32950089  0.17629736  0.83775284  1
  O2-  O297  1  0.34169966  0.67869250  0.18507090  1
  O2-  O298  1  0.34007196  0.67448817  0.51137484  1
  O2-  O299  1  0.33295030  0.68243722  0.83929861  1
  O2-  O300  1  0.67453877  0.18737389  0.16828282  1
  O2-  O301  1  0.67161577  0.17670504  0.49879512  1
  O2-  O302  1  0.67338423  0.18492387  0.84549418  1
  O2-  O303  1  0.66607016  0.68288861  0.16425721  1
  O2-  O304  1  0.66697894  0.68832292  0.49558511  1
  O2-  O305  1  0.64997635  0.67180599  0.80222107  1
  O2-  O306  1  0.16098390  0.19394843  0.16992881  1
  O2-  O307  1  0.16056214  0.17616427  0.49942050  1
  O2-  O308  1  0.16770920  0.17314498  0.82361689  1
  O2-  O309  1  0.16984563  0.67737299  0.17019564  1
  O2-  O310  1  0.17400444  0.68812987  0.49562704  1
  O2-  O311  1  0.17551132  0.67992046  0.81924663  1
  O2-  O312  1  0.49112960  0.18255735  0.16851307  1
  O2-  O313  1  0.49083453  0.19021483  0.49381071  1
  O2-  O314  1  0.49947951  0.18500810  0.85135472  1
  O2-  O315  1  0.51179318  0.68757185  0.15369422  1
  O2-  O316  1  0.49669857  0.68380717  0.49907319  1
  O2-  O317  1  0.48575572  0.67393078  0.85008611  1
  O2-  O318  1  0.83821171  0.17593239  0.16533566  1
  O2-  O319  1  0.83103852  0.17841891  0.50182688  1
  O2-  O320  1  0.83318961  0.18706184  0.84201752  1
  O2-  O321  1  0.82572646  0.67515619  0.17156890  1
  O2-  O322  1  0.83370513  0.68461307  0.50455077  1
  O2-  O323  1  0.83638007  0.67451538  0.83190927  1
  O2-  O324  1  0.00149924  0.32719256  0.16746260  1
  O2-  O325  1  -0.00077586  0.31608215  0.50687383  1
  O2-  O326  1  0.00487280  0.31225997  0.84648073  1
  O2-  O327  1  -0.00219999  0.81790960  0.16499240  1
  O2-  O328  1  -0.00288312  0.81610057  0.49563503  1
  O2-  O329  1  -0.00148269  0.81427748  0.83451061  1
  O2-  O330  1  0.33842025  0.32034650  0.17491690  1
  O2-  O331  1  0.32650299  0.31574146  0.49666012  1
  O2-  O332  1  0.33463262  0.32802732  0.83237404  1
  O2-  O333  1  0.32777457  0.81041221  0.15942608  1
  O2-  O334  1  0.33255654  0.82932012  0.49990177  1
  O2-  O335  1  0.33033852  0.82152984  0.82857376  1
  O2-  O336  1  0.66932115  0.31504281  0.16484933  1
  O2-  O337  1  0.66373271  0.32645461  0.50039157  1
  O2-  O338  1  0.65924144  0.31577819  0.82914353  1
  O2-  O339  1  0.66943775  0.81494752  0.17063331  1
  O2-  O340  1  0.66495529  0.81816421  0.49946404  1
  O2-  O341  1  0.66846820  0.82355746  0.82942830  1
  O2-  O342  1  0.16469011  0.31883380  0.16479531  1
  O2-  O343  1  0.16681416  0.32450723  0.49940993  1
  O2-  O344  1  0.16800920  0.32921956  0.83104602  1
  O2-  O345  1  0.16377195  0.82073312  0.16912465  1
  O2-  O346  1  0.16750110  0.81594248  0.49623935  1
  O2-  O347  1  0.16713688  0.81353059  0.83316784  1
  O2-  O348  1  0.50422593  0.31481360  0.16495555  1
  O2-  O349  1  0.50763437  0.32423164  0.49395867  1
  O2-  O350  1  0.49175704  0.32137918  0.84163415  1
  O2-  O351  1  0.49823736  0.80555344  0.16585062  1
  O2-  O352  1  0.49577001  0.82154323  0.50304932  1
  O2-  O353  1  0.50881264  0.82097992  0.82493740  1
  O2-  O354  1  0.83859828  0.33040024  0.15711446  1
  O2-  O355  1  0.83342719  0.30891017  0.50546621  1
  O2-  O356  1  0.83728116  0.31445316  0.83131329  1
  O2-  O357  1  0.83395734  0.81494666  0.17022797  1
  O2-  O358  1  0.83693327  0.83009826  0.49944970  1
  O2-  O359  1  0.83679609  0.82676467  0.83583940  1
  O2-  O360  1  0.09535043  0.08672700  0.11330712  1
  O2-  O361  1  0.08628096  0.08239857  0.44224287  1
  O2-  O362  1  0.07615204  0.08150149  0.78085108  1
  O2-  O363  1  0.07227832  0.57364330  0.09746218  1
  O2-  O364  1  0.07797706  0.57703068  0.43541297  1
  O2-  O365  1  0.11834803  0.56210688  0.81150954  1
  O2-  O366  1  0.41308199  0.08212454  0.12042660  1
  O2-  O367  1  0.41741741  0.08668520  0.44132424  1
  O2-  O368  1  0.41642293  0.08430528  0.76783125  1
  O2-  O369  1  0.43016067  0.58385690  0.12564182  1
  O2-  O370  1  0.40954455  0.58199610  0.44382265  1
  O2-  O371  1  0.39766921  0.58112378  0.77669439  1
  O2-  O372  1  0.76253031  0.08094155  0.09185879  1
  O2-  O373  1  0.74276892  0.08082700  0.45090372  1
  O2-  O374  1  0.75347339  0.08548710  0.77994473  1
  O2-  O375  1  0.72714631  0.57650536  0.12520482  1
  O2-  O376  1  0.75250853  0.58793713  0.45049619  1
  O2-  O377  1  0.75038693  0.56616182  0.78364187  1
  O2-  O378  1  0.24891751  0.07946847  0.21869267  1
  O2-  O379  1  0.25531998  0.07900028  0.55223979  1
  O2-  O380  1  0.29839748  0.05350949  0.87461575  1
  O2-  O381  1  0.25531065  0.58365610  0.24253318  1
  O2-  O382  1  0.23814488  0.58504555  0.56769389  1
  O2-  O383  1  0.26321906  0.58355050  0.87524390  1
  O2-  O384  1  0.57417698  0.08502135  0.23219960  1
  O2-  O385  1  0.56249495  0.08065268  0.54462149  1
  O2-  O386  1  0.60384612  0.08438946  0.89038957  1
  O2-  O387  1  0.56914812  0.58105578  0.21950778  1
  O2-  O388  1  0.58923333  0.57823369  0.53643735  1
  O2-  O389  1  0.56969298  0.57232509  0.87491205  1
  O2-  O390  1  0.92679178  0.07868945  0.22233881  1
  O2-  O391  1  0.91615199  0.06714541  0.54869782  1
  O2-  O392  1  0.89913648  0.07833772  0.89025534  1
  O2-  O393  1  0.91303089  0.57658140  0.22927056  1
  O2-  O394  1  0.91800501  0.58074175  0.53544754  1
  O2-  O395  1  0.92281506  0.58082731  0.89830779  1
  O2-  O396  1  0.09783774  0.42519091  0.12705811  1
  O2-  O397  1  0.09792395  0.41669067  0.45392931  1
  O2-  O398  1  0.06317855  0.41611193  0.77157745  1
  O2-  O399  1  0.08389806  0.91643270  0.10386741  1
  O2-  O400  1  0.06733984  0.91990983  0.43638859  1
  O2-  O401  1  0.08042233  0.91999958  0.77618042  1
  O2-  O402  1  0.41679917  0.41980462  0.11750474  1
  O2-  O403  1  0.39717046  0.41780319  0.44253919  1
  O2-  O404  1  0.41297923  0.41959599  0.77020915  1
  O2-  O405  1  0.43546922  0.92128235  0.10692586  1
  O2-  O406  1  0.42553362  0.91803577  0.43903713  1
  O2-  O407  1  0.41878347  0.92133659  0.79110595  1
  O2-  O408  1  0.75005489  0.41669566  0.08779368  1
  O2-  O409  1  0.74070501  0.41756645  0.43967359  1
  O2-  O410  1  0.74605437  0.41330558  0.77465320  1
  O2-  O411  1  0.74321835  0.92007380  0.11881228  1
  O2-  O412  1  0.74020340  0.91604556  0.44935509  1
  O2-  O413  1  0.74012034  0.91922858  0.78388405  1
  O2-  O414  1  0.26824782  0.42236824  0.21562180  1
  O2-  O415  1  0.25365023  0.41937019  0.55501058  1
  O2-  O416  1  0.26108924  0.42267416  0.88013324  1
  O2-  O417  1  0.25038879  0.91804460  0.21930478  1
  O2-  O418  1  0.24655575  0.92129909  0.55038798  1
  O2-  O419  1  0.25113775  0.91466292  0.89438503  1
  O2-  O420  1  0.55790347  0.41935255  0.21207346  1
  O2-  O421  1  0.56480539  0.42144981  0.55675643  1
  O2-  O422  1  0.56565465  0.42407484  0.88169036  1
  O2-  O423  1  0.59086451  0.91774968  0.21920295  1
  O2-  O424  1  0.58283577  0.92681982  0.53809237  1
  O2-  O425  1  0.57639771  0.92046275  0.88391186  1
  O2-  O426  1  0.93076427  0.42337335  0.21095337  1
  O2-  O427  1  0.93663098  0.42161465  0.57508376  1
  O2-  O428  1  0.91980751  0.41712444  0.88724612  1
  O2-  O429  1  0.90327788  0.92494331  0.21462481  1
  O2-  O430  1  0.91443869  0.92970199  0.54424883  1
  O2-  O431  1  0.92027581  0.92316700  0.88758384  1
  O2-  O432  1  -0.02418266  0.00714624  0.02494186  1
  O2-  O433  1  -0.00023815  -0.00246550  0.33074345  1
  O2-  O434  1  -0.01124622  -0.00468988  0.67885912  1
  O2-  O435  1  0.00612658  0.47668355  0.00615163  1
  O2-  O436  1  0.01323692  0.49338824  0.33561462  1
  O2-  O437  1  -0.01962539  0.51522532  0.70036532  1
  O2-  O438  1  0.31774028  -0.00841910  0.03062889  1
  O2-  O439  1  0.34111731  0.01189514  0.32387356  1
  O2-  O440  1  0.34777061  -0.00445577  0.64418891  1
  O2-  O441  1  0.33473266  0.50982084  -0.01682157  1
  O2-  O442  1  0.34818087  0.48917110  0.31503240  1
  O2-  O443  1  0.33904464  0.50379841  0.64169883  1
  O2-  O444  1  0.66110317  -0.00892886  0.00382481  1
  O2-  O445  1  0.66799486  -0.01367137  0.33518870  1
  O2-  O446  1  0.66465042  -0.02171824  0.66800408  1
  O2-  O447  1  0.63160433  0.49890865  0.04925806  1
  O2-  O448  1  0.68521541  0.50875940  0.32599662  1
  O2-  O449  1  0.66799449  0.51130435  0.65568418  1
  O2-  O450  1  0.16548072  -0.00894367  0.01486706  1
  O2-  O451  1  0.18460232  0.00177598  0.35831093  1
  O2-  O452  1  0.19156023  0.00043574  0.70240094  1
  O2-  O453  1  0.17208967  0.48672430  0.00836124  1
  O2-  O454  1  0.18001227  0.48286199  0.34731607  1
  O2-  O455  1  0.18175248  0.49705198  0.69097079  1
  O2-  O456  1  0.48201346  0.00275323  -0.00804207  1
  O2-  O457  1  0.50150653  0.00834162  0.32970395  1
  O2-  O458  1  0.50425981  -0.00406905  0.67324587  1
  O2-  O459  1  0.48789844  0.51342426  -0.01325992  1
  O2-  O460  1  0.50789222  0.48710400  0.34198923  1
  O2-  O461  1  0.50875806  0.51090534  0.66795453  1
  O2-  O462  1  0.81855141  -0.00156365  -0.02477009  1
  O2-  O463  1  0.84016918  -0.02591391  0.34796268  1
  O2-  O464  1  0.82252152  -0.00134662  0.64592848  1
  O2-  O465  1  0.86100088  0.50898848  0.06400511  1
  O2-  O466  1  0.84868275  0.53605101  0.35296639  1
  O2-  O467  1  0.83604554  0.51172971  0.65390812  1
  O2-  O468  1  0.58938774  0.75039464  0.93980539  1
  O2-  O469  1  0.25424871  0.75234614  0.27057289  1
  O2-  O470  1  0.75701721  0.75629789  0.72741597  1
  O2-  O471  1  0.08729777  0.25155482  0.38877117  1
  O2-  O472  1  0.42226757  0.74865079  0.72189950  1
  O2-  O473  1  0.58431684  0.25358403  0.60200798  1
  O2-  O474  1  0.90061825  0.74641234  0.61360152  1
  O2-  O475  1  0.40499040  0.74981357  0.40398196  1
  O2-  O476  1  0.41596436  0.25405552  0.73108361  1
  O2-  O477  1  0.10370661  0.24807371  0.72574315  1
  O2-  O478  1  0.26349834  0.75373314  0.60223566  1
  O2-  O479  1  0.90661483  0.75342246  0.93883423  1
  O2-  O480  1  0.07845532  0.75253875  0.07009297  1
  O2-  O481  1  0.26414687  0.75129547  0.94825048  1
  O2-  O482  1  0.23521237  0.24796961  0.60974590  1
  O2-  O483  1  0.58040614  0.74577513  0.61311287  1
  O2-  O484  1  0.74818732  0.75223923  0.04880194  1
  O2-  O485  1  0.75052620  0.24910301  0.39597653  1
  O2-  O486  1  0.91387115  0.25000226  0.26352549  1
  O2-  O487  1  0.07104625  0.25189816  0.05793539  1
  O2-  O488  1  0.77132666  0.24764059  0.06332253  1
  O2-  O489  1  0.75469683  0.74934689  0.39315649  1
  O2-  O490  1  0.74364441  0.25071575  0.73107793  1
  O2-  O491  1  0.40669207  0.24904307  0.04875197  1
  O2-  O492  1  0.25229844  0.25741005  0.93168684  1
