# generated using pymatgen
data_Ca108Mn108O277
_symmetry_space_group_name_H-M   'P 1'
_cell_length_a   16.02632467
_cell_length_b   22.30528012
_cell_length_c   16.38961756
_cell_angle_alpha   89.99588376
_cell_angle_beta   89.99634455
_cell_angle_gamma   90.00596734
_symmetry_Int_Tables_number   1
_chemical_formula_structural   Ca108Mn108O277
_chemical_formula_sum   'Ca108 Mn108 O277'
_cell_volume   5858.82375381
_cell_formula_units_Z   1
loop_
 _symmetry_equiv_pos_site_id
 _symmetry_equiv_pos_as_xyz
  1  'x, y, z'
loop_
 _atom_type_symbol
 _atom_type_oxidation_number
  Ca2+  2.0
  Mn3.34+  3.34
  O2-  -2.0
loop_
 _atom_site_type_symbol
 _atom_site_label
 _atom_site_symmetry_multiplicity
 _atom_site_fract_x
 _atom_site_fract_y
 _atom_site_fract_z
 _atom_site_occupancy
  Ca2+  Ca0  1  0.07920877  0.25896981  0.26351785  1
  Ca2+  Ca1  1  0.07409525  0.24840375  0.58202834  1
  Ca2+  Ca2  1  0.06554910  0.25750915  0.89818236  1
  Ca2+  Ca3  1  0.09814458  0.74184879  0.24781614  1
  Ca2+  Ca4  1  0.08426456  0.74612896  0.59002880  1
  Ca2+  Ca5  1  0.08419027  0.74788463  0.90584163  1
  Ca2+  Ca6  1  0.42997401  0.25919807  0.25128757  1
  Ca2+  Ca7  1  0.42195690  0.25719034  0.57720737  1
  Ca2+  Ca8  1  0.44535467  0.25752125  0.91668952  1
  Ca2+  Ca9  1  0.40549947  0.73783037  0.26334022  1
  Ca2+  Ca10  1  0.41606595  0.74139290  0.56061232  1
  Ca2+  Ca11  1  0.43128552  0.76170911  0.91754014  1
  Ca2+  Ca12  1  0.74265599  0.24367422  0.25726179  1
  Ca2+  Ca13  1  0.76050041  0.24639827  0.59363691  1
  Ca2+  Ca14  1  0.74629290  0.25129671  0.90144920  1
  Ca2+  Ca15  1  0.74642786  0.77082809  0.25561390  1
  Ca2+  Ca16  1  0.74596589  0.74321902  0.57956229  1
  Ca2+  Ca17  1  0.73853584  0.74374456  0.90960303  1
  Ca2+  Ca18  1  0.23847517  0.26545758  0.08997089  1
  Ca2+  Ca19  1  0.22806342  0.25811833  0.42501938  1
  Ca2+  Ca20  1  0.22077528  0.24938378  0.73595196  1
  Ca2+  Ca21  1  0.25105928  0.75437008  0.07481004  1
  Ca2+  Ca22  1  0.26392182  0.74141398  0.42211388  1
  Ca2+  Ca23  1  0.24429337  0.75118040  0.75459916  1
  Ca2+  Ca24  1  0.60258080  0.24373017  0.06279798  1
  Ca2+  Ca25  1  0.61555173  0.23290372  0.41532726  1
  Ca2+  Ca26  1  0.61634429  0.24161121  0.76349126  1
  Ca2+  Ca27  1  0.58614610  0.75604092  0.05943963  1
  Ca2+  Ca28  1  0.58596401  0.75370453  0.41600578  1
  Ca2+  Ca29  1  0.59345539  0.74674153  0.76788512  1
  Ca2+  Ca30  1  0.90407882  0.26141556  0.07404979  1
  Ca2+  Ca31  1  0.91495664  0.24678958  0.43330006  1
  Ca2+  Ca32  1  0.91682023  0.24502117  0.74780130  1
  Ca2+  Ca33  1  0.91116934  0.75278348  0.07062599  1
  Ca2+  Ca34  1  0.89161892  0.74547664  0.41935239  1
  Ca2+  Ca35  1  0.90844077  0.73405101  0.76142221  1
  Ca2+  Ca36  1  0.07565253  0.07881325  0.27115437  1
  Ca2+  Ca37  1  0.44437098  0.07675323  0.26395126  1
  Ca2+  Ca38  1  0.08720183  0.07896109  0.27076671  1
  Ca2+  Ca39  1  0.42316427  0.10387383  0.57320657  1
  Ca2+  Ca40  1  0.92267322  0.58526330  0.41681943  1
  Ca2+  Ca41  1  0.25573101  0.60481238  0.10743196  1
  Ca2+  Ca42  1  0.73506654  0.10277698  0.91928560  1
  Ca2+  Ca43  1  0.22910314  0.11394078  0.44035535  1
  Ca2+  Ca44  1  0.57160018  0.60328637  0.43139279  1
  Ca2+  Ca45  1  0.21205590  0.56909883  0.72923220  1
  Ca2+  Ca46  1  0.75191260  0.58305982  0.27610987  1
  Ca2+  Ca47  1  0.71011951  0.07850933  0.24329026  1
  Ca2+  Ca48  1  0.89344582  0.07616751  0.07379530  1
  Ca2+  Ca49  1  0.07115685  0.09770683  0.90022068  1
  Ca2+  Ca50  1  0.22211608  0.57049754  0.72688311  1
  Ca2+  Ca51  1  0.58204116  0.60325827  0.43010605  1
  Ca2+  Ca52  1  0.04031312  0.59815834  0.91292734  1
  Ca2+  Ca53  1  0.42797017  0.60081793  0.93491001  1
  Ca2+  Ca54  1  0.41427082  0.59404364  0.57059271  1
  Ca2+  Ca55  1  0.91084140  0.10719837  0.74717534  1
  Ca2+  Ca56  1  0.46507975  0.09050254  0.91281273  1
  Ca2+  Ca57  1  0.90732677  0.10618441  0.43378352  1
  Ca2+  Ca58  1  0.08402607  0.09762678  0.89982387  1
  Ca2+  Ca59  1  0.27602990  0.60144469  0.40698912  1
  Ca2+  Ca60  1  0.73939217  0.58131128  0.27483331  1
  Ca2+  Ca61  1  0.41027420  0.10479734  0.57348744  1
  Ca2+  Ca62  1  0.45537079  0.08051898  0.26015490  1
  Ca2+  Ca63  1  0.60389756  0.10842361  0.75723532  1
  Ca2+  Ca64  1  0.07975478  0.57494436  0.57659751  1
  Ca2+  Ca65  1  0.10877634  0.59303261  0.27159260  1
  Ca2+  Ca66  1  0.24649012  0.60611447  0.10282701  1
  Ca2+  Ca67  1  0.75739098  0.11122739  0.58130157  1
  Ca2+  Ca68  1  0.08555147  0.11698536  0.57950814  1
  Ca2+  Ca69  1  0.24104647  0.11546664  0.43718216  1
  Ca2+  Ca70  1  0.72415726  0.10292329  0.91867561  1
  Ca2+  Ca71  1  0.43867107  0.60290151  0.93290574  1
  Ca2+  Ca72  1  0.08175434  0.41506810  0.25313635  1
  Ca2+  Ca73  1  0.58517523  0.40615937  0.73840408  1
  Ca2+  Ca74  1  0.74235573  0.40495558  0.24635559  1
  Ca2+  Ca75  1  0.40090145  0.41224317  0.58962135  1
  Ca2+  Ca76  1  0.08815580  0.90649262  0.24744613  1
  Ca2+  Ca77  1  0.40688105  0.40669779  0.25006326  1
  Ca2+  Ca78  1  0.07394487  0.89907829  0.57516217  1
  Ca2+  Ca79  1  0.57207252  0.40495213  0.42737900  1
  Ca2+  Ca80  1  0.75403614  0.40535580  0.24574168  1
  Ca2+  Ca81  1  0.08064798  0.41348485  0.89866037  1
  Ca2+  Ca82  1  0.91167548  0.89905167  0.41663664  1
  Ca2+  Ca83  1  0.08910270  0.90078416  0.92394192  1
  Ca2+  Ca84  1  0.93204314  0.42128695  0.04828040  1
  Ca2+  Ca85  1  0.10086726  0.42257038  0.60511024  1
  Ca2+  Ca86  1  0.93216836  0.42721574  0.74316641  1
  Ca2+  Ca87  1  0.91648193  0.89551300  0.75442024  1
  Ca2+  Ca88  1  0.59637724  0.40660539  0.73947349  1
  Ca2+  Ca89  1  0.25756931  0.90539242  0.07594661  1
  Ca2+  Ca90  1  0.24411440  0.90231347  0.40937530  1
  Ca2+  Ca91  1  0.26093582  0.89982585  0.76141834  1
  Ca2+  Ca92  1  0.07589590  0.90442157  0.24580785  1
  Ca2+  Ca93  1  0.25682870  0.90297209  0.41008700  1
  Ca2+  Ca94  1  0.09270982  0.41527834  0.25472335  1
  Ca2+  Ca95  1  0.89688740  0.91026992  0.07482863  1
  Ca2+  Ca96  1  0.93688655  0.41651400  0.42670867  1
  Ca2+  Ca97  1  0.92484719  0.41862692  0.42559422  1
  Ca2+  Ca98  1  0.90411031  0.89606850  0.75627978  1
  Ca2+  Ca99  1  0.11017627  0.42499482  0.60172878  1
  Ca2+  Ca100  1  0.43322088  0.90515836  0.25109744  1
  Ca2+  Ca101  1  0.57296188  0.40031649  0.08013772  1
  Ca2+  Ca102  1  0.75900387  0.41718532  0.59058314  1
  Ca2+  Ca103  1  0.58351073  0.40468282  0.42715902  1
  Ca2+  Ca104  1  0.43378664  0.89993430  0.58787702  1
  Ca2+  Ca105  1  0.25291480  0.41220243  0.06901373  1
  Ca2+  Ca106  1  0.42136720  0.90038296  0.58910539  1
  Ca2+  Ca107  1  0.58507932  0.91572754  0.38155128  1
  Mn3.34+  Mn108  1  0.08278835  0.33839719  0.07903678  1
  Mn3.34+  Mn109  1  0.08596648  0.33674732  0.42508938  1
  Mn3.34+  Mn110  1  0.08331339  0.33546716  0.74932865  1
  Mn3.34+  Mn111  1  0.08320937  0.82757979  0.08394182  1
  Mn3.34+  Mn112  1  0.08138666  0.82229802  0.41756418  1
  Mn3.34+  Mn113  1  0.08442614  0.82845112  0.75080813  1
  Mn3.34+  Mn114  1  0.41426201  0.33322655  0.07904948  1
  Mn3.34+  Mn115  1  0.40930232  0.33352769  0.41966854  1
  Mn3.34+  Mn116  1  0.41043869  0.32742050  0.75229799  1
  Mn3.34+  Mn117  1  0.42433033  0.83926554  0.08561266  1
  Mn3.34+  Mn118  1  0.42182870  0.82822885  0.41617237  1
  Mn3.34+  Mn119  1  0.42327007  0.83293530  0.75481241  1
  Mn3.34+  Mn120  1  0.75163053  0.33340846  0.07708606  1
  Mn3.34+  Mn121  1  0.75282185  0.33310272  0.42193396  1
  Mn3.34+  Mn122  1  0.75960753  0.33748663  0.75153903  1
  Mn3.34+  Mn123  1  0.74158539  0.84430777  0.08159612  1
  Mn3.34+  Mn124  1  0.74556672  0.83030653  0.41645834  1
  Mn3.34+  Mn125  1  0.74470436  0.82480923  0.74864283  1
  Mn3.34+  Mn126  1  0.25170810  0.33677650  0.25139274  1
  Mn3.34+  Mn127  1  0.25149237  0.33512460  0.58331871  1
  Mn3.34+  Mn128  1  0.25502432  0.33189352  0.90811543  1
  Mn3.34+  Mn129  1  0.25552272  0.82473937  0.24224510  1
  Mn3.34+  Mn130  1  0.24669735  0.82627033  0.58530058  1
  Mn3.34+  Mn131  1  0.25645510  0.83119013  0.91800653  1
  Mn3.34+  Mn132  1  0.57993187  0.33285397  0.24548585  1
  Mn3.34+  Mn133  1  0.58264906  0.33216616  0.58224527  1
  Mn3.34+  Mn134  1  0.58748312  0.33447112  0.91296800  1
  Mn3.34+  Mn135  1  0.58620451  0.83819644  0.24002677  1
  Mn3.34+  Mn136  1  0.59171689  0.83064958  0.58386208  1
  Mn3.34+  Mn137  1  0.58789805  0.83845164  0.91397323  1
  Mn3.34+  Mn138  1  0.91554933  0.33682496  0.24704784  1
  Mn3.34+  Mn139  1  0.91882188  0.33928875  0.58641759  1
  Mn3.34+  Mn140  1  0.91447845  0.34056345  0.90943454  1
  Mn3.34+  Mn141  1  0.91161024  0.83493048  0.24495813  1
  Mn3.34+  Mn142  1  0.91095014  0.83165715  0.57998195  1
  Mn3.34+  Mn143  1  0.91325003  0.83019061  0.91873405  1
  Mn3.34+  Mn144  1  0.91721604  0.65995564  0.58616175  1
  Mn3.34+  Mn145  1  0.42658156  0.16201883  0.07672154  1
  Mn3.34+  Mn146  1  0.07760924  0.66389997  0.07994246  1
  Mn3.34+  Mn147  1  0.25147419  0.16487008  0.24345590  1
  Mn3.34+  Mn148  1  0.24837253  0.17492102  0.91526826  1
  Mn3.34+  Mn149  1  0.24386507  0.66247416  0.91196708  1
  Mn3.34+  Mn150  1  0.26041087  0.16731444  0.91365500  1
  Mn3.34+  Mn151  1  0.59205456  0.65623492  0.58964387  1
  Mn3.34+  Mn152  1  0.91413114  0.66990521  0.24746964  1
  Mn3.34+  Mn153  1  0.91420353  0.16836667  0.25321133  1
  Mn3.34+  Mn154  1  0.58873808  0.17124090  0.24662406  1
  Mn3.34+  Mn155  1  0.08429963  0.15989844  0.08694426  1
  Mn3.34+  Mn156  1  0.57309136  0.66524532  0.24023683  1
  Mn3.34+  Mn157  1  0.90471088  0.16304995  0.25033685  1
  Mn3.34+  Mn158  1  0.26081047  0.17119752  0.24587027  1
  Mn3.34+  Mn159  1  0.74723582  0.16288871  0.08804044  1
  Mn3.34+  Mn160  1  0.42162575  0.17571342  0.74886704  1
  Mn3.34+  Mn161  1  0.58314712  0.67099066  0.24205664  1
  Mn3.34+  Mn162  1  0.40891336  0.16863642  0.74977297  1
  Mn3.34+  Mn163  1  0.08749721  0.66292984  0.42426934  1
  Mn3.34+  Mn164  1  0.91171176  0.16886222  0.91586448  1
  Mn3.34+  Mn165  1  0.74806601  0.65875006  0.75968331  1
  Mn3.34+  Mn166  1  0.92427934  0.66468379  0.24578569  1
  Mn3.34+  Mn167  1  0.24653436  0.66143420  0.57828851  1
  Mn3.34+  Mn168  1  0.59198539  0.17353517  0.58149802  1
  Mn3.34+  Mn169  1  0.42001284  0.15998385  0.08729864  1
  Mn3.34+  Mn170  1  0.07362960  0.16501782  0.08517152  1
  Mn3.34+  Mn171  1  0.42399576  0.17505558  0.41507460  1
  Mn3.34+  Mn172  1  0.41282845  0.67527879  0.08755468  1
  Mn3.34+  Mn173  1  0.42312852  0.66381415  0.74932566  1
  Mn3.34+  Mn174  1  0.75590834  0.66077164  0.07498611  1
  Mn3.34+  Mn175  1  0.07758702  0.66215922  0.75516581  1
  Mn3.34+  Mn176  1  0.90777836  0.65452536  0.58500140  1
  Mn3.34+  Mn177  1  0.74444390  0.66885206  0.07514080  1
  Mn3.34+  Mn178  1  0.41214903  0.66812408  0.74853614  1
  Mn3.34+  Mn179  1  0.91773830  0.17027609  0.58628812  1
  Mn3.34+  Mn180  1  0.59834493  0.00189306  0.57396879  1
  Mn3.34+  Mn181  1  0.07456435  -0.00404890  0.42006541  1
  Mn3.34+  Mn182  1  0.25720612  0.00153708  0.58335026  1
  Mn3.34+  Mn183  1  0.41933382  0.49930225  0.41545681  1
  Mn3.34+  Mn184  1  0.73490066  -0.01185740  0.75737973  1
  Mn3.34+  Mn185  1  0.75882895  0.50217623  0.06508435  1
  Mn3.34+  Mn186  1  0.07481345  0.00060334  0.74879930  1
  Mn3.34+  Mn187  1  0.59060495  0.50816204  0.90765585  1
  Mn3.34+  Mn188  1  0.41912427  0.50359672  0.08338572  1
  Mn3.34+  Mn189  1  0.25229145  0.49964881  0.92188747  1
  Mn3.34+  Mn190  1  0.08885004  -0.00562488  0.75064137  1
  Mn3.34+  Mn191  1  0.59993672  0.50165734  0.90908417  1
  Mn3.34+  Mn192  1  0.74442992  0.50060519  0.42416386  1
  Mn3.34+  Mn193  1  0.74988540  0.50196749  0.73332341  1
  Mn3.34+  Mn194  1  0.42738117  -0.00120880  0.75427729  1
  Mn3.34+  Mn195  1  0.25504394  0.50055334  0.26110597  1
  Mn3.34+  Mn196  1  0.42131090  0.49930144  0.75357643  1
  Mn3.34+  Mn197  1  0.92171705  0.49969673  0.24729119  1
  Mn3.34+  Mn198  1  0.89845016  -0.00475878  0.24792125  1
  Mn3.34+  Mn199  1  0.26171934  -0.00409263  0.24566820  1
  Mn3.34+  Mn200  1  0.76867804  0.50961148  0.06301710  1
  Mn3.34+  Mn201  1  0.25423908  0.00189981  0.91961196  1
  Mn3.34+  Mn202  1  0.42024893  -0.00224109  0.41828987  1
  Mn3.34+  Mn203  1  0.09495134  0.00152516  0.06980450  1
  Mn3.34+  Mn204  1  0.40649697  0.49425695  0.75587160  1
  Mn3.34+  Mn205  1  0.59457981  -0.00997445  0.93679811  1
  Mn3.34+  Mn206  1  0.74680850  -0.00474897  0.76035099  1
  Mn3.34+  Mn207  1  0.91305596  -0.00014910  0.92099380  1
  Mn3.34+  Mn208  1  0.56782289  0.49946157  0.24958455  1
  Mn3.34+  Mn209  1  0.24548212  -0.00197064  0.58047299  1
  Mn3.34+  Mn210  1  0.58593881  0.00610260  0.57385073  1
  Mn3.34+  Mn211  1  0.42446202  -0.00689773  0.07001093  1
  Mn3.34+  Mn212  1  0.90949097  -0.00151878  0.58567050  1
  Mn3.34+  Mn213  1  0.75120749  -0.00518507  0.41435678  1
  Mn3.34+  Mn214  1  0.07831736  0.51018442  0.06740592  1
  Mn3.34+  Mn215  1  0.73907417  0.00192328  0.41598503  1
  O2-  O216  1  -0.00335105  0.14384952  0.00032685  1
  O2-  O217  1  -0.00386068  0.14600626  0.33101551  1
  O2-  O218  1  -0.00348431  0.16001020  0.66512077  1
  O2-  O219  1  0.01174171  0.69341334  0.00072340  1
  O2-  O220  1  0.00439016  0.66112218  0.33763277  1
  O2-  O221  1  0.00359782  0.65421680  0.66078071  1
  O2-  O222  1  0.33741532  0.17731724  -0.00201401  1
  O2-  O223  1  0.33451775  0.15611599  0.33791058  1
  O2-  O224  1  0.34196422  0.17519486  0.65794680  1
  O2-  O225  1  0.32640086  0.65433388  0.00086566  1
  O2-  O226  1  0.31598028  0.67941902  0.33044562  1
  O2-  O227  1  0.33112486  0.64141901  0.67301775  1
  O2-  O228  1  0.66716514  0.15844952  0.01165566  1
  O2-  O229  1  0.66504719  0.15876397  0.32218590  1
  O2-  O230  1  0.66411477  0.15958888  0.66247051  1
  O2-  O231  1  0.66358944  0.66345917  0.00116660  1
  O2-  O232  1  0.66124915  0.65680944  0.32735632  1
  O2-  O233  1  0.66215965  0.68042871  0.66703029  1
  O2-  O234  1  0.16900002  0.15502996  -0.00178825  1
  O2-  O235  1  0.16580485  0.14807590  0.32912862  1
  O2-  O236  1  0.16347970  0.18300213  0.64976383  1
  O2-  O237  1  0.16460211  0.64449909  -0.00005504  1
  O2-  O238  1  0.16255481  0.67784736  0.34342062  1
  O2-  O239  1  0.16383114  0.65003058  0.66577779  1
  O2-  O240  1  0.49831406  0.16807587  -0.00697198  1
  O2-  O241  1  0.49329837  0.16353386  0.32286382  1
  O2-  O242  1  0.49811589  0.15334541  0.66381107  1
  O2-  O243  1  0.48354562  0.68120337  -0.00005727  1
  O2-  O244  1  0.50091953  0.65489328  0.32956418  1
  O2-  O245  1  0.49517609  0.66766703  0.65942898  1
  O2-  O246  1  0.83079889  0.15000022  0.00107255  1
  O2-  O247  1  0.82742741  0.14952776  0.32940773  1
  O2-  O248  1  0.83607871  0.16394873  0.66575388  1
  O2-  O249  1  0.83570013  0.67462701  -0.00122400  1
  O2-  O250  1  0.83884787  0.64950471  0.33199459  1
  O2-  O251  1  0.83121156  0.65297070  0.66751590  1
  O2-  O252  1  0.00643555  0.34454244  -0.00851093  1
  O2-  O253  1  0.00158344  0.35631371  0.33375028  1
  O2-  O254  1  0.01013669  0.35463854  0.65595066  1
  O2-  O255  1  0.00239831  0.82842448  -0.00157168  1
  O2-  O256  1  0.00292711  0.84457298  0.33131016  1
  O2-  O257  1  -0.00212354  0.84616096  0.66785712  1
  O2-  O258  1  0.33259686  0.31196530  -0.00142344  1
  O2-  O259  1  0.34042995  0.32794538  0.32768240  1
  O2-  O260  1  0.33426441  0.31258327  0.66157499  1
  O2-  O261  1  0.33413978  0.82985635  0.00715214  1
  O2-  O262  1  0.33343455  0.84430835  0.33230806  1
  O2-  O263  1  0.33008879  0.84924819  0.66045112  1
  O2-  O264  1  0.66299935  0.34679055  0.00438546  1
  O2-  O265  1  0.66578948  0.35405517  0.33522425  1
  O2-  O266  1  0.67333853  0.34889200  0.66137977  1
  O2-  O267  1  0.66773526  0.83619557  -0.00182830  1
  O2-  O268  1  0.66411252  0.84149347  0.33410719  1
  O2-  O269  1  0.66636284  0.81657937  0.66599142  1
  O2-  O270  1  0.17477159  0.33598788  0.00377582  1
  O2-  O271  1  0.16502385  0.35332600  0.33492904  1
  O2-  O272  1  0.16945152  0.33638699  0.66547015  1
  O2-  O273  1  0.16889441  0.83757477  0.00407215  1
  O2-  O274  1  0.16826826  0.82636317  0.32919125  1
  O2-  O275  1  0.16507978  0.84901187  0.66572217  1
  O2-  O276  1  0.50156944  0.33151198  0.00011622  1
  O2-  O277  1  0.49691039  0.34779777  0.33386591  1
  O2-  O278  1  0.49446855  0.34823394  0.66328716  1
  O2-  O279  1  0.49998127  0.82993556  0.00088181  1
  O2-  O280  1  0.50184917  0.83960300  0.33721643  1
  O2-  O281  1  0.49760351  0.83150741  0.65938152  1
  O2-  O282  1  0.84243357  0.34661669  0.00685785  1
  O2-  O283  1  0.83582870  0.36041055  0.33801169  1
  O2-  O284  1  0.84080299  0.35486493  0.67095925  1
  O2-  O285  1  0.83843439  0.83066445  0.00387182  1
  O2-  O286  1  0.83382857  0.84565114  0.33301380  1
  O2-  O287  1  0.83458081  0.84349538  0.66764158  1
  O2-  O288  1  -0.00340342  0.18583833  0.17572310  1
  O2-  O289  1  -0.00428015  0.17569140  0.50371792  1
  O2-  O290  1  -0.00284285  0.17484705  0.84311714  1
  O2-  O291  1  0.00139829  0.68650574  0.16663068  1
  O2-  O292  1  -0.00122634  0.68166014  0.50113296  1
  O2-  O293  1  0.00399997  0.67931723  0.83413718  1
  O2-  O294  1  0.33822407  0.19553338  0.15877553  1
  O2-  O295  1  0.34146433  0.18187731  0.49323669  1
  O2-  O296  1  0.33169644  0.18684696  0.82861761  1
  O2-  O297  1  0.32488731  0.68693411  0.15564404  1
  O2-  O298  1  0.33083997  0.67086864  0.50521871  1
  O2-  O299  1  0.34155404  0.67202544  0.84225190  1
  O2-  O300  1  0.66943860  0.18503094  0.16786107  1
  O2-  O301  1  0.67466813  0.18199063  0.51248903  1
  O2-  O302  1  0.66795754  0.16928020  0.84351040  1
  O2-  O303  1  0.67072139  0.67677694  0.16711750  1
  O2-  O304  1  0.65749337  0.67678382  0.50457832  1
  O2-  O305  1  0.67033309  0.67560567  0.82869439  1
  O2-  O306  1  0.16110038  0.18297223  0.17044640  1
  O2-  O307  1  0.17395704  0.18267328  0.50313419  1
  O2-  O308  1  0.16072488  0.18414710  0.84377147  1
  O2-  O309  1  0.16535524  0.68292827  0.15271472  1
  O2-  O310  1  0.16356946  0.68709142  0.50341442  1
  O2-  O311  1  0.17055276  0.67721373  0.82664705  1
  O2-  O312  1  0.50074431  0.18961841  0.16513167  1
  O2-  O313  1  0.49966948  0.18539163  0.50250704  1
  O2-  O314  1  0.50017815  0.18130156  0.82811572  1
  O2-  O315  1  0.49724843  0.69311211  0.16382858  1
  O2-  O316  1  0.51164419  0.67804262  0.50837771  1
  O2-  O317  1  0.49347565  0.68232118  0.83401925  1
  O2-  O318  1  0.83599224  0.18586567  0.16449366  1
  O2-  O319  1  0.83753620  0.17916975  0.50629284  1
  O2-  O320  1  0.83101271  0.17158425  0.84314927  1
  O2-  O321  1  0.83171285  0.67579941  0.16145955  1
  O2-  O322  1  0.83902967  0.66775126  0.49800587  1
  O2-  O323  1  0.82747902  0.67229664  0.83545587  1
  O2-  O324  1  0.00450290  0.32956432  0.17369008  1
  O2-  O325  1  -0.00896053  0.32357425  0.49316480  1
  O2-  O326  1  -0.00533799  0.32404655  0.82402846  1
  O2-  O327  1  0.00771711  0.81473545  0.17229375  1
  O2-  O328  1  0.00221988  0.81596289  0.50169484  1
  O2-  O329  1  -0.00352335  0.81712337  0.83215001  1
  O2-  O330  1  0.33417347  0.32000346  0.16566187  1
  O2-  O331  1  0.32912752  0.31160702  0.50009993  1
  O2-  O332  1  0.33360292  0.29767330  0.83166027  1
  O2-  O333  1  0.33767511  0.80964843  0.16637945  1
  O2-  O334  1  0.33228288  0.82895471  0.49976492  1
  O2-  O335  1  0.33172611  0.82390622  0.82955433  1
  O2-  O336  1  0.67218178  0.32669180  0.17240911  1
  O2-  O337  1  0.65993266  0.32165905  0.49243979  1
  O2-  O338  1  0.66437105  0.33126865  0.82082373  1
  O2-  O339  1  0.66451728  0.82296669  0.16356798  1
  O2-  O340  1  0.66359543  0.81328440  0.49846915  1
  O2-  O341  1  0.67119238  0.82029084  0.83221468  1
  O2-  O342  1  0.16432897  0.33632846  0.16939443  1
  O2-  O343  1  0.16101221  0.32022327  0.51118258  1
  O2-  O344  1  0.16222059  0.32006861  0.83640591  1
  O2-  O345  1  0.16730797  0.80872313  0.16563571  1
  O2-  O346  1  0.17180198  0.81400080  0.49490592  1
  O2-  O347  1  0.16719496  0.82519294  0.83383170  1
  O2-  O348  1  0.50012375  0.31789908  0.16194049  1
  O2-  O349  1  0.50116755  0.31817970  0.49300703  1
  O2-  O350  1  0.50760506  0.31945025  0.81966900  1
  O2-  O351  1  0.49681773  0.81871847  0.17086453  1
  O2-  O352  1  0.49644035  0.81906431  0.50689059  1
  O2-  O353  1  0.50316131  0.82163214  0.83031624  1
  O2-  O354  1  0.82608335  0.32060968  0.17569874  1
  O2-  O355  1  0.83564682  0.32895679  0.50106448  1
  O2-  O356  1  0.83387866  0.32062433  0.83426027  1
  O2-  O357  1  0.83775242  0.82323179  0.16345513  1
  O2-  O358  1  0.83525031  0.82161919  0.49442356  1
  O2-  O359  1  0.84168155  0.81932251  0.82879815  1
  O2-  O360  1  0.08219116  0.07692556  0.13469462  1
  O2-  O361  1  0.10418997  0.07546629  0.44857316  1
  O2-  O362  1  0.07735081  0.08131396  0.76948299  1
  O2-  O363  1  0.09908774  0.57851165  0.12861365  1
  O2-  O364  1  0.08711830  0.58319976  0.43105532  1
  O2-  O365  1  0.08913258  0.58094543  0.78397169  1
  O2-  O366  1  0.41789537  0.07505672  0.12848841  1
  O2-  O367  1  0.40881507  0.08175935  0.44217958  1
  O2-  O368  1  0.42496368  0.08268308  0.78133584  1
  O2-  O369  1  0.39939248  0.58510511  0.10465186  1
  O2-  O370  1  0.43263664  0.57842973  0.43919610  1
  O2-  O371  1  0.42782702  0.57790486  0.79289080  1
  O2-  O372  1  0.75910482  0.08431911  0.11582091  1
  O2-  O373  1  0.76184710  0.07478793  0.45635574  1
  O2-  O374  1  0.74889494  0.07446071  0.78565143  1
  O2-  O375  1  0.74792377  0.57910172  0.12976717  1
  O2-  O376  1  0.71286223  0.57909771  0.41386194  1
  O2-  O377  1  0.74149791  0.57121995  0.77569557  1
  O2-  O378  1  0.25590791  0.08037578  0.21824649  1
  O2-  O379  1  0.27280274  0.08372567  0.56378099  1
  O2-  O380  1  0.23654480  0.08283836  0.88352630  1
  O2-  O381  1  0.24708530  0.57998467  0.23654451  1
  O2-  O382  1  0.24243931  0.58313638  0.55163464  1
  O2-  O383  1  0.25858539  0.57497062  0.87003843  1
  O2-  O384  1  0.57627532  0.08852792  0.21999963  1
  O2-  O385  1  0.56934808  0.08677201  0.54738734  1
  O2-  O386  1  0.59119991  0.05483772  0.86925481  1
  O2-  O387  1  0.60314064  0.58142466  0.22562979  1
  O2-  O388  1  0.57091096  0.57886674  0.56249819  1
  O2-  O389  1  0.56346257  0.58449420  0.88814700  1
  O2-  O390  1  0.92751452  0.07884470  0.21152647  1
  O2-  O391  1  0.91319057  0.08136121  0.56739016  1
  O2-  O392  1  0.92895884  0.07927075  0.88526233  1
  O2-  O393  1  0.91076597  0.58278040  0.22140283  1
  O2-  O394  1  0.93158325  0.57669866  0.55101148  1
  O2-  O395  1  0.90073776  0.58201636  0.90861503  1
  O2-  O396  1  0.07605010  0.43224451  0.11369106  1
  O2-  O397  1  0.07076908  0.42142764  0.46451201  1
  O2-  O398  1  0.08163067  0.41941891  0.76200532  1
  O2-  O399  1  0.09483899  0.91899555  0.11242831  1
  O2-  O400  1  0.10748145  0.91386336  0.43527312  1
  O2-  O401  1  0.07222895  0.91553976  0.78439110  1
  O2-  O402  1  0.41627362  0.42210871  0.11050462  1
  O2-  O403  1  0.42875061  0.42068912  0.45492831  1
  O2-  O404  1  0.40577579  0.41404497  0.77175268  1
  O2-  O405  1  0.38901412  0.92416093  0.12545993  1
  O2-  O406  1  0.41472372  0.91645876  0.45320128  1
  O2-  O407  1  0.41421149  0.91551752  0.74845106  1
  O2-  O408  1  0.74703572  0.42402972  0.11387095  1
  O2-  O409  1  0.74050050  0.41954722  0.45151018  1
  O2-  O410  1  0.73873964  0.42990704  0.78246284  1
  O2-  O411  1  0.76255018  0.91917770  0.09893324  1
  O2-  O412  1  0.73774088  0.91715149  0.44526234  1
  O2-  O413  1  0.76347656  0.90929727  0.77246694  1
  O2-  O414  1  0.26033743  0.42214236  0.21856598  1
  O2-  O415  1  0.25101247  0.41507989  0.57130826  1
  O2-  O416  1  0.24061583  0.41938588  0.91436738  1
  O2-  O417  1  0.22876852  0.91307290  0.22495729  1
  O2-  O418  1  0.23999341  0.91781531  0.54622161  1
  O2-  O419  1  0.24488018  0.91919218  0.89929549  1
  O2-  O420  1  0.57696921  0.41644718  0.21598268  1
  O2-  O421  1  0.58022142  0.41515248  0.55894315  1
  O2-  O422  1  0.57634759  0.42103036  0.87985486  1
  O2-  O423  1  0.57337088  0.91540955  0.23819881  1
  O2-  O424  1  0.56906375  0.91981135  0.55013284  1
  O2-  O425  1  0.58341799  0.92395148  0.88658585  1
  O2-  O426  1  0.89710610  0.42078408  0.20693111  1
  O2-  O427  1  0.91403991  0.42182714  0.55865116  1
  O2-  O428  1  0.93177023  0.41762552  0.88896554  1
  O2-  O429  1  0.93887434  0.91627727  0.21086433  1
  O2-  O430  1  0.92878361  0.91952931  0.54840565  1
  O2-  O431  1  0.92841001  0.92016601  0.88848522  1
  O2-  O432  1  -0.00845606  0.00927517  0.00631930  1
  O2-  O433  1  0.00927437  -0.00355756  0.31152837  1
  O2-  O434  1  0.00337412  -0.01355570  0.65961105  1
  O2-  O435  1  0.02190695  0.49852207  -0.02156934  1
  O2-  O436  1  -0.00326304  0.47621454  0.33238825  1
  O2-  O437  1  0.01186611  0.49254993  0.64382433  1
  O2-  O438  1  0.32945449  0.00147326  0.00481038  1
  O2-  O439  1  0.31113796  -0.01285067  0.36049879  1
  O2-  O440  1  0.33176830  -0.00139343  0.67136331  1
  O2-  O441  1  0.33275558  0.50973316  0.00476084  1
  O2-  O442  1  0.34494592  0.49777891  0.32865020  1
  O2-  O443  1  0.32731039  0.51475950  0.67592306  1
  O2-  O444  1  0.68119705  0.01430745  -0.01640446  1
  O2-  O445  1  0.66097372  0.00276033  0.33434738  1
  O2-  O446  1  0.66472247  0.01193499  0.66837180  1
  O2-  O447  1  0.65944598  0.49901600  0.00676209  1
  O2-  O448  1  0.68867984  0.48796088  0.29970550  1
  O2-  O449  1  0.66685400  0.48356519  0.67170451  1
  O2-  O450  1  0.14085836  0.00470455  -0.04527084  1
  O2-  O451  1  0.15707142  -0.00015287  0.31360020  1
  O2-  O452  1  0.16609995  -0.00212256  0.66448067  1
  O2-  O453  1  0.18038623  0.50797267  0.01847881  1
  O2-  O454  1  0.14684841  0.49818868  0.29434361  1
  O2-  O455  1  0.15420197  0.50895882  0.65030159  1
  O2-  O456  1  0.50566695  0.01544198  -0.00642990  1
  O2-  O457  1  0.47755329  -0.00772708  0.31404797  1
  O2-  O458  1  0.48546689  0.00667837  0.64140601  1
  O2-  O459  1  0.49586066  0.50770331  -0.01063835  1
  O2-  O460  1  0.53105539  0.49355744  0.36882214  1
  O2-  O461  1  0.50009248  0.48534121  0.67466141  1
  O2-  O462  1  0.83362745  0.00606477  -0.00989466  1
  O2-  O463  1  0.85258101  -0.00109148  0.36049849  1
  O2-  O464  1  0.84250118  -0.00453881  0.68700567  1
  O2-  O465  1  0.85732141  0.49594382  -0.00091297  1
  O2-  O466  1  0.83854719  0.50967036  0.34501614  1
  O2-  O467  1  0.83292374  0.48862508  0.67469644  1
  O2-  O468  1  0.74689434  0.75147167  0.07723446  1
  O2-  O469  1  0.91699612  0.25629094  0.60608973  1
  O2-  O470  1  0.91738450  0.24988281  0.93898095  1
  O2-  O471  1  0.24366200  0.74547131  0.93222765  1
  O2-  O472  1  0.39782292  0.75142894  0.72798169  1
  O2-  O473  1  0.58802285  0.75690562  0.92072824  1
  O2-  O474  1  0.75684258  0.25909746  0.73278560  1
  O2-  O475  1  0.41385157  0.75030894  0.40517264  1
  O2-  O476  1  0.75442741  0.25121693  0.05660805  1
  O2-  O477  1  0.59068375  0.75177075  0.27232483  1
  O2-  O478  1  0.92076971  0.25367054  0.28258891  1
  O2-  O479  1  0.08968563  0.74769538  0.72696056  1
  O2-  O480  1  0.25743466  0.74633092  0.61242964  1
  O2-  O481  1  0.91248921  0.74374018  0.60779517  1
  O2-  O482  1  0.23062438  0.25284890  0.27196524  1
  O2-  O483  1  0.90745786  0.75081670  0.27610467  1
  O2-  O484  1  0.59761121  0.25664289  0.92422520  1
  O2-  O485  1  0.75107924  0.75280892  0.39503873  1
  O2-  O486  1  0.07323948  0.25540775  0.73163991  1
  O2-  O487  1  0.58649493  0.25388070  0.27823494  1
  O2-  O488  1  0.08100428  0.24939120  0.06577849  1
  O2-  O489  1  0.76539113  0.74510608  0.73717794  1
  O2-  O490  1  0.08270048  0.25882305  0.39613069  1
  O2-  O491  1  0.75840582  0.25731347  0.39247867  1
  O2-  O492  1  0.57842555  0.25215988  0.61682064  1
