# generated using pymatgen
data_Ca108Mn108O277
_symmetry_space_group_name_H-M   'P 1'
_cell_length_a   16.02129902
_cell_length_b   22.29792713
_cell_length_c   16.38432455
_cell_angle_alpha   89.99564167
_cell_angle_beta   90.00161390
_cell_angle_gamma   89.99787279
_symmetry_Int_Tables_number   1
_chemical_formula_structural   Ca108Mn108O277
_chemical_formula_sum   'Ca108 Mn108 O277'
_cell_volume   5853.16488418
_cell_formula_units_Z   1
loop_
 _symmetry_equiv_pos_site_id
 _symmetry_equiv_pos_as_xyz
  1  'x, y, z'
loop_
 _atom_type_symbol
 _atom_type_oxidation_number
  Ca2+  2.0
  Mn3.34+  3.34
  O2-  -2.0
loop_
 _atom_site_type_symbol
 _atom_site_label
 _atom_site_symmetry_multiplicity
 _atom_site_fract_x
 _atom_site_fract_y
 _atom_site_fract_z
 _atom_site_occupancy
  Ca2+  Ca0  1  0.06997369  0.25080490  0.23605197  1
  Ca2+  Ca1  1  0.08131777  0.24731765  0.59780773  1
  Ca2+  Ca2  1  0.08068235  0.23967808  0.91871464  1
  Ca2+  Ca3  1  0.09411409  0.74921689  0.25795931  1
  Ca2+  Ca4  1  0.10156113  0.75001544  0.57498129  1
  Ca2+  Ca5  1  0.09005923  0.76707327  0.91210163  1
  Ca2+  Ca6  1  0.43764739  0.24942903  0.23059225  1
  Ca2+  Ca7  1  0.40374461  0.25181973  0.58766522  1
  Ca2+  Ca8  1  0.42298881  0.24859964  0.92479722  1
  Ca2+  Ca9  1  0.41044010  0.75625907  0.25168181  1
  Ca2+  Ca10  1  0.39402229  0.75358654  0.57567337  1
  Ca2+  Ca11  1  0.43626522  0.75372828  0.91857032  1
  Ca2+  Ca12  1  0.73034347  0.24188212  0.23197559  1
  Ca2+  Ca13  1  0.76510534  0.25768002  0.58425004  1
  Ca2+  Ca14  1  0.74487486  0.23770859  0.92941909  1
  Ca2+  Ca15  1  0.74662488  0.76084651  0.25806280  1
  Ca2+  Ca16  1  0.74875403  0.76075767  0.57550133  1
  Ca2+  Ca17  1  0.73387349  0.75057058  0.92136576  1
  Ca2+  Ca18  1  0.23498039  0.23936226  0.06811524  1
  Ca2+  Ca19  1  0.24109930  0.24848661  0.43102782  1
  Ca2+  Ca20  1  0.23426827  0.24923673  0.75726946  1
  Ca2+  Ca21  1  0.24617895  0.75445202  0.09836795  1
  Ca2+  Ca22  1  0.23814259  0.73584618  0.41056059  1
  Ca2+  Ca23  1  0.25084288  0.75328822  0.73044933  1
  Ca2+  Ca24  1  0.57981440  0.25530584  0.07032390  1
  Ca2+  Ca25  1  0.58384256  0.24316368  0.39805296  1
  Ca2+  Ca26  1  0.57922474  0.24340101  0.77547203  1
  Ca2+  Ca27  1  0.58500980  0.74704393  0.07498271  1
  Ca2+  Ca28  1  0.59107194  0.76952613  0.41241290  1
  Ca2+  Ca29  1  0.58553846  0.74623037  0.77431190  1
  Ca2+  Ca30  1  0.92930502  0.23802785  0.06653129  1
  Ca2+  Ca31  1  0.92805922  0.24397289  0.42495783  1
  Ca2+  Ca32  1  0.93476817  0.24349618  0.76276643  1
  Ca2+  Ca33  1  0.91889031  0.74712167  0.09156140  1
  Ca2+  Ca34  1  0.91533728  0.75084041  0.41418138  1
  Ca2+  Ca35  1  0.91480999  0.76294028  0.74785432  1
  Ca2+  Ca36  1  0.72667615  0.09855240  0.24733792  1
  Ca2+  Ca37  1  0.58115950  0.09025356  0.40756854  1
  Ca2+  Ca38  1  0.25066355  0.59758967  0.09681191  1
  Ca2+  Ca39  1  0.76481582  0.58532170  0.58865537  1
  Ca2+  Ca40  1  0.72362503  0.59038894  0.91787180  1
  Ca2+  Ca41  1  0.39305411  0.59197859  0.25260288  1
  Ca2+  Ca42  1  0.78432058  0.06601052  0.60441512  1
  Ca2+  Ca43  1  0.57955784  0.10300376  0.07228763  1
  Ca2+  Ca44  1  0.23990725  0.09592931  0.42134779  1
  Ca2+  Ca45  1  0.36950510  0.59289138  0.58606433  1
  Ca2+  Ca46  1  0.59550283  0.59006928  0.05543450  1
  Ca2+  Ca47  1  0.41692433  0.09331284  0.90705392  1
  Ca2+  Ca48  1  0.10781369  0.60219191  0.25451625  1
  Ca2+  Ca49  1  0.58623720  0.58685369  0.41060445  1
  Ca2+  Ca50  1  0.58721235  0.59284320  0.05036497  1
  Ca2+  Ca51  1  0.57323926  0.58609928  0.41075465  1
  Ca2+  Ca52  1  0.07388510  0.09981896  0.90834052  1
  Ca2+  Ca53  1  0.09287865  0.11023600  0.24471355  1
  Ca2+  Ca54  1  0.08330362  0.10642973  0.24806321  1
  Ca2+  Ca55  1  0.40669472  0.09014234  0.60138408  1
  Ca2+  Ca56  1  0.38136294  0.59191558  0.59087835  1
  Ca2+  Ca57  1  0.23937800  0.09193497  0.75724388  1
  Ca2+  Ca58  1  0.07242337  0.58679917  0.92914525  1
  Ca2+  Ca59  1  0.41816161  0.09061638  0.60126910  1
  Ca2+  Ca60  1  0.58742166  0.10042182  0.06638900  1
  Ca2+  Ca61  1  0.43310338  0.10045999  0.24453723  1
  Ca2+  Ca62  1  0.91683879  0.58071110  0.74212678  1
  Ca2+  Ca63  1  0.75364608  0.60621270  0.24486720  1
  Ca2+  Ca64  1  0.26357538  0.59808606  0.09773122  1
  Ca2+  Ca65  1  0.92852068  0.10454180  0.05680509  1
  Ca2+  Ca66  1  0.46464527  0.60203000  0.90687483  1
  Ca2+  Ca67  1  0.09663560  0.60046347  0.25559027  1
  Ca2+  Ca68  1  0.44135252  0.10538832  0.24819835  1
  Ca2+  Ca69  1  0.11573746  0.59855745  0.56670798  1
  Ca2+  Ca70  1  0.05973065  0.58516856  0.92867578  1
  Ca2+  Ca71  1  0.94328245  0.07830201  0.42995594  1
  Ca2+  Ca72  1  0.56181614  0.39928878  0.42249455  1
  Ca2+  Ca73  1  0.56657916  0.91049917  0.07644774  1
  Ca2+  Ca74  1  0.92122114  0.40051245  0.42859689  1
  Ca2+  Ca75  1  0.91559785  0.89373641  0.07518509  1
  Ca2+  Ca76  1  0.90298644  0.91584790  0.42082096  1
  Ca2+  Ca77  1  0.74672181  0.39610125  0.24588104  1
  Ca2+  Ca78  1  0.75515301  0.90901590  0.91300071  1
  Ca2+  Ca79  1  0.06119839  0.92789776  0.59837436  1
  Ca2+  Ca80  1  0.41364125  0.40151426  0.58421099  1
  Ca2+  Ca81  1  0.09133016  0.40457542  0.24938473  1
  Ca2+  Ca82  1  0.26233305  0.39923512  0.42012513  1
  Ca2+  Ca83  1  0.73236331  0.40625591  0.91575778  1
  Ca2+  Ca84  1  0.10348746  0.40286549  0.24683294  1
  Ca2+  Ca85  1  0.41173119  0.91936871  0.90999179  1
  Ca2+  Ca86  1  0.08499329  0.39596357  0.91121069  1
  Ca2+  Ca87  1  0.58459382  0.92365768  0.76300112  1
  Ca2+  Ca88  1  0.57923994  0.91039567  0.07578831  1
  Ca2+  Ca89  1  0.59700092  0.92087022  0.76282762  1
  Ca2+  Ca90  1  0.23845260  0.91045379  0.42129805  1
  Ca2+  Ca91  1  0.91167148  0.92982514  0.74397171  1
  Ca2+  Ca92  1  0.91641201  0.40016761  0.75106864  1
  Ca2+  Ca93  1  0.93393692  0.40059907  0.42924984  1
  Ca2+  Ca94  1  0.06997996  0.92544603  0.60272634  1
  Ca2+  Ca95  1  0.58382405  0.39466478  0.76030322  1
  Ca2+  Ca96  1  0.90727113  0.40573675  0.07533931  1
  Ca2+  Ca97  1  0.08511124  0.90783323  0.25265506  1
  Ca2+  Ca98  1  0.42101069  0.91033328  0.59204920  1
  Ca2+  Ca99  1  0.40951911  0.91057823  0.59249252  1
  Ca2+  Ca100  1  0.57446112  0.40015204  0.42241653  1
  Ca2+  Ca101  1  0.40506786  0.39935013  0.24774214  1
  Ca2+  Ca102  1  0.25123610  0.91066771  0.42062007  1
  Ca2+  Ca103  1  0.21901892  0.92202114  0.76757812  1
  Ca2+  Ca104  1  0.91988069  0.40614960  0.07573078  1
  Ca2+  Ca105  1  0.25693954  0.91403361  0.04758828  1
  Ca2+  Ca106  1  0.76781053  0.91612190  0.59026949  1
  Ca2+  Ca107  1  0.07364468  0.90858799  0.25237690  1
  Mn3.34+  Mn108  1  0.08844689  0.32947111  0.07908680  1
  Mn3.34+  Mn109  1  0.08928891  0.33014567  0.42220540  1
  Mn3.34+  Mn110  1  0.08665330  0.33301916  0.75012649  1
  Mn3.34+  Mn111  1  0.08390085  0.83144032  0.08182319  1
  Mn3.34+  Mn112  1  0.07903449  0.83621594  0.42383936  1
  Mn3.34+  Mn113  1  0.07967645  0.83720918  0.75265604  1
  Mn3.34+  Mn114  1  0.41304358  0.33621415  0.07680783  1
  Mn3.34+  Mn115  1  0.41314130  0.32754057  0.41920267  1
  Mn3.34+  Mn116  1  0.41168161  0.32986472  0.75547116  1
  Mn3.34+  Mn117  1  0.41330264  0.83335228  0.08590865  1
  Mn3.34+  Mn118  1  0.42138187  0.83979563  0.41332343  1
  Mn3.34+  Mn119  1  0.41586540  0.83971877  0.75636202  1
  Mn3.34+  Mn120  1  0.74397931  0.33364772  0.08100156  1
  Mn3.34+  Mn121  1  0.74978265  0.32978117  0.41937040  1
  Mn3.34+  Mn122  1  0.74820238  0.32964536  0.75115679  1
  Mn3.34+  Mn123  1  0.74983008  0.82763562  0.08436363  1
  Mn3.34+  Mn124  1  0.74806317  0.84462823  0.41623071  1
  Mn3.34+  Mn125  1  0.75037534  0.83744258  0.75148251  1
  Mn3.34+  Mn126  1  0.25448330  0.32376240  0.24597634  1
  Mn3.34+  Mn127  1  0.24562015  0.33429071  0.59007065  1
  Mn3.34+  Mn128  1  0.25427504  0.32764585  0.91483264  1
  Mn3.34+  Mn129  1  0.25381813  0.83210202  0.24823229  1
  Mn3.34+  Mn130  1  0.24585422  0.83422805  0.58314558  1
  Mn3.34+  Mn131  1  0.25319877  0.83408705  0.91117903  1
  Mn3.34+  Mn132  1  0.58156307  0.32920181  0.24416557  1
  Mn3.34+  Mn133  1  0.58392836  0.32436053  0.58710740  1
  Mn3.34+  Mn134  1  0.57730815  0.33643196  0.91845610  1
  Mn3.34+  Mn135  1  0.58358459  0.83601639  0.24998042  1
  Mn3.34+  Mn136  1  0.58553925  0.83583678  0.58090328  1
  Mn3.34+  Mn137  1  0.58332216  0.83411912  0.91522033  1
  Mn3.34+  Mn138  1  0.91319882  0.32941870  0.24871574  1
  Mn3.34+  Mn139  1  0.91894515  0.33000394  0.59054183  1
  Mn3.34+  Mn140  1  0.91363047  0.32841412  0.91129794  1
  Mn3.34+  Mn141  1  0.91027565  0.83317999  0.25010188  1
  Mn3.34+  Mn142  1  0.91685721  0.83567694  0.57912834  1
  Mn3.34+  Mn143  1  0.91650302  0.83615790  0.91239624  1
  Mn3.34+  Mn144  1  0.08006715  0.66930162  0.41965792  1
  Mn3.34+  Mn145  1  0.24313320  0.16847774  0.58602556  1
  Mn3.34+  Mn146  1  0.58261197  0.17574687  0.58626416  1
  Mn3.34+  Mn147  1  0.41395268  0.16274676  0.75612400  1
  Mn3.34+  Mn148  1  0.75046675  0.15857412  0.75883446  1
  Mn3.34+  Mn149  1  0.41766095  0.67039599  0.75124808  1
  Mn3.34+  Mn150  1  0.74996871  0.15349640  0.74969233  1
  Mn3.34+  Mn151  1  0.91747626  0.67245892  0.25118642  1
  Mn3.34+  Mn152  1  0.08179816  0.67164882  0.08478205  1
  Mn3.34+  Mn153  1  0.41446048  0.66650359  0.41295578  1
  Mn3.34+  Mn154  1  0.75769304  0.66893056  0.75313138  1
  Mn3.34+  Mn155  1  0.24652917  0.15888824  0.91642450  1
  Mn3.34+  Mn156  1  0.07973859  0.15626403  0.75097569  1
  Mn3.34+  Mn157  1  0.92514940  0.15862647  0.58736964  1
  Mn3.34+  Mn158  1  0.40918341  0.16803997  0.07894458  1
  Mn3.34+  Mn159  1  0.08342727  0.16394964  0.42166787  1
  Mn3.34+  Mn160  1  0.57934893  0.66191491  0.58439809  1
  Mn3.34+  Mn161  1  0.91350560  0.67119119  0.91989445  1
  Mn3.34+  Mn162  1  0.59006098  0.66701393  0.58513721  1
  Mn3.34+  Mn163  1  0.75486569  0.67185133  0.41684453  1
  Mn3.34+  Mn164  1  0.58440524  0.67146141  0.24428436  1
  Mn3.34+  Mn165  1  0.91783878  0.66296510  0.57421490  1
  Mn3.34+  Mn166  1  0.75189594  0.16872616  0.08259766  1
  Mn3.34+  Mn167  1  0.74817808  0.66313108  0.75421560  1
  Mn3.34+  Mn168  1  0.40473713  0.66093746  0.41420505  1
  Mn3.34+  Mn169  1  0.25534596  0.17633700  0.25242288  1
  Mn3.34+  Mn170  1  0.41782454  0.16887567  0.42461489  1
  Mn3.34+  Mn171  1  0.74763907  0.15658182  0.42590798  1
  Mn3.34+  Mn172  1  0.25392049  0.66354814  0.90790001  1
  Mn3.34+  Mn173  1  0.76011697  0.66805401  0.08615201  1
  Mn3.34+  Mn174  1  0.91191570  0.16671334  0.24848836  1
  Mn3.34+  Mn175  1  0.07574633  0.66734843  0.74748683  1
  Mn3.34+  Mn176  1  0.26336437  0.66980132  0.90968135  1
  Mn3.34+  Mn177  1  0.08835663  0.66018727  0.74831099  1
  Mn3.34+  Mn178  1  0.75755064  0.16404242  0.42318183  1
  Mn3.34+  Mn179  1  0.41930767  0.66819965  0.08950080  1
  Mn3.34+  Mn180  1  0.90803061  -0.00039043  0.25339369  1
  Mn3.34+  Mn181  1  0.09056901  0.49370554  0.73668463  1
  Mn3.34+  Mn182  1  0.58934915  -0.00572801  0.26535190  1
  Mn3.34+  Mn183  1  0.90797925  0.50328033  0.24171247  1
  Mn3.34+  Mn184  1  0.26500727  -0.00438414  0.24411827  1
  Mn3.34+  Mn185  1  0.58342980  0.49751896  0.24120325  1
  Mn3.34+  Mn186  1  0.08685576  0.50252787  0.41701554  1
  Mn3.34+  Mn187  1  0.40884813  0.00187946  0.07276980  1
  Mn3.34+  Mn188  1  0.09796452  0.00536925  0.06859043  1
  Mn3.34+  Mn189  1  0.74931735  0.49883231  0.42617548  1
  Mn3.34+  Mn190  1  0.91647879  0.00499492  0.91206593  1
  Mn3.34+  Mn191  1  0.42321601  0.50184542  0.75619537  1
  Mn3.34+  Mn192  1  0.75188635  0.00080049  0.08661161  1
  Mn3.34+  Mn193  1  0.25681179  0.49764312  0.26743845  1
  Mn3.34+  Mn194  1  0.23759697  0.49113979  0.58897056  1
  Mn3.34+  Mn195  1  0.24994361  0.00096358  0.24462589  1
  Mn3.34+  Mn196  1  0.25571410  0.49789573  0.90788941  1
  Mn3.34+  Mn197  1  0.92008549  0.50862254  0.24354275  1
  Mn3.34+  Mn198  1  0.89215213  -0.00332338  0.25644983  1
  Mn3.34+  Mn199  1  0.24396946  0.00401583  0.59037191  1
  Mn3.34+  Mn200  1  0.41875380  0.49508528  0.07543803  1
  Mn3.34+  Mn201  1  0.58857728  0.00626642  0.57865260  1
  Mn3.34+  Mn202  1  0.74541785  0.49870906  0.74570819  1
  Mn3.34+  Mn203  1  0.42649538  0.00085763  0.41306001  1
  Mn3.34+  Mn204  1  0.41243360  0.49603050  0.75554795  1
  Mn3.34+  Mn205  1  0.92045016  0.49849570  0.59221381  1
  Mn3.34+  Mn206  1  0.59852100  0.00165952  0.57527662  1
  Mn3.34+  Mn207  1  0.76375464  0.50460460  0.42648826  1
  Mn3.34+  Mn208  1  0.74806024  0.49975368  0.07899390  1
  Mn3.34+  Mn209  1  0.08398314  0.00108073  0.07299636  1
  Mn3.34+  Mn210  1  0.08712063  0.49856200  0.07918756  1
  Mn3.34+  Mn211  1  0.57208409  0.50274028  0.24240437  1
  Mn3.34+  Mn212  1  0.76666471  -0.00335058  0.09093449  1
  Mn3.34+  Mn213  1  0.90874571  0.49920480  0.91400960  1
  Mn3.34+  Mn214  1  0.26725719  0.49098241  0.91315009  1
  Mn3.34+  Mn215  1  0.58823083  0.49524868  0.59093537  1
  O2-  O216  1  0.00934580  0.16726318  -0.00415752  1
  O2-  O217  1  -0.00093470  0.15632672  0.33150153  1
  O2-  O218  1  0.00243868  0.16728819  0.66575088  1
  O2-  O219  1  0.00872194  0.67235607  -0.00763448  1
  O2-  O220  1  0.00280426  0.65487388  0.32584733  1
  O2-  O221  1  -0.00309766  0.65779760  0.66429221  1
  O2-  O222  1  0.33291740  0.16484203  -0.00422244  1
  O2-  O223  1  0.33773149  0.16507136  0.33662481  1
  O2-  O224  1  0.33482561  0.16608880  0.66196532  1
  O2-  O225  1  0.34037024  0.65710914  0.00068419  1
  O2-  O226  1  0.32983257  0.66064168  0.33148406  1
  O2-  O227  1  0.34684185  0.67325239  0.66092857  1
  O2-  O228  1  0.66864793  0.16619426  0.00660283  1
  O2-  O229  1  0.66540972  0.15598555  0.34246794  1
  O2-  O230  1  0.66880892  0.17635516  0.67117298  1
  O2-  O231  1  0.67751431  0.66741487  0.00877529  1
  O2-  O232  1  0.66148580  0.64799257  0.33201168  1
  O2-  O233  1  0.67732611  0.64533089  0.66185659  1
  O2-  O234  1  0.16574627  0.15751900  -0.01034223  1
  O2-  O235  1  0.17083392  0.16854897  0.33565301  1
  O2-  O236  1  0.17127276  0.16175182  0.66965280  1
  O2-  O237  1  0.16977507  0.64763688  0.00212357  1
  O2-  O238  1  0.15859029  0.66420548  0.33589583  1
  O2-  O239  1  0.16478962  0.65990608  0.66711255  1
  O2-  O240  1  0.48844927  0.15669690  0.00061542  1
  O2-  O241  1  0.49760479  0.16289555  0.33991829  1
  O2-  O242  1  0.49017795  0.17280478  0.66249202  1
  O2-  O243  1  0.50351571  0.66684681  0.01241838  1
  O2-  O244  1  0.49532503  0.64609683  0.33215513  1
  O2-  O245  1  0.50312625  0.66129009  0.67086160  1
  O2-  O246  1  0.83564959  0.16871748  0.01063885  1
  O2-  O247  1  0.83425225  0.14594911  0.33773245  1
  O2-  O248  1  0.82621741  0.16489042  0.66552191  1
  O2-  O249  1  0.83481450  0.69183159  0.00060917  1
  O2-  O250  1  0.83210626  0.66230636  0.33038098  1
  O2-  O251  1  0.83790980  0.66007419  0.67110758  1
  O2-  O252  1  -0.00311825  0.34595607  0.00190765  1
  O2-  O253  1  0.00228946  0.34882384  0.32907644  1
  O2-  O254  1  -0.00290853  0.33815978  0.67211038  1
  O2-  O255  1  -0.00421003  0.81712867  0.00320568  1
  O2-  O256  1  -0.00119818  0.85427630  0.33830093  1
  O2-  O257  1  -0.00357312  0.83220257  0.66466059  1
  O2-  O258  1  0.33028495  0.32696086  0.00153053  1
  O2-  O259  1  0.33173760  0.31947363  0.33559827  1
  O2-  O260  1  0.33782080  0.33033884  0.66254164  1
  O2-  O261  1  0.33728449  0.83072658  -0.00193204  1
  O2-  O262  1  0.32639645  0.85034093  0.33887816  1
  O2-  O263  1  0.33292064  0.84282602  0.66837942  1
  O2-  O264  1  0.66754685  0.33856465  -0.00215907  1
  O2-  O265  1  0.66233619  0.34387117  0.33863677  1
  O2-  O266  1  0.66488576  0.30994217  0.66917179  1
  O2-  O267  1  0.66524321  0.84649564  0.00118393  1
  O2-  O268  1  0.66799796  0.84095417  0.33112375  1
  O2-  O269  1  0.66188750  0.85405216  0.67020686  1
  O2-  O270  1  0.16421053  0.33924517  -0.00245631  1
  O2-  O271  1  0.16824909  0.33798450  0.33251833  1
  O2-  O272  1  0.16383586  0.33671268  0.66574188  1
  O2-  O273  1  0.17034218  0.83472457  0.00550174  1
  O2-  O274  1  0.16344443  0.85170332  0.33286942  1
  O2-  O275  1  0.15786696  0.85243878  0.65752529  1
  O2-  O276  1  0.49919177  0.33653097  0.00190606  1
  O2-  O277  1  0.49811860  0.33486991  0.33615392  1
  O2-  O278  1  0.49788963  0.31881226  0.66624857  1
  O2-  O279  1  0.49867550  0.84137423  -0.00146109  1
  O2-  O280  1  0.49772883  0.83421452  0.32887774  1
  O2-  O281  1  0.49724219  0.84247451  0.66682834  1
  O2-  O282  1  0.83188664  0.34447457  -0.00150520  1
  O2-  O283  1  0.83738878  0.35210004  0.33498993  1
  O2-  O284  1  0.83386901  0.32941204  0.66975049  1
  O2-  O285  1  0.83107234  0.82608110  -0.00261457  1
  O2-  O286  1  0.83682288  0.84101007  0.33862129  1
  O2-  O287  1  0.83345954  0.83524409  0.66380109  1
  O2-  O288  1  -0.00346726  0.17436709  0.17516055  1
  O2-  O289  1  -0.00328916  0.16873378  0.49383193  1
  O2-  O290  1  0.00953915  0.17276026  0.82995782  1
  O2-  O291  1  0.00714224  0.68316136  0.17133745  1
  O2-  O292  1  -0.00205546  0.68853744  0.50174461  1
  O2-  O293  1  -0.00131535  0.68081381  0.82989987  1
  O2-  O294  1  0.34387758  0.17821124  0.17765032  1
  O2-  O295  1  0.33318471  0.17953056  0.50175886  1
  O2-  O296  1  0.32947150  0.18108386  0.82364162  1
  O2-  O297  1  0.32936165  0.67704834  0.15732251  1
  O2-  O298  1  0.33353861  0.67246934  0.50223748  1
  O2-  O299  1  0.32903071  0.69452879  0.81941199  1
  O2-  O300  1  0.66538780  0.16583096  0.16134359  1
  O2-  O301  1  0.66515473  0.18741050  0.50170022  1
  O2-  O302  1  0.67139794  0.17711069  0.83106469  1
  O2-  O303  1  0.67123796  0.68359180  0.16554398  1
  O2-  O304  1  0.65789258  0.67504701  0.48997015  1
  O2-  O305  1  0.67387883  0.67452560  0.83692834  1
  O2-  O306  1  0.16609329  0.18463088  0.18353070  1
  O2-  O307  1  0.16862080  0.17197296  0.49735959  1
  O2-  O308  1  0.16859097  0.17259973  0.82957578  1
  O2-  O309  1  0.16553179  0.67834360  0.16132535  1
  O2-  O310  1  0.15833173  0.67914666  0.49583723  1
  O2-  O311  1  0.14988005  0.66789870  0.84754697  1
  O2-  O312  1  0.49999469  0.16444330  0.15677540  1
  O2-  O313  1  0.50073927  0.19245346  0.50174006  1
  O2-  O314  1  0.48651751  0.17824886  0.83068631  1
  O2-  O315  1  0.49623169  0.68571492  0.17185654  1
  O2-  O316  1  0.49964917  0.67866990  0.49186429  1
  O2-  O317  1  0.49032144  0.68704563  0.83290773  1
  O2-  O318  1  0.82704048  0.17500533  0.17555252  1
  O2-  O319  1  0.83520754  0.17763417  0.50269546  1
  O2-  O320  1  0.82801012  0.19077847  0.82229135  1
  O2-  O321  1  0.83223892  0.68601118  0.17326716  1
  O2-  O322  1  0.82620461  0.68633301  0.51086457  1
  O2-  O323  1  0.83862692  0.68952429  0.83473282  1
  O2-  O324  1  -0.00041060  0.32985284  0.16919413  1
  O2-  O325  1  -0.00273944  0.32587333  0.49360480  1
  O2-  O326  1  -0.00111750  0.32623256  0.83337557  1
  O2-  O327  1  0.00248999  0.82480855  0.16796871  1
  O2-  O328  1  0.00291535  0.81556680  0.50555701  1
  O2-  O329  1  -0.00221381  0.81643658  0.83259422  1
  O2-  O330  1  0.33797643  0.31597248  0.17159647  1
  O2-  O331  1  0.33364160  0.31908387  0.49874743  1
  O2-  O332  1  0.33292895  0.30874219  0.83203227  1
  O2-  O333  1  0.33316213  0.81498717  0.16541096  1
  O2-  O334  1  0.33341777  0.83238813  0.50613657  1
  O2-  O335  1  0.33762952  0.81435046  0.83217993  1
  O2-  O336  1  0.67220741  0.32839342  0.17261536  1
  O2-  O337  1  0.65846039  0.31930216  0.49528650  1
  O2-  O338  1  0.66600455  0.31947629  0.83197923  1
  O2-  O339  1  0.66122076  0.81860838  0.15702252  1
  O2-  O340  1  0.66976261  0.82636394  0.50355677  1
  O2-  O341  1  0.66490077  0.82726082  0.83299090  1
  O2-  O342  1  0.16030989  0.32227685  0.17465767  1
  O2-  O343  1  0.17514507  0.32947177  0.49368610  1
  O2-  O344  1  0.16010346  0.32259793  0.83769608  1
  O2-  O345  1  0.15923939  0.82157260  0.17348586  1
  O2-  O346  1  0.17523354  0.82429962  0.48979890  1
  O2-  O347  1  0.17285096  0.83083401  0.82498914  1
  O2-  O348  1  0.49799623  0.32763286  0.16920370  1
  O2-  O349  1  0.50091357  0.31397629  0.49618137  1
  O2-  O350  1  0.50029567  0.31932198  0.82982013  1
  O2-  O351  1  0.50333939  0.81813839  0.15571416  1
  O2-  O352  1  0.49196035  0.82536691  0.50935875  1
  O2-  O353  1  0.50303150  0.82025543  0.83014389  1
  O2-  O354  1  0.83721947  0.32857525  0.16203436  1
  O2-  O355  1  0.84079663  0.32487058  0.49296917  1
  O2-  O356  1  0.83222229  0.32188639  0.83198048  1
  O2-  O357  1  0.83509473  0.81387161  0.16107829  1
  O2-  O358  1  0.83826434  0.81809555  0.49991647  1
  O2-  O359  1  0.82908380  0.81630504  0.83480604  1
  O2-  O360  1  0.07283939  0.07887860  0.11913368  1
  O2-  O361  1  0.09238970  0.08249923  0.40706978  1
  O2-  O362  1  0.09732564  0.07933950  0.77277484  1
  O2-  O363  1  0.10416670  0.57980249  0.11740464  1
  O2-  O364  1  0.07879824  0.58435911  0.43431272  1
  O2-  O365  1  0.07146367  0.57521326  0.79279891  1
  O2-  O366  1  0.40881480  0.07909390  0.11257554  1
  O2-  O367  1  0.42360165  0.07990716  0.46333338  1
  O2-  O368  1  0.40331303  0.08344924  0.75297873  1
  O2-  O369  1  0.40141382  0.57368328  0.12152512  1
  O2-  O370  1  0.43447046  0.57979285  0.45673092  1
  O2-  O371  1  0.40933648  0.58242020  0.78019454  1
  O2-  O372  1  0.74893254  0.08068081  0.10555364  1
  O2-  O373  1  0.73076299  0.08246582  0.46140150  1
  O2-  O374  1  0.75142234  0.07371978  0.74751024  1
  O2-  O375  1  0.73253593  0.57916318  0.11238352  1
  O2-  O376  1  0.74362000  0.58561659  0.44880339  1
  O2-  O377  1  0.76726691  0.57953721  0.78681542  1
  O2-  O378  1  0.24599441  0.08392272  0.23867203  1
  O2-  O379  1  0.26624907  0.08335110  0.56265321  1
  O2-  O380  1  0.26390907  0.08217658  0.88937391  1
  O2-  O381  1  0.24282349  0.57608644  0.22629511  1
  O2-  O382  1  0.25107226  0.56685560  0.54202154  1
  O2-  O383  1  0.25741525  0.57865076  0.87742897  1
  O2-  O384  1  0.57365603  0.06387520  0.20105647  1
  O2-  O385  1  0.57221380  0.08733913  0.55323422  1
  O2-  O386  1  0.55857381  0.07513254  0.93337769  1
  O2-  O387  1  0.58053214  0.58368614  0.21081576  1
  O2-  O388  1  0.58814995  0.57649370  0.54333338  1
  O2-  O389  1  0.59314285  0.58405957  0.91987792  1
  O2-  O390  1  0.92027178  0.07956107  0.22072122  1
  O2-  O391  1  0.91124539  0.08091082  0.56057950  1
  O2-  O392  1  0.93175900  0.08173806  0.91352902  1
  O2-  O393  1  0.91465517  0.58904336  0.22038569  1
  O2-  O394  1  0.90487645  0.57666357  0.55751220  1
  O2-  O395  1  0.92618581  0.58190607  0.88751127  1
  O2-  O396  1  0.06847749  0.41848278  0.11528263  1
  O2-  O397  1  0.07563881  0.41766566  0.42992179  1
  O2-  O398  1  0.07051031  0.41934007  0.77813463  1
  O2-  O399  1  0.08017666  0.92177063  0.11496865  1
  O2-  O400  1  0.09437348  0.91935823  0.45880019  1
  O2-  O401  1  0.07042099  0.91717331  0.75623613  1
  O2-  O402  1  0.41036466  0.41917815  0.11228138  1
  O2-  O403  1  0.42756130  0.41535215  0.44225754  1
  O2-  O404  1  0.43294387  0.41472328  0.75539392  1
  O2-  O405  1  0.42402698  0.92229794  0.10125152  1
  O2-  O406  1  0.39705812  0.92400479  0.45645097  1
  O2-  O407  1  0.44365421  0.92484640  0.77294556  1
  O2-  O408  1  0.76698266  0.42042858  0.10996697  1
  O2-  O409  1  0.74798985  0.41744600  0.43953953  1
  O2-  O410  1  0.74380736  0.41962997  0.77376005  1
  O2-  O411  1  0.76452389  0.91602837  0.09955318  1
  O2-  O412  1  0.76450894  0.91963439  0.44997300  1
  O2-  O413  1  0.73998176  0.91894796  0.77887911  1
  O2-  O414  1  0.24406510  0.41662890  0.24154841  1
  O2-  O415  1  0.26845613  0.41636574  0.55633539  1
  O2-  O416  1  0.24687051  0.41224534  0.89597940  1
  O2-  O417  1  0.24832428  0.91736305  0.20423194  1
  O2-  O418  1  0.25280419  0.92366298  0.55555930  1
  O2-  O419  1  0.26968002  0.91368584  0.89672476  1
  O2-  O420  1  0.58060808  0.41587908  0.24642610  1
  O2-  O421  1  0.56788751  0.41466301  0.55714818  1
  O2-  O422  1  0.59442578  0.41660359  0.88793921  1
  O2-  O423  1  0.58374272  0.92107849  0.21101061  1
  O2-  O424  1  0.57213980  0.91983847  0.55335675  1
  O2-  O425  1  0.58105608  0.92084098  0.89707588  1
  O2-  O426  1  0.91446597  0.42153223  0.21780471  1
  O2-  O427  1  0.91661207  0.41752321  0.56109720  1
  O2-  O428  1  0.91390467  0.41752584  0.89534902  1
  O2-  O429  1  0.92176432  0.91934989  0.21101356  1
  O2-  O430  1  0.92913607  0.91676871  0.55488540  1
  O2-  O431  1  0.89903759  0.92302852  0.88470682  1
  O2-  O432  1  -0.00103860  -0.00570482  -0.00317212  1
  O2-  O433  1  0.00877791  -0.01159810  0.31209364  1
  O2-  O434  1  -0.01198514  -0.01080228  0.66684867  1
  O2-  O435  1  0.00528597  0.50343539  -0.01324450  1
  O2-  O436  1  -0.00992130  0.49082274  0.33665043  1
  O2-  O437  1  -0.00793595  0.50478072  0.68384079  1
  O2-  O438  1  0.34646052  -0.00675520  -0.00990645  1
  O2-  O439  1  0.32238218  0.00118922  0.34848077  1
  O2-  O440  1  0.34767688  -0.00245112  0.63270227  1
  O2-  O441  1  0.32278255  0.51585561  0.01060810  1
  O2-  O442  1  0.36393668  0.49655894  0.29722290  1
  O2-  O443  1  0.33701901  0.50647151  0.65706672  1
  O2-  O444  1  0.66036743  -0.00232175  0.02572633  1
  O2-  O445  1  0.66497515  0.02424265  0.32897845  1
  O2-  O446  1  0.67407869  -0.01382698  0.65872056  1
  O2-  O447  1  0.67143059  0.50631108  0.00517083  1
  O2-  O448  1  0.67339197  0.51465227  0.32782634  1
  O2-  O449  1  0.67550482  0.51403658  0.66033276  1
  O2-  O450  1  0.17620873  -0.01047442  -0.00315726  1
  O2-  O451  1  0.16755146  -0.02501452  0.32379159  1
  O2-  O452  1  0.16337512  -0.01108325  0.66189961  1
  O2-  O453  1  0.16066868  0.51233663  -0.02038501  1
  O2-  O454  1  0.14486263  0.50123863  0.30591975  1
  O2-  O455  1  0.15396112  0.52145814  0.65297513  1
  O2-  O456  1  0.50956875  -0.00021388  0.02624002  1
  O2-  O457  1  0.49438193  0.02507534  0.32144087  1
  O2-  O458  1  0.49233160  -0.00020091  0.64449240  1
  O2-  O459  1  0.49750468  0.52268652  0.01003921  1
  O2-  O460  1  0.52193002  0.50620883  0.35215581  1
  O2-  O461  1  0.49323160  0.50913172  0.65794349  1
  O2-  O462  1  0.83077740  -0.00493558  -0.00548435  1
  O2-  O463  1  0.85031054  0.01045960  0.35744964  1
  O2-  O464  1  0.84152772  -0.01447516  0.65440706  1
  O2-  O465  1  0.84011264  0.49334052  0.01018339  1
  O2-  O466  1  0.82935826  0.49962205  0.32966865  1
  O2-  O467  1  0.83677935  0.50671222  0.67634572  1
  O2-  O468  1  0.59129587  0.75198326  0.60145326  1
  O2-  O469  1  0.92058358  0.24837802  0.58722057  1
  O2-  O470  1  0.24695461  0.75578632  0.59482060  1
  O2-  O471  1  0.23918277  0.24758804  0.92990316  1
  O2-  O472  1  0.08495796  0.25065360  0.73675032  1
  O2-  O473  1  0.74244488  0.75190339  0.39863287  1
  O2-  O474  1  0.40994714  0.75113639  0.40317721  1
  O2-  O475  1  0.07929810  0.24973034  0.40108539  1
  O2-  O476  1  0.58702632  0.74951634  0.27603216  1
  O2-  O477  1  0.73581065  0.75093312  0.72538095  1
  O2-  O478  1  0.24012776  0.25054217  0.59030503  1
  O2-  O479  1  0.23349468  0.74981163  0.93500283  1
  O2-  O480  1  0.09822441  0.75162503  0.73627806  1
  O2-  O481  1  0.58570314  0.25121163  0.25882076  1
  O2-  O482  1  0.91732626  0.24930382  0.27676250  1
  O2-  O483  1  0.92772757  0.75221240  0.27540429  1
  O2-  O484  1  0.42771834  0.24937276  0.07345872  1
  O2-  O485  1  0.74770220  0.25238387  0.07866737  1
  O2-  O486  1  0.75841825  0.24412921  0.39107941  1
  O2-  O487  1  0.08118245  0.75467588  0.39436271  1
  O2-  O488  1  0.24837936  0.75613410  0.27261313  1
  O2-  O489  1  0.58775675  0.75540281  0.93164207  1
  O2-  O490  1  0.07945395  0.25191869  0.07099201  1
  O2-  O491  1  0.58143973  0.25353168  0.92998762  1
  O2-  O492  1  0.92300038  0.25213871  0.92991771  1
