# generated using pymatgen
data_Ca108Mn108O277
_symmetry_space_group_name_H-M   'P 1'
_cell_length_a   16.02906353
_cell_length_b   22.31176538
_cell_length_c   16.39165837
_cell_angle_alpha   90.00266346
_cell_angle_beta   90.00121476
_cell_angle_gamma   89.99520224
_symmetry_Int_Tables_number   1
_chemical_formula_structural   Ca108Mn108O277
_chemical_formula_sum   'Ca108 Mn108 O277'
_cell_volume   5862.25865755
_cell_formula_units_Z   1
loop_
 _symmetry_equiv_pos_site_id
 _symmetry_equiv_pos_as_xyz
  1  'x, y, z'
loop_
 _atom_type_symbol
 _atom_type_oxidation_number
  Ca2+  2.0
  Mn3.34+  3.34
  O2-  -2.0
loop_
 _atom_site_type_symbol
 _atom_site_label
 _atom_site_symmetry_multiplicity
 _atom_site_fract_x
 _atom_site_fract_y
 _atom_site_fract_z
 _atom_site_occupancy
  Ca2+  Ca0  1  0.07647243  0.25177496  0.24667980  1
  Ca2+  Ca1  1  0.07818891  0.25579904  0.58736501  1
  Ca2+  Ca2  1  0.10225200  0.24233066  0.91020346  1
  Ca2+  Ca3  1  0.08924582  0.74994263  0.25296577  1
  Ca2+  Ca4  1  0.09583479  0.73917073  0.59512946  1
  Ca2+  Ca5  1  0.09899480  0.73972670  0.90730309  1
  Ca2+  Ca6  1  0.42611975  0.25978986  0.23820298  1
  Ca2+  Ca7  1  0.40493276  0.24223328  0.59378467  1
  Ca2+  Ca8  1  0.39419093  0.22977133  0.91781781  1
  Ca2+  Ca9  1  0.40244554  0.75502822  0.24732559  1
  Ca2+  Ca10  1  0.40067031  0.74389934  0.60486638  1
  Ca2+  Ca11  1  0.41815137  0.75580629  0.89223394  1
  Ca2+  Ca12  1  0.74943838  0.24453923  0.24747403  1
  Ca2+  Ca13  1  0.75773289  0.25747772  0.58318004  1
  Ca2+  Ca14  1  0.75471443  0.24665548  0.92452145  1
  Ca2+  Ca15  1  0.75313893  0.75971752  0.25575443  1
  Ca2+  Ca16  1  0.74704154  0.75552662  0.57653804  1
  Ca2+  Ca17  1  0.73864616  0.75419423  0.91618010  1
  Ca2+  Ca18  1  0.25634205  0.24745608  0.06961232  1
  Ca2+  Ca19  1  0.25213185  0.25963558  0.43003522  1
  Ca2+  Ca20  1  0.25802285  0.25281423  0.75724282  1
  Ca2+  Ca21  1  0.23414191  0.75401612  0.07449436  1
  Ca2+  Ca22  1  0.23948269  0.74008205  0.43836803  1
  Ca2+  Ca23  1  0.25015784  0.73888633  0.75422175  1
  Ca2+  Ca24  1  0.57521236  0.25013556  0.08310809  1
  Ca2+  Ca25  1  0.57799316  0.25788126  0.40677995  1
  Ca2+  Ca26  1  0.57176861  0.25317736  0.75777989  1
  Ca2+  Ca27  1  0.58603680  0.76014169  0.06356210  1
  Ca2+  Ca28  1  0.59419138  0.76607739  0.42298355  1
  Ca2+  Ca29  1  0.56965283  0.75316113  0.76219603  1
  Ca2+  Ca30  1  0.92322399  0.24600966  0.08005961  1
  Ca2+  Ca31  1  0.91599589  0.25194566  0.42361389  1
  Ca2+  Ca32  1  0.91946015  0.25571834  0.74633117  1
  Ca2+  Ca33  1  0.92469644  0.75318443  0.07795108  1
  Ca2+  Ca34  1  0.91978110  0.74582427  0.42071193  1
  Ca2+  Ca35  1  0.94725612  0.74314518  0.75513911  1
  Ca2+  Ca36  1  0.76029919  0.08270528  0.93470312  1
  Ca2+  Ca37  1  0.22780103  0.60720060  0.74634744  1
  Ca2+  Ca38  1  0.59166814  0.58041861  0.06060735  1
  Ca2+  Ca39  1  0.09414579  0.08252041  0.59819850  1
  Ca2+  Ca40  1  0.06746004  0.07769672  0.24755191  1
  Ca2+  Ca41  1  0.39919874  0.61056357  0.89581168  1
  Ca2+  Ca42  1  0.25268961  0.10497848  0.75693629  1
  Ca2+  Ca43  1  0.09246383  0.60397438  0.90736331  1
  Ca2+  Ca44  1  0.60330608  0.09606490  0.08454825  1
  Ca2+  Ca45  1  0.25959008  0.09016148  0.07663933  1
  Ca2+  Ca46  1  0.58637555  0.07710231  0.73021680  1
  Ca2+  Ca47  1  0.25008709  0.07537881  0.41531730  1
  Ca2+  Ca48  1  0.41950900  0.58376570  0.25777775  1
  Ca2+  Ca49  1  0.23863220  0.07582870  0.41593646  1
  Ca2+  Ca50  1  0.79855631  0.60858284  0.57186076  1
  Ca2+  Ca51  1  0.89569755  0.07861817  0.36204326  1
  Ca2+  Ca52  1  0.22570821  0.58581467  0.07681369  1
  Ca2+  Ca53  1  0.95655672  0.60136086  0.74015823  1
  Ca2+  Ca54  1  0.58827356  0.59592623  0.41415398  1
  Ca2+  Ca55  1  0.92987950  0.08915065  0.75002001  1
  Ca2+  Ca56  1  0.77370683  0.59635892  0.24996672  1
  Ca2+  Ca57  1  0.06324456  0.59671261  0.25726746  1
  Ca2+  Ca58  1  0.24317420  0.10072151  0.75566266  1
  Ca2+  Ca59  1  0.73452558  0.58713842  0.92517130  1
  Ca2+  Ca60  1  0.39095392  0.61467168  0.89281120  1
  Ca2+  Ca61  1  0.37629913  0.61304015  0.58757532  1
  Ca2+  Ca62  1  0.40858031  0.09193453  0.24685614  1
  Ca2+  Ca63  1  0.40663119  0.58309119  0.25747235  1
  Ca2+  Ca64  1  0.59335108  0.09296867  0.08188861  1
  Ca2+  Ca65  1  0.56801061  0.60689724  0.76134669  1
  Ca2+  Ca66  1  0.57259839  0.60495462  0.77027605  1
  Ca2+  Ca67  1  0.57365542  0.07802155  0.72963803  1
  Ca2+  Ca68  1  0.74493354  0.59213072  0.92736543  1
  Ca2+  Ca69  1  0.07996363  0.60567553  0.57629505  1
  Ca2+  Ca70  1  0.05560462  0.07993508  0.24519782  1
  Ca2+  Ca71  1  0.21599618  0.58333934  0.07941394  1
  Ca2+  Ca72  1  0.74690406  0.40677277  0.25324763  1
  Ca2+  Ca73  1  0.78182014  0.92073284  0.26502029  1
  Ca2+  Ca74  1  0.93713160  0.41680275  0.07319358  1
  Ca2+  Ca75  1  0.58201661  0.41753754  0.08782079  1
  Ca2+  Ca76  1  0.41918483  0.39829450  0.57899349  1
  Ca2+  Ca77  1  0.59261785  0.40260362  0.76064372  1
  Ca2+  Ca78  1  0.41865898  0.90041003  0.24622661  1
  Ca2+  Ca79  1  0.07710535  0.90059398  0.91491489  1
  Ca2+  Ca80  1  0.74396543  0.40935564  0.91778290  1
  Ca2+  Ca81  1  0.41509557  0.40178809  0.91900343  1
  Ca2+  Ca82  1  0.92529283  0.41435924  0.07072239  1
  Ca2+  Ca83  1  0.24144745  0.90755900  0.09672512  1
  Ca2+  Ca84  1  0.08508526  0.90508844  0.58108859  1
  Ca2+  Ca85  1  0.24532969  0.90799506  0.41170056  1
  Ca2+  Ca86  1  0.75561206  0.90544332  0.91984188  1
  Ca2+  Ca87  1  0.75342595  0.41320967  0.91863644  1
  Ca2+  Ca88  1  0.59198737  0.40935221  0.40035660  1
  Ca2+  Ca89  1  0.06612012  0.90193384  0.91527904  1
  Ca2+  Ca90  1  0.74411095  0.90731578  0.57898848  1
  Ca2+  Ca91  1  0.07248460  0.40829992  0.59349576  1
  Ca2+  Ca92  1  0.24592752  0.41426470  0.07214023  1
  Ca2+  Ca93  1  0.40588128  0.89961412  0.24666114  1
  Ca2+  Ca94  1  0.24288179  0.40863905  0.40946424  1
  Ca2+  Ca95  1  0.57818609  0.41511231  0.07879424  1
  Ca2+  Ca96  1  0.07909661  0.41250364  0.25022741  1
  Ca2+  Ca97  1  0.89882420  0.90768318  0.75140459  1
  Ca2+  Ca98  1  0.91498897  0.40032060  0.42161844  1
  Ca2+  Ca99  1  0.25606920  0.91076778  0.74224689  1
  Ca2+  Ca100  1  0.59409372  0.90853532  0.74791831  1
  Ca2+  Ca101  1  0.40634140  0.39832435  0.57884322  1
  Ca2+  Ca102  1  0.09163668  0.41349168  0.24825937  1
  Ca2+  Ca103  1  0.09636334  0.90587084  0.58062077  1
  Ca2+  Ca104  1  0.42044205  0.90639398  0.58837449  1
  Ca2+  Ca105  1  0.23570170  0.40168244  0.75293558  1
  Ca2+  Ca106  1  0.06397871  0.91110338  0.25660445  1
  Ca2+  Ca107  1  0.40786700  0.90683514  0.58777074  1
  Mn3.34+  Mn108  1  0.08579158  0.33305504  0.08008394  1
  Mn3.34+  Mn109  1  0.08168951  0.33893245  0.42001539  1
  Mn3.34+  Mn110  1  0.07877471  0.33604130  0.75763067  1
  Mn3.34+  Mn111  1  0.07741119  0.83409515  0.08901580  1
  Mn3.34+  Mn112  1  0.07802809  0.82974875  0.41376386  1
  Mn3.34+  Mn113  1  0.08465176  0.83317324  0.75218164  1
  Mn3.34+  Mn114  1  0.41256041  0.33313372  0.08347963  1
  Mn3.34+  Mn115  1  0.41767776  0.33273735  0.40906511  1
  Mn3.34+  Mn116  1  0.41590627  0.32970891  0.75615716  1
  Mn3.34+  Mn117  1  0.41857217  0.83789211  0.07360265  1
  Mn3.34+  Mn118  1  0.41768652  0.82556550  0.42167222  1
  Mn3.34+  Mn119  1  0.41659642  0.83429759  0.75473939  1
  Mn3.34+  Mn120  1  0.75344524  0.32984983  0.08889111  1
  Mn3.34+  Mn121  1  0.74949754  0.32875535  0.41880277  1
  Mn3.34+  Mn122  1  0.75003147  0.33238964  0.75130651  1
  Mn3.34+  Mn123  1  0.75113886  0.84537037  0.09166346  1
  Mn3.34+  Mn124  1  0.75587953  0.84042522  0.41570567  1
  Mn3.34+  Mn125  1  0.74935777  0.83648074  0.75067556  1
  Mn3.34+  Mn126  1  0.25139968  0.33460511  0.24336091  1
  Mn3.34+  Mn127  1  0.24543854  0.33218711  0.58452175  1
  Mn3.34+  Mn128  1  0.24716862  0.33205552  0.91722458  1
  Mn3.34+  Mn129  1  0.24352755  0.83494648  0.25140071  1
  Mn3.34+  Mn130  1  0.25197248  0.83102981  0.58175777  1
  Mn3.34+  Mn131  1  0.25351501  0.83301583  0.91751127  1
  Mn3.34+  Mn132  1  0.58398396  0.33606174  0.24539418  1
  Mn3.34+  Mn133  1  0.58851395  0.32945251  0.58175980  1
  Mn3.34+  Mn134  1  0.58363023  0.33169248  0.91730309  1
  Mn3.34+  Mn135  1  0.59004876  0.83460090  0.24557090  1
  Mn3.34+  Mn136  1  0.58410028  0.83212507  0.58342234  1
  Mn3.34+  Mn137  1  0.58343126  0.83322647  0.91657284  1
  Mn3.34+  Mn138  1  0.91364815  0.33069436  0.24718938  1
  Mn3.34+  Mn139  1  0.91181557  0.33606337  0.58816956  1
  Mn3.34+  Mn140  1  0.92215705  0.33027771  0.91007826  1
  Mn3.34+  Mn141  1  0.91642317  0.83693038  0.24460193  1
  Mn3.34+  Mn142  1  0.91627164  0.83303587  0.57835880  1
  Mn3.34+  Mn143  1  0.91016936  0.82907438  0.91930845  1
  Mn3.34+  Mn144  1  0.75689223  0.67426418  0.41869606  1
  Mn3.34+  Mn145  1  0.07890538  0.66873200  0.42082988  1
  Mn3.34+  Mn146  1  0.25197914  0.16269239  0.58114369  1
  Mn3.34+  Mn147  1  0.58612935  0.16911342  0.24832377  1
  Mn3.34+  Mn148  1  0.74504976  0.16631683  0.75155165  1
  Mn3.34+  Mn149  1  0.42091323  0.16530634  0.75030838  1
  Mn3.34+  Mn150  1  0.75301388  0.15928827  0.75088555  1
  Mn3.34+  Mn151  1  0.73753342  0.15386824  0.42233704  1
  Mn3.34+  Mn152  1  0.07998441  0.16857652  0.74969586  1
  Mn3.34+  Mn153  1  0.59489227  0.66304728  0.24390766  1
  Mn3.34+  Mn154  1  0.08552930  0.17053304  0.41594029  1
  Mn3.34+  Mn155  1  0.25219556  0.16115815  0.24289073  1
  Mn3.34+  Mn156  1  0.40890778  0.66876129  0.08230041  1
  Mn3.34+  Mn157  1  0.41940891  0.67163329  0.41972848  1
  Mn3.34+  Mn158  1  0.91849207  0.16550119  0.91514242  1
  Mn3.34+  Mn159  1  0.92152882  0.66484984  0.91952289  1
  Mn3.34+  Mn160  1  0.43137559  0.16182580  0.42139590  1
  Mn3.34+  Mn161  1  0.75121655  0.15140176  0.42286689  1
  Mn3.34+  Mn162  1  0.57985743  0.16781279  0.91361967  1
  Mn3.34+  Mn163  1  0.07833944  0.16128379  0.08084886  1
  Mn3.34+  Mn164  1  0.41636501  0.16711758  0.08266811  1
  Mn3.34+  Mn165  1  0.07543245  0.16515487  0.41745751  1
  Mn3.34+  Mn166  1  0.75234307  0.67028345  0.74618736  1
  Mn3.34+  Mn167  1  0.07552870  0.66710678  0.08652065  1
  Mn3.34+  Mn168  1  0.08842988  0.16609536  0.07908755  1
  Mn3.34+  Mn169  1  0.58419832  0.66972971  0.57649777  1
  Mn3.34+  Mn170  1  0.91693104  0.67226128  0.24668383  1
  Mn3.34+  Mn171  1  0.58572698  0.16780166  0.57961143  1
  Mn3.34+  Mn172  1  0.58450133  0.66945429  0.24769110  1
  Mn3.34+  Mn173  1  0.41950347  0.66398068  0.08479915  1
  Mn3.34+  Mn174  1  0.75685900  0.66934188  0.08548065  1
  Mn3.34+  Mn175  1  0.76268983  0.66544923  0.74849694  1
  Mn3.34+  Mn176  1  0.76382576  0.16021029  0.09188386  1
  Mn3.34+  Mn177  1  0.91496548  0.16834128  0.58132674  1
  Mn3.34+  Mn178  1  0.24407195  0.66902683  0.25497157  1
  Mn3.34+  Mn179  1  0.41798470  0.16808900  0.41899523  1
  Mn3.34+  Mn180  1  0.43191805  0.00243187  0.42583989  1
  Mn3.34+  Mn181  1  0.07363469  -0.00242730  0.41601804  1
  Mn3.34+  Mn182  1  0.40255748  0.49893501  0.74696048  1
  Mn3.34+  Mn183  1  0.74944736  0.50529094  0.42324952  1
  Mn3.34+  Mn184  1  0.89259511  0.00268684  0.58165447  1
  Mn3.34+  Mn185  1  0.40888389  0.00220454  0.74592873  1
  Mn3.34+  Mn186  1  0.58075983  -0.00356949  0.92745459  1
  Mn3.34+  Mn187  1  0.76020908  0.50206670  0.08941031  1
  Mn3.34+  Mn188  1  0.60043631  0.00201464  0.26271311  1
  Mn3.34+  Mn189  1  0.91441619  0.50232693  0.24381045  1
  Mn3.34+  Mn190  1  0.41729519  0.00248517  0.09231729  1
  Mn3.34+  Mn191  1  0.58632867  0.50515227  0.58523973  1
  Mn3.34+  Mn192  1  0.91830023  0.50193142  0.58840932  1
  Mn3.34+  Mn193  1  0.24683760  0.00232094  0.92838253  1
  Mn3.34+  Mn194  1  0.91393683  0.00042917  0.92770500  1
  Mn3.34+  Mn195  1  0.76256110  0.49896846  0.74087794  1
  Mn3.34+  Mn196  1  0.24073222  0.49522663  0.92010225  1
  Mn3.34+  Mn197  1  0.06289740  -0.00441510  0.07322802  1
  Mn3.34+  Mn198  1  0.58901938  -0.00179305  0.58114044  1
  Mn3.34+  Mn199  1  0.41379304  0.49856555  0.08089321  1
  Mn3.34+  Mn200  1  0.24521616  0.50056671  0.57847219  1
  Mn3.34+  Mn201  1  0.40998626  0.50712494  0.42099124  1
  Mn3.34+  Mn202  1  0.76329125  0.49898194  0.42290303  1
  Mn3.34+  Mn203  1  0.56959388  0.00062363  0.92611621  1
  Mn3.34+  Mn204  1  0.90408631  0.00982690  0.57955329  1
  Mn3.34+  Mn205  1  0.60749619  -0.00524748  0.26380487  1
  Mn3.34+  Mn206  1  0.24562457  0.50084838  0.25098639  1
  Mn3.34+  Mn207  1  0.25967523  -0.00438134  0.92746531  1
  Mn3.34+  Mn208  1  0.44280191  -0.00078795  0.42420882  1
  Mn3.34+  Mn209  1  0.41653554  0.49260026  0.74893538  1
  Mn3.34+  Mn210  1  0.92452001  0.50196447  0.91535086  1
  Mn3.34+  Mn211  1  0.07732767  0.50417558  0.41217801  1
  Mn3.34+  Mn212  1  0.08846646  -0.00157715  0.74283080  1
  Mn3.34+  Mn213  1  0.60031108  0.49889209  0.58739793  1
  Mn3.34+  Mn214  1  0.42418254  0.50140050  0.41907036  1
  Mn3.34+  Mn215  1  0.08708633  0.49508733  0.74190487  1
  O2-  O216  1  -0.00144651  0.15534230  -0.00181495  1
  O2-  O217  1  -0.00101975  0.16052740  0.33019865  1
  O2-  O218  1  0.00274693  0.15619722  0.66286870  1
  O2-  O219  1  -0.00075667  0.65162671  0.00145501  1
  O2-  O220  1  -0.00155480  0.67563948  0.32762169  1
  O2-  O221  1  0.00767236  0.67187122  0.66045525  1
  O2-  O222  1  0.33222644  0.16363855  0.01341183  1
  O2-  O223  1  0.32770329  0.14269350  0.33860083  1
  O2-  O224  1  0.33837552  0.15129054  0.66408733  1
  O2-  O225  1  0.32241408  0.63816897  0.01175251  1
  O2-  O226  1  0.34367581  0.65835091  0.32563012  1
  O2-  O227  1  0.32021365  0.66862369  0.67826169  1
  O2-  O228  1  0.66887929  0.15883847  -0.00452189  1
  O2-  O229  1  0.66700515  0.17620760  0.33657816  1
  O2-  O230  1  0.67231439  0.18366228  0.66290153  1
  O2-  O231  1  0.67374166  0.66005209  0.00417673  1
  O2-  O232  1  0.67470118  0.64370146  0.32855715  1
  O2-  O233  1  0.67519233  0.64196472  0.66303258  1
  O2-  O234  1  0.16965894  0.15554771  0.00565654  1
  O2-  O235  1  0.16573122  0.15129839  0.33023201  1
  O2-  O236  1  0.16581656  0.15987625  0.66116534  1
  O2-  O237  1  0.15910222  0.65500666  0.00689413  1
  O2-  O238  1  0.16199063  0.64996935  0.32588316  1
  O2-  O239  1  0.15257681  0.66291891  0.66702989  1
  O2-  O240  1  0.50370761  0.14779546  0.00573607  1
  O2-  O241  1  0.49708032  0.14691369  0.32992733  1
  O2-  O242  1  0.51408575  0.16666961  0.67223996  1
  O2-  O243  1  0.49174140  0.64229365  -0.00009809  1
  O2-  O244  1  0.50022053  0.64941692  0.33131530  1
  O2-  O245  1  0.50588661  0.64948006  0.65456986  1
  O2-  O246  1  0.82785964  0.16461291  -0.00259445  1
  O2-  O247  1  0.82742271  0.18036268  0.34530811  1
  O2-  O248  1  0.83867461  0.16263442  0.67341651  1
  O2-  O249  1  0.82791915  0.65698755  -0.00645932  1
  O2-  O250  1  0.83151941  0.67547222  0.32719069  1
  O2-  O251  1  0.84943183  0.66548927  0.67571729  1
  O2-  O252  1  -0.00400974  0.34443023  0.00313599  1
  O2-  O253  1  -0.00124340  0.34862682  0.32914618  1
  O2-  O254  1  0.00309500  0.33307990  0.66857580  1
  O2-  O255  1  -0.00318880  0.84546482  0.00184447  1
  O2-  O256  1  -0.00248600  0.82675010  0.32833856  1
  O2-  O257  1  0.00344207  0.84808822  0.66560511  1
  O2-  O258  1  0.33208872  0.34685424  0.00044281  1
  O2-  O259  1  0.32064400  0.33114506  0.33577978  1
  O2-  O260  1  0.33003287  0.34793812  0.66971260  1
  O2-  O261  1  0.32484248  0.84871231  0.00675302  1
  O2-  O262  1  0.33352697  0.84145818  0.33637820  1
  O2-  O263  1  0.33825293  0.84277252  0.66159765  1
  O2-  O264  1  0.67089610  0.34353003  0.00369941  1
  O2-  O265  1  0.66942506  0.33617665  0.33083262  1
  O2-  O266  1  0.66158047  0.31597294  0.67312839  1
  O2-  O267  1  0.67301452  0.83473756  -0.00298331  1
  O2-  O268  1  0.67417294  0.85025972  0.32456045  1
  O2-  O269  1  0.66740286  0.85189437  0.66348916  1
  O2-  O270  1  0.17095866  0.34565712  0.00542276  1
  O2-  O271  1  0.16227868  0.34810044  0.32904638  1
  O2-  O272  1  0.16036817  0.33597832  0.66670367  1
  O2-  O273  1  0.16291691  0.85243567  0.00175971  1
  O2-  O274  1  0.15967202  0.85400734  0.32929350  1
  O2-  O275  1  0.16931030  0.85116046  0.66809363  1
  O2-  O276  1  0.50480221  0.35480857  0.00218308  1
  O2-  O277  1  0.50433763  0.34860450  0.33347398  1
  O2-  O278  1  0.50114783  0.34411311  0.66647151  1
  O2-  O279  1  0.50143364  0.83994714  -0.00285930  1
  O2-  O280  1  0.49171102  0.83310065  0.33184199  1
  O2-  O281  1  0.50068647  0.84787142  0.66787441  1
  O2-  O282  1  0.83228753  0.34653059  0.00304652  1
  O2-  O283  1  0.83418621  0.32491276  0.33307497  1
  O2-  O284  1  0.82867503  0.32056748  0.67161809  1
  O2-  O285  1  0.82658677  0.83002512  0.00054226  1
  O2-  O286  1  0.83552540  0.82988063  0.32625208  1
  O2-  O287  1  0.83248288  0.84003602  0.66201424  1
  O2-  O288  1  0.01099321  0.17683806  0.16904679  1
  O2-  O289  1  -0.00083757  0.18379920  0.49974323  1
  O2-  O290  1  -0.00545963  0.18100054  0.82638013  1
  O2-  O291  1  0.00305801  0.68753849  0.17200345  1
  O2-  O292  1  0.00471879  0.68648919  0.49778578  1
  O2-  O293  1  0.00027780  0.67110360  0.84019233  1
  O2-  O294  1  0.34220698  0.18520858  0.17822361  1
  O2-  O295  1  0.33081901  0.17944660  0.49336426  1
  O2-  O296  1  0.33264549  0.17182396  0.81888464  1
  O2-  O297  1  0.33456040  0.68305636  0.16835289  1
  O2-  O298  1  0.34595329  0.69055404  0.49709535  1
  O2-  O299  1  0.32835762  0.68147696  0.84170971  1
  O2-  O300  1  0.66803802  0.18387752  0.15277142  1
  O2-  O301  1  0.66368637  0.18821634  0.49679266  1
  O2-  O302  1  0.66824196  0.19347979  0.83074397  1
  O2-  O303  1  0.66795309  0.68882604  0.16076092  1
  O2-  O304  1  0.66864830  0.68006397  0.49665901  1
  O2-  O305  1  0.66647396  0.67374726  0.82332922  1
  O2-  O306  1  0.16972955  0.19064101  0.16711941  1
  O2-  O307  1  0.16738146  0.18337594  0.49600183  1
  O2-  O308  1  0.16877683  0.18565057  0.81368463  1
  O2-  O309  1  0.17272381  0.67862177  0.16268720  1
  O2-  O310  1  0.15757162  0.67287033  0.49789360  1
  O2-  O311  1  0.16988575  0.67279710  0.83423228  1
  O2-  O312  1  0.50747854  0.17243644  0.16161646  1
  O2-  O313  1  0.50058984  0.19570748  0.50796571  1
  O2-  O314  1  0.50066249  0.18185516  0.83109536  1
  O2-  O315  1  0.49287931  0.68738212  0.17253610  1
  O2-  O316  1  0.51101543  0.68978717  0.48876711  1
  O2-  O317  1  0.49815058  0.66716290  0.83828511  1
  O2-  O318  1  0.83170871  0.19469198  0.15826635  1
  O2-  O319  1  0.82512224  0.18724260  0.50112938  1
  O2-  O320  1  0.83180434  0.18476909  0.83256244  1
  O2-  O321  1  0.83363353  0.69297007  0.16721591  1
  O2-  O322  1  0.82942425  0.68974926  0.49944043  1
  O2-  O323  1  0.83053767  0.68441670  0.83959921  1
  O2-  O324  1  -0.00181604  0.31526568  0.16876502  1
  O2-  O325  1  0.00016163  0.32561343  0.49824359  1
  O2-  O326  1  0.00389418  0.30765622  0.83527846  1
  O2-  O327  1  0.00085066  0.81323735  0.17143420  1
  O2-  O328  1  0.01037822  0.81719485  0.51021561  1
  O2-  O329  1  -0.00055923  0.82564675  0.83396402  1
  O2-  O330  1  0.32945756  0.31289023  0.16147553  1
  O2-  O331  1  0.33890386  0.32265818  0.50251951  1
  O2-  O332  1  0.33606230  0.31930780  0.83866918  1
  O2-  O333  1  0.33299791  0.82311916  0.17177595  1
  O2-  O334  1  0.33443070  0.81755479  0.50152250  1
  O2-  O335  1  0.32464506  0.82414395  0.82610176  1
  O2-  O336  1  0.66841933  0.31365873  0.16366439  1
  O2-  O337  1  0.66379170  0.30965925  0.49537744  1
  O2-  O338  1  0.66825969  0.31616690  0.83834115  1
  O2-  O339  1  0.66927441  0.81215643  0.15763219  1
  O2-  O340  1  0.67128357  0.82899266  0.50548843  1
  O2-  O341  1  0.66480168  0.82055505  0.82777931  1
  O2-  O342  1  0.15890877  0.31786578  0.17279496  1
  O2-  O343  1  0.16690249  0.32434319  0.49840965  1
  O2-  O344  1  0.17138015  0.31964178  0.82773396  1
  O2-  O345  1  0.16857900  0.82158047  0.16459897  1
  O2-  O346  1  0.16731718  0.83150081  0.50201508  1
  O2-  O347  1  0.15681219  0.82913803  0.84388390  1
  O2-  O348  1  0.50629831  0.32931977  0.15706512  1
  O2-  O349  1  0.49572780  0.32134779  0.50775858  1
  O2-  O350  1  0.50512759  0.32856911  0.83489555  1
  O2-  O351  1  0.49209836  0.82272208  0.17202058  1
  O2-  O352  1  0.49344286  0.81401886  0.51152628  1
  O2-  O353  1  0.50294136  0.83141154  0.82972272  1
  O2-  O354  1  0.83487380  0.31111731  0.16662356  1
  O2-  O355  1  0.83641903  0.31985131  0.49473218  1
  O2-  O356  1  0.82674889  0.31884684  0.83954523  1
  O2-  O357  1  0.83376197  0.81682202  0.16501965  1
  O2-  O358  1  0.83593194  0.81367514  0.49932280  1
  O2-  O359  1  0.83092941  0.81874428  0.83378316  1
  O2-  O360  1  0.09351285  0.07824370  0.11479220  1
  O2-  O361  1  0.09081421  0.07897452  0.45298897  1
  O2-  O362  1  0.10246658  0.07953096  0.76244330  1
  O2-  O363  1  0.09222751  0.58504538  0.12319793  1
  O2-  O364  1  0.07070643  0.58342125  0.43340100  1
  O2-  O365  1  0.08790407  0.56861572  0.78052569  1
  O2-  O366  1  0.40823008  0.08388767  0.11640740  1
  O2-  O367  1  0.41782206  0.08243291  0.46247524  1
  O2-  O368  1  0.43796596  0.08185061  0.76937496  1
  O2-  O369  1  0.42031964  0.57822693  0.12401258  1
  O2-  O370  1  0.42489785  0.58449707  0.46124236  1
  O2-  O371  1  0.42626870  0.57935871  0.76579325  1
  O2-  O372  1  0.74169672  0.08543938  0.10910946  1
  O2-  O373  1  0.77701857  0.07427108  0.45033725  1
  O2-  O374  1  0.71736781  0.08119870  0.78367834  1
  O2-  O375  1  0.74153376  0.58151637  0.11620590  1
  O2-  O376  1  0.75923840  0.58620810  0.44199299  1
  O2-  O377  1  0.75642421  0.58192544  0.78892810  1
  O2-  O378  1  0.24298872  0.08069233  0.21660318  1
  O2-  O379  1  0.23654946  0.08072610  0.54876329  1
  O2-  O380  1  0.25104865  0.07640409  0.88334324  1
  O2-  O381  1  0.27338421  0.58130904  0.21126755  1
  O2-  O382  1  0.24170829  0.57823981  0.57491580  1
  O2-  O383  1  0.26340770  0.56729337  0.87303951  1
  O2-  O384  1  0.58895292  0.08019792  0.21904244  1
  O2-  O385  1  0.59245135  0.08132347  0.58589256  1
  O2-  O386  1  0.57845597  0.07678310  0.86892505  1
  O2-  O387  1  0.57050775  0.58639801  0.20824226  1
  O2-  O388  1  0.58952527  0.58190387  0.54509455  1
  O2-  O389  1  0.61142572  0.56429847  0.87998230  1
  O2-  O390  1  0.93243061  0.07209538  0.23195623  1
  O2-  O391  1  0.92085143  0.08622777  0.54697321  1
  O2-  O392  1  0.90223069  0.08044218  0.88432782  1
  O2-  O393  1  0.91515043  0.58431642  0.22996939  1
  O2-  O394  1  0.93052882  0.57203917  0.54599599  1
  O2-  O395  1  0.90674542  0.58021113  0.88078906  1
  O2-  O396  1  0.06832165  0.41620301  0.11632706  1
  O2-  O397  1  0.08519897  0.42453289  0.45307881  1
  O2-  O398  1  0.09068234  0.42000896  0.77799160  1
  O2-  O399  1  0.08498054  0.91693511  0.12126275  1
  O2-  O400  1  0.08009427  0.91728742  0.44419131  1
  O2-  O401  1  0.07378472  0.92083306  0.77966167  1
  O2-  O402  1  0.41058478  0.41884953  0.10499493  1
  O2-  O403  1  0.41870505  0.42007402  0.44708731  1
  O2-  O404  1  0.41502647  0.41445992  0.78024854  1
  O2-  O405  1  0.40651019  0.92090194  0.11478673  1
  O2-  O406  1  0.41750959  0.91688865  0.45106172  1
  O2-  O407  1  0.40563748  0.92081641  0.75231351  1
  O2-  O408  1  0.77027164  0.41985572  0.11565205  1
  O2-  O409  1  0.75158728  0.41758048  0.43505094  1
  O2-  O410  1  0.73475876  0.41992995  0.78301190  1
  O2-  O411  1  0.74819810  0.91901346  0.12009222  1
  O2-  O412  1  0.76755906  0.91660354  0.44212905  1
  O2-  O413  1  0.75493319  0.91409391  0.77783273  1
  O2-  O414  1  0.22692763  0.42171135  0.20765907  1
  O2-  O415  1  0.26932367  0.42084301  0.54468079  1
  O2-  O416  1  0.26494068  0.41887080  0.88711489  1
  O2-  O417  1  0.26841975  0.91766940  0.23398465  1
  O2-  O418  1  0.26981812  0.91828330  0.55583876  1
  O2-  O419  1  0.23823207  0.92152482  0.87977602  1
  O2-  O420  1  0.60791717  0.41920068  0.21662991  1
  O2-  O421  1  0.57562305  0.41984938  0.54814065  1
  O2-  O422  1  0.60269511  0.41503191  0.89743636  1
  O2-  O423  1  0.56016337  0.92299900  0.22269149  1
  O2-  O424  1  0.55989808  0.91871546  0.55517906  1
  O2-  O425  1  0.59934707  0.91926055  0.88794988  1
  O2-  O426  1  0.91706697  0.42034259  0.20982007  1
  O2-  O427  1  0.92528620  0.42272694  0.55653913  1
  O2-  O428  1  0.89873461  0.41865591  0.89922029  1
  O2-  O429  1  0.92250487  0.91353542  0.23011459  1
  O2-  O430  1  0.92582238  0.92317464  0.55827597  1
  O2-  O431  1  0.92161785  0.91809444  0.88958640  1
  O2-  O432  1  0.02650973  -0.00623602  -0.04309025  1
  O2-  O433  1  0.01035178  0.00369941  0.32778882  1
  O2-  O434  1  -0.00110252  0.01131409  0.65723079  1
  O2-  O435  1  -0.01917307  0.49324456  0.00968752  1
  O2-  O436  1  0.00483610  0.48532991  0.31825080  1
  O2-  O437  1  0.00865668  0.50611471  0.65924273  1
  O2-  O438  1  0.33452479  0.00676959  0.01355407  1
  O2-  O439  1  0.33058443  0.00583226  0.36213295  1
  O2-  O440  1  0.29952958  0.01247318  0.71860433  1
  O2-  O441  1  0.33099170  0.50773686  0.00149798  1
  O2-  O442  1  0.33421616  0.50213264  0.33166842  1
  O2-  O443  1  0.34274708  0.48887813  0.64768232  1
  O2-  O444  1  0.66192871  0.02656896  -0.00010444  1
  O2-  O445  1  0.70699136  0.00052583  0.31517256  1
  O2-  O446  1  0.64842423  -0.00784277  0.67665125  1
  O2-  O447  1  0.66460925  0.48853825  0.02615411  1
  O2-  O448  1  0.65463007  0.50071907  0.35914523  1
  O2-  O449  1  0.64947981  0.50785556  0.69202133  1
  O2-  O450  1  0.17808322  -0.00953960  0.02185048  1
  O2-  O451  1  0.16904487  0.00742015  0.35056288  1
  O2-  O452  1  0.15263770  -0.01772717  0.65262279  1
  O2-  O453  1  0.17238928  0.50447294  0.01020171  1
  O2-  O454  1  0.16272980  0.48482850  0.33347092  1
  O2-  O455  1  0.17562745  0.48292564  0.67012987  1
  O2-  O456  1  0.51127706  0.01628529  0.02642436  1
  O2-  O457  1  0.49016897  0.00712468  0.31404626  1
  O2-  O458  1  0.48832597  -0.00245747  0.66002976  1
  O2-  O459  1  0.51376809  0.49693695  0.03325345  1
  O2-  O460  1  0.49596738  0.52104001  0.33100235  1
  O2-  O461  1  0.49699291  0.49149292  0.66174711  1
  O2-  O462  1  0.80862648  -0.00760721  -0.04180090  1
  O2-  O463  1  0.84478133  -0.00430803  0.32328241  1
  O2-  O464  1  0.83956813  0.00340294  0.68207598  1
  O2-  O465  1  0.80693125  0.50248195  -0.03291015  1
  O2-  O466  1  0.82340226  0.49478934  0.31999933  1
  O2-  O467  1  0.82780245  0.52255174  0.64841847  1
  O2-  O468  1  0.73305952  0.75288919  0.39479270  1
  O2-  O469  1  0.42152551  0.24633607  0.38166174  1
  O2-  O470  1  0.59009979  0.74584222  0.28215021  1
  O2-  O471  1  0.24370302  0.75392607  0.60402652  1
  O2-  O472  1  0.42426333  0.75606270  0.74093435  1
  O2-  O473  1  0.24706450  0.75072005  0.27881034  1
  O2-  O474  1  0.92463443  0.74791625  0.93744161  1
  O2-  O475  1  0.09073742  0.75556286  0.73930872  1
  O2-  O476  1  0.56769041  0.25240907  0.26708109  1
  O2-  O477  1  0.73752883  0.75095239  0.72152776  1
  O2-  O478  1  0.25791966  0.24681749  0.60162015  1
  O2-  O479  1  0.08462542  0.25499498  0.38931255  1
  O2-  O480  1  0.08425979  0.75154867  0.05612696  1
  O2-  O481  1  0.07958478  0.24973587  0.05328157  1
  O2-  O482  1  0.42789574  0.25097170  0.05833314  1
  O2-  O483  1  0.24887258  0.75600301  0.93819173  1
  O2-  O484  1  0.24902045  0.25349473  0.93387011  1
  O2-  O485  1  0.57161834  0.25141454  0.94451209  1
  O2-  O486  1  0.41784469  0.75120588  0.05581071  1
  O2-  O487  1  0.41441651  0.24923160  0.72915871  1
  O2-  O488  1  0.59590792  0.74948935  0.61478871  1
  O2-  O489  1  0.10204549  0.75122297  0.39338826  1
  O2-  O490  1  0.91099360  0.25000415  0.94225446  1
  O2-  O491  1  0.92414640  0.24915295  0.59790217  1
  O2-  O492  1  0.58195170  0.75424317  0.92507505  1
