# generated using pymatgen
data_Ca108Mn108O277
_symmetry_space_group_name_H-M   'P 1'
_cell_length_a   16.00281598
_cell_length_b   22.27132073
_cell_length_c   16.36948332
_cell_angle_alpha   90.00111643
_cell_angle_beta   89.99958386
_cell_angle_gamma   89.99939861
_symmetry_Int_Tables_number   1
_chemical_formula_structural   Ca108Mn108O277
_chemical_formula_sum   'Ca108 Mn108 O277'
_cell_volume   5834.14683023
_cell_formula_units_Z   1
loop_
 _symmetry_equiv_pos_site_id
 _symmetry_equiv_pos_as_xyz
  1  'x, y, z'
loop_
 _atom_type_symbol
 _atom_type_oxidation_number
  Ca2+  2.0
  Mn3.34+  3.34
  O2-  -2.0
loop_
 _atom_site_type_symbol
 _atom_site_label
 _atom_site_symmetry_multiplicity
 _atom_site_fract_x
 _atom_site_fract_y
 _atom_site_fract_z
 _atom_site_occupancy
  Ca2+  Ca0  1  0.09067448  0.24951030  0.25976634  1
  Ca2+  Ca1  1  0.07430068  0.24810928  0.57265634  1
  Ca2+  Ca2  1  0.08415316  0.24316490  0.91561867  1
  Ca2+  Ca3  1  0.07877788  0.74507875  0.25491344  1
  Ca2+  Ca4  1  0.07051797  0.74747126  0.57566737  1
  Ca2+  Ca5  1  0.08093264  0.75160067  0.91760732  1
  Ca2+  Ca6  1  0.41959577  0.25657523  0.25546340  1
  Ca2+  Ca7  1  0.41314314  0.25931018  0.58403302  1
  Ca2+  Ca8  1  0.40996769  0.25710691  0.90950730  1
  Ca2+  Ca9  1  0.41092081  0.75556780  0.25323272  1
  Ca2+  Ca10  1  0.40963469  0.75675866  0.58379581  1
  Ca2+  Ca11  1  0.40921304  0.75048474  0.91336434  1
  Ca2+  Ca12  1  0.74311877  0.26031143  0.25911391  1
  Ca2+  Ca13  1  0.76362193  0.25788776  0.58544085  1
  Ca2+  Ca14  1  0.75631254  0.24585418  0.90399724  1
  Ca2+  Ca15  1  0.76158767  0.74619043  0.24615566  1
  Ca2+  Ca16  1  0.76758456  0.74902324  0.58286439  1
  Ca2+  Ca17  1  0.75740752  0.74559017  0.92056558  1
  Ca2+  Ca18  1  0.24223989  0.25166232  0.08232142  1
  Ca2+  Ca19  1  0.23665217  0.24584088  0.41056262  1
  Ca2+  Ca20  1  0.24861251  0.24840485  0.75802188  1
  Ca2+  Ca21  1  0.24270715  0.75163612  0.07537943  1
  Ca2+  Ca22  1  0.24011158  0.74754963  0.41408119  1
  Ca2+  Ca23  1  0.24856218  0.75471903  0.75926853  1
  Ca2+  Ca24  1  0.58336623  0.26057131  0.09091355  1
  Ca2+  Ca25  1  0.58681905  0.25819749  0.40575971  1
  Ca2+  Ca26  1  0.58896245  0.25835919  0.75585088  1
  Ca2+  Ca27  1  0.59911461  0.75649864  0.07695181  1
  Ca2+  Ca28  1  0.59166256  0.75225304  0.41364141  1
  Ca2+  Ca29  1  0.59376538  0.75067052  0.76061561  1
  Ca2+  Ca30  1  0.92643456  0.24891096  0.07644949  1
  Ca2+  Ca31  1  0.92489357  0.25521861  0.42665374  1
  Ca2+  Ca32  1  0.91289424  0.25313130  0.74474586  1
  Ca2+  Ca33  1  0.90953470  0.74268551  0.07720099  1
  Ca2+  Ca34  1  0.91784176  0.74733629  0.41985576  1
  Ca2+  Ca35  1  0.91165612  0.73937147  0.75095879  1
  Ca2+  Ca36  1  0.07214913  0.60291393  0.57400110  1
  Ca2+  Ca37  1  0.59523724  0.09494023  0.75894702  1
  Ca2+  Ca38  1  0.59992319  0.58461823  0.08182056  1
  Ca2+  Ca39  1  0.74964232  0.60159199  0.90419306  1
  Ca2+  Ca40  1  0.91215425  0.09726040  0.76393222  1
  Ca2+  Ca41  1  0.09874708  0.09594356  0.25868078  1
  Ca2+  Ca42  1  0.24127317  0.58920298  0.09050436  1
  Ca2+  Ca43  1  0.24001038  0.59001659  0.40498999  1
  Ca2+  Ca44  1  0.58736964  0.09184177  0.40760827  1
  Ca2+  Ca45  1  0.24741269  0.09317538  0.08408755  1
  Ca2+  Ca46  1  0.74653590  0.08824140  0.26028185  1
  Ca2+  Ca47  1  0.24872859  0.09388859  0.76210164  1
  Ca2+  Ca48  1  0.08417339  0.60533022  0.92111999  1
  Ca2+  Ca49  1  0.90127621  0.09750650  0.76393494  1
  Ca2+  Ca50  1  0.24189340  0.59896903  0.76686429  1
  Ca2+  Ca51  1  0.92217557  0.60132518  0.41224493  1
  Ca2+  Ca52  1  0.93373807  0.09340031  0.42522006  1
  Ca2+  Ca53  1  0.07618322  0.09814140  0.91483303  1
  Ca2+  Ca54  1  0.10533424  0.10137168  0.26182076  1
  Ca2+  Ca55  1  0.41405743  0.58373631  0.25626040  1
  Ca2+  Ca56  1  0.41171512  0.09092878  0.25227791  1
  Ca2+  Ca57  1  0.41888288  0.58968827  0.57208157  1
  Ca2+  Ca58  1  0.75646706  0.60371948  0.58227110  1
  Ca2+  Ca59  1  0.40446934  0.08921943  0.91263281  1
  Ca2+  Ca60  1  0.25463265  0.59855921  0.76755769  1
  Ca2+  Ca61  1  0.41652648  0.09500826  0.57940477  1
  Ca2+  Ca62  1  0.57604057  0.08796497  0.08653083  1
  Ca2+  Ca63  1  0.40371752  0.09597544  0.57955020  1
  Ca2+  Ca64  1  0.76730594  0.60512204  0.58341397  1
  Ca2+  Ca65  1  0.91294691  0.60393489  0.41585155  1
  Ca2+  Ca66  1  0.23147663  0.59147828  0.09297264  1
  Ca2+  Ca67  1  0.08045577  0.09965909  0.56320979  1
  Ca2+  Ca68  1  0.76404763  0.09148289  0.58772256  1
  Ca2+  Ca69  1  0.40021821  0.09140260  0.25271810  1
  Ca2+  Ca70  1  0.07309908  0.60576444  0.92077922  1
  Ca2+  Ca71  1  0.23171246  0.10173705  0.40992137  1
  Ca2+  Ca72  1  0.59699784  0.90475421  0.75171264  1
  Ca2+  Ca73  1  0.41866185  0.41256495  0.24854084  1
  Ca2+  Ca74  1  0.74022597  0.41419523  0.24313512  1
  Ca2+  Ca75  1  0.07884249  0.40243962  0.55973120  1
  Ca2+  Ca76  1  0.07788546  0.40619277  0.92156868  1
  Ca2+  Ca77  1  0.76104208  0.90664344  0.58386927  1
  Ca2+  Ca78  1  0.92405787  0.90794502  0.41979426  1
  Ca2+  Ca79  1  0.08224765  0.90482085  0.25428579  1
  Ca2+  Ca80  1  0.08127023  0.42085366  0.25753507  1
  Ca2+  Ca81  1  0.91795377  0.90585050  0.75768507  1
  Ca2+  Ca82  1  0.24783364  0.90848795  0.41339073  1
  Ca2+  Ca83  1  0.39871437  0.91176680  0.92017372  1
  Ca2+  Ca84  1  0.41818099  0.90172366  0.57906910  1
  Ca2+  Ca85  1  0.74585047  0.40912228  0.90963730  1
  Ca2+  Ca86  1  0.41944732  0.90896738  0.23560909  1
  Ca2+  Ca87  1  0.07446207  0.90609893  0.57754732  1
  Ca2+  Ca88  1  0.58802496  0.41427246  0.09241803  1
  Ca2+  Ca89  1  0.58231205  0.40846960  0.41661754  1
  Ca2+  Ca90  1  0.73326749  0.40910084  0.90724122  1
  Ca2+  Ca91  1  0.91725529  0.41583115  0.09297850  1
  Ca2+  Ca92  1  0.90480094  0.41728180  0.09591269  1
  Ca2+  Ca93  1  0.58814337  0.90332778  0.41236193  1
  Ca2+  Ca94  1  0.76113428  0.90448765  0.90515122  1
  Ca2+  Ca95  1  0.25415996  0.40376018  0.75790864  1
  Ca2+  Ca96  1  0.42696814  0.40580334  0.57902426  1
  Ca2+  Ca97  1  0.24258247  0.90706622  0.76791512  1
  Ca2+  Ca98  1  0.25670379  0.90936984  0.08014039  1
  Ca2+  Ca99  1  0.74717779  0.90137100  0.24854915  1
  Ca2+  Ca100  1  0.24508243  0.41042933  0.40895115  1
  Ca2+  Ca101  1  0.40935015  0.90931689  0.92335599  1
  Ca2+  Ca102  1  0.91797489  0.89938810  0.08659466  1
  Ca2+  Ca103  1  0.09173056  0.42232167  0.25512403  1
  Ca2+  Ca104  1  0.26688679  0.40257495  0.75905097  1
  Ca2+  Ca105  1  0.25406447  0.41102118  0.09054104  1
  Ca2+  Ca106  1  0.09043164  0.40619795  0.92202263  1
  Ca2+  Ca107  1  0.23522642  0.90739521  0.41288063  1
  Mn3.34+  Mn108  1  0.08287093  0.33425785  0.08746713  1
  Mn3.34+  Mn109  1  0.08160613  0.33251148  0.41714130  1
  Mn3.34+  Mn110  1  0.07727583  0.32967429  0.74490056  1
  Mn3.34+  Mn111  1  0.08158540  0.82957164  0.08302164  1
  Mn3.34+  Mn112  1  0.08068592  0.83301620  0.41754203  1
  Mn3.34+  Mn113  1  0.08070403  0.83489924  0.75258530  1
  Mn3.34+  Mn114  1  0.41883127  0.33493430  0.08211857  1
  Mn3.34+  Mn115  1  0.41648377  0.33279942  0.41867823  1
  Mn3.34+  Mn116  1  0.42509529  0.33244998  0.75063247  1
  Mn3.34+  Mn117  1  0.41993131  0.83918604  0.08450835  1
  Mn3.34+  Mn118  1  0.41821848  0.83031569  0.41575897  1
  Mn3.34+  Mn119  1  0.41849282  0.83558512  0.74981216  1
  Mn3.34+  Mn120  1  0.74956503  0.33617707  0.08438659  1
  Mn3.34+  Mn121  1  0.75301666  0.33239853  0.42207426  1
  Mn3.34+  Mn122  1  0.75046066  0.33488235  0.74376923  1
  Mn3.34+  Mn123  1  0.74969317  0.82878549  0.08243781  1
  Mn3.34+  Mn124  1  0.75170086  0.83237209  0.41630558  1
  Mn3.34+  Mn125  1  0.75218525  0.83865866  0.75120960  1
  Mn3.34+  Mn126  1  0.25205874  0.33771866  0.24931826  1
  Mn3.34+  Mn127  1  0.24917730  0.32859679  0.58182188  1
  Mn3.34+  Mn128  1  0.25475071  0.33105464  0.91991948  1
  Mn3.34+  Mn129  1  0.24933907  0.82920780  0.24498994  1
  Mn3.34+  Mn130  1  0.24699443  0.82973632  0.58654280  1
  Mn3.34+  Mn131  1  0.24431503  0.83069688  0.91728558  1
  Mn3.34+  Mn132  1  0.58308300  0.33857929  0.25009879  1
  Mn3.34+  Mn133  1  0.58836161  0.33614464  0.58428767  1
  Mn3.34+  Mn134  1  0.57817720  0.33676618  0.91494132  1
  Mn3.34+  Mn135  1  0.58410188  0.83174985  0.24510243  1
  Mn3.34+  Mn136  1  0.58593810  0.83037640  0.58335035  1
  Mn3.34+  Mn137  1  0.58591073  0.82882739  0.91840489  1
  Mn3.34+  Mn138  1  0.91439994  0.33910194  0.25558959  1
  Mn3.34+  Mn139  1  0.91336362  0.33272726  0.58274116  1
  Mn3.34+  Mn140  1  0.91524525  0.32747220  0.91360925  1
  Mn3.34+  Mn141  1  0.91663410  0.82878753  0.24822628  1
  Mn3.34+  Mn142  1  0.91701427  0.82805278  0.58521388  1
  Mn3.34+  Mn143  1  0.91912485  0.82844095  0.91638430  1
  Mn3.34+  Mn144  1  0.41114516  0.16368809  0.08175114  1
  Mn3.34+  Mn145  1  0.91857099  0.16705403  0.58101131  1
  Mn3.34+  Mn146  1  0.58428050  0.17083195  0.91235935  1
  Mn3.34+  Mn147  1  0.07450410  0.65784134  0.08901598  1
  Mn3.34+  Mn148  1  0.59178252  0.66516848  0.91451348  1
  Mn3.34+  Mn149  1  0.58922809  0.66845805  0.58050378  1
  Mn3.34+  Mn150  1  0.24641610  0.16210605  0.91336213  1
  Mn3.34+  Mn151  1  0.58267568  0.17525442  0.58466608  1
  Mn3.34+  Mn152  1  0.41487021  0.66498335  0.41568726  1
  Mn3.34+  Mn153  1  0.41836739  0.66987487  0.07993856  1
  Mn3.34+  Mn154  1  0.24681460  0.17426977  0.58392823  1
  Mn3.34+  Mn155  1  0.41620428  0.66772958  0.75530046  1
  Mn3.34+  Mn156  1  0.58057950  0.66217052  0.57972521  1
  Mn3.34+  Mn157  1  0.91274723  0.65846687  0.24443174  1
  Mn3.34+  Mn158  1  0.92431795  0.16964395  0.24955316  1
  Mn3.34+  Mn159  1  0.24746123  0.66898184  0.57984223  1
  Mn3.34+  Mn160  1  0.76211879  0.65626735  0.08148952  1
  Mn3.34+  Mn161  1  0.41258354  0.16943036  0.41389427  1
  Mn3.34+  Mn162  1  0.59756135  0.66370067  0.25481459  1
  Mn3.34+  Mn163  1  0.42876820  0.66036132  0.75605481  1
  Mn3.34+  Mn164  1  0.08165407  0.16677173  0.75011076  1
  Mn3.34+  Mn165  1  0.74737662  0.17002540  0.07574103  1
  Mn3.34+  Mn166  1  0.41606199  0.16910666  0.75423571  1
  Mn3.34+  Mn167  1  0.59164989  0.18099612  0.58371371  1
  Mn3.34+  Mn168  1  0.58775689  0.16791858  0.25119657  1
  Mn3.34+  Mn169  1  0.24592358  0.66380451  0.25114920  1
  Mn3.34+  Mn170  1  0.58607557  0.65818935  0.25739802  1
  Mn3.34+  Mn171  1  0.91112947  0.16267320  0.24890698  1
  Mn3.34+  Mn172  1  0.08312062  0.66257291  0.41474078  1
  Mn3.34+  Mn173  1  0.75275468  0.16748938  0.41984731  1
  Mn3.34+  Mn174  1  0.07770027  0.67031591  0.74707435  1
  Mn3.34+  Mn175  1  0.75257528  0.16655621  0.75611123  1
  Mn3.34+  Mn176  1  0.42164873  0.16839200  0.08041946  1
  Mn3.34+  Mn177  1  0.76074390  0.16368317  0.07465641  1
  Mn3.34+  Mn178  1  0.08261141  0.16883685  0.07900634  1
  Mn3.34+  Mn179  1  0.41854132  0.66985851  0.08006269  1
  Mn3.34+  Mn180  1  0.58674711  -0.00260945  0.91676135  1
  Mn3.34+  Mn181  1  0.25955606  0.50385420  0.57782598  1
  Mn3.34+  Mn182  1  0.41831335  0.49924187  0.07344383  1
  Mn3.34+  Mn183  1  0.91743549  -0.00113234  0.91812336  1
  Mn3.34+  Mn184  1  0.58336612  0.49816522  0.59624742  1
  Mn3.34+  Mn185  1  0.75104166  0.00153661  0.41298594  1
  Mn3.34+  Mn186  1  0.41896506  0.00225203  0.75552995  1
  Mn3.34+  Mn187  1  0.91901601  0.50279450  0.91682573  1
  Mn3.34+  Mn188  1  0.90908795  0.50810887  0.91902817  1
  Mn3.34+  Mn189  1  0.58536159  -0.00158622  0.24925349  1
  Mn3.34+  Mn190  1  0.24453829  0.49859053  0.57636739  1
  Mn3.34+  Mn191  1  0.57579300  0.00190469  0.91781523  1
  Mn3.34+  Mn192  1  0.24539529  -0.00149010  0.25657738  1
  Mn3.34+  Mn193  1  0.58364561  0.50416418  0.92615443  1
  Mn3.34+  Mn194  1  0.08068770  0.50100299  0.75332484  1
  Mn3.34+  Mn195  1  0.74542567  0.50274305  0.40445718  1
  Mn3.34+  Mn196  1  0.25346977  -0.00337960  0.58419304  1
  Mn3.34+  Mn197  1  0.09107402  -0.00201124  0.07650267  1
  Mn3.34+  Mn198  1  0.41708319  0.50005094  0.39971747  1
  Mn3.34+  Mn199  1  0.59506252  0.00093249  0.58519671  1
  Mn3.34+  Mn200  1  0.92195403  -0.00250404  0.26089441  1
  Mn3.34+  Mn201  1  0.74982570  -0.00502042  0.08519468  1
  Mn3.34+  Mn202  1  0.08128426  0.00025641  0.75267422  1
  Mn3.34+  Mn203  1  0.74435474  0.50360959  0.74285193  1
  Mn3.34+  Mn204  1  0.91751488  0.49887771  0.58037704  1
  Mn3.34+  Mn205  1  0.06949921  0.49752643  0.75427842  1
  Mn3.34+  Mn206  1  0.76039998  -0.00003119  0.08563570  1
  Mn3.34+  Mn207  1  0.24888712  0.50072050  0.92614926  1
  Mn3.34+  Mn208  1  0.07670839  0.00359837  0.08010931  1
  Mn3.34+  Mn209  1  0.58438020  -0.00290168  0.58271368  1
  Mn3.34+  Mn210  1  0.91516250  0.00019184  0.59558797  1
  Mn3.34+  Mn211  1  0.43426991  0.49732543  0.75611735  1
  Mn3.34+  Mn212  1  0.75443875  0.49680709  0.40387770  1
  Mn3.34+  Mn213  1  0.41995679  0.00061922  0.41609635  1
  Mn3.34+  Mn214  1  0.90517690  0.49250619  0.58356809  1
  Mn3.34+  Mn215  1  0.24249177  0.00196455  0.58213592  1
  O2-  O216  1  0.00680889  0.17458654  -0.00479360  1
  O2-  O217  1  0.00165759  0.16185844  0.33082883  1
  O2-  O218  1  -0.00245253  0.16092615  0.66899319  1
  O2-  O219  1  0.00961179  0.67048804  0.00018635  1
  O2-  O220  1  -0.00200662  0.66725385  0.33738696  1
  O2-  O221  1  0.00831242  0.67561441  0.66499880  1
  O2-  O222  1  0.33111387  0.16466884  -0.00459007  1
  O2-  O223  1  0.33773130  0.16332575  0.32975420  1
  O2-  O224  1  0.33730144  0.16502448  0.66063819  1
  O2-  O225  1  0.32547162  0.66896836  0.00803154  1
  O2-  O226  1  0.33436565  0.66901592  0.33233134  1
  O2-  O227  1  0.33453216  0.66141121  0.66779721  1
  O2-  O228  1  0.65895452  0.17017477  0.00036648  1
  O2-  O229  1  0.66987298  0.16170399  0.33490873  1
  O2-  O230  1  0.66889567  0.16549309  0.67043400  1
  O2-  O231  1  0.66385753  0.66528201  0.00262058  1
  O2-  O232  1  0.67018005  0.67760914  0.33805788  1
  O2-  O233  1  0.67017712  0.66927976  0.66184773  1
  O2-  O234  1  0.16970991  0.16409692  0.00097214  1
  O2-  O235  1  0.16542476  0.16438483  0.32627903  1
  O2-  O236  1  0.16816726  0.16800567  0.66965090  1
  O2-  O237  1  0.16085196  0.66446889  0.00820834  1
  O2-  O238  1  0.17166547  0.66794988  0.33941999  1
  O2-  O239  1  0.17283101  0.66462031  0.67190083  1
  O2-  O240  1  0.50200308  0.16716168  -0.00145117  1
  O2-  O241  1  0.49652940  0.15872265  0.33275533  1
  O2-  O242  1  0.49679059  0.16321766  0.66448127  1
  O2-  O243  1  0.50443575  0.67062400  0.00015502  1
  O2-  O244  1  0.49712009  0.67111470  0.33107102  1
  O2-  O245  1  0.49636150  0.66486861  0.66162217  1
  O2-  O246  1  0.83773490  0.17772070  -0.00326672  1
  O2-  O247  1  0.83191266  0.16172225  0.33379727  1
  O2-  O248  1  0.83542153  0.16264724  0.66776270  1
  O2-  O249  1  0.82613320  0.66826249  -0.00227949  1
  O2-  O250  1  0.84473053  0.66867552  0.33642511  1
  O2-  O251  1  0.82219273  0.66993498  0.66465703  1
  O2-  O252  1  -0.00104295  0.33565828  -0.00137111  1
  O2-  O253  1  0.00878139  0.33553718  0.32512370  1
  O2-  O254  1  0.00240635  0.33082087  0.65995117  1
  O2-  O255  1  -0.00343648  0.82626666  0.00391510  1
  O2-  O256  1  0.00049090  0.83681502  0.33302602  1
  O2-  O257  1  0.00133972  0.83085676  0.66619109  1
  O2-  O258  1  0.33017725  0.33095082  0.00660066  1
  O2-  O259  1  0.33232266  0.32926688  0.33287107  1
  O2-  O260  1  0.33036081  0.33138000  0.66819650  1
  O2-  O261  1  0.33683864  0.83166352  -0.00069153  1
  O2-  O262  1  0.33051898  0.83366525  0.33618160  1
  O2-  O263  1  0.33517312  0.83562569  0.66638319  1
  O2-  O264  1  0.66776980  0.33140705  -0.00306718  1
  O2-  O265  1  0.66585173  0.33411044  0.33382282  1
  O2-  O266  1  0.66481369  0.31976442  0.66582266  1
  O2-  O267  1  0.67055756  0.83178852  -0.00344253  1
  O2-  O268  1  0.66567034  0.82997507  0.33511083  1
  O2-  O269  1  0.66871497  0.82859673  0.66974206  1
  O2-  O270  1  0.16230576  0.33930037  -0.00367219  1
  O2-  O271  1  0.16716367  0.33073676  0.33021017  1
  O2-  O272  1  0.17254209  0.33424788  0.67133408  1
  O2-  O273  1  0.16962810  0.82679072  0.00611494  1
  O2-  O274  1  0.17026233  0.83862997  0.33688930  1
  O2-  O275  1  0.16386216  0.82902596  0.66910915  1
  O2-  O276  1  0.50440557  0.32377501  0.00191356  1
  O2-  O277  1  0.49948768  0.33393314  0.33347484  1
  O2-  O278  1  0.49872401  0.32509970  0.65952149  1
  O2-  O279  1  0.49243043  0.83029303  -0.00563200  1
  O2-  O280  1  0.50036919  0.82867198  0.33281476  1
  O2-  O281  1  0.49939869  0.83551611  0.66594489  1
  O2-  O282  1  0.83493788  0.33347777  0.00010169  1
  O2-  O283  1  0.82709414  0.33101685  0.33037254  1
  O2-  O284  1  0.83540235  0.32658469  0.66630859  1
  O2-  O285  1  0.83358945  0.83667553  -0.00047458  1
  O2-  O286  1  0.83380944  0.83097409  0.33309786  1
  O2-  O287  1  0.83181514  0.83065405  0.66628684  1
  O2-  O288  1  0.00433812  0.16716895  0.16687015  1
  O2-  O289  1  -0.00289764  0.16818293  0.50424234  1
  O2-  O290  1  0.00062133  0.16935563  0.82683216  1
  O2-  O291  1  0.00211183  0.67995818  0.16668677  1
  O2-  O292  1  0.00251288  0.66655934  0.49290969  1
  O2-  O293  1  0.01120573  0.67400953  0.83443311  1
  O2-  O294  1  0.33676537  0.16900537  0.16903213  1
  O2-  O295  1  0.33763874  0.16982182  0.50433541  1
  O2-  O296  1  0.33192920  0.16949586  0.83341740  1
  O2-  O297  1  0.33505826  0.67160380  0.16673844  1
  O2-  O298  1  0.33610773  0.67264703  0.50061758  1
  O2-  O299  1  0.32883934  0.66981433  0.82928591  1
  O2-  O300  1  0.67098544  0.16553784  0.16224896  1
  O2-  O301  1  0.66689838  0.16948911  0.49719923  1
  O2-  O302  1  0.66317027  0.17611856  0.82991374  1
  O2-  O303  1  0.66201698  0.66966258  0.16231863  1
  O2-  O304  1  0.67076498  0.67259308  0.50103876  1
  O2-  O305  1  0.67036174  0.67577608  0.83784748  1
  O2-  O306  1  0.16122437  0.16698822  0.16460594  1
  O2-  O307  1  0.17194576  0.17423718  0.50450022  1
  O2-  O308  1  0.16633068  0.16827110  0.83213323  1
  O2-  O309  1  0.17057628  0.67259869  0.15963970  1
  O2-  O310  1  0.16601996  0.66757092  0.49912298  1
  O2-  O311  1  0.16400473  0.66696463  0.82789012  1
  O2-  O312  1  0.50133946  0.16572425  0.16931947  1
  O2-  O313  1  0.49801321  0.16828226  0.50057192  1
  O2-  O314  1  0.50065290  0.17265987  0.83420831  1
  O2-  O315  1  0.49978438  0.67156604  0.16925210  1
  O2-  O316  1  0.49624596  0.67358594  0.50093246  1
  O2-  O317  1  0.50351851  0.67294912  0.83783253  1
  O2-  O318  1  0.83066638  0.16718672  0.17049184  1
  O2-  O319  1  0.83342971  0.16692872  0.50106028  1
  O2-  O320  1  0.83829079  0.17436396  0.82670460  1
  O2-  O321  1  0.83224957  0.67388259  0.16679515  1
  O2-  O322  1  0.83240723  0.66073075  0.49837976  1
  O2-  O323  1  0.82651602  0.67382716  0.82927872  1
  O2-  O324  1  -0.00183468  0.33443025  0.16504307  1
  O2-  O325  1  0.00388006  0.32785659  0.50331716  1
  O2-  O326  1  0.00742477  0.32877594  0.84193572  1
  O2-  O327  1  0.00123017  0.82874521  0.16746812  1
  O2-  O328  1  0.00023799  0.83301564  0.50088791  1
  O2-  O329  1  -0.00315942  0.82287828  0.82846370  1
  O2-  O330  1  0.33203399  0.32576838  0.16857158  1
  O2-  O331  1  0.33367409  0.32613202  0.50176295  1
  O2-  O332  1  0.32760740  0.33049305  0.82770802  1
  O2-  O333  1  0.33539136  0.82648680  0.16414519  1
  O2-  O334  1  0.33199364  0.83002033  0.49668919  1
  O2-  O335  1  0.33695745  0.83284679  0.83427340  1
  O2-  O336  1  0.66661261  0.33154923  0.16645382  1
  O2-  O337  1  0.66152327  0.32225597  0.49697291  1
  O2-  O338  1  0.66946686  0.32610769  0.84145624  1
  O2-  O339  1  0.67079733  0.82856126  0.17096719  1
  O2-  O340  1  0.66757246  0.82601264  0.49794174  1
  O2-  O341  1  0.66671230  0.82661496  0.82939136  1
  O2-  O342  1  0.16702617  0.32810488  0.17032491  1
  O2-  O343  1  0.16747807  0.32635935  0.50057549  1
  O2-  O344  1  0.16753416  0.33797448  0.83366329  1
  O2-  O345  1  0.16535099  0.82753836  0.16602719  1
  O2-  O346  1  0.17005142  0.83456294  0.49638236  1
  O2-  O347  1  0.16945502  0.82390692  0.82766457  1
  O2-  O348  1  0.49963670  0.33034237  0.16671546  1
  O2-  O349  1  0.50077141  0.32632910  0.50166106  1
  O2-  O350  1  0.50079906  0.31746847  0.83518002  1
  O2-  O351  1  0.49489121  0.82290839  0.16790143  1
  O2-  O352  1  0.49820394  0.82661523  0.49961974  1
  O2-  O353  1  0.49698646  0.83533257  0.83536865  1
  O2-  O354  1  0.83693409  0.33402158  0.16296903  1
  O2-  O355  1  0.83467481  0.32292347  0.50014850  1
  O2-  O356  1  0.82742530  0.32706319  0.83993007  1
  O2-  O357  1  0.83370355  0.83348299  0.16755957  1
  O2-  O358  1  0.83338436  0.82820147  0.50005294  1
  O2-  O359  1  0.83231044  0.82766161  0.83136515  1
  O2-  O360  1  0.08636347  0.08311975  0.09997662  1
  O2-  O361  1  0.08534223  0.07786545  0.42555187  1
  O2-  O362  1  0.08115010  0.08216847  0.76756035  1
  O2-  O363  1  0.09703380  0.57893954  0.08479152  1
  O2-  O364  1  0.07881649  0.58057001  0.43236719  1
  O2-  O365  1  0.09242717  0.58269744  0.76347563  1
  O2-  O366  1  0.41895120  0.07991143  0.10492189  1
  O2-  O367  1  0.41874764  0.08376525  0.43637737  1
  O2-  O368  1  0.41750857  0.08528390  0.76159647  1
  O2-  O369  1  0.41538895  0.57908418  0.10511216  1
  O2-  O370  1  0.41096773  0.57664334  0.43519552  1
  O2-  O371  1  0.40322472  0.57960757  0.76080149  1
  O2-  O372  1  0.74562262  0.08163602  0.10142613  1
  O2-  O373  1  0.74874021  0.08288144  0.43295074  1
  O2-  O374  1  0.76036344  0.08454234  0.75685290  1
  O2-  O375  1  0.74002396  0.58228567  0.08531615  1
  O2-  O376  1  0.75469046  0.57897908  0.43936282  1
  O2-  O377  1  0.75077194  0.57815169  0.76196796  1
  O2-  O378  1  0.25315461  0.07778912  0.23092293  1
  O2-  O379  1  0.26042339  0.08323534  0.56846142  1
  O2-  O380  1  0.25392714  0.08182061  0.90117272  1
  O2-  O381  1  0.25888401  0.58211843  0.22882219  1
  O2-  O382  1  0.25178477  0.58527841  0.57102496  1
  O2-  O383  1  0.23655594  0.57916453  0.89703971  1
  O2-  O384  1  0.58004209  0.08138043  0.23165100  1
  O2-  O385  1  0.57735582  0.08399001  0.56722249  1
  O2-  O386  1  0.58007895  0.08379412  0.90194942  1
  O2-  O387  1  0.57135563  0.57964744  0.23129652  1
  O2-  O388  1  0.58177792  0.57975972  0.56909389  1
  O2-  O389  1  0.58804140  0.58227558  0.90620029  1
  O2-  O390  1  0.91571577  0.07907199  0.23712832  1
  O2-  O391  1  0.91715763  0.08099751  0.56785882  1
  O2-  O392  1  0.92859232  0.07549382  0.89048470  1
  O2-  O393  1  0.91913491  0.58188633  0.25563837  1
  O2-  O394  1  0.91417838  0.58009612  0.56513364  1
  O2-  O395  1  0.92517845  0.58790319  0.90429461  1
  O2-  O396  1  0.07510729  0.41875988  0.09901108  1
  O2-  O397  1  0.09542259  0.41717484  0.42202397  1
  O2-  O398  1  0.08844510  0.41498396  0.76305115  1
  O2-  O399  1  0.08327609  0.91870935  0.09764577  1
  O2-  O400  1  0.09521088  0.91809975  0.43067753  1
  O2-  O401  1  0.08520654  0.91953486  0.75592953  1
  O2-  O402  1  0.41493238  0.41861209  0.10091501  1
  O2-  O403  1  0.41521229  0.42029617  0.43134530  1
  O2-  O404  1  0.40036176  0.41581317  0.75468261  1
  O2-  O405  1  0.40630963  0.91948480  0.09098286  1
  O2-  O406  1  0.41033486  0.91918265  0.43015575  1
  O2-  O407  1  0.41558397  0.91955622  0.76603474  1
  O2-  O408  1  0.76054016  0.41912904  0.09557702  1
  O2-  O409  1  0.74450818  0.41684560  0.42265769  1
  O2-  O410  1  0.74904722  0.42221828  0.77437861  1
  O2-  O411  1  0.75359771  0.91348771  0.09576003  1
  O2-  O412  1  0.74770391  0.92091232  0.43165556  1
  O2-  O413  1  0.74876841  0.91879721  0.76288677  1
  O2-  O414  1  0.23967897  0.42100312  0.23555687  1
  O2-  O415  1  0.24959562  0.41692382  0.57392661  1
  O2-  O416  1  0.24005267  0.41908235  0.90019402  1
  O2-  O417  1  0.25129897  0.91595222  0.24131197  1
  O2-  O418  1  0.25083670  0.91487658  0.56962748  1
  O2-  O419  1  0.26892734  0.91763900  0.90285722  1
  O2-  O420  1  0.58405749  0.41864212  0.23589022  1
  O2-  O421  1  0.57284905  0.42119254  0.56343219  1
  O2-  O422  1  0.59868163  0.42237137  0.90766824  1
  O2-  O423  1  0.58172477  0.91611034  0.24670059  1
  O2-  O424  1  0.58245860  0.91430170  0.57131998  1
  O2-  O425  1  0.58303908  0.91483672  0.90349779  1
  O2-  O426  1  0.92554881  0.42364021  0.22816213  1
  O2-  O427  1  0.92581367  0.41360784  0.57517113  1
  O2-  O428  1  0.91905653  0.41909278  0.90914013  1
  O2-  O429  1  0.91796706  0.91698888  0.23821538  1
  O2-  O430  1  0.91672375  0.91890011  0.56959464  1
  O2-  O431  1  0.90856566  0.91731701  0.90077450  1
  O2-  O432  1  0.00046700  0.00241143  -0.00216718  1
  O2-  O433  1  0.00484919  0.00537139  0.32581681  1
  O2-  O434  1  0.00057931  0.00332299  0.66789924  1
  O2-  O435  1  0.00504912  0.49501589  -0.00613457  1
  O2-  O436  1  0.00761791  0.50331093  0.32960156  1
  O2-  O437  1  0.00268064  0.50452447  0.66004583  1
  O2-  O438  1  0.33764717  0.00079951  -0.00759824  1
  O2-  O439  1  0.33545974  0.00469150  0.33030818  1
  O2-  O440  1  0.33663708  0.00445544  0.66637300  1
  O2-  O441  1  0.32065843  0.50486620  0.01696212  1
  O2-  O442  1  0.32930915  0.50098110  0.33818946  1
  O2-  O443  1  0.32863811  0.50300865  0.67216354  1
  O2-  O444  1  0.66559850  0.00482350  0.00396268  1
  O2-  O445  1  0.66569860  0.00556748  0.33423450  1
  O2-  O446  1  0.66853759  0.00268565  0.66968238  1
  O2-  O447  1  0.66914287  0.49827809  -0.00850191  1
  O2-  O448  1  0.66049386  0.49604219  0.33470896  1
  O2-  O449  1  0.67396070  0.50854440  0.65496749  1
  O2-  O450  1  0.17371449  0.00648689  0.00462633  1
  O2-  O451  1  0.16753209  0.00240262  0.33094696  1
  O2-  O452  1  0.16643194  0.00352901  0.66996126  1
  O2-  O453  1  0.16453393  0.49996020  -0.00813040  1
  O2-  O454  1  0.16108386  0.49594297  0.33368761  1
  O2-  O455  1  0.16642782  0.50300653  0.66710326  1
  O2-  O456  1  0.49126286  0.00346303  -0.00538242  1
  O2-  O457  1  0.49600552  0.00826822  0.32621735  1
  O2-  O458  1  0.49558445  0.00537374  0.66212610  1
  O2-  O459  1  0.50831051  0.50137281  0.00953124  1
  O2-  O460  1  0.49507135  0.49848277  0.33136536  1
  O2-  O461  1  0.48835875  0.50309436  0.65203647  1
  O2-  O462  1  0.83446510  -0.00146247  -0.00236455  1
  O2-  O463  1  0.83225037  0.00363432  0.33052695  1
  O2-  O464  1  0.83434921  0.00361120  0.66278340  1
  O2-  O465  1  0.83119559  0.49364156  -0.00021981  1
  O2-  O466  1  0.84286707  0.50347715  0.33750585  1
  O2-  O467  1  0.82929390  0.50575324  0.66430791  1
  O2-  O468  1  0.74925783  0.24903619  0.41137219  1
  O2-  O469  1  0.25112836  0.74873712  0.25408846  1
  O2-  O470  1  0.74794351  0.74854341  0.08298261  1
  O2-  O471  1  0.41354177  0.24979724  0.74654122  1
  O2-  O472  1  0.91782914  0.24914949  0.58653746  1
  O2-  O473  1  0.74900504  0.25275278  0.08593892  1
  O2-  O474  1  0.25216036  0.75306218  0.91634138  1
  O2-  O475  1  0.41746589  0.25035147  0.08227696  1
  O2-  O476  1  0.25299090  0.74913614  0.58623844  1
  O2-  O477  1  0.58148596  0.74717352  0.25065029  1
  O2-  O478  1  0.41975819  0.24975534  0.41396111  1
  O2-  O479  1  0.41673145  0.75041863  0.74603144  1
  O2-  O480  1  0.91760558  0.74903610  0.25263562  1
  O2-  O481  1  0.57907918  0.74900669  0.91779038  1
  O2-  O482  1  0.91662002  0.25209870  0.24899905  1
  O2-  O483  1  0.08617048  0.24919125  0.75015863  1
  O2-  O484  1  0.57885339  0.74957957  0.58709115  1
  O2-  O485  1  0.08160724  0.25336013  0.41318769  1
  O2-  O486  1  0.75019340  0.25061508  0.74812211  1
  O2-  O487  1  0.91647228  0.75044664  0.58391973  1
  O2-  O488  1  0.91355776  0.75060854  0.91797365  1
  O2-  O489  1  0.08597914  0.75011248  0.41529669  1
  O2-  O490  1  0.08430935  0.25162143  0.08164824  1
  O2-  O491  1  0.24875404  0.24861838  0.91740026  1
  O2-  O492  1  0.58376667  0.25068385  0.25129101  1
