# generated using pymatgen
data_Ca108Mn108O277
_symmetry_space_group_name_H-M   'P 1'
_cell_length_a   16.03291521
_cell_length_b   22.31275637
_cell_length_c   16.39236399
_cell_angle_alpha   90.00269247
_cell_angle_beta   90.00502322
_cell_angle_gamma   90.00283486
_symmetry_Int_Tables_number   1
_chemical_formula_structural   Ca108Mn108O277
_chemical_formula_sum   'Ca108 Mn108 O277'
_cell_volume   5864.18017961
_cell_formula_units_Z   1
loop_
 _symmetry_equiv_pos_site_id
 _symmetry_equiv_pos_as_xyz
  1  'x, y, z'
loop_
 _atom_type_symbol
 _atom_type_oxidation_number
  Ca2+  2.0
  Mn3.34+  3.34
  O2-  -2.0
loop_
 _atom_site_type_symbol
 _atom_site_label
 _atom_site_symmetry_multiplicity
 _atom_site_fract_x
 _atom_site_fract_y
 _atom_site_fract_z
 _atom_site_occupancy
  Ca2+  Ca0  1  0.07221054  0.23863783  0.26288485  1
  Ca2+  Ca1  1  0.07945850  0.24495375  0.57306652  1
  Ca2+  Ca2  1  0.08658615  0.25143313  0.90950929  1
  Ca2+  Ca3  1  0.07015324  0.73942993  0.26314526  1
  Ca2+  Ca4  1  0.07133622  0.75831896  0.57547789  1
  Ca2+  Ca5  1  0.10325939  0.74222090  0.92293794  1
  Ca2+  Ca6  1  0.41761946  0.26006658  0.25961683  1
  Ca2+  Ca7  1  0.41236285  0.24531240  0.55041779  1
  Ca2+  Ca8  1  0.40058853  0.24265017  0.93574054  1
  Ca2+  Ca9  1  0.41867404  0.74251899  0.22016802  1
  Ca2+  Ca10  1  0.42434246  0.77318458  0.57910406  1
  Ca2+  Ca11  1  0.39487016  0.74652685  0.93269668  1
  Ca2+  Ca12  1  0.76792058  0.24802141  0.24722274  1
  Ca2+  Ca13  1  0.75648089  0.25346336  0.57484663  1
  Ca2+  Ca14  1  0.77184274  0.25259280  0.92908572  1
  Ca2+  Ca15  1  0.75002287  0.75007842  0.25486518  1
  Ca2+  Ca16  1  0.75106113  0.75427287  0.57851102  1
  Ca2+  Ca17  1  0.76155230  0.74557730  0.91695322  1
  Ca2+  Ca18  1  0.27519727  0.23708790  0.09035884  1
  Ca2+  Ca19  1  0.25947929  0.24217577  0.40989270  1
  Ca2+  Ca20  1  0.23172699  0.24033078  0.74726091  1
  Ca2+  Ca21  1  0.25779227  0.74282368  0.06268369  1
  Ca2+  Ca22  1  0.22322417  0.75485318  0.41641775  1
  Ca2+  Ca23  1  0.24168133  0.76410780  0.76376993  1
  Ca2+  Ca24  1  0.56683501  0.24851372  0.10632322  1
  Ca2+  Ca25  1  0.56054057  0.22749338  0.40740341  1
  Ca2+  Ca26  1  0.58309681  0.25356462  0.73545734  1
  Ca2+  Ca27  1  0.56941345  0.74157808  0.08665055  1
  Ca2+  Ca28  1  0.59150233  0.76329352  0.41496919  1
  Ca2+  Ca29  1  0.60115678  0.75846391  0.73928318  1
  Ca2+  Ca30  1  0.90928212  0.25628495  0.09516491  1
  Ca2+  Ca31  1  0.92395101  0.24255644  0.40459650  1
  Ca2+  Ca32  1  0.93126434  0.25629293  0.74573992  1
  Ca2+  Ca33  1  0.91230124  0.74989858  0.08798974  1
  Ca2+  Ca34  1  0.92927015  0.74897367  0.41575780  1
  Ca2+  Ca35  1  0.91462227  0.75368483  0.75156957  1
  Ca2+  Ca36  1  0.10182860  0.08092285  0.59176701  1
  Ca2+  Ca37  1  0.22647254  0.07542360  0.73491233  1
  Ca2+  Ca38  1  0.42311127  0.58089454  0.58631817  1
  Ca2+  Ca39  1  0.76251113  0.59317028  0.23888955  1
  Ca2+  Ca40  1  0.75272853  0.58993271  0.24151320  1
  Ca2+  Ca41  1  0.77991164  0.08210852  0.92817575  1
  Ca2+  Ca42  1  0.57458807  0.07718314  0.71607040  1
  Ca2+  Ca43  1  0.60497324  0.58423932  0.39391071  1
  Ca2+  Ca44  1  0.76612247  0.10460465  0.25749746  1
  Ca2+  Ca45  1  0.41202787  0.59071402  0.95401815  1
  Ca2+  Ca46  1  0.59840397  0.59377884  0.75283306  1
  Ca2+  Ca47  1  0.91674338  0.58838596  0.74446207  1
  Ca2+  Ca48  1  0.11196756  0.09769174  0.90595562  1
  Ca2+  Ca49  1  0.94889673  0.07862931  0.75076430  1
  Ca2+  Ca50  1  0.54706390  0.09018599  0.08615883  1
  Ca2+  Ca51  1  0.25220491  0.60036517  0.06629129  1
  Ca2+  Ca52  1  0.59630539  0.57961833  0.39582956  1
  Ca2+  Ca53  1  0.41033579  0.58088706  0.58723281  1
  Ca2+  Ca54  1  0.75607536  0.59415706  0.92628424  1
  Ca2+  Ca55  1  0.73351038  0.09005919  0.56891989  1
  Ca2+  Ca56  1  0.37706077  0.09216182  0.97046816  1
  Ca2+  Ca57  1  0.39240746  0.12231034  0.23672583  1
  Ca2+  Ca58  1  0.54853514  0.59078250  0.10123739  1
  Ca2+  Ca59  1  0.40891103  0.09539610  0.56041477  1
  Ca2+  Ca60  1  0.25950386  0.10561440  0.41318837  1
  Ca2+  Ca61  1  0.22372047  0.60105657  0.78126986  1
  Ca2+  Ca62  1  0.06244291  0.60331554  0.57728754  1
  Ca2+  Ca63  1  0.39928606  0.11717990  0.23901810  1
  Ca2+  Ca64  1  0.93299930  0.60537104  0.41718803  1
  Ca2+  Ca65  1  0.23565278  0.60271798  0.78492274  1
  Ca2+  Ca66  1  0.92636758  0.09791927  0.09428908  1
  Ca2+  Ca67  1  0.92051046  0.10472038  0.09492317  1
  Ca2+  Ca68  1  0.40141830  0.58977533  0.95467834  1
  Ca2+  Ca69  1  0.74612049  0.09079885  0.57062989  1
  Ca2+  Ca70  1  0.90442434  0.58713478  0.74562409  1
  Ca2+  Ca71  1  0.92119935  0.09617912  0.39966880  1
  Ca2+  Ca72  1  0.23392756  0.40302724  0.75384190  1
  Ca2+  Ca73  1  0.09895533  0.92175153  0.59568848  1
  Ca2+  Ca74  1  0.76945702  0.41017133  0.92369438  1
  Ca2+  Ca75  1  0.56157865  0.90890403  0.07536892  1
  Ca2+  Ca76  1  0.06764259  0.90121070  0.24440795  1
  Ca2+  Ca77  1  0.25089820  0.90917682  0.43299452  1
  Ca2+  Ca78  1  0.94167737  0.91588184  0.74525401  1
  Ca2+  Ca79  1  0.42131497  0.40943843  0.23533270  1
  Ca2+  Ca80  1  0.75416824  0.90250207  0.91850412  1
  Ca2+  Ca81  1  0.75800768  0.41230423  0.92758024  1
  Ca2+  Ca82  1  0.76253010  0.39773979  0.57971569  1
  Ca2+  Ca83  1  0.41923441  0.90732538  0.24818530  1
  Ca2+  Ca84  1  0.24239184  0.39638964  0.08091843  1
  Ca2+  Ca85  1  0.42008045  0.41663881  0.94145842  1
  Ca2+  Ca86  1  0.07881870  0.90102879  0.24541666  1
  Ca2+  Ca87  1  0.24385255  0.40628820  0.75072604  1
  Ca2+  Ca88  1  0.75920843  0.90448163  0.26121583  1
  Ca2+  Ca89  1  0.93542149  0.40325681  0.08820267  1
  Ca2+  Ca90  1  0.91470012  0.40016586  0.41570262  1
  Ca2+  Ca91  1  0.22855611  0.92842144  0.73444987  1
  Ca2+  Ca92  1  0.25309135  0.39439610  0.41986940  1
  Ca2+  Ca93  1  0.57416680  0.90911324  0.07507044  1
  Ca2+  Ca94  1  0.07705676  0.39945225  0.58210507  1
  Ca2+  Ca95  1  0.91674170  0.90556140  0.42037044  1
  Ca2+  Ca96  1  0.40739428  0.40063944  0.57818879  1
  Ca2+  Ca97  1  0.58268220  0.41050085  0.09308891  1
  Ca2+  Ca98  1  0.40932000  0.41628362  0.94291214  1
  Ca2+  Ca99  1  0.40796773  0.90766791  0.24673625  1
  Ca2+  Ca100  1  0.75033616  0.41055860  0.25071751  1
  Ca2+  Ca101  1  0.40581913  0.91459826  0.92552005  1
  Ca2+  Ca102  1  0.59050855  0.41302224  0.39542303  1
  Ca2+  Ca103  1  0.95138073  0.91850093  0.74698141  1
  Ca2+  Ca104  1  0.76670778  0.90232080  0.91664374  1
  Ca2+  Ca105  1  0.57629192  0.40306515  0.75444002  1
  Ca2+  Ca106  1  0.58915322  0.40274824  0.75468076  1
  Ca2+  Ca107  1  0.56996479  0.91596294  0.71943868  1
  Mn3.34+  Mn108  1  0.08782787  0.33274277  0.08830224  1
  Mn3.34+  Mn109  1  0.08459090  0.32988606  0.41459283  1
  Mn3.34+  Mn110  1  0.07577779  0.33237354  0.74973308  1
  Mn3.34+  Mn111  1  0.08169985  0.83599358  0.07799590  1
  Mn3.34+  Mn112  1  0.08164793  0.83718120  0.42369047  1
  Mn3.34+  Mn113  1  0.08819491  0.83416595  0.75285211  1
  Mn3.34+  Mn114  1  0.41716265  0.33088124  0.08713259  1
  Mn3.34+  Mn115  1  0.41781968  0.33436255  0.41212496  1
  Mn3.34+  Mn116  1  0.41454501  0.32894610  0.75454353  1
  Mn3.34+  Mn117  1  0.40732832  0.83424970  0.08239385  1
  Mn3.34+  Mn118  1  0.41647108  0.83704814  0.41902484  1
  Mn3.34+  Mn119  1  0.41634327  0.83915851  0.75430132  1
  Mn3.34+  Mn120  1  0.74925136  0.33454382  0.08999724  1
  Mn3.34+  Mn121  1  0.75143340  0.33218470  0.41404021  1
  Mn3.34+  Mn122  1  0.75610656  0.33238521  0.75419732  1
  Mn3.34+  Mn123  1  0.75007267  0.82950075  0.08694551  1
  Mn3.34+  Mn124  1  0.75177403  0.83398060  0.42071985  1
  Mn3.34+  Mn125  1  0.75260336  0.83226467  0.74910666  1
  Mn3.34+  Mn126  1  0.24551770  0.33024908  0.24592013  1
  Mn3.34+  Mn127  1  0.24738949  0.32961657  0.58105992  1
  Mn3.34+  Mn128  1  0.24633789  0.32680294  0.91559958  1
  Mn3.34+  Mn129  1  0.24522773  0.83380235  0.24910828  1
  Mn3.34+  Mn130  1  0.25298638  0.83751281  0.58694827  1
  Mn3.34+  Mn131  1  0.24571326  0.83739189  0.91821329  1
  Mn3.34+  Mn132  1  0.58501938  0.33688756  0.24964959  1
  Mn3.34+  Mn133  1  0.58456378  0.32989208  0.57331377  1
  Mn3.34+  Mn134  1  0.58480237  0.32624408  0.91730928  1
  Mn3.34+  Mn135  1  0.58434025  0.83041781  0.25170967  1
  Mn3.34+  Mn136  1  0.58815585  0.84135928  0.57722846  1
  Mn3.34+  Mn137  1  0.57867127  0.83361396  0.90562973  1
  Mn3.34+  Mn138  1  0.92278047  0.33376001  0.25050910  1
  Mn3.34+  Mn139  1  0.91791737  0.33017507  0.58259751  1
  Mn3.34+  Mn140  1  0.92768575  0.33186939  0.91882376  1
  Mn3.34+  Mn141  1  0.91234814  0.82874094  0.24820842  1
  Mn3.34+  Mn142  1  0.91310737  0.83697213  0.58326676  1
  Mn3.34+  Mn143  1  0.93168385  0.84198885  0.92020744  1
  Mn3.34+  Mn144  1  0.07433743  0.65649583  0.08372899  1
  Mn3.34+  Mn145  1  0.42567905  0.67322361  0.75088131  1
  Mn3.34+  Mn146  1  0.08360144  0.16571533  0.74959337  1
  Mn3.34+  Mn147  1  0.40652657  0.66335731  0.41022519  1
  Mn3.34+  Mn148  1  0.74968276  0.17054186  0.08613579  1
  Mn3.34+  Mn149  1  0.07506210  0.67248632  0.75352595  1
  Mn3.34+  Mn150  1  0.24861915  0.66945587  0.24730900  1
  Mn3.34+  Mn151  1  0.58767969  0.16906215  0.24809770  1
  Mn3.34+  Mn152  1  0.74880733  0.16747724  0.75461108  1
  Mn3.34+  Mn153  1  0.58866225  0.66990898  0.91444093  1
  Mn3.34+  Mn154  1  0.74792955  0.16945893  0.41618852  1
  Mn3.34+  Mn155  1  0.75179179  0.66951263  0.75153570  1
  Mn3.34+  Mn156  1  0.92554790  0.66158452  0.92188578  1
  Mn3.34+  Mn157  1  0.58919028  0.16268802  0.91106113  1
  Mn3.34+  Mn158  1  0.90848178  0.67069362  0.58201903  1
  Mn3.34+  Mn159  1  0.40713487  0.16053389  0.75621855  1
  Mn3.34+  Mn160  1  0.91936534  0.16326641  0.57873659  1
  Mn3.34+  Mn161  1  0.92461616  0.16569163  0.91171875  1
  Mn3.34+  Mn162  1  0.24692732  0.16413648  0.57957569  1
  Mn3.34+  Mn163  1  0.24943795  0.67028437  0.58192827  1
  Mn3.34+  Mn164  1  0.09402446  0.16768700  0.08522279  1
  Mn3.34+  Mn165  1  0.10380239  0.16228797  0.08652514  1
  Mn3.34+  Mn166  1  0.92268038  0.66445794  0.24476239  1
  Mn3.34+  Mn167  1  0.75378077  0.66862236  0.41892186  1
  Mn3.34+  Mn168  1  0.57787851  0.16704397  0.57596388  1
  Mn3.34+  Mn169  1  0.75822329  0.17238864  0.75198113  1
  Mn3.34+  Mn170  1  0.08496995  0.16346049  0.41454258  1
  Mn3.34+  Mn171  1  0.23750456  0.66274802  0.57798059  1
  Mn3.34+  Mn172  1  0.59205476  0.67033142  0.57825301  1
  Mn3.34+  Mn173  1  0.42004420  0.66920289  0.40907959  1
  Mn3.34+  Mn174  1  0.23767352  0.66581530  0.24805334  1
  Mn3.34+  Mn175  1  0.58434430  0.66523324  0.24500756  1
  Mn3.34+  Mn176  1  0.41675756  0.16595269  0.75484567  1
  Mn3.34+  Mn177  1  0.74901368  0.66832920  0.08160483  1
  Mn3.34+  Mn178  1  0.58028402  0.16878647  0.91334124  1
  Mn3.34+  Mn179  1  0.41717175  0.67937046  0.74856851  1
  Mn3.34+  Mn180  1  0.75184918  -0.00476841  0.41600994  1
  Mn3.34+  Mn181  1  0.76590234  0.50108863  0.41474338  1
  Mn3.34+  Mn182  1  0.75147152  0.00157874  0.08716486  1
  Mn3.34+  Mn183  1  0.24694846  0.00664282  0.23074761  1
  Mn3.34+  Mn184  1  0.75541981  -0.00301205  0.75111969  1
  Mn3.34+  Mn185  1  0.08623697  0.00083223  0.41130698  1
  Mn3.34+  Mn186  1  0.74178247  0.00347525  0.74961076  1
  Mn3.34+  Mn187  1  0.08723844  0.49899256  0.07611404  1
  Mn3.34+  Mn188  1  0.57436367  0.00141806  0.91205124  1
  Mn3.34+  Mn189  1  0.24598214  -0.00540350  0.93098825  1
  Mn3.34+  Mn190  1  0.58888284  0.00420721  0.25497976  1
  Mn3.34+  Mn191  1  0.75902809  0.50070628  0.07423913  1
  Mn3.34+  Mn192  1  0.41067402  0.50048796  0.75137747  1
  Mn3.34+  Mn193  1  0.23444457  0.50144944  0.59383810  1
  Mn3.34+  Mn194  1  0.93354244  0.49857659  0.92926356  1
  Mn3.34+  Mn195  1  0.58852951  0.50149721  0.91339437  1
  Mn3.34+  Mn196  1  0.92168694  0.00222809  0.58192485  1
  Mn3.34+  Mn197  1  0.59568698  0.50190576  0.57955857  1
  Mn3.34+  Mn198  1  0.07995108  0.50399457  0.41099335  1
  Mn3.34+  Mn199  1  0.92416456  0.50021815  0.24843686  1
  Mn3.34+  Mn200  1  0.91538145  0.50153906  0.58311592  1
  Mn3.34+  Mn201  1  0.75647643  0.49925261  0.75587032  1
  Mn3.34+  Mn202  1  0.25255470  0.50488214  0.23768905  1
  Mn3.34+  Mn203  1  0.40743846  0.49834853  0.40857681  1
  Mn3.34+  Mn204  1  0.23989535  0.49828989  0.23717344  1
  Mn3.34+  Mn205  1  0.91652916  -0.00452534  0.25659545  1
  Mn3.34+  Mn206  1  0.09370332  0.49862106  0.41270709  1
  Mn3.34+  Mn207  1  0.07764177  0.49943255  0.75373748  1
  Mn3.34+  Mn208  1  0.41404765  0.00105789  0.74524240  1
  Mn3.34+  Mn209  1  0.76196103  -0.00367427  0.08546618  1
  Mn3.34+  Mn210  1  0.07452127  0.00047656  0.06681539  1
  Mn3.34+  Mn211  1  0.58096701  0.01147124  0.25795177  1
  Mn3.34+  Mn212  1  0.41275689  -0.00482108  0.41099605  1
  Mn3.34+  Mn213  1  0.23486988  0.00210309  0.23080158  1
  Mn3.34+  Mn214  1  0.23169413  0.49486899  0.93418625  1
  Mn3.34+  Mn215  1  0.60716062  0.49887142  0.58050778  1
  O2-  O216  1  0.01723631  0.14938670  -0.00069755  1
  O2-  O217  1  0.00645616  0.15886944  0.33717020  1
  O2-  O218  1  -0.00032683  0.14492280  0.65989166  1
  O2-  O219  1  -0.00103726  0.68616857  0.00183350  1
  O2-  O220  1  -0.00393530  0.66178597  0.32524598  1
  O2-  O221  1  -0.00995415  0.65353699  0.67348954  1
  O2-  O222  1  0.32513854  0.17611233  -0.00325941  1
  O2-  O223  1  0.33026572  0.17525442  0.33336189  1
  O2-  O224  1  0.33205050  0.15267786  0.66888024  1
  O2-  O225  1  0.33084008  0.66423437  -0.00789063  1
  O2-  O226  1  0.33673751  0.64778177  0.32301899  1
  O2-  O227  1  0.33040146  0.64874353  0.66726369  1
  O2-  O228  1  0.67271062  0.15352891  -0.00501856  1
  O2-  O229  1  0.67431334  0.17740938  0.32856194  1
  O2-  O230  1  0.66406968  0.16428995  0.67016340  1
  O2-  O231  1  0.66333422  0.65697768  0.00376119  1
  O2-  O232  1  0.67784137  0.65256297  0.32644099  1
  O2-  O233  1  0.66346551  0.65760008  0.67551749  1
  O2-  O234  1  0.16935938  0.18083514  -0.00205038  1
  O2-  O235  1  0.16998756  0.17181754  0.34720920  1
  O2-  O236  1  0.16716511  0.15509139  0.66970445  1
  O2-  O237  1  0.15849202  0.67134078  0.01490816  1
  O2-  O238  1  0.16930654  0.66565965  0.33307235  1
  O2-  O239  1  0.16238319  0.64287417  0.66584473  1
  O2-  O240  1  0.49593991  0.15307497  -0.01064445  1
  O2-  O241  1  0.50675237  0.14815771  0.32029008  1
  O2-  O242  1  0.49605433  0.15539152  0.67025005  1
  O2-  O243  1  0.50278958  0.66800038  -0.01321751  1
  O2-  O244  1  0.50728535  0.64331997  0.33472342  1
  O2-  O245  1  0.49568950  0.64895341  0.66036811  1
  O2-  O246  1  0.84132856  0.15328720  0.00255217  1
  O2-  O247  1  0.83319581  0.16855348  0.34311027  1
  O2-  O248  1  0.82858210  0.14578120  0.66296106  1
  O2-  O249  1  0.83210286  0.66519078  -0.00404940  1
  O2-  O250  1  0.83340161  0.64913303  0.33361852  1
  O2-  O251  1  0.83227462  0.65080734  0.67198188  1
  O2-  O252  1  0.00375898  0.33377824  0.00649571  1
  O2-  O253  1  -0.00005845  0.34423093  0.33741169  1
  O2-  O254  1  -0.00406094  0.34641573  0.66862389  1
  O2-  O255  1  0.00209108  0.80831493  -0.00110952  1
  O2-  O256  1  -0.00031516  0.84721604  0.33467224  1
  O2-  O257  1  0.00696690  0.84836186  0.66101919  1
  O2-  O258  1  0.33468734  0.33802691  -0.00297372  1
  O2-  O259  1  0.33506690  0.34063511  0.32679106  1
  O2-  O260  1  0.32976258  0.34937655  0.67345256  1
  O2-  O261  1  0.33163238  0.84750603  -0.00115044  1
  O2-  O262  1  0.32822465  0.85533650  0.33305025  1
  O2-  O263  1  0.33586720  0.82643817  0.67132007  1
  O2-  O264  1  0.67405795  0.34496747  -0.00671771  1
  O2-  O265  1  0.67012781  0.34034848  0.32887253  1
  O2-  O266  1  0.66561253  0.34197707  0.67025980  1
  O2-  O267  1  0.66299984  0.84963347  -0.00412171  1
  O2-  O268  1  0.67229917  0.84228861  0.32701772  1
  O2-  O269  1  0.66510907  0.84292688  0.67380466  1
  O2-  O270  1  0.16956904  0.31568128  0.00113885  1
  O2-  O271  1  0.17521177  0.32403854  0.34042051  1
  O2-  O272  1  0.16524764  0.34668005  0.66546773  1
  O2-  O273  1  0.16766099  0.82559509  0.00644246  1
  O2-  O274  1  0.16459197  0.85544137  0.33776677  1
  O2-  O275  1  0.17169021  0.84644345  0.67338856  1
  O2-  O276  1  0.50274712  0.34324321  -0.00079209  1
  O2-  O277  1  0.49799422  0.35213643  0.33026728  1
  O2-  O278  1  0.49936069  0.34754963  0.66981114  1
  O2-  O279  1  0.49863843  0.84340747  -0.00387260  1
  O2-  O280  1  0.49456251  0.84987047  0.32746057  1
  O2-  O281  1  0.50102879  0.82963271  0.67231694  1
  O2-  O282  1  0.83677192  0.34788474  0.00727321  1
  O2-  O283  1  0.83212230  0.34242971  0.33045852  1
  O2-  O284  1  0.82696548  0.32735332  0.66152488  1
  O2-  O285  1  0.83531809  0.83883375  -0.00221998  1
  O2-  O286  1  0.83841348  0.84293139  0.33658540  1
  O2-  O287  1  0.84633795  0.85862897  0.68279653  1
  O2-  O288  1  0.00029603  0.18137007  0.14935526  1
  O2-  O289  1  -0.00697711  0.17195401  0.49745263  1
  O2-  O290  1  -0.00136270  0.18373229  0.82677395  1
  O2-  O291  1  -0.00535115  0.68576384  0.16203370  1
  O2-  O292  1  -0.00798583  0.68254985  0.51074898  1
  O2-  O293  1  -0.00389003  0.68672020  0.83295635  1
  O2-  O294  1  0.34139001  0.19675705  0.18979421  1
  O2-  O295  1  0.32616816  0.17514488  0.50291717  1
  O2-  O296  1  0.33012500  0.18835173  0.82976270  1
  O2-  O297  1  0.31859623  0.67888680  0.16306670  1
  O2-  O298  1  0.33638944  0.68343702  0.50612768  1
  O2-  O299  1  0.32401045  0.68445102  0.81654672  1
  O2-  O300  1  0.67231147  0.18847075  0.16613878  1
  O2-  O301  1  0.66964131  0.18159687  0.50454705  1
  O2-  O302  1  0.66816355  0.19777254  0.83420862  1
  O2-  O303  1  0.66914747  0.68149960  0.16888374  1
  O2-  O304  1  0.65316301  0.67558409  0.47698317  1
  O2-  O305  1  0.67471307  0.68470513  0.83723053  1
  O2-  O306  1  0.16647241  0.19343927  0.16809019  1
  O2-  O307  1  0.16117335  0.17788765  0.50723467  1
  O2-  O308  1  0.15812220  0.18039307  0.83086479  1
  O2-  O309  1  0.15814499  0.69040718  0.16957920  1
  O2-  O310  1  0.15888833  0.68143419  0.50508687  1
  O2-  O311  1  0.16353527  0.68245183  0.82162179  1
  O2-  O312  1  0.50889433  0.16752647  0.16661756  1
  O2-  O313  1  0.49493581  0.17043812  0.50572512  1
  O2-  O314  1  0.50060657  0.19405519  0.82841881  1
  O2-  O315  1  0.50671030  0.67316962  0.16758772  1
  O2-  O316  1  0.48929975  0.67663912  0.50090015  1
  O2-  O317  1  0.51275446  0.69068033  0.82429691  1
  O2-  O318  1  0.83506709  0.17515913  0.15964790  1
  O2-  O319  1  0.82582953  0.18103263  0.50659960  1
  O2-  O320  1  0.83548562  0.19184340  0.83374704  1
  O2-  O321  1  0.82283299  0.67618538  0.17272595  1
  O2-  O322  1  0.83131976  0.68547742  0.49893094  1
  O2-  O323  1  0.83947366  0.68047159  0.83188292  1
  O2-  O324  1  -0.00020311  0.31919319  0.16388421  1
  O2-  O325  1  0.00214308  0.33101065  0.50251339  1
  O2-  O326  1  0.00265629  0.31517290  0.83469260  1
  O2-  O327  1  -0.00025085  0.82016179  0.17126491  1
  O2-  O328  1  -0.00699276  0.82323939  0.49666538  1
  O2-  O329  1  -0.00736227  0.82612766  0.82221019  1
  O2-  O330  1  0.33497643  0.32223336  0.16617243  1
  O2-  O331  1  0.33087937  0.32272271  0.49828110  1
  O2-  O332  1  0.33251111  0.31016877  0.83416389  1
  O2-  O333  1  0.33855887  0.82887994  0.17730953  1
  O2-  O334  1  0.32674337  0.81827771  0.49567285  1
  O2-  O335  1  0.33629216  0.82573385  0.83737338  1
  O2-  O336  1  0.66116499  0.32040787  0.16229835  1
  O2-  O337  1  0.67412714  0.31389031  0.49784831  1
  O2-  O338  1  0.66202273  0.31440614  0.82754416  1
  O2-  O339  1  0.65338883  0.82559277  0.15482762  1
  O2-  O340  1  0.67114166  0.82164006  0.50100648  1
  O2-  O341  1  0.67307559  0.81377723  0.84099284  1
  O2-  O342  1  0.16976205  0.30971676  0.16385184  1
  O2-  O343  1  0.16411408  0.31981832  0.50379216  1
  O2-  O344  1  0.17246344  0.31927780  0.82295238  1
  O2-  O345  1  0.15246548  0.82047125  0.18164116  1
  O2-  O346  1  0.16403851  0.82541466  0.50468299  1
  O2-  O347  1  0.16115518  0.82380457  0.83794026  1
  O2-  O348  1  0.49932753  0.33071763  0.16815997  1
  O2-  O349  1  0.49530687  0.32946190  0.49974348  1
  O2-  O350  1  0.50527923  0.31187427  0.82828967  1
  O2-  O351  1  0.49827167  0.82407223  0.16536093  1
  O2-  O352  1  0.50486752  0.82208386  0.49379472  1
  O2-  O353  1  0.49916974  0.80752997  0.83181550  1
  O2-  O354  1  0.82999283  0.32431743  0.17005835  1
  O2-  O355  1  0.83790965  0.31400643  0.49284559  1
  O2-  O356  1  0.82948190  0.32132795  0.84450110  1
  O2-  O357  1  0.82260265  0.81895864  0.17692597  1
  O2-  O358  1  0.83538708  0.81820795  0.49918446  1
  O2-  O359  1  0.82948055  0.81824673  0.84098785  1
  O2-  O360  1  0.08033894  0.07920289  0.12212794  1
  O2-  O361  1  0.08160215  0.07898226  0.44724658  1
  O2-  O362  1  0.08513318  0.08431536  0.77529944  1
  O2-  O363  1  0.09856672  0.57853689  0.11051586  1
  O2-  O364  1  0.06943007  0.57935526  0.45090025  1
  O2-  O365  1  0.08402812  0.58423816  0.78258704  1
  O2-  O366  1  0.43218355  0.05824603  0.13856546  1
  O2-  O367  1  0.39245678  0.07058739  0.43205953  1
  O2-  O368  1  0.42693658  0.07764140  0.79354505  1
  O2-  O369  1  0.41623923  0.57174523  0.08228443  1
  O2-  O370  1  0.41264889  0.57914027  0.45172657  1
  O2-  O371  1  0.41978626  0.58472614  0.78602143  1
  O2-  O372  1  0.75981059  0.08392723  0.10847416  1
  O2-  O373  1  0.74918919  0.07803103  0.43837123  1
  O2-  O374  1  0.74494786  0.08222305  0.79579093  1
  O2-  O375  1  0.74411025  0.58359448  0.10400234  1
  O2-  O376  1  0.74393483  0.58222637  0.44209227  1
  O2-  O377  1  0.75698093  0.58430777  0.78573743  1
  O2-  O378  1  0.25763348  0.08727411  0.23539012  1
  O2-  O379  1  0.24921291  0.08349431  0.55885756  1
  O2-  O380  1  0.25381476  0.06092139  0.87441383  1
  O2-  O381  1  0.24157344  0.58475427  0.20686690  1
  O2-  O382  1  0.26814925  0.58276497  0.55181223  1
  O2-  O383  1  0.26678410  0.57553653  0.90040554  1
  O2-  O384  1  0.61761959  0.08543035  0.21659489  1
  O2-  O385  1  0.59553426  0.08670606  0.56915047  1
  O2-  O386  1  0.58865205  0.07979656  0.86667351  1
  O2-  O387  1  0.60888420  0.58048274  0.23483067  1
  O2-  O388  1  0.57378096  0.58178648  0.54415283  1
  O2-  O389  1  0.58741562  0.58093067  0.88689723  1
  O2-  O390  1  0.89599831  0.07065006  0.21779235  1
  O2-  O391  1  0.89107758  0.07948690  0.54401405  1
  O2-  O392  1  0.91294452  0.08666974  0.88244314  1
  O2-  O393  1  0.90555532  0.58114842  0.22081639  1
  O2-  O394  1  0.91705080  0.58386775  0.55373238  1
  O2-  O395  1  0.91750741  0.57642812  0.87887525  1
  O2-  O396  1  0.09292528  0.41792339  0.10823467  1
  O2-  O397  1  0.09755487  0.41752991  0.44311580  1
  O2-  O398  1  0.09646253  0.41635390  0.77105564  1
  O2-  O399  1  0.08250678  0.92515390  0.11324009  1
  O2-  O400  1  0.08330422  0.92385820  0.45422345  1
  O2-  O401  1  0.08214666  0.91683633  0.76699387  1
  O2-  O402  1  0.41622033  0.41679339  0.08970478  1
  O2-  O403  1  0.40146782  0.41981529  0.44363425  1
  O2-  O404  1  0.43774378  0.42056702  0.79457828  1
  O2-  O405  1  0.43261318  0.91837268  0.11564255  1
  O2-  O406  1  0.40222003  0.91900371  0.44581594  1
  O2-  O407  1  0.43352073  0.92707322  0.78723141  1
  O2-  O408  1  0.74468516  0.41843398  0.11122527  1
  O2-  O409  1  0.76075928  0.42098627  0.44654647  1
  O2-  O410  1  0.72497049  0.41974420  0.79603557  1
  O2-  O411  1  0.74814314  0.91497175  0.11118533  1
  O2-  O412  1  0.76809314  0.91636027  0.43390595  1
  O2-  O413  1  0.73699304  0.91783151  0.78554103  1
  O2-  O414  1  0.25555822  0.41790847  0.21190834  1
  O2-  O415  1  0.24601665  0.41739661  0.55994961  1
  O2-  O416  1  0.26823753  0.41690103  0.88236075  1
  O2-  O417  1  0.23439918  0.92033061  0.21041678  1
  O2-  O418  1  0.24691685  0.91661962  0.57115684  1
  O2-  O419  1  0.25344487  0.92529888  0.87991343  1
  O2-  O420  1  0.58681901  0.41893610  0.23155480  1
  O2-  O421  1  0.60171168  0.41631438  0.55161755  1
  O2-  O422  1  0.57794937  0.41865394  0.88752808  1
  O2-  O423  1  0.57743618  0.92405945  0.21119456  1
  O2-  O424  1  0.57836842  0.91749469  0.58010468  1
  O2-  O425  1  0.59855703  0.92284978  0.87845240  1
  O2-  O426  1  0.90971196  0.42016495  0.22188342  1
  O2-  O427  1  0.90606767  0.41849831  0.55707790  1
  O2-  O428  1  0.90697980  0.41635236  0.89637244  1
  O2-  O429  1  0.91990610  0.91506131  0.22524227  1
  O2-  O430  1  0.92613835  0.92099241  0.55756801  1
  O2-  O431  1  0.89321692  0.92353675  0.87128846  1
  O2-  O432  1  -0.02642409  0.01987459  0.02987877  1
  O2-  O433  1  0.00973876  -0.01704603  0.32487244  1
  O2-  O434  1  -0.00403238  -0.00233923  0.67069505  1
  O2-  O435  1  -0.02227578  0.49250807  0.03682873  1
  O2-  O436  1  -0.02341627  0.49236597  0.35729742  1
  O2-  O437  1  0.01354605  0.51448077  0.65557834  1
  O2-  O438  1  0.33731922  -0.00466549  -0.01755210  1
  O2-  O439  1  0.33317605  -0.01467449  0.31407845  1
  O2-  O440  1  0.32009588  0.00421789  0.69775506  1
  O2-  O441  1  0.34607720  0.49671837  -0.03448711  1
  O2-  O442  1  0.33798330  0.48713417  0.31696518  1
  O2-  O443  1  0.35038661  0.50107467  0.64125303  1
  O2-  O444  1  0.65757901  -0.00029651  0.00990606  1
  O2-  O445  1  0.68591717  -0.00499087  0.31781619  1
  O2-  O446  1  0.67306141  0.01530492  0.66000212  1
  O2-  O447  1  0.66039563  0.48321673  -0.00013284  1
  O2-  O448  1  0.66754762  0.49800150  0.35807211  1
  O2-  O449  1  0.65002806  0.49545192  0.69217173  1
  O2-  O450  1  0.15268079  0.01471488  -0.01671169  1
  O2-  O451  1  0.17327351  -0.00404588  0.33210118  1
  O2-  O452  1  0.15857017  0.00204794  0.66022079  1
  O2-  O453  1  0.20270511  0.49638098  0.05258853  1
  O2-  O454  1  0.16688392  0.50426207  0.32548021  1
  O2-  O455  1  0.20228006  0.50363002  0.72041246  1
  O2-  O456  1  0.50267083  -0.01637306  -0.00580656  1
  O2-  O457  1  0.48828259  -0.00966656  0.32139772  1
  O2-  O458  1  0.49653259  0.00301953  0.67664090  1
  O2-  O459  1  0.49484087  0.50047998  -0.03210179  1
  O2-  O460  1  0.52066149  0.50057352  0.39203875  1
  O2-  O461  1  0.49933870  0.50735553  0.65274623  1
  O2-  O462  1  0.81338892  -0.00779562  -0.01909296  1
  O2-  O463  1  0.84857833  0.00577282  0.34857880  1
  O2-  O464  1  0.83824213  0.00607213  0.67066384  1
  O2-  O465  1  0.81309950  0.50113950  -0.03861386  1
  O2-  O466  1  0.81462353  0.50343496  0.30018025  1
  O2-  O467  1  0.84399771  0.50907212  0.67738405  1
  O2-  O468  1  0.74450901  0.75033685  0.05834532  1
  O2-  O469  1  0.42230002  0.25506789  0.40214831  1
  O2-  O470  1  0.25200095  0.75766219  0.92549345  1
  O2-  O471  1  0.41184139  0.75546612  0.07178987  1
  O2-  O472  1  0.08222173  0.75941483  0.39942144  1
  O2-  O473  1  0.56963197  0.25058584  0.60144948  1
  O2-  O474  1  0.25393824  0.25011134  0.60992897  1
  O2-  O475  1  0.23870742  0.74872796  0.61231255  1
  O2-  O476  1  0.92630489  0.24479340  0.60708743  1
  O2-  O477  1  0.90980570  0.74808744  0.27313399  1
  O2-  O478  1  0.06758962  0.24968516  0.41033842  1
  O2-  O479  1  0.56528909  0.25156938  0.26604232  1
  O2-  O480  1  0.74650730  0.75007243  0.39322877  1
  O2-  O481  1  0.42849195  0.25301854  0.06911442  1
  O2-  O482  1  0.91846550  0.25504236  0.26488241  1
  O2-  O483  1  0.41581064  0.75151710  0.38654950  1
  O2-  O484  1  0.26284976  0.75151267  0.28008548  1
  O2-  O485  1  0.92109540  0.24824038  0.94895681  1
  O2-  O486  1  0.75838758  0.75084935  0.71916931  1
  O2-  O487  1  0.08228339  0.75062739  0.71789118  1
  O2-  O488  1  0.90839254  0.75352971  0.61351864  1
  O2-  O489  1  0.75722016  0.25164357  0.06189844  1
  O2-  O490  1  0.57824488  0.74712592  0.27556630  1
  O2-  O491  1  0.07958652  0.25039415  0.71801405  1
  O2-  O492  1  0.58915379  0.75044352  0.59754884  1
