# generated using pymatgen
data_Ca108Mn108O277
_symmetry_space_group_name_H-M   'P 1'
_cell_length_a   16.02232573
_cell_length_b   22.30088236
_cell_length_c   16.38498768
_cell_angle_alpha   90.00403265
_cell_angle_beta   90.00011618
_cell_angle_gamma   89.99613839
_symmetry_Int_Tables_number   1
_chemical_formula_structural   Ca108Mn108O277
_chemical_formula_sum   'Ca108 Mn108 O277'
_cell_volume   5854.55271142
_cell_formula_units_Z   1
loop_
 _symmetry_equiv_pos_site_id
 _symmetry_equiv_pos_as_xyz
  1  'x, y, z'
loop_
 _atom_type_symbol
 _atom_type_oxidation_number
  Ca2+  2.0
  Mn3.34+  3.34
  O2-  -2.0
loop_
 _atom_site_type_symbol
 _atom_site_label
 _atom_site_symmetry_multiplicity
 _atom_site_fract_x
 _atom_site_fract_y
 _atom_site_fract_z
 _atom_site_occupancy
  Ca2+  Ca0  1  0.06970263  0.26734593  0.24161530  1
  Ca2+  Ca1  1  0.07776486  0.24606049  0.60547230  1
  Ca2+  Ca2  1  0.06652493  0.25975243  0.91275359  1
  Ca2+  Ca3  1  0.07100831  0.74230259  0.24841679  1
  Ca2+  Ca4  1  0.09189185  0.74376018  0.59212610  1
  Ca2+  Ca5  1  0.08659898  0.73471396  0.89765013  1
  Ca2+  Ca6  1  0.41920518  0.25449803  0.26534081  1
  Ca2+  Ca7  1  0.40406153  0.24251936  0.58883288  1
  Ca2+  Ca8  1  0.42919939  0.24339248  0.89980235  1
  Ca2+  Ca9  1  0.41986883  0.75479885  0.25501471  1
  Ca2+  Ca10  1  0.40689336  0.74697874  0.59751109  1
  Ca2+  Ca11  1  0.42513372  0.74316653  0.89271181  1
  Ca2+  Ca12  1  0.75997852  0.26385080  0.25058902  1
  Ca2+  Ca13  1  0.76578638  0.25411684  0.59039957  1
  Ca2+  Ca14  1  0.75352452  0.24566143  0.91600962  1
  Ca2+  Ca15  1  0.75625056  0.75743146  0.24922198  1
  Ca2+  Ca16  1  0.76060212  0.74529286  0.59910235  1
  Ca2+  Ca17  1  0.74009019  0.74711231  0.90029632  1
  Ca2+  Ca18  1  0.23882951  0.25771747  0.08556927  1
  Ca2+  Ca19  1  0.26927565  0.25549727  0.42803222  1
  Ca2+  Ca20  1  0.24414017  0.24888709  0.74260208  1
  Ca2+  Ca21  1  0.24745362  0.74857689  0.07805940  1
  Ca2+  Ca22  1  0.25368780  0.75129158  0.43060928  1
  Ca2+  Ca23  1  0.25170400  0.75276879  0.74703318  1
  Ca2+  Ca24  1  0.59478205  0.25018542  0.07536727  1
  Ca2+  Ca25  1  0.57669254  0.26007737  0.41242503  1
  Ca2+  Ca26  1  0.57786472  0.24889611  0.76792981  1
  Ca2+  Ca27  1  0.58421132  0.74945718  0.06797836  1
  Ca2+  Ca28  1  0.57778039  0.75756560  0.41999835  1
  Ca2+  Ca29  1  0.57549044  0.74200798  0.75969451  1
  Ca2+  Ca30  1  0.91400983  0.25098407  0.08148264  1
  Ca2+  Ca31  1  0.90835618  0.27156253  0.41539366  1
  Ca2+  Ca32  1  0.92702477  0.23586963  0.75124951  1
  Ca2+  Ca33  1  0.92269871  0.74438443  0.08530976  1
  Ca2+  Ca34  1  0.92441839  0.74748855  0.42034840  1
  Ca2+  Ca35  1  0.92989394  0.73372822  0.74320552  1
  Ca2+  Ca36  1  0.89092255  0.09716893  0.42603437  1
  Ca2+  Ca37  1  0.90366795  0.09670239  0.42542404  1
  Ca2+  Ca38  1  0.58051957  0.10637033  0.77930606  1
  Ca2+  Ca39  1  0.25901449  0.58707003  0.41330306  1
  Ca2+  Ca40  1  0.23770306  0.60329607  0.76325619  1
  Ca2+  Ca41  1  0.59663206  0.59200385  0.76235209  1
  Ca2+  Ca42  1  0.75488047  0.57434863  0.26166909  1
  Ca2+  Ca43  1  0.08407696  0.10766661  0.24009237  1
  Ca2+  Ca44  1  0.41483367  0.56873247  0.28110724  1
  Ca2+  Ca45  1  0.06672438  0.11085716  0.89789758  1
  Ca2+  Ca46  1  0.41196785  0.59018463  0.59086410  1
  Ca2+  Ca47  1  0.57581818  0.08180663  0.03722514  1
  Ca2+  Ca48  1  0.28708676  0.09878135  0.42880832  1
  Ca2+  Ca49  1  0.56731327  0.07856544  0.04149100  1
  Ca2+  Ca50  1  0.06913586  0.58849412  0.24466352  1
  Ca2+  Ca51  1  0.26969281  0.08269731  0.72347580  1
  Ca2+  Ca52  1  0.76006692  0.07195170  0.63408912  1
  Ca2+  Ca53  1  0.74490586  0.10646276  0.24199975  1
  Ca2+  Ca54  1  0.20342322  0.58734042  0.05284249  1
  Ca2+  Ca55  1  0.57479587  0.57227829  0.41251988  1
  Ca2+  Ca56  1  0.28060045  0.07894298  0.72764479  1
  Ca2+  Ca57  1  0.55819621  0.10103672  0.41437725  1
  Ca2+  Ca58  1  0.41979292  0.10797812  0.24315935  1
  Ca2+  Ca59  1  0.29107866  0.10578540  0.42324438  1
  Ca2+  Ca60  1  0.26437021  0.10039383  0.08442956  1
  Ca2+  Ca61  1  0.42328775  0.08681268  0.59861566  1
  Ca2+  Ca62  1  0.57062065  0.09971952  0.41225408  1
  Ca2+  Ca63  1  0.08484808  0.09466456  0.61326475  1
  Ca2+  Ca64  1  0.07705504  0.58340426  0.24137814  1
  Ca2+  Ca65  1  0.41898132  0.60280558  0.90377472  1
  Ca2+  Ca66  1  0.92057599  0.59178735  0.41769441  1
  Ca2+  Ca67  1  0.95065073  0.59146203  0.08453041  1
  Ca2+  Ca68  1  0.24806256  0.60327980  0.76388608  1
  Ca2+  Ca69  1  0.73185312  0.09884650  0.90614555  1
  Ca2+  Ca70  1  0.06001274  0.60329970  0.61664063  1
  Ca2+  Ca71  1  0.44328004  0.10212015  0.89994834  1
  Ca2+  Ca72  1  0.74058699  0.40502843  0.91291336  1
  Ca2+  Ca73  1  0.39767760  0.92731135  0.61082633  1
  Ca2+  Ca74  1  0.08387993  0.89073686  0.91418296  1
  Ca2+  Ca75  1  0.74193640  0.41005424  0.59179249  1
  Ca2+  Ca76  1  0.74766342  0.90980733  0.59034651  1
  Ca2+  Ca77  1  0.90414579  0.90944392  0.74747528  1
  Ca2+  Ca78  1  0.58233072  0.91748306  0.06597917  1
  Ca2+  Ca79  1  0.25847464  0.41167999  0.39754173  1
  Ca2+  Ca80  1  0.58007168  0.92062939  0.75190286  1
  Ca2+  Ca81  1  0.23030329  0.41238020  0.76833567  1
  Ca2+  Ca82  1  0.08551582  0.89503459  0.24347194  1
  Ca2+  Ca83  1  0.92706945  0.40665795  0.08949729  1
  Ca2+  Ca84  1  0.38820536  0.92959067  0.60746669  1
  Ca2+  Ca85  1  0.90625043  0.89792313  0.42180657  1
  Ca2+  Ca86  1  0.90954727  0.40044261  0.75062738  1
  Ca2+  Ca87  1  0.26489148  0.90117153  0.07179225  1
  Ca2+  Ca88  1  0.58598962  0.90099783  0.41782125  1
  Ca2+  Ca89  1  0.42387309  0.40735429  0.58279965  1
  Ca2+  Ca90  1  0.43426138  0.40536785  0.57920145  1
  Ca2+  Ca91  1  0.25704550  0.90095679  0.42652253  1
  Ca2+  Ca92  1  0.59531769  0.41604089  0.39815920  1
  Ca2+  Ca93  1  0.59119962  0.92160794  0.75337411  1
  Ca2+  Ca94  1  0.08134817  0.40645491  0.60222753  1
  Ca2+  Ca95  1  0.42421675  0.89870334  0.23909605  1
  Ca2+  Ca96  1  0.89964748  0.90228788  0.07362255  1
  Ca2+  Ca97  1  0.74294797  0.91248819  0.91958811  1
  Ca2+  Ca98  1  0.73016547  0.40356387  0.90960568  1
  Ca2+  Ca99  1  0.22571305  0.41774678  0.07127700  1
  Ca2+  Ca100  1  0.09103831  0.90340194  0.58937488  1
  Ca2+  Ca101  1  0.41175224  0.39846022  0.91547664  1
  Ca2+  Ca102  1  0.44068993  0.92628553  0.92823398  1
  Ca2+  Ca103  1  0.26793777  0.41542667  0.39913196  1
  Ca2+  Ca104  1  0.07301803  0.89604963  0.24257476  1
  Ca2+  Ca105  1  0.07400668  0.40792907  0.59434010  1
  Ca2+  Ca106  1  0.89229673  0.90848262  0.74783496  1
  Ca2+  Ca107  1  0.43214961  0.92855915  0.92307292  1
  Mn3.34+  Mn108  1  0.08071114  0.33790005  0.08177531  1
  Mn3.34+  Mn109  1  0.08167255  0.34157400  0.41460926  1
  Mn3.34+  Mn110  1  0.08060102  0.33276083  0.75902010  1
  Mn3.34+  Mn111  1  0.08323250  0.82383261  0.07919904  1
  Mn3.34+  Mn112  1  0.08420831  0.82655061  0.41980523  1
  Mn3.34+  Mn113  1  0.08498101  0.82807008  0.75052187  1
  Mn3.34+  Mn114  1  0.41824232  0.32349473  0.08774201  1
  Mn3.34+  Mn115  1  0.42221558  0.33275828  0.41464512  1
  Mn3.34+  Mn116  1  0.41508926  0.33025760  0.75147271  1
  Mn3.34+  Mn117  1  0.41809017  0.83241307  0.08516679  1
  Mn3.34+  Mn118  1  0.41784809  0.83196820  0.42042138  1
  Mn3.34+  Mn119  1  0.41663017  0.83548191  0.75471985  1
  Mn3.34+  Mn120  1  0.74874533  0.33496671  0.08870187  1
  Mn3.34+  Mn121  1  0.74684043  0.34020035  0.41656672  1
  Mn3.34+  Mn122  1  0.74733049  0.33142946  0.75159957  1
  Mn3.34+  Mn123  1  0.74590200  0.83473295  0.08594948  1
  Mn3.34+  Mn124  1  0.74879298  0.83145409  0.41983990  1
  Mn3.34+  Mn125  1  0.74484432  0.83174699  0.75209284  1
  Mn3.34+  Mn126  1  0.25133472  0.33420133  0.24257471  1
  Mn3.34+  Mn127  1  0.24997548  0.33281789  0.58301496  1
  Mn3.34+  Mn128  1  0.25030826  0.33681658  0.91749913  1
  Mn3.34+  Mn129  1  0.25318762  0.82994589  0.25098912  1
  Mn3.34+  Mn130  1  0.25034773  0.83509250  0.58604833  1
  Mn3.34+  Mn131  1  0.25291039  0.82584798  0.91384038  1
  Mn3.34+  Mn132  1  0.58327966  0.33785044  0.24007524  1
  Mn3.34+  Mn133  1  0.58856524  0.33265986  0.58326896  1
  Mn3.34+  Mn134  1  0.57645816  0.33361033  0.91872622  1
  Mn3.34+  Mn135  1  0.58926505  0.82997617  0.24675715  1
  Mn3.34+  Mn136  1  0.58154902  0.83540539  0.58378091  1
  Mn3.34+  Mn137  1  0.58383391  0.83358518  0.91454494  1
  Mn3.34+  Mn138  1  0.91386960  0.34131547  0.25274771  1
  Mn3.34+  Mn139  1  0.91233266  0.33472343  0.58046349  1
  Mn3.34+  Mn140  1  0.91466191  0.33321376  0.91764845  1
  Mn3.34+  Mn141  1  0.90815633  0.82873270  0.24851205  1
  Mn3.34+  Mn142  1  0.91797031  0.82902603  0.58215544  1
  Mn3.34+  Mn143  1  0.91304241  0.83381478  0.91504145  1
  Mn3.34+  Mn144  1  0.25229652  0.16581036  0.58361023  1
  Mn3.34+  Mn145  1  0.24432183  0.17235118  0.91643821  1
  Mn3.34+  Mn146  1  0.74829135  0.65522535  0.08272893  1
  Mn3.34+  Mn147  1  0.08746606  0.16833323  0.41670540  1
  Mn3.34+  Mn148  1  0.75828644  0.65770032  0.74864359  1
  Mn3.34+  Mn149  1  0.58807090  0.65951113  0.24118409  1
  Mn3.34+  Mn150  1  0.58119582  0.17592242  0.58763622  1
  Mn3.34+  Mn151  1  0.41745823  0.66358303  0.42121876  1
  Mn3.34+  Mn152  1  0.08344908  0.66522884  0.42397558  1
  Mn3.34+  Mn153  1  0.25535597  0.17923811  0.91738403  1
  Mn3.34+  Mn154  1  0.91167302  0.65978318  0.91542500  1
  Mn3.34+  Mn155  1  0.57895930  0.66516894  0.58660105  1
  Mn3.34+  Mn156  1  0.74814975  0.17317713  0.41834215  1
  Mn3.34+  Mn157  1  0.92206413  0.66394874  0.91446855  1
  Mn3.34+  Mn158  1  0.07668522  0.17318996  0.41510516  1
  Mn3.34+  Mn159  1  0.59087063  0.17054013  0.58628567  1
  Mn3.34+  Mn160  1  0.42101308  0.17029784  0.08803169  1
  Mn3.34+  Mn161  1  0.24782683  0.66782430  0.24504909  1
  Mn3.34+  Mn162  1  0.91201851  0.17075433  0.24381226  1
  Mn3.34+  Mn163  1  0.75015426  0.16795605  0.08141055  1
  Mn3.34+  Mn164  1  0.91363190  0.16673908  0.59064652  1
  Mn3.34+  Mn165  1  0.74653982  0.66424472  0.42076607  1
  Mn3.34+  Mn166  1  0.58609007  0.17446431  0.24380415  1
  Mn3.34+  Mn167  1  0.75684929  0.65958821  0.42230005  1
  Mn3.34+  Mn168  1  0.75252010  0.16796844  0.75682596  1
  Mn3.34+  Mn169  1  0.58917894  0.66030545  0.58520428  1
  Mn3.34+  Mn170  1  0.25851634  0.66301613  0.24245592  1
  Mn3.34+  Mn171  1  0.25005736  0.66830557  0.58166561  1
  Mn3.34+  Mn172  1  0.41862661  0.66337121  0.08092697  1
  Mn3.34+  Mn173  1  0.91265639  0.16657329  0.91942272  1
  Mn3.34+  Mn174  1  0.07710087  0.17242021  0.08328835  1
  Mn3.34+  Mn175  1  0.58747336  0.66482046  0.91774425  1
  Mn3.34+  Mn176  1  0.25030498  0.66628327  0.91996868  1
  Mn3.34+  Mn177  1  0.57602908  0.66488607  0.24350781  1
  Mn3.34+  Mn178  1  0.91241744  0.66503390  0.24309737  1
  Mn3.34+  Mn179  1  0.25021641  0.17682633  0.24565177  1
  Mn3.34+  Mn180  1  0.74406605  -0.00058853  0.42313013  1
  Mn3.34+  Mn181  1  0.42511908  0.49828433  0.08161115  1
  Mn3.34+  Mn182  1  0.07950603  0.50403281  0.41415311  1
  Mn3.34+  Mn183  1  0.91064077  0.00564404  0.91887896  1
  Mn3.34+  Mn184  1  0.59523222  -0.00302323  0.24258736  1
  Mn3.34+  Mn185  1  0.75248316  0.00193810  0.08224130  1
  Mn3.34+  Mn186  1  0.74234028  0.49871200  0.07522072  1
  Mn3.34+  Mn187  1  0.06808758  0.00224557  0.08115680  1
  Mn3.34+  Mn188  1  0.42049275  0.49610111  0.75030310  1
  Mn3.34+  Mn189  1  0.25760947  0.00344855  0.90736218  1
  Mn3.34+  Mn190  1  0.07821612  -0.00485448  0.42507530  1
  Mn3.34+  Mn191  1  0.92533138  0.50075605  0.92596099  1
  Mn3.34+  Mn192  1  0.08276958  0.00732158  0.07864701  1
  Mn3.34+  Mn193  1  0.90836805  0.49683297  0.26758046  1
  Mn3.34+  Mn194  1  0.91582838  -0.00303767  0.58459010  1
  Mn3.34+  Mn195  1  0.26256206  0.00210541  0.24668614  1
  Mn3.34+  Mn196  1  0.91508111  0.00372015  0.24272777  1
  Mn3.34+  Mn197  1  0.25181880  0.50058832  0.24920942  1
  Mn3.34+  Mn198  1  0.58343686  0.49897406  0.25660827  1
  Mn3.34+  Mn199  1  0.59058423  0.49952544  0.59804604  1
  Mn3.34+  Mn200  1  0.24262919  -0.00194564  0.90821679  1
  Mn3.34+  Mn201  1  0.58205215  0.50069068  0.92622333  1
  Mn3.34+  Mn202  1  0.90157866  -0.00284725  0.24451999  1
  Mn3.34+  Mn203  1  0.25038181  -0.00179828  0.24300953  1
  Mn3.34+  Mn204  1  0.23871519  0.50616959  0.58473538  1
  Mn3.34+  Mn205  1  0.90046944  0.50321868  0.59726136  1
  Mn3.34+  Mn206  1  0.42276107  -0.00458878  0.42094266  1
  Mn3.34+  Mn207  1  0.41061041  0.49648880  0.08687055  1
  Mn3.34+  Mn208  1  0.58860597  0.00052966  0.58540196  1
  Mn3.34+  Mn209  1  0.08652842  0.00120988  0.75599797  1
  Mn3.34+  Mn210  1  0.09679096  -0.00449723  0.75448392  1
  Mn3.34+  Mn211  1  0.93886304  0.49597647  0.92787204  1
  Mn3.34+  Mn212  1  0.58143705  0.00309952  0.23987717  1
  Mn3.34+  Mn213  1  0.90927481  0.50850942  0.60060260  1
  Mn3.34+  Mn214  1  0.08923017  -0.00142832  0.42295987  1
  Mn3.34+  Mn215  1  0.24955104  0.50135581  0.58419583  1
  O2-  O216  1  -0.00080870  0.15859614  0.00226471  1
  O2-  O217  1  -0.00704625  0.14529578  0.33387539  1
  O2-  O218  1  -0.00096952  0.16339091  0.65966212  1
  O2-  O219  1  -0.00220909  0.66645193  -0.00031555  1
  O2-  O220  1  0.00217772  0.65039745  0.33085831  1
  O2-  O221  1  -0.00472473  0.68645911  0.64848506  1
  O2-  O222  1  0.33466375  0.17142759  0.00153973  1
  O2-  O223  1  0.32996741  0.16589184  0.32781983  1
  O2-  O224  1  0.33694067  0.15441998  0.65804981  1
  O2-  O225  1  0.33639636  0.67764270  -0.00071124  1
  O2-  O226  1  0.33522553  0.64960374  0.32811329  1
  O2-  O227  1  0.32562630  0.65144815  0.66312364  1
  O2-  O228  1  0.66187279  0.15895737  0.01081058  1
  O2-  O229  1  0.66063851  0.15552301  0.33828307  1
  O2-  O230  1  0.66831836  0.16769698  0.66883708  1
  O2-  O231  1  0.67496934  0.68268061  0.00290257  1
  O2-  O232  1  0.66563292  0.64563577  0.33749237  1
  O2-  O233  1  0.66671760  0.66012572  0.66895401  1
  O2-  O234  1  0.17246253  0.16047617  0.00543033  1
  O2-  O235  1  0.17125382  0.15437183  0.33187442  1
  O2-  O236  1  0.17964947  0.15436484  0.66882455  1
  O2-  O237  1  0.17367903  0.68949392  -0.00493915  1
  O2-  O238  1  0.16639153  0.64151247  0.32816748  1
  O2-  O239  1  0.17018358  0.65965380  0.65892633  1
  O2-  O240  1  0.49848850  0.16984932  0.00938571  1
  O2-  O241  1  0.50520991  0.16248625  0.32634934  1
  O2-  O242  1  0.50334953  0.15721421  0.66635349  1
  O2-  O243  1  0.49771975  0.67193850  -0.00253583  1
  O2-  O244  1  0.50160745  0.64598520  0.33060497  1
  O2-  O245  1  0.50228726  0.64756006  0.66678495  1
  O2-  O246  1  0.82294242  0.15150634  -0.00409576  1
  O2-  O247  1  0.82971538  0.15192956  0.33341280  1
  O2-  O248  1  0.82890327  0.15793098  0.66355126  1
  O2-  O249  1  0.83966004  0.66039731  0.00261560  1
  O2-  O250  1  0.83159956  0.65089265  0.32849840  1
  O2-  O251  1  0.83347235  0.67516338  0.67387691  1
  O2-  O252  1  -0.00502402  0.34076384  -0.00060294  1
  O2-  O253  1  -0.00021556  0.33776540  0.33177515  1
  O2-  O254  1  -0.00312913  0.34107789  0.66475496  1
  O2-  O255  1  -0.00427052  0.84231830  0.00320694  1
  O2-  O256  1  -0.00088685  0.84734577  0.33156603  1
  O2-  O257  1  -0.00597643  0.84757275  0.67009899  1
  O2-  O258  1  0.33310185  0.31535865  -0.00163787  1
  O2-  O259  1  0.33148562  0.33617761  0.33646035  1
  O2-  O260  1  0.33383041  0.35233495  0.66364553  1
  O2-  O261  1  0.33366837  0.82277049  0.00368488  1
  O2-  O262  1  0.33738979  0.85093740  0.33336097  1
  O2-  O263  1  0.33572951  0.84749931  0.66810734  1
  O2-  O264  1  0.66673195  0.33343616  -0.00529189  1
  O2-  O265  1  0.66049123  0.33087623  0.33448902  1
  O2-  O266  1  0.67037019  0.32783961  0.66281423  1
  O2-  O267  1  0.66208623  0.84307819  0.00054925  1
  O2-  O268  1  0.66444188  0.84275506  0.33813384  1
  O2-  O269  1  0.66088679  0.85299703  0.67172594  1
  O2-  O270  1  0.17142106  0.32965994  0.00141442  1
  O2-  O271  1  0.17699966  0.34026217  0.33837192  1
  O2-  O272  1  0.16691685  0.34139998  0.66396462  1
  O2-  O273  1  0.17012970  0.82771203  0.00151817  1
  O2-  O274  1  0.16693456  0.85323663  0.33259382  1
  O2-  O275  1  0.16293048  0.83892952  0.66303948  1
  O2-  O276  1  0.49700944  0.30978561  -0.00170517  1
  O2-  O277  1  0.50529631  0.33386051  0.33494812  1
  O2-  O278  1  0.49778194  0.33867098  0.66090531  1
  O2-  O279  1  0.49742969  0.84561347  -0.00418202  1
  O2-  O280  1  0.50044539  0.84636427  0.33300639  1
  O2-  O281  1  0.49680870  0.86139548  0.66516267  1
  O2-  O282  1  0.83044887  0.35351436  -0.00400770  1
  O2-  O283  1  0.83149468  0.34065489  0.33415235  1
  O2-  O284  1  0.83054173  0.34650766  0.66384942  1
  O2-  O285  1  0.82532645  0.83840687  -0.00482177  1
  O2-  O286  1  0.83380908  0.83798815  0.33873084  1
  O2-  O287  1  0.82962167  0.83831283  0.66519724  1
  O2-  O288  1  0.00474776  0.18009101  0.17590715  1
  O2-  O289  1  -0.00950051  0.16681381  0.49699996  1
  O2-  O290  1  -0.00540692  0.18359001  0.84712641  1
  O2-  O291  1  0.00014302  0.67248042  0.17159206  1
  O2-  O292  1  0.00515291  0.68351372  0.49479158  1
  O2-  O293  1  -0.00321989  0.67056549  0.83418285  1
  O2-  O294  1  0.33324290  0.18393681  0.16449503  1
  O2-  O295  1  0.33017372  0.17660631  0.49907969  1
  O2-  O296  1  0.32763139  0.18243329  0.83210671  1
  O2-  O297  1  0.33597828  0.69044703  0.16227549  1
  O2-  O298  1  0.33671224  0.68192884  0.50114841  1
  O2-  O299  1  0.32872369  0.68101862  0.83977959  1
  O2-  O300  1  0.67283616  0.18804974  0.17240288  1
  O2-  O301  1  0.66252772  0.18482240  0.49871508  1
  O2-  O302  1  0.67170017  0.18289142  0.83198821  1
  O2-  O303  1  0.67026884  0.68269842  0.16747316  1
  O2-  O304  1  0.66280847  0.68371874  0.50292387  1
  O2-  O305  1  0.66433052  0.67274786  0.83295376  1
  O2-  O306  1  0.16551836  0.18540458  0.16865223  1
  O2-  O307  1  0.16909446  0.17678703  0.50100140  1
  O2-  O308  1  0.16213235  0.19004738  0.84601086  1
  O2-  O309  1  0.16404134  0.68141827  0.16878523  1
  O2-  O310  1  0.17273636  0.68189511  0.49365863  1
  O2-  O311  1  0.18077060  0.68067680  0.83320185  1
  O2-  O312  1  0.49693102  0.19024757  0.17192829  1
  O2-  O313  1  0.50635716  0.18264738  0.50158428  1
  O2-  O314  1  0.50829777  0.17849970  0.83917149  1
  O2-  O315  1  0.49786448  0.68892113  0.16132077  1
  O2-  O316  1  0.50443875  0.68038741  0.50098845  1
  O2-  O317  1  0.50762499  0.66979892  0.83677715  1
  O2-  O318  1  0.82847394  0.18172135  0.17045567  1
  O2-  O319  1  0.83659696  0.17866225  0.49313113  1
  O2-  O320  1  0.83069453  0.17525553  0.83866695  1
  O2-  O321  1  0.83341621  0.68444991  0.16269741  1
  O2-  O322  1  0.83674528  0.68471056  0.49467964  1
  O2-  O323  1  0.83175563  0.67672992  0.83731985  1
  O2-  O324  1  -0.00668861  0.32564337  0.16031691  1
  O2-  O325  1  0.00936750  0.33212854  0.51018217  1
  O2-  O326  1  -0.01133909  0.32273121  0.82908172  1
  O2-  O327  1  0.00525085  0.81844093  0.16833735  1
  O2-  O328  1  0.00245757  0.81269990  0.50407711  1
  O2-  O329  1  -0.00469769  0.83114658  0.83047630  1
  O2-  O330  1  0.33351348  0.30557364  0.16942919  1
  O2-  O331  1  0.33665617  0.32751907  0.50522504  1
  O2-  O332  1  0.33059345  0.31685906  0.83525089  1
  O2-  O333  1  0.33415165  0.81661685  0.16695122  1
  O2-  O334  1  0.33415525  0.81987121  0.50151995  1
  O2-  O335  1  0.34158304  0.82296614  0.84086070  1
  O2-  O336  1  0.66768345  0.31467048  0.16629131  1
  O2-  O337  1  0.66320374  0.31113353  0.50054454  1
  O2-  O338  1  0.66768497  0.31657023  0.83942348  1
  O2-  O339  1  0.66631561  0.80822868  0.16172672  1
  O2-  O340  1  0.66577576  0.82138082  0.50357695  1
  O2-  O341  1  0.66432653  0.83412773  0.83340763  1
  O2-  O342  1  0.16603639  0.31988293  0.16643221  1
  O2-  O343  1  0.17257605  0.32775161  0.49869123  1
  O2-  O344  1  0.17043044  0.32328346  0.83399462  1
  O2-  O345  1  0.16135328  0.81813760  0.17004196  1
  O2-  O346  1  0.17233644  0.82528266  0.49918571  1
  O2-  O347  1  0.16433844  0.81467516  0.83818648  1
  O2-  O348  1  0.50184585  0.30683336  0.16742478  1
  O2-  O349  1  0.49702688  0.32598932  0.50549299  1
  O2-  O350  1  0.49666970  0.31985512  0.83675362  1
  O2-  O351  1  0.49839803  0.81527974  0.16478185  1
  O2-  O352  1  0.50238794  0.82198187  0.49941906  1
  O2-  O353  1  0.50637414  0.82474957  0.82902074  1
  O2-  O354  1  0.83783486  0.32353557  0.16094932  1
  O2-  O355  1  0.82719818  0.32700559  0.50409998  1
  O2-  O356  1  0.82670657  0.32632655  0.84125641  1
  O2-  O357  1  0.83791807  0.81540849  0.15617092  1
  O2-  O358  1  0.83516064  0.81247866  0.50287526  1
  O2-  O359  1  0.83268318  0.82687666  0.82795217  1
  O2-  O360  1  0.09316532  0.08646743  0.11019447  1
  O2-  O361  1  0.08156413  0.08092675  0.44136651  1
  O2-  O362  1  0.10398857  0.08173758  0.77405646  1
  O2-  O363  1  0.08723170  0.56882726  0.11929746  1
  O2-  O364  1  0.08087242  0.58201012  0.45695145  1
  O2-  O365  1  0.11551147  0.57963319  0.75022641  1
  O2-  O366  1  0.42620504  0.08633955  0.10833663  1
  O2-  O367  1  0.42609703  0.08025609  0.45032558  1
  O2-  O368  1  0.38591511  0.06024183  0.79893395  1
  O2-  O369  1  0.41967381  0.57670679  0.12683816  1
  O2-  O370  1  0.41407941  0.58409897  0.44525408  1
  O2-  O371  1  0.38877224  0.57112628  0.77825196  1
  O2-  O372  1  0.73365403  0.08187959  0.11090500  1
  O2-  O373  1  0.75512444  0.08476931  0.45364428  1
  O2-  O374  1  0.73117428  0.08561613  0.76668121  1
  O2-  O375  1  0.76225660  0.57260754  0.12315617  1
  O2-  O376  1  0.74774507  0.58085859  0.44678990  1
  O2-  O377  1  0.74170776  0.58321707  0.76245456  1
  O2-  O378  1  0.25350872  0.08432287  0.21719425  1
  O2-  O379  1  0.24951006  0.08343762  0.55118639  1
  O2-  O380  1  0.24388056  0.08559707  0.89121208  1
  O2-  O381  1  0.25536978  0.58031280  0.20631772  1
  O2-  O382  1  0.25263994  0.58454049  0.54804565  1
  O2-  O383  1  0.25672251  0.58682085  0.90566946  1
  O2-  O384  1  0.58695543  0.08384945  0.21012696  1
  O2-  O385  1  0.58365972  0.08134691  0.54867880  1
  O2-  O386  1  0.58641178  0.07565688  0.90594260  1
  O2-  O387  1  0.58038729  0.57832338  0.21422032  1
  O2-  O388  1  0.57709495  0.57462474  0.54904139  1
  O2-  O389  1  0.57335364  0.58070362  0.89916655  1
  O2-  O390  1  0.90744208  0.08401669  0.22022836  1
  O2-  O391  1  0.90620354  0.07882710  0.55988407  1
  O2-  O392  1  0.92405549  0.08334568  0.89116395  1
  O2-  O393  1  0.91959013  0.57544842  0.21760186  1
  O2-  O394  1  0.92261825  0.58020908  0.55126083  1
  O2-  O395  1  0.91519846  0.57545989  0.89004498  1
  O2-  O396  1  0.08471637  0.41528375  0.09738432  1
  O2-  O397  1  0.10458540  0.42550739  0.45063809  1
  O2-  O398  1  0.08207023  0.41442909  0.74558857  1
  O2-  O399  1  0.08806023  0.92079876  0.11248474  1
  O2-  O400  1  0.07584629  0.91339114  0.44819236  1
  O2-  O401  1  0.08171596  0.91502993  0.77565132  1
  O2-  O402  1  0.40869151  0.41356480  0.08907621  1
  O2-  O403  1  0.39832882  0.42067104  0.44889635  1
  O2-  O404  1  0.41203564  0.41697885  0.77861775  1
  O2-  O405  1  0.40751117  0.91475715  0.10333549  1
  O2-  O406  1  0.41294643  0.91559735  0.45724361  1
  O2-  O407  1  0.43825091  0.92371520  0.78633275  1
  O2-  O408  1  0.75448247  0.41931891  0.09856963  1
  O2-  O409  1  0.72690691  0.41559677  0.44798127  1
  O2-  O410  1  0.75172590  0.41268021  0.77910011  1
  O2-  O411  1  0.75507011  0.92245738  0.11208506  1
  O2-  O412  1  0.75726401  0.91589749  0.45000165  1
  O2-  O413  1  0.75457690  0.91894221  0.77654420  1
  O2-  O414  1  0.25526944  0.42049998  0.23307633  1
  O2-  O415  1  0.24493192  0.41947612  0.55308626  1
  O2-  O416  1  0.26810928  0.41623923  0.90646184  1
  O2-  O417  1  0.24313034  0.91791036  0.21158161  1
  O2-  O418  1  0.25740987  0.91814177  0.55992174  1
  O2-  O419  1  0.24431705  0.91529206  0.90785204  1
  O2-  O420  1  0.58107205  0.42343470  0.23510875  1
  O2-  O421  1  0.57246831  0.42568093  0.54823408  1
  O2-  O422  1  0.58888765  0.42038905  0.89443216  1
  O2-  O423  1  0.57593927  0.91747840  0.21175147  1
  O2-  O424  1  0.59111515  0.92300346  0.55067038  1
  O2-  O425  1  0.57934330  0.92016667  0.89272055  1
  O2-  O426  1  0.91560745  0.42335509  0.22415133  1
  O2-  O427  1  0.92343125  0.42360304  0.56183945  1
  O2-  O428  1  0.91268291  0.42157862  0.88462402  1
  O2-  O429  1  0.93202104  0.91714917  0.21522917  1
  O2-  O430  1  0.92419604  0.91813638  0.55357637  1
  O2-  O431  1  0.91037105  0.92527342  0.88161580  1
  O2-  O432  1  0.00804317  -0.01123268  -0.01606633  1
  O2-  O433  1  0.00392953  -0.00683171  0.32835436  1
  O2-  O434  1  0.00249344  -0.00202778  0.66769359  1
  O2-  O435  1  -0.00002299  0.50550304  0.01439573  1
  O2-  O436  1  0.00310573  0.51785506  0.32607153  1
  O2-  O437  1  0.02017217  0.49966789  0.62920805  1
  O2-  O438  1  0.34018614  -0.00748649  -0.01321363  1
  O2-  O439  1  0.32318987  0.01105927  0.34840660  1
  O2-  O440  1  0.34243443  0.01511140  0.64822644  1
  O2-  O441  1  0.31166655  0.50652702  0.03564673  1
  O2-  O442  1  0.32153574  0.50217540  0.34202724  1
  O2-  O443  1  0.34136501  0.49247281  0.65687219  1
  O2-  O444  1  0.65932674  -0.00218270  0.02304853  1
  O2-  O445  1  0.65685540  0.01689033  0.34191045  1
  O2-  O446  1  0.66265645  -0.01095563  0.66430716  1
  O2-  O447  1  0.68735466  0.49304515  -0.02871623  1
  O2-  O448  1  0.66175308  0.50907553  0.32982845  1
  O2-  O449  1  0.66291182  0.49939559  0.67007679  1
  O2-  O450  1  0.17829716  0.00591307  0.00886888  1
  O2-  O451  1  0.16243684  -0.00658133  0.32729590  1
  O2-  O452  1  0.17007186  0.00829305  0.66615200  1
  O2-  O453  1  0.16936148  0.49599283  0.01422520  1
  O2-  O454  1  0.16475526  0.51230364  0.33070299  1
  O2-  O455  1  0.17508812  0.49235453  0.67518148  1
  O2-  O456  1  0.50009467  -0.00369537  -0.00349919  1
  O2-  O457  1  0.49651934  0.00534134  0.32591116  1
  O2-  O458  1  0.50034152  -0.00981258  0.65700364  1
  O2-  O459  1  0.47445364  0.49920214  -0.02196441  1
  O2-  O460  1  0.50509099  0.50423058  0.33363527  1
  O2-  O461  1  0.48927027  0.49830517  0.64755133  1
  O2-  O462  1  0.82676845  -0.01232795  -0.00622107  1
  O2-  O463  1  0.84438346  0.00967664  0.34936809  1
  O2-  O464  1  0.83269384  -0.01743611  0.65998727  1
  O2-  O465  1  0.84253345  0.49696221  -0.00208990  1
  O2-  O466  1  0.83878024  0.51897156  0.34109553  1
  O2-  O467  1  0.82127265  0.48118984  0.66799814  1
  O2-  O468  1  0.25069609  0.25071265  0.60063570  1
  O2-  O469  1  0.25011230  0.74703387  0.28801019  1
  O2-  O470  1  0.09173772  0.74743086  0.38480406  1
  O2-  O471  1  0.42084176  0.75669686  0.73365747  1
  O2-  O472  1  0.75991428  0.25069096  0.05885262  1
  O2-  O473  1  0.58554561  0.75221746  0.92288849  1
  O2-  O474  1  0.41163255  0.25448202  0.72754071  1
  O2-  O475  1  0.57961522  0.75150601  0.61236151  1
  O2-  O476  1  0.58340504  0.74310235  0.28159453  1
  O2-  O477  1  0.91790328  0.25103174  0.59440577  1
  O2-  O478  1  0.75793099  0.25082148  0.39310444  1
  O2-  O479  1  0.42015328  0.74942068  0.39228948  1
  O2-  O480  1  0.90596097  0.25166533  0.94180263  1
  O2-  O481  1  0.07905102  0.75078537  0.73718125  1
  O2-  O482  1  0.91694199  0.74836098  0.92780236  1
  O2-  O483  1  0.73952768  0.74463771  0.39020584  1
  O2-  O484  1  0.91677727  0.25060194  0.27252620  1
  O2-  O485  1  0.73410052  0.75127705  0.74295511  1
  O2-  O486  1  0.25417998  0.75112068  0.60520685  1
  O2-  O487  1  0.41557764  0.25433706  0.40628206  1
  O2-  O488  1  0.07570096  0.25111180  0.06366254  1
  O2-  O489  1  0.76934991  0.25034254  0.73196926  1
  O2-  O490  1  0.08266100  0.25440683  0.73696167  1
  O2-  O491  1  0.08103760  0.25603270  0.40239201  1
  O2-  O492  1  0.91917234  0.74598121  0.27548640  1
