# generated using pymatgen
data_Ca108Mn108O277
_symmetry_space_group_name_H-M   'P 1'
_cell_length_a   16.01499485
_cell_length_b   22.29020212
_cell_length_c   16.37966463
_cell_angle_alpha   89.99707612
_cell_angle_beta   89.99820867
_cell_angle_gamma   90.00068878
_symmetry_Int_Tables_number   1
_chemical_formula_structural   Ca108Mn108O277
_chemical_formula_sum   'Ca108 Mn108 O277'
_cell_volume   5847.17126404
_cell_formula_units_Z   1
loop_
 _symmetry_equiv_pos_site_id
 _symmetry_equiv_pos_as_xyz
  1  'x, y, z'
loop_
 _atom_type_symbol
 _atom_type_oxidation_number
  Ca2+  2.0
  Mn3.34+  3.34
  O2-  -2.0
loop_
 _atom_site_type_symbol
 _atom_site_label
 _atom_site_symmetry_multiplicity
 _atom_site_fract_x
 _atom_site_fract_y
 _atom_site_fract_z
 _atom_site_occupancy
  Ca2+  Ca0  1  0.09656382  0.24603993  0.25847051  1
  Ca2+  Ca1  1  0.07562235  0.24777068  0.59657827  1
  Ca2+  Ca2  1  0.09160250  0.24100799  0.89068470  1
  Ca2+  Ca3  1  0.08908484  0.76782537  0.25726978  1
  Ca2+  Ca4  1  0.07122331  0.75567363  0.58848334  1
  Ca2+  Ca5  1  0.05120317  0.75090613  0.90000389  1
  Ca2+  Ca6  1  0.39971269  0.23662610  0.25494308  1
  Ca2+  Ca7  1  0.44590727  0.24748020  0.58226899  1
  Ca2+  Ca8  1  0.40407004  0.25570013  0.91326490  1
  Ca2+  Ca9  1  0.42345229  0.73913854  0.23547741  1
  Ca2+  Ca10  1  0.42264070  0.74542392  0.58561421  1
  Ca2+  Ca11  1  0.42783623  0.75706712  0.93006218  1
  Ca2+  Ca12  1  0.75350862  0.25932252  0.25633547  1
  Ca2+  Ca13  1  0.73263637  0.25575498  0.58043757  1
  Ca2+  Ca14  1  0.75531111  0.25625414  0.91016751  1
  Ca2+  Ca15  1  0.74337189  0.73859309  0.26568287  1
  Ca2+  Ca16  1  0.75505400  0.73633705  0.59094229  1
  Ca2+  Ca17  1  0.76646481  0.74645281  0.90287429  1
  Ca2+  Ca18  1  0.25845306  0.25213047  0.08665811  1
  Ca2+  Ca19  1  0.24843491  0.24771412  0.39860254  1
  Ca2+  Ca20  1  0.24320443  0.25108690  0.76503296  1
  Ca2+  Ca21  1  0.27568259  0.75333017  0.09942106  1
  Ca2+  Ca22  1  0.25457571  0.75775911  0.41092288  1
  Ca2+  Ca23  1  0.25090726  0.74565507  0.73717610  1
  Ca2+  Ca24  1  0.58004288  0.25445071  0.08985426  1
  Ca2+  Ca25  1  0.58333110  0.24728368  0.42262941  1
  Ca2+  Ca26  1  0.58372431  0.25074413  0.73808588  1
  Ca2+  Ca27  1  0.57928389  0.75052535  0.09581510  1
  Ca2+  Ca28  1  0.59634479  0.74541172  0.40961141  1
  Ca2+  Ca29  1  0.59958650  0.74279251  0.74564749  1
  Ca2+  Ca30  1  0.91034526  0.25127711  0.08152790  1
  Ca2+  Ca31  1  0.92155829  0.24939611  0.40725282  1
  Ca2+  Ca32  1  0.92905818  0.24682828  0.75864137  1
  Ca2+  Ca33  1  0.89636054  0.74918304  0.06337726  1
  Ca2+  Ca34  1  0.89841419  0.75084854  0.42585976  1
  Ca2+  Ca35  1  0.89794140  0.74296235  0.75413510  1
  Ca2+  Ca36  1  0.26937758  0.59407818  0.08114128  1
  Ca2+  Ca37  1  0.26232433  0.09270214  0.75908301  1
  Ca2+  Ca38  1  0.60203700  0.58217388  0.73019997  1
  Ca2+  Ca39  1  0.88820139  0.60396946  0.42494791  1
  Ca2+  Ca40  1  0.25105971  0.09370965  0.75991704  1
  Ca2+  Ca41  1  0.55626711  0.08686485  0.74635220  1
  Ca2+  Ca42  1  0.06946226  0.59847895  0.91514814  1
  Ca2+  Ca43  1  0.28169448  0.59282849  0.07963183  1
  Ca2+  Ca44  1  0.26296127  0.10645724  0.09787481  1
  Ca2+  Ca45  1  0.07992558  0.58453306  0.25304076  1
  Ca2+  Ca46  1  0.93929926  0.10590340  0.75970142  1
  Ca2+  Ca47  1  0.88037588  0.59451700  0.74137041  1
  Ca2+  Ca48  1  0.41260469  0.58303543  0.88674828  1
  Ca2+  Ca49  1  0.40350656  0.58535188  0.89085935  1
  Ca2+  Ca50  1  0.56829391  0.09657692  0.41465602  1
  Ca2+  Ca51  1  0.55898130  0.09209112  0.41529737  1
  Ca2+  Ca52  1  0.92500025  0.09040378  0.39835491  1
  Ca2+  Ca53  1  0.73412831  0.10569863  0.57967834  1
  Ca2+  Ca54  1  0.06702932  0.58448503  0.25279139  1
  Ca2+  Ca55  1  0.07924271  0.59523573  0.91200320  1
  Ca2+  Ca56  1  0.56601713  0.08868871  0.75003918  1
  Ca2+  Ca57  1  0.76872083  0.08188297  0.92174641  1
  Ca2+  Ca58  1  0.55980836  0.60435980  0.09451872  1
  Ca2+  Ca59  1  0.59550003  0.60933438  0.42609797  1
  Ca2+  Ca60  1  0.41780786  0.09089884  0.58809548  1
  Ca2+  Ca61  1  0.08484117  0.58905268  0.58837268  1
  Ca2+  Ca62  1  0.42854027  0.58795721  0.62166447  1
  Ca2+  Ca63  1  0.92223199  0.07798267  0.08117033  1
  Ca2+  Ca64  1  0.08086824  0.09892763  0.59228364  1
  Ca2+  Ca65  1  0.07225337  0.58878582  0.58845030  1
  Ca2+  Ca66  1  0.76641698  0.60474400  0.90515274  1
  Ca2+  Ca67  1  0.27019658  0.08642261  0.40333956  1
  Ca2+  Ca68  1  0.76079718  0.08535094  0.25532350  1
  Ca2+  Ca69  1  0.90051291  0.59621143  0.07666416  1
  Ca2+  Ca70  1  0.74661617  0.10701753  0.58119494  1
  Ca2+  Ca71  1  0.25899031  0.08696592  0.40321368  1
  Ca2+  Ca72  1  0.74304276  0.40632376  0.91013610  1
  Ca2+  Ca73  1  0.58211404  0.40199715  0.07835145  1
  Ca2+  Ca74  1  0.92563458  0.90147472  0.40375060  1
  Ca2+  Ca75  1  0.91576103  0.91623424  0.08262021  1
  Ca2+  Ca76  1  0.27605676  0.92058935  0.73528682  1
  Ca2+  Ca77  1  0.40488089  0.91070454  0.57726620  1
  Ca2+  Ca78  1  0.25267138  0.40568402  0.06517714  1
  Ca2+  Ca79  1  0.74985221  0.43246453  0.61539479  1
  Ca2+  Ca80  1  0.91941496  0.40492389  0.41407912  1
  Ca2+  Ca81  1  0.57523134  0.40688284  0.42689193  1
  Ca2+  Ca82  1  0.41664140  0.90290932  0.25491921  1
  Ca2+  Ca83  1  0.90442198  0.40693616  0.74337109  1
  Ca2+  Ca84  1  0.08396537  0.40482137  0.58267439  1
  Ca2+  Ca85  1  0.56846551  0.90538103  0.41671951  1
  Ca2+  Ca86  1  0.57924150  0.89565528  0.75855408  1
  Ca2+  Ca87  1  0.25284359  0.90225461  0.08031138  1
  Ca2+  Ca88  1  0.59166767  0.91418485  0.07504205  1
  Ca2+  Ca89  1  0.56463970  0.40438522  0.42956644  1
  Ca2+  Ca90  1  0.41505964  0.39608424  0.24771680  1
  Ca2+  Ca91  1  0.27716925  0.41802832  0.76994369  1
  Ca2+  Ca92  1  0.92413746  0.40073957  0.09379956  1
  Ca2+  Ca93  1  0.43120248  0.91749525  0.91335070  1
  Ca2+  Ca94  1  0.57664413  0.90031813  0.41640321  1
  Ca2+  Ca95  1  0.58086509  0.91390964  0.07534960  1
  Ca2+  Ca96  1  0.07974577  0.90556905  0.92730096  1
  Ca2+  Ca97  1  0.55890948  0.42207671  0.74142710  1
  Ca2+  Ca98  1  0.90725378  0.91325494  0.07813874  1
  Ca2+  Ca99  1  0.74164347  0.42859965  0.61284727  1
  Ca2+  Ca100  1  0.06877213  0.90805920  0.92409894  1
  Ca2+  Ca101  1  0.28643892  0.41538617  0.76668848  1
  Ca2+  Ca102  1  0.07122600  0.40476450  0.58208081  1
  Ca2+  Ca103  1  0.25402455  0.40036470  0.42064472  1
  Ca2+  Ca104  1  0.26432045  0.91837204  0.73350531  1
  Ca2+  Ca105  1  0.56891249  0.42201364  0.74447789  1
  Ca2+  Ca106  1  0.91118208  0.40209232  0.09318889  1
  Ca2+  Ca107  1  0.09360567  0.90179304  0.57655818  1
  Mn3.34+  Mn108  1  0.08597642  0.33271776  0.08465237  1
  Mn3.34+  Mn109  1  0.08516194  0.32982042  0.41519872  1
  Mn3.34+  Mn110  1  0.08456155  0.32917283  0.75315847  1
  Mn3.34+  Mn111  1  0.08284313  0.82726729  0.08839187  1
  Mn3.34+  Mn112  1  0.08557111  0.83727846  0.41561978  1
  Mn3.34+  Mn113  1  0.07969455  0.83296649  0.74882895  1
  Mn3.34+  Mn114  1  0.41667151  0.33372110  0.08404621  1
  Mn3.34+  Mn115  1  0.41145140  0.33097028  0.41978434  1
  Mn3.34+  Mn116  1  0.41984917  0.33106203  0.75041320  1
  Mn3.34+  Mn117  1  0.41808502  0.83452959  0.08492573  1
  Mn3.34+  Mn118  1  0.41149390  0.83526960  0.42088648  1
  Mn3.34+  Mn119  1  0.41853977  0.82762084  0.75337094  1
  Mn3.34+  Mn120  1  0.74727289  0.33618261  0.08551129  1
  Mn3.34+  Mn121  1  0.75167760  0.33420917  0.41623423  1
  Mn3.34+  Mn122  1  0.74924315  0.33261779  0.75408421  1
  Mn3.34+  Mn123  1  0.74929459  0.83126785  0.08535424  1
  Mn3.34+  Mn124  1  0.75169980  0.82859571  0.41789319  1
  Mn3.34+  Mn125  1  0.75136550  0.82869319  0.74685431  1
  Mn3.34+  Mn126  1  0.24735559  0.32927992  0.24655009  1
  Mn3.34+  Mn127  1  0.25368333  0.33422974  0.58311637  1
  Mn3.34+  Mn128  1  0.24733427  0.33627969  0.91871493  1
  Mn3.34+  Mn129  1  0.24965087  0.83311538  0.25337341  1
  Mn3.34+  Mn130  1  0.25189335  0.83462019  0.57941304  1
  Mn3.34+  Mn131  1  0.25156147  0.83151625  0.91188687  1
  Mn3.34+  Mn132  1  0.58357932  0.33067528  0.25010352  1
  Mn3.34+  Mn133  1  0.58478203  0.33492391  0.58336533  1
  Mn3.34+  Mn134  1  0.57982207  0.33292903  0.91535127  1
  Mn3.34+  Mn135  1  0.58673892  0.83525285  0.24742489  1
  Mn3.34+  Mn136  1  0.58451863  0.82391932  0.58272151  1
  Mn3.34+  Mn137  1  0.58998690  0.83801977  0.91304098  1
  Mn3.34+  Mn138  1  0.92024202  0.33060409  0.25303045  1
  Mn3.34+  Mn139  1  0.91185326  0.33577980  0.57889673  1
  Mn3.34+  Mn140  1  0.92032240  0.32890128  0.91532115  1
  Mn3.34+  Mn141  1  0.91454254  0.83919767  0.24617987  1
  Mn3.34+  Mn142  1  0.91312800  0.83138249  0.58518949  1
  Mn3.34+  Mn143  1  0.90738544  0.83684531  0.91040251  1
  Mn3.34+  Mn144  1  0.90842186  0.66559690  0.24813009  1
  Mn3.34+  Mn145  1  0.25448783  0.16767533  0.91727099  1
  Mn3.34+  Mn146  1  0.09489791  0.66442840  0.41835664  1
  Mn3.34+  Mn147  1  0.92065745  0.16226939  0.24869265  1
  Mn3.34+  Mn148  1  0.58819249  0.66467673  0.91344218  1
  Mn3.34+  Mn149  1  0.91558849  0.17114135  0.57936412  1
  Mn3.34+  Mn150  1  0.74764383  0.66679675  0.08877943  1
  Mn3.34+  Mn151  1  0.41751010  0.16839832  0.75117473  1
  Mn3.34+  Mn152  1  0.25531143  0.17432496  0.58151355  1
  Mn3.34+  Mn153  1  0.58174278  0.66884056  0.25091126  1
  Mn3.34+  Mn154  1  0.90972146  0.66419865  0.58280537  1
  Mn3.34+  Mn155  1  0.41670579  0.16903379  0.41886823  1
  Mn3.34+  Mn156  1  0.24681860  0.16810437  0.57973019  1
  Mn3.34+  Mn157  1  0.25687912  0.67378950  0.91062320  1
  Mn3.34+  Mn158  1  0.75401385  0.16588033  0.08705924  1
  Mn3.34+  Mn159  1  0.58582580  0.66034587  0.58445325  1
  Mn3.34+  Mn160  1  0.75086743  0.16737224  0.75438089  1
  Mn3.34+  Mn161  1  0.41912495  0.16213516  0.08804154  1
  Mn3.34+  Mn162  1  0.26039535  0.66801154  0.25315271  1
  Mn3.34+  Mn163  1  0.41602004  0.66211273  0.42126712  1
  Mn3.34+  Mn164  1  0.08281839  0.16499810  0.41706555  1
  Mn3.34+  Mn165  1  0.24807003  0.68017520  0.91157452  1
  Mn3.34+  Mn166  1  0.08212116  0.66941722  0.74741074  1
  Mn3.34+  Mn167  1  0.58405880  0.16183425  0.92173655  1
  Mn3.34+  Mn168  1  0.75025156  0.16978253  0.41281729  1
  Mn3.34+  Mn169  1  0.74357048  0.16093432  0.08830220  1
  Mn3.34+  Mn170  1  0.08780548  0.17030578  0.08331911  1
  Mn3.34+  Mn171  1  0.08299578  0.67025458  0.41718580  1
  Mn3.34+  Mn172  1  0.08539233  0.68048028  0.08754841  1
  Mn3.34+  Mn173  1  0.25978514  0.66496205  0.58104460  1
  Mn3.34+  Mn174  1  0.57322163  0.15653662  0.92196568  1
  Mn3.34+  Mn175  1  0.08000113  0.16386618  0.08510157  1
  Mn3.34+  Mn176  1  0.91829385  0.16243537  0.91344989  1
  Mn3.34+  Mn177  1  0.57788120  0.66894228  0.91571255  1
  Mn3.34+  Mn178  1  0.57759741  0.16704856  0.24605403  1
  Mn3.34+  Mn179  1  0.07621087  0.67459944  0.08865222  1
  Mn3.34+  Mn180  1  0.24295059  0.00124278  0.24691380  1
  Mn3.34+  Mn181  1  0.08846463  0.50018456  0.75407688  1
  Mn3.34+  Mn182  1  0.58784871  0.50090084  0.92194542  1
  Mn3.34+  Mn183  1  0.90923982  0.50105149  0.91140096  1
  Mn3.34+  Mn184  1  0.57298252  0.00406189  0.25665785  1
  Mn3.34+  Mn185  1  0.57891087  -0.00137350  0.58337360  1
  Mn3.34+  Mn186  1  0.74764377  -0.00591348  0.41885683  1
  Mn3.34+  Mn187  1  0.42075253  0.00289747  0.07426275  1
  Mn3.34+  Mn188  1  0.26373141  0.50166161  0.58782954  1
  Mn3.34+  Mn189  1  0.90816232  0.50016119  0.25250743  1
  Mn3.34+  Mn190  1  0.25815892  -0.00081774  0.24969062  1
  Mn3.34+  Mn191  1  0.76173458  -0.00126991  0.41380460  1
  Mn3.34+  Mn192  1  0.58880938  -0.00728959  0.58495634  1
  Mn3.34+  Mn193  1  0.08012720  0.00059424  0.40882018  1
  Mn3.34+  Mn194  1  0.07706780  0.49616504  0.75366483  1
  Mn3.34+  Mn195  1  0.74661609  -0.00210531  0.07297069  1
  Mn3.34+  Mn196  1  0.08659054  -0.00206065  0.08366014  1
  Mn3.34+  Mn197  1  0.07840838  0.49808348  0.41345486  1
  Mn3.34+  Mn198  1  0.74305037  0.50168549  0.42428507  1
  Mn3.34+  Mn199  1  0.41391130  0.50248728  0.42604277  1
  Mn3.34+  Mn200  1  0.25353912  0.00065712  0.92528229  1
  Mn3.34+  Mn201  1  0.07479391  -0.00047106  0.75401519  1
  Mn3.34+  Mn202  1  0.91801636  0.00082604  0.57431525  1
  Mn3.34+  Mn203  1  0.57712486  0.50343176  0.25101732  1
  Mn3.34+  Mn204  1  0.08544926  0.00432534  0.75378562  1
  Mn3.34+  Mn205  1  0.74580734  0.50316159  0.08639446  1
  Mn3.34+  Mn206  1  0.75542817  0.50819763  0.42327355  1
  Mn3.34+  Mn207  1  0.41800335  0.49858421  0.07413565  1
  Mn3.34+  Mn208  1  0.09160804  0.50093104  0.07779430  1
  Mn3.34+  Mn209  1  0.58759933  0.49863180  0.24928069  1
  Mn3.34+  Mn210  1  0.76546064  -0.00284042  0.76187746  1
  Mn3.34+  Mn211  1  0.90499686  -0.00626462  0.57623230  1
  Mn3.34+  Mn212  1  0.92321674  0.49453669  0.91244215  1
  Mn3.34+  Mn213  1  0.24956940  0.49431247  0.25303580  1
  Mn3.34+  Mn214  1  0.75212666  -0.00790188  0.76023024  1
  Mn3.34+  Mn215  1  0.25997370  0.49968699  0.25328660  1
  O2-  O216  1  -0.00387323  0.16676539  0.00722784  1
  O2-  O217  1  0.00044547  0.16192829  0.33492050  1
  O2-  O218  1  -0.00642040  0.17197016  0.65933527  1
  O2-  O219  1  0.00460870  0.66128522  -0.00187682  1
  O2-  O220  1  0.00176719  0.65395375  0.32809786  1
  O2-  O221  1  0.00289606  0.65312665  0.66657336  1
  O2-  O222  1  0.33526660  0.17454527  0.00429916  1
  O2-  O223  1  0.33086195  0.16252314  0.34650771  1
  O2-  O224  1  0.33305316  0.15999307  0.66693778  1
  O2-  O225  1  0.33162961  0.66602759  -0.00096941  1
  O2-  O226  1  0.33593480  0.67916459  0.33609525  1
  O2-  O227  1  0.33375816  0.68313417  0.65923260  1
  O2-  O228  1  0.67468497  0.15040848  -0.00531871  1
  O2-  O229  1  0.66357530  0.14938752  0.33939339  1
  O2-  O230  1  0.66558251  0.14595636  0.67745719  1
  O2-  O231  1  0.66090285  0.65063368  0.00162794  1
  O2-  O232  1  0.65891077  0.66544907  0.33140197  1
  O2-  O233  1  0.65791084  0.66855990  0.66284991  1
  O2-  O234  1  0.16741338  0.16730653  0.00118400  1
  O2-  O235  1  0.17232047  0.15594133  0.35311261  1
  O2-  O236  1  0.17259007  0.16010063  0.66674038  1
  O2-  O237  1  0.16819121  0.66642108  -0.00087581  1
  O2-  O238  1  0.16278771  0.65323112  0.32480327  1
  O2-  O239  1  0.16291072  0.66559491  0.65943106  1
  O2-  O240  1  0.49864767  0.17854076  0.00456421  1
  O2-  O241  1  0.49825038  0.15994401  0.33430189  1
  O2-  O242  1  0.49831281  0.15742661  0.67011064  1
  O2-  O243  1  0.49376761  0.65300904  -0.01260563  1
  O2-  O244  1  0.49956032  0.67222864  0.33835007  1
  O2-  O245  1  0.50488054  0.67881338  0.65558337  1
  O2-  O246  1  0.83436027  0.15236669  0.00377188  1
  O2-  O247  1  0.83292169  0.15778348  0.33275709  1
  O2-  O248  1  0.83059306  0.15928636  0.66489334  1
  O2-  O249  1  0.82668886  0.66101082  0.00698725  1
  O2-  O250  1  0.84374979  0.67778401  0.33353546  1
  O2-  O251  1  0.83863909  0.66772693  0.66333721  1
  O2-  O252  1  -0.00711127  0.33217957  0.00853529  1
  O2-  O253  1  -0.00293254  0.33825524  0.34047069  1
  O2-  O254  1  -0.00291639  0.33521877  0.66259277  1
  O2-  O255  1  0.00254014  0.83168018  0.00213031  1
  O2-  O256  1  -0.00367462  0.82992458  0.33032216  1
  O2-  O257  1  0.01029807  0.84125490  0.65860021  1
  O2-  O258  1  0.33110009  0.32904434  0.00435090  1
  O2-  O259  1  0.33204917  0.34277607  0.33290991  1
  O2-  O260  1  0.32452509  0.33713843  0.67740825  1
  O2-  O261  1  0.33322448  0.83782523  -0.00155751  1
  O2-  O262  1  0.33976154  0.82782582  0.33143883  1
  O2-  O263  1  0.33349882  0.82553280  0.66744067  1
  O2-  O264  1  0.66720044  0.34560212  -0.00222421  1
  O2-  O265  1  0.65719166  0.34927442  0.34284655  1
  O2-  O266  1  0.66721108  0.34825426  0.66685607  1
  O2-  O267  1  0.66303725  0.84646545  0.00467471  1
  O2-  O268  1  0.66004650  0.84426815  0.33696866  1
  O2-  O269  1  0.66029710  0.82456692  0.66838858  1
  O2-  O270  1  0.16830669  0.32881902  0.00318938  1
  O2-  O271  1  0.17218589  0.34069213  0.33979783  1
  O2-  O272  1  0.16141683  0.33852087  0.65972672  1
  O2-  O273  1  0.16407108  0.83316872  -0.00435445  1
  O2-  O274  1  0.17025768  0.83448997  0.33530574  1
  O2-  O275  1  0.17447329  0.83662083  0.67138865  1
  O2-  O276  1  0.50282059  0.32589484  0.00606639  1
  O2-  O277  1  0.49980909  0.34627312  0.33639454  1
  O2-  O278  1  0.50517981  0.34293111  0.66880553  1
  O2-  O279  1  0.50033480  0.84834820  0.00158306  1
  O2-  O280  1  0.49955005  0.84133406  0.33438022  1
  O2-  O281  1  0.49857646  0.82252635  0.66768373  1
  O2-  O282  1  0.83414147  0.34548398  0.00105841  1
  O2-  O283  1  0.83622155  0.33859879  0.33735369  1
  O2-  O284  1  0.82931509  0.33861365  0.66297830  1
  O2-  O285  1  0.83936967  0.84326268  0.00838226  1
  O2-  O286  1  0.83728136  0.82872898  0.33229463  1
  O2-  O287  1  0.83415793  0.82564579  0.66557920  1
  O2-  O288  1  0.00059800  0.18469160  0.16359137  1
  O2-  O289  1  -0.00294362  0.17937027  0.49860757  1
  O2-  O290  1  -0.00533946  0.17753100  0.83779814  1
  O2-  O291  1  -0.00064716  0.68726077  0.17379386  1
  O2-  O292  1  0.00595168  0.67663989  0.50294695  1
  O2-  O293  1  0.00910117  0.66884194  0.83181653  1
  O2-  O294  1  0.33841711  0.18296395  0.15593644  1
  O2-  O295  1  0.33816811  0.18607468  0.50440709  1
  O2-  O296  1  0.33269621  0.17551374  0.82756972  1
  O2-  O297  1  0.32670672  0.67119704  0.16446950  1
  O2-  O298  1  0.33421170  0.68931138  0.49744221  1
  O2-  O299  1  0.34169021  0.68505237  0.83589979  1
  O2-  O300  1  0.67139446  0.17696984  0.17421594  1
  O2-  O301  1  0.66998575  0.16648259  0.49514442  1
  O2-  O302  1  0.66110306  0.16886417  0.83138401  1
  O2-  O303  1  0.66209109  0.67803217  0.16448990  1
  O2-  O304  1  0.65295717  0.68863897  0.51040044  1
  O2-  O305  1  0.66700213  0.67171700  0.83724714  1
  O2-  O306  1  0.16792905  0.18379115  0.15923597  1
  O2-  O307  1  0.15880152  0.18601765  0.50904712  1
  O2-  O308  1  0.18162399  0.16899070  0.83153473  1
  O2-  O309  1  0.16899536  0.67564225  0.16684742  1
  O2-  O310  1  0.16893446  0.68223097  0.50706279  1
  O2-  O311  1  0.16246794  0.67986762  0.83485021  1
  O2-  O312  1  0.50070876  0.18706800  0.16535917  1
  O2-  O313  1  0.50288532  0.17041384  0.49339771  1
  O2-  O314  1  0.50189611  0.17385722  0.83073722  1
  O2-  O315  1  0.50646893  0.67868231  0.16636156  1
  O2-  O316  1  0.50091769  0.68321407  0.49628819  1
  O2-  O317  1  0.49857711  0.67892163  0.83512379  1
  O2-  O318  1  0.83486685  0.17975424  0.16745233  1
  O2-  O319  1  0.82448614  0.18185470  0.50518040  1
  O2-  O320  1  0.83062039  0.17993396  0.83418410  1
  O2-  O321  1  0.83397149  0.68405662  0.16483848  1
  O2-  O322  1  0.83911337  0.67629239  0.50309796  1
  O2-  O323  1  0.83315527  0.67053853  0.82955509  1
  O2-  O324  1  -0.00281461  0.31808169  0.16233049  1
  O2-  O325  1  0.00098129  0.31873433  0.50535329  1
  O2-  O326  1  -0.00344783  0.32299359  0.82906332  1
  O2-  O327  1  -0.00318670  0.80871378  0.16435986  1
  O2-  O328  1  0.00244414  0.82523882  0.49590256  1
  O2-  O329  1  0.00378972  0.83364812  0.83931300  1
  O2-  O330  1  0.33629570  0.32031576  0.16695564  1
  O2-  O331  1  0.32784753  0.31587188  0.49756541  1
  O2-  O332  1  0.33422417  0.32806082  0.83058697  1
  O2-  O333  1  0.33619948  0.83017962  0.16771922  1
  O2-  O334  1  0.33509120  0.81499329  0.50384428  1
  O2-  O335  1  0.33030393  0.80846599  0.83053842  1
  O2-  O336  1  0.66281501  0.32438813  0.16303690  1
  O2-  O337  1  0.66543985  0.32875330  0.49846783  1
  O2-  O338  1  0.66792438  0.32637471  0.83317478  1
  O2-  O339  1  0.65876164  0.83288874  0.15747732  1
  O2-  O340  1  0.65701628  0.82915423  0.49092231  1
  O2-  O341  1  0.66088518  0.82232373  0.82894250  1
  O2-  O342  1  0.16791219  0.31729960  0.16314782  1
  O2-  O343  1  0.16242971  0.32140682  0.50706444  1
  O2-  O344  1  0.17623219  0.33337980  0.82362578  1
  O2-  O345  1  0.17275351  0.81883939  0.15879075  1
  O2-  O346  1  0.16508742  0.82020212  0.50831116  1
  O2-  O347  1  0.16185180  0.82308184  0.83773002  1
  O2-  O348  1  0.49738002  0.31883824  0.16955886  1
  O2-  O349  1  0.50558367  0.32534906  0.49693451  1
  O2-  O350  1  0.50593771  0.32370790  0.82601134  1
  O2-  O351  1  0.50200069  0.83079507  0.16541017  1
  O2-  O352  1  0.50175007  0.81261987  0.49494316  1
  O2-  O353  1  0.49788060  0.81982660  0.83602267  1
  O2-  O354  1  0.83890889  0.32410770  0.16041461  1
  O2-  O355  1  0.83262838  0.31708665  0.50091621  1
  O2-  O356  1  0.83294614  0.32309340  0.83251304  1
  O2-  O357  1  0.83799356  0.82074458  0.16132834  1
  O2-  O358  1  0.83792655  0.82724212  0.49527872  1
  O2-  O359  1  0.83110462  0.82697370  0.83152091  1
  O2-  O360  1  0.08552001  0.08039829  0.10472798  1
  O2-  O361  1  0.08514117  0.08004756  0.45174425  1
  O2-  O362  1  0.08553132  0.08603785  0.75774027  1
  O2-  O363  1  0.07677770  0.58369816  0.11916072  1
  O2-  O364  1  0.08370678  0.58248118  0.45066273  1
  O2-  O365  1  0.09229311  0.58290864  0.77525954  1
  O2-  O366  1  0.40386078  0.07817300  0.10682797  1
  O2-  O367  1  0.41387697  0.08472480  0.44590811  1
  O2-  O368  1  0.41615898  0.08644169  0.76284023  1
  O2-  O369  1  0.41316232  0.57382321  0.11061394  1
  O2-  O370  1  0.42631305  0.58036427  0.45959141  1
  O2-  O371  1  0.44028867  0.56798818  0.76910941  1
  O2-  O372  1  0.75472287  0.07678127  0.11466752  1
  O2-  O373  1  0.76305035  0.07915983  0.44280573  1
  O2-  O374  1  0.75978920  0.07943942  0.78351859  1
  O2-  O375  1  0.75457917  0.58284613  0.10945972  1
  O2-  O376  1  0.74283200  0.58712423  0.43682290  1
  O2-  O377  1  0.75387068  0.56618707  0.78261575  1
  O2-  O378  1  0.24760452  0.08188432  0.22900882  1
  O2-  O379  1  0.25447575  0.08160139  0.54356207  1
  O2-  O380  1  0.25775943  0.08167383  0.89819533  1
  O2-  O381  1  0.23855365  0.58033520  0.21627014  1
  O2-  O382  1  0.24119253  0.57925954  0.56092869  1
  O2-  O383  1  0.26213321  0.58541964  0.89366454  1
  O2-  O384  1  0.58869689  0.08337189  0.23904890  1
  O2-  O385  1  0.59852545  0.07815947  0.55297461  1
  O2-  O386  1  0.58727106  0.07571646  0.88405200  1
  O2-  O387  1  0.57946938  0.58451099  0.22976668  1
  O2-  O388  1  0.57369386  0.58502454  0.56962687  1
  O2-  O389  1  0.57731118  0.58056169  0.88447114  1
  O2-  O390  1  0.90928571  0.08445433  0.22351453  1
  O2-  O391  1  0.90228906  0.08123738  0.54885031  1
  O2-  O392  1  0.90705439  0.08214026  0.89166382  1
  O2-  O393  1  0.93231795  0.57993257  0.21132039  1
  O2-  O394  1  0.93728214  0.58376995  0.55618940  1
  O2-  O395  1  0.92981770  0.58000059  0.88661051  1
  O2-  O396  1  0.06567931  0.42130021  0.09855265  1
  O2-  O397  1  0.07989482  0.41543793  0.44716380  1
  O2-  O398  1  0.07666820  0.41388902  0.75192908  1
  O2-  O399  1  0.07482822  0.91542238  0.09464576  1
  O2-  O400  1  0.07835433  0.92088546  0.44091222  1
  O2-  O401  1  0.08787195  0.91795142  0.77568417  1
  O2-  O402  1  0.42085179  0.42204481  0.11076500  1
  O2-  O403  1  0.42253930  0.41744923  0.44306344  1
  O2-  O404  1  0.42152944  0.41521826  0.76627390  1
  O2-  O405  1  0.42105269  0.92452474  0.11481541  1
  O2-  O406  1  0.43572659  0.91826816  0.44846696  1
  O2-  O407  1  0.40530931  0.91459762  0.77108060  1
  O2-  O408  1  0.76593257  0.42142590  0.10479941  1
  O2-  O409  1  0.75822994  0.42212272  0.44976026  1
  O2-  O410  1  0.75504606  0.41333713  0.76772234  1
  O2-  O411  1  0.75612246  0.91960779  0.10545356  1
  O2-  O412  1  0.74977904  0.91481729  0.42935332  1
  O2-  O413  1  0.73524997  0.91316565  0.75806984  1
  O2-  O414  1  0.25780529  0.41564769  0.21292774  1
  O2-  O415  1  0.22879887  0.42442830  0.55444553  1
  O2-  O416  1  0.25198235  0.41868083  0.90360017  1
  O2-  O417  1  0.25407406  0.91752763  0.22602656  1
  O2-  O418  1  0.26097498  0.91561717  0.58564132  1
  O2-  O419  1  0.25147003  0.92241854  0.87800660  1
  O2-  O420  1  0.57250408  0.41756115  0.21988493  1
  O2-  O421  1  0.60246595  0.42207212  0.55660142  1
  O2-  O422  1  0.58827536  0.42143156  0.88505880  1
  O2-  O423  1  0.57183505  0.92356718  0.22321674  1
  O2-  O424  1  0.56681591  0.91287264  0.56301951  1
  O2-  O425  1  0.57428645  0.91741286  0.89177374  1
  O2-  O426  1  0.91920725  0.41676605  0.22630121  1
  O2-  O427  1  0.92880601  0.41797292  0.55634248  1
  O2-  O428  1  0.91030705  0.41424125  0.89316008  1
  O2-  O429  1  0.92301666  0.91803331  0.21857108  1
  O2-  O430  1  0.92767351  0.91470691  0.56065245  1
  O2-  O431  1  0.93622749  0.91945193  0.92227932  1
  O2-  O432  1  -0.00676543  -0.00384999  0.02655125  1
  O2-  O433  1  -0.02239070  -0.00059238  0.37444601  1
  O2-  O434  1  -0.00233888  0.00899202  0.66166335  1
  O2-  O435  1  0.00492603  0.51597626  -0.00464767  1
  O2-  O436  1  0.00274370  0.51513271  0.32313450  1
  O2-  O437  1  0.00938753  0.50269449  0.65903371  1
  O2-  O438  1  0.32845702  -0.01294413  0.01226251  1
  O2-  O439  1  0.33464867  0.00575209  0.33189565  1
  O2-  O440  1  0.30785371  0.00855547  0.70998580  1
  O2-  O441  1  0.32819181  0.51010494  0.01228862  1
  O2-  O442  1  0.33348023  0.48925190  0.34148850  1
  O2-  O443  1  0.32464438  0.48989643  0.67596480  1
  O2-  O444  1  0.65925445  -0.00499045  0.01347906  1
  O2-  O445  1  0.67105395  0.00269480  0.33239978  1
  O2-  O446  1  0.66752534  0.01451069  0.67518352  1
  O2-  O447  1  0.66646878  0.49154858  0.00366647  1
  O2-  O448  1  0.66920581  0.49849751  0.33353060  1
  O2-  O449  1  0.65463813  0.48499180  0.68356837  1
  O2-  O450  1  0.15878360  -0.01774168  -0.00778414  1
  O2-  O451  1  0.17313345  0.00855606  0.34051002  1
  O2-  O452  1  0.15927911  -0.00244073  0.66629281  1
  O2-  O453  1  0.16914565  0.53387963  0.00892352  1
  O2-  O454  1  0.16076758  0.51175493  0.32522966  1
  O2-  O455  1  0.15949184  0.50345805  0.65670279  1
  O2-  O456  1  0.50277272  -0.01471939  0.00864967  1
  O2-  O457  1  0.52134841  -0.00165171  0.36127548  1
  O2-  O458  1  0.50174083  0.00982366  0.67043616  1
  O2-  O459  1  0.49444691  0.51187581  -0.00705476  1
  O2-  O460  1  0.50872211  0.49137723  0.34871616  1
  O2-  O461  1  0.51504818  0.50651513  0.68632775  1
  O2-  O462  1  0.84256426  0.00229340  0.02241134  1
  O2-  O463  1  0.83778160  0.01063646  0.33711258  1
  O2-  O464  1  0.83147288  0.00936250  0.66484120  1
  O2-  O465  1  0.83776301  0.50277715  0.00538146  1
  O2-  O466  1  0.84223725  0.50144820  0.35049808  1
  O2-  O467  1  0.83293932  0.48669044  0.66890087  1
  O2-  O468  1  0.07803655  0.75104344  0.73794062  1
  O2-  O469  1  0.75087378  0.74949324  0.74905139  1
  O2-  O470  1  0.24925334  0.25102016  0.91524792  1
  O2-  O471  1  0.90984130  0.24915619  0.26745868  1
  O2-  O472  1  0.42116896  0.75563054  0.07420047  1
  O2-  O473  1  0.24949255  0.25172435  0.26434379  1
  O2-  O474  1  0.08919147  0.75067089  0.39863556  1
  O2-  O475  1  0.74578997  0.75157728  0.40885255  1
  O2-  O476  1  0.59612762  0.24550561  0.92779979  1
  O2-  O477  1  0.74311000  0.75062628  0.06123377  1
  O2-  O478  1  0.74774200  0.24934561  0.06216559  1
  O2-  O479  1  0.42323086  0.24988455  0.73361077  1
  O2-  O480  1  0.08860135  0.25124916  0.74447900  1
  O2-  O481  1  0.59456857  0.24969775  0.27342106  1
  O2-  O482  1  0.92772216  0.74938848  0.59259622  1
  O2-  O483  1  0.24328537  0.74951410  0.25715888  1
  O2-  O484  1  0.42466476  0.25109475  0.39776732  1
  O2-  O485  1  0.73809959  0.24999784  0.39792654  1
  O2-  O486  1  0.58296728  0.75142010  0.94103789  1
  O2-  O487  1  0.08416440  0.24871259  0.39637382  1
  O2-  O488  1  0.91118059  0.75498777  0.92137531  1
  O2-  O489  1  0.90593672  0.24876948  0.93432889  1
  O2-  O490  1  0.73831782  0.24847435  0.73164949  1
  O2-  O491  1  0.58702038  0.75404422  0.25913762  1
  O2-  O492  1  0.58877114  0.25442154  0.59646326  1
