# generated using pymatgen
data_Ca108Mn108O277
_symmetry_space_group_name_H-M   'P 1'
_cell_length_a   16.01390047
_cell_length_b   22.28734558
_cell_length_c   16.37875452
_cell_angle_alpha   89.99823854
_cell_angle_beta   89.99669691
_cell_angle_gamma   89.99757856
_symmetry_Int_Tables_number   1
_chemical_formula_structural   Ca108Mn108O277
_chemical_formula_sum   'Ca108 Mn108 O277'
_cell_volume   5845.69759061
_cell_formula_units_Z   1
loop_
 _symmetry_equiv_pos_site_id
 _symmetry_equiv_pos_as_xyz
  1  'x, y, z'
loop_
 _atom_type_symbol
 _atom_type_oxidation_number
  Ca2+  2.0
  Mn3.34+  3.34
  O2-  -2.0
loop_
 _atom_site_type_symbol
 _atom_site_label
 _atom_site_symmetry_multiplicity
 _atom_site_fract_x
 _atom_site_fract_y
 _atom_site_fract_z
 _atom_site_occupancy
  Ca2+  Ca0  1  0.07701651  0.24374274  0.25736678  1
  Ca2+  Ca1  1  0.08225748  0.24807687  0.56199584  1
  Ca2+  Ca2  1  0.06283059  0.24708723  0.92499034  1
  Ca2+  Ca3  1  0.07689190  0.74950963  0.25967961  1
  Ca2+  Ca4  1  0.09496383  0.75870938  0.56602467  1
  Ca2+  Ca5  1  0.08777623  0.75872957  0.92523171  1
  Ca2+  Ca6  1  0.43190528  0.24697536  0.25777497  1
  Ca2+  Ca7  1  0.42863590  0.25281922  0.58546998  1
  Ca2+  Ca8  1  0.44177390  0.23686376  0.90832648  1
  Ca2+  Ca9  1  0.40494319  0.76065129  0.25854671  1
  Ca2+  Ca10  1  0.39267344  0.75326624  0.58308065  1
  Ca2+  Ca11  1  0.40874212  0.75152118  0.90731606  1
  Ca2+  Ca12  1  0.74427487  0.24658990  0.23224227  1
  Ca2+  Ca13  1  0.73957522  0.26284866  0.58651350  1
  Ca2+  Ca14  1  0.75093412  0.23479424  0.92782002  1
  Ca2+  Ca15  1  0.77372772  0.74711211  0.24169614  1
  Ca2+  Ca16  1  0.75741845  0.75639101  0.58686455  1
  Ca2+  Ca17  1  0.74870339  0.75659252  0.92601969  1
  Ca2+  Ca18  1  0.24300060  0.25073837  0.07452852  1
  Ca2+  Ca19  1  0.24257268  0.24535147  0.42327585  1
  Ca2+  Ca20  1  0.25926023  0.24690722  0.75259732  1
  Ca2+  Ca21  1  0.24196790  0.74761087  0.08152134  1
  Ca2+  Ca22  1  0.23360299  0.73147271  0.42993970  1
  Ca2+  Ca23  1  0.25644105  0.75995053  0.73983285  1
  Ca2+  Ca24  1  0.59153402  0.23319901  0.07499379  1
  Ca2+  Ca25  1  0.57320728  0.25202115  0.42336646  1
  Ca2+  Ca26  1  0.58012460  0.25192252  0.75357896  1
  Ca2+  Ca27  1  0.60563207  0.74653751  0.08271727  1
  Ca2+  Ca28  1  0.58259486  0.75354718  0.42104549  1
  Ca2+  Ca29  1  0.58397695  0.75972661  0.74900272  1
  Ca2+  Ca30  1  0.91609791  0.24168113  0.06437389  1
  Ca2+  Ca31  1  0.94057931  0.24741877  0.41342510  1
  Ca2+  Ca32  1  0.92030632  0.26002723  0.76824015  1
  Ca2+  Ca33  1  0.91400314  0.75235473  0.10491186  1
  Ca2+  Ca34  1  0.93503161  0.73782530  0.40236922  1
  Ca2+  Ca35  1  0.90708730  0.76084439  0.74338212  1
  Ca2+  Ca36  1  0.92981763  0.60305262  0.41453911  1
  Ca2+  Ca37  1  0.73666518  0.10764281  0.24168660  1
  Ca2+  Ca38  1  0.72599784  0.06682070  0.59074527  1
  Ca2+  Ca39  1  0.10128889  0.59108910  0.94182253  1
  Ca2+  Ca40  1  0.91714060  0.59897839  0.09723049  1
  Ca2+  Ca41  1  0.89082726  0.57152710  0.72587983  1
  Ca2+  Ca42  1  0.09590942  0.58460548  0.94045160  1
  Ca2+  Ca43  1  0.74687349  0.57915333  0.59670596  1
  Ca2+  Ca44  1  0.06398416  0.60710005  0.25331090  1
  Ca2+  Ca45  1  0.07075821  0.09830791  0.93416091  1
  Ca2+  Ca46  1  0.42307029  0.59182885  0.24786998  1
  Ca2+  Ca47  1  0.07978415  0.09511070  0.93791085  1
  Ca2+  Ca48  1  0.24323235  0.07858365  0.07248887  1
  Ca2+  Ca49  1  0.26424601  0.08868837  0.74202429  1
  Ca2+  Ca50  1  0.41182637  0.09488467  0.58995110  1
  Ca2+  Ca51  1  0.76948698  0.60203617  0.24385176  1
  Ca2+  Ca52  1  0.90874272  0.60414697  0.09857178  1
  Ca2+  Ca53  1  0.75901812  0.60027108  0.24163277  1
  Ca2+  Ca54  1  0.57831410  0.58699064  0.41582279  1
  Ca2+  Ca55  1  0.90111068  0.57056441  0.72500212  1
  Ca2+  Ca56  1  0.09416721  0.60385820  0.55756575  1
  Ca2+  Ca57  1  0.26779822  0.59908743  0.74749019  1
  Ca2+  Ca58  1  0.41043462  0.59201226  0.24752959  1
  Ca2+  Ca59  1  0.42307910  0.09461799  0.58959311  1
  Ca2+  Ca60  1  0.93128221  0.11017818  0.07937494  1
  Ca2+  Ca61  1  0.07335267  0.60445087  0.25680741  1
  Ca2+  Ca62  1  0.56608481  0.10325380  0.76229332  1
  Ca2+  Ca63  1  0.07091229  0.10201116  0.24268040  1
  Ca2+  Ca64  1  0.39402083  0.59950427  0.57561258  1
  Ca2+  Ca65  1  0.25671733  0.59918981  0.74665596  1
  Ca2+  Ca66  1  0.39352780  0.60882881  0.92086134  1
  Ca2+  Ca67  1  0.44372555  0.10444607  0.24696884  1
  Ca2+  Ca68  1  0.57938778  0.09549254  0.41245969  1
  Ca2+  Ca69  1  0.10125339  0.60932039  0.55605447  1
  Ca2+  Ca70  1  0.23934633  0.09841047  0.42664559  1
  Ca2+  Ca71  1  0.71543386  0.06687277  0.59233637  1
  Ca2+  Ca72  1  0.76551806  0.40570847  0.90592867  1
  Ca2+  Ca73  1  0.44903868  0.41290213  0.25544412  1
  Ca2+  Ca74  1  0.74178108  0.40468305  0.24881701  1
  Ca2+  Ca75  1  0.60042582  0.91886995  0.73764910  1
  Ca2+  Ca76  1  0.89692766  0.90602074  0.41414797  1
  Ca2+  Ca77  1  0.58098817  0.90945743  0.42986669  1
  Ca2+  Ca78  1  0.42084097  0.39583244  0.91621071  1
  Ca2+  Ca79  1  0.07758920  0.40666572  0.24238451  1
  Ca2+  Ca80  1  0.90835378  0.90550454  0.41361021  1
  Ca2+  Ca81  1  0.75341655  0.40723023  0.90835094  1
  Ca2+  Ca82  1  0.73802842  0.91531516  0.59761451  1
  Ca2+  Ca83  1  0.91056834  0.40004665  0.42305247  1
  Ca2+  Ca84  1  0.40078002  0.90850679  0.92160097  1
  Ca2+  Ca85  1  0.58264708  0.40397236  0.08285382  1
  Ca2+  Ca86  1  0.75712781  0.90580099  0.25634627  1
  Ca2+  Ca87  1  0.24915960  0.40580753  0.42337398  1
  Ca2+  Ca88  1  0.07162661  0.41491013  0.58995506  1
  Ca2+  Ca89  1  0.74542185  0.90395647  0.90465761  1
  Ca2+  Ca90  1  0.07015792  0.40645360  0.92655525  1
  Ca2+  Ca91  1  0.26361535  0.90226168  0.42331532  1
  Ca2+  Ca92  1  0.91204856  0.90313849  0.74993533  1
  Ca2+  Ca93  1  0.08430837  0.90254824  0.23992130  1
  Ca2+  Ca94  1  0.24732123  0.40541214  0.74633841  1
  Ca2+  Ca95  1  0.26031430  0.40511058  0.74617995  1
  Ca2+  Ca96  1  0.25262106  0.90251537  0.42275532  1
  Ca2+  Ca97  1  0.43699113  0.40975188  0.25607484  1
  Ca2+  Ca98  1  0.59222528  0.90945968  0.42992486  1
  Ca2+  Ca99  1  0.10679290  0.91023525  0.92022130  1
  Ca2+  Ca100  1  0.26183268  0.40412074  0.42448228  1
  Ca2+  Ca101  1  0.59641211  0.41895586  0.71976248  1
  Ca2+  Ca102  1  0.72917919  0.40393558  0.24907777  1
  Ca2+  Ca103  1  0.24272942  0.40229330  0.08040438  1
  Ca2+  Ca104  1  0.06533901  0.40454348  0.24056792  1
  Ca2+  Ca105  1  0.58085085  0.90270894  0.08075356  1
  Ca2+  Ca106  1  0.05917106  0.41545950  0.59043634  1
  Ca2+  Ca107  1  0.56803101  0.90211327  0.08105929  1
  Mn3.34+  Mn108  1  0.07878165  0.33430112  0.08486680  1
  Mn3.34+  Mn109  1  0.08362974  0.33054895  0.41780605  1
  Mn3.34+  Mn110  1  0.07969676  0.33367706  0.75347068  1
  Mn3.34+  Mn111  1  0.08449155  0.83358845  0.08369457  1
  Mn3.34+  Mn112  1  0.08316781  0.83182129  0.41669056  1
  Mn3.34+  Mn113  1  0.08651932  0.83988717  0.74994269  1
  Mn3.34+  Mn114  1  0.41800370  0.32725412  0.08447478  1
  Mn3.34+  Mn115  1  0.42181653  0.33224296  0.42354174  1
  Mn3.34+  Mn116  1  0.42277802  0.33462386  0.74849160  1
  Mn3.34+  Mn117  1  0.40646916  0.83443468  0.08504145  1
  Mn3.34+  Mn118  1  0.41717635  0.83113933  0.41833698  1
  Mn3.34+  Mn119  1  0.41487031  0.83377276  0.74859409  1
  Mn3.34+  Mn120  1  0.75197498  0.33314829  0.08126555  1
  Mn3.34+  Mn121  1  0.74830944  0.32637891  0.41903571  1
  Mn3.34+  Mn122  1  0.75140027  0.34366402  0.74554527  1
  Mn3.34+  Mn123  1  0.75522432  0.83238171  0.08384883  1
  Mn3.34+  Mn124  1  0.74836075  0.83190125  0.42022530  1
  Mn3.34+  Mn125  1  0.75005851  0.83517273  0.75140402  1
  Mn3.34+  Mn126  1  0.25134184  0.32544483  0.24666912  1
  Mn3.34+  Mn127  1  0.25211643  0.32671795  0.58398657  1
  Mn3.34+  Mn128  1  0.25050274  0.32886428  0.91662263  1
  Mn3.34+  Mn129  1  0.24983935  0.83369997  0.24442526  1
  Mn3.34+  Mn130  1  0.24851895  0.84106619  0.58941185  1
  Mn3.34+  Mn131  1  0.25144454  0.83845245  0.91454602  1
  Mn3.34+  Mn132  1  0.58452210  0.32519133  0.24815102  1
  Mn3.34+  Mn133  1  0.58524634  0.33791070  0.58043738  1
  Mn3.34+  Mn134  1  0.58580826  0.32702601  0.91321743  1
  Mn3.34+  Mn135  1  0.58014137  0.83415988  0.24955245  1
  Mn3.34+  Mn136  1  0.57791327  0.83643858  0.58768108  1
  Mn3.34+  Mn137  1  0.57852200  0.83848402  0.91008543  1
  Mn3.34+  Mn138  1  0.91315663  0.32428275  0.24727754  1
  Mn3.34+  Mn139  1  0.90651757  0.33823393  0.58641428  1
  Mn3.34+  Mn140  1  0.91639613  0.33065923  0.91724031  1
  Mn3.34+  Mn141  1  0.91952787  0.83331680  0.24618833  1
  Mn3.34+  Mn142  1  0.92107595  0.83081141  0.58339669  1
  Mn3.34+  Mn143  1  0.92009224  0.83602586  0.91956759  1
  Mn3.34+  Mn144  1  0.58324008  0.16926210  0.58307708  1
  Mn3.34+  Mn145  1  0.75693516  0.16721765  0.41468901  1
  Mn3.34+  Mn146  1  0.24683681  0.17282929  0.24495056  1
  Mn3.34+  Mn147  1  0.41000122  0.66930450  0.08044888  1
  Mn3.34+  Mn148  1  0.75226012  0.15566770  0.75568997  1
  Mn3.34+  Mn149  1  0.41796685  0.16834118  0.41766088  1
  Mn3.34+  Mn150  1  0.41918256  0.66818357  0.75212250  1
  Mn3.34+  Mn151  1  0.26788897  0.15838906  0.91449453  1
  Mn3.34+  Mn152  1  0.76244812  0.16034200  0.75543113  1
  Mn3.34+  Mn153  1  0.90196406  0.66147998  0.91514176  1
  Mn3.34+  Mn154  1  0.25026457  0.67156133  0.24958795  1
  Mn3.34+  Mn155  1  0.25839732  0.16380325  0.91690819  1
  Mn3.34+  Mn156  1  0.57749195  0.66437034  0.24497876  1
  Mn3.34+  Mn157  1  0.57837649  0.65840976  0.58378426  1
  Mn3.34+  Mn158  1  0.42657641  0.16140388  0.08577005  1
  Mn3.34+  Mn159  1  0.41019841  0.66686342  0.42009738  1
  Mn3.34+  Mn160  1  0.25096505  0.16113913  0.58149959  1
  Mn3.34+  Mn161  1  0.91523063  0.66773648  0.91614322  1
  Mn3.34+  Mn162  1  0.07795630  0.15743240  0.74804104  1
  Mn3.34+  Mn163  1  0.58843737  0.66860246  0.24488386  1
  Mn3.34+  Mn164  1  0.91355339  0.66519905  0.57866372  1
  Mn3.34+  Mn165  1  0.25706909  0.16393810  0.24271894  1
  Mn3.34+  Mn166  1  0.59209783  0.66497635  0.91786128  1
  Mn3.34+  Mn167  1  0.74694363  0.16215102  0.41508873  1
  Mn3.34+  Mn168  1  0.74738577  0.16710130  0.08044046  1
  Mn3.34+  Mn169  1  0.08890762  0.67128117  0.75522965  1
  Mn3.34+  Mn170  1  0.07440790  0.66499656  0.75227000  1
  Mn3.34+  Mn171  1  0.74807361  0.66411196  0.75014106  1
  Mn3.34+  Mn172  1  0.75133851  0.66819680  0.42068866  1
  Mn3.34+  Mn173  1  0.92539026  0.16276592  0.57814080  1
  Mn3.34+  Mn174  1  0.58739423  0.66449253  0.58485394  1
  Mn3.34+  Mn175  1  0.91755411  0.16552679  0.24493744  1
  Mn3.34+  Mn176  1  0.08680663  0.66800291  0.08622669  1
  Mn3.34+  Mn177  1  0.08965364  0.16320242  0.74652884  1
  Mn3.34+  Mn178  1  0.91327275  0.17034436  0.57947102  1
  Mn3.34+  Mn179  1  0.58151503  0.66924375  0.91670701  1
  Mn3.34+  Mn180  1  0.26087585  0.50072288  0.91617935  1
  Mn3.34+  Mn181  1  0.25020692  0.49580994  0.91739792  1
  Mn3.34+  Mn182  1  0.75122783  0.50149981  0.42209583  1
  Mn3.34+  Mn183  1  0.57526032  0.00063024  0.24515273  1
  Mn3.34+  Mn184  1  0.08747992  -0.00335198  0.07495003  1
  Mn3.34+  Mn185  1  0.91730034  0.49967594  0.92220334  1
  Mn3.34+  Mn186  1  0.74926860  0.49837522  0.07664683  1
  Mn3.34+  Mn187  1  0.25703355  -0.00223475  0.25161871  1
  Mn3.34+  Mn188  1  0.90702850  0.00762718  0.90746633  1
  Mn3.34+  Mn189  1  0.75712732  -0.00015554  0.08379882  1
  Mn3.34+  Mn190  1  0.25452666  0.50329636  0.24190065  1
  Mn3.34+  Mn191  1  0.24296590  0.49950118  0.24277896  1
  Mn3.34+  Mn192  1  0.41158753  0.00235479  0.07158404  1
  Mn3.34+  Mn193  1  0.91873140  0.00039280  0.90714292  1
  Mn3.34+  Mn194  1  0.42125112  0.50018498  0.08465462  1
  Mn3.34+  Mn195  1  0.41860635  -0.00024257  0.74727590  1
  Mn3.34+  Mn196  1  0.92149998  -0.00173492  0.58993064  1
  Mn3.34+  Mn197  1  0.90995493  0.00063788  0.25666472  1
  Mn3.34+  Mn198  1  0.91502392  0.49592637  0.24651060  1
  Mn3.34+  Mn199  1  0.57662814  0.49710202  0.90849954  1
  Mn3.34+  Mn200  1  0.42658786  0.50157465  0.73549713  1
  Mn3.34+  Mn201  1  0.43059820  0.49868055  0.41656719  1
  Mn3.34+  Mn202  1  0.58046322  0.00572290  0.92408704  1
  Mn3.34+  Mn203  1  0.58706608  0.50207336  0.90925056  1
  Mn3.34+  Mn204  1  0.07762778  0.49836145  0.41391333  1
  Mn3.34+  Mn205  1  0.74685501  0.00507207  0.08319192  1
  Mn3.34+  Mn206  1  0.07673059  0.00910729  0.42029608  1
  Mn3.34+  Mn207  1  0.10032321  -0.00394506  0.73321700  1
  Mn3.34+  Mn208  1  0.58811681  0.00450927  0.25369692  1
  Mn3.34+  Mn209  1  0.73801912  0.49518484  0.41919969  1
  Mn3.34+  Mn210  1  0.40842666  -0.00505817  0.74470152  1
  Mn3.34+  Mn211  1  0.07589268  0.49957562  0.75187775  1
  Mn3.34+  Mn212  1  0.08846355  0.00164467  0.42076981  1
  Mn3.34+  Mn213  1  0.25312898  0.50196728  0.58546761  1
  Mn3.34+  Mn214  1  0.93279025  0.00325332  0.59044742  1
  Mn3.34+  Mn215  1  0.41207383  0.00035064  0.41982959  1
  O2-  O216  1  0.01578710  0.16872708  0.00225919  1
  O2-  O217  1  -0.00618911  0.17779162  0.32179963  1
  O2-  O218  1  -0.00226680  0.16249878  0.66804915  1
  O2-  O219  1  -0.00138644  0.65144533  0.00031765  1
  O2-  O220  1  -0.00072671  0.66212585  0.33030703  1
  O2-  O221  1  -0.00201184  0.65171351  0.66677705  1
  O2-  O222  1  0.33277892  0.17127256  0.01307214  1
  O2-  O223  1  0.33252000  0.16200280  0.33224459  1
  O2-  O224  1  0.33245950  0.17519042  0.65909777  1
  O2-  O225  1  0.33778572  0.68513251  -0.00149955  1
  O2-  O226  1  0.34220452  0.65835481  0.32573288  1
  O2-  O227  1  0.33735282  0.66082160  0.67204771  1
  O2-  O228  1  0.67311880  0.16684028  0.00437657  1
  O2-  O229  1  0.66522009  0.17625283  0.33663496  1
  O2-  O230  1  0.67501687  0.16527514  0.66309667  1
  O2-  O231  1  0.66826749  0.67173069  -0.00334565  1
  O2-  O232  1  0.66630424  0.65150500  0.33569352  1
  O2-  O233  1  0.67176721  0.66095229  0.66267291  1
  O2-  O234  1  0.17631374  0.15780269  -0.00225560  1
  O2-  O235  1  0.17126998  0.16628626  0.32783779  1
  O2-  O236  1  0.17026734  0.16371951  0.66746796  1
  O2-  O237  1  0.15782131  0.66501228  -0.00354037  1
  O2-  O238  1  0.16711272  0.66015653  0.32197648  1
  O2-  O239  1  0.16682732  0.65309009  0.67217180  1
  O2-  O240  1  0.49329410  0.18011643  0.00772231  1
  O2-  O241  1  0.49856809  0.16577431  0.33998583  1
  O2-  O242  1  0.50061919  0.16095173  0.65921089  1
  O2-  O243  1  0.49822889  0.66746517  -0.00131129  1
  O2-  O244  1  0.50052480  0.65589282  0.33214411  1
  O2-  O245  1  0.49537721  0.65841672  0.66371813  1
  O2-  O246  1  0.83692429  0.16614865  0.01172174  1
  O2-  O247  1  0.82999057  0.17905085  0.32725898  1
  O2-  O248  1  0.83243915  0.16268642  0.66344183  1
  O2-  O249  1  0.83825726  0.65984694  0.00713201  1
  O2-  O250  1  0.82784180  0.65589788  0.33985114  1
  O2-  O251  1  0.83548010  0.65712634  0.66868470  1
  O2-  O252  1  0.00096638  0.33131325  -0.00045542  1
  O2-  O253  1  0.00107021  0.33676618  0.33157162  1
  O2-  O254  1  0.00470962  0.34250268  0.66250566  1
  O2-  O255  1  0.00788994  0.83858857  -0.00580298  1
  O2-  O256  1  -0.00315608  0.84564958  0.33518743  1
  O2-  O257  1  -0.00672352  0.84045867  0.67202521  1
  O2-  O258  1  0.33239069  0.33520917  0.00428332  1
  O2-  O259  1  0.33306108  0.34216806  0.33016945  1
  O2-  O260  1  0.33001388  0.32309484  0.67154966  1
  O2-  O261  1  0.33435238  0.81948355  -0.00605488  1
  O2-  O262  1  0.33223375  0.83957564  0.33775394  1
  O2-  O263  1  0.33507382  0.83076123  0.66675739  1
  O2-  O264  1  0.66918009  0.34868644  -0.00395700  1
  O2-  O265  1  0.67237105  0.32229660  0.32553350  1
  O2-  O266  1  0.66576595  0.32729122  0.67148402  1
  O2-  O267  1  0.66145643  0.84382568  0.00124854  1
  O2-  O268  1  0.66472374  0.84987828  0.33841838  1
  O2-  O269  1  0.66662125  0.83854179  0.66628278  1
  O2-  O270  1  0.16322210  0.33276680  0.00226665  1
  O2-  O271  1  0.16797554  0.34629767  0.33277828  1
  O2-  O272  1  0.16739820  0.34268972  0.66487850  1
  O2-  O273  1  0.16992726  0.82734272  -0.00346935  1
  O2-  O274  1  0.16623444  0.84676530  0.33619499  1
  O2-  O275  1  0.16477515  0.83053474  0.66714835  1
  O2-  O276  1  0.50103333  0.33790457  0.00134409  1
  O2-  O277  1  0.49855797  0.33357686  0.32782995  1
  O2-  O278  1  0.50247637  0.32678271  0.66945500  1
  O2-  O279  1  0.49667209  0.83978944  -0.00016889  1
  O2-  O280  1  0.50796209  0.84278341  0.34109036  1
  O2-  O281  1  0.50665222  0.83887052  0.67635065  1
  O2-  O282  1  0.82866039  0.34177304  -0.00566075  1
  O2-  O283  1  0.83256762  0.32638207  0.33181743  1
  O2-  O284  1  0.83003794  0.31622648  0.67245046  1
  O2-  O285  1  0.82632146  0.83756300  -0.00794578  1
  O2-  O286  1  0.83237289  0.84066364  0.33468497  1
  O2-  O287  1  0.83175622  0.84151454  0.66381541  1
  O2-  O288  1  -0.00565301  0.18281380  0.16871775  1
  O2-  O289  1  -0.00016919  0.17729212  0.49747922  1
  O2-  O290  1  0.01106226  0.17164557  0.83579774  1
  O2-  O291  1  0.00073778  0.67158713  0.16255789  1
  O2-  O292  1  -0.00317879  0.67092956  0.50512838  1
  O2-  O293  1  0.00281934  0.67010845  0.84219281  1
  O2-  O294  1  0.33735894  0.18656391  0.16769824  1
  O2-  O295  1  0.33550813  0.17885923  0.50305185  1
  O2-  O296  1  0.33546789  0.17851564  0.82927154  1
  O2-  O297  1  0.34059430  0.68108668  0.17186268  1
  O2-  O298  1  0.33857759  0.67487395  0.49980655  1
  O2-  O299  1  0.33301777  0.67317932  0.82606079  1
  O2-  O300  1  0.67295731  0.17903531  0.16724707  1
  O2-  O301  1  0.66766477  0.18103688  0.49828857  1
  O2-  O302  1  0.66846129  0.17999953  0.82287484  1
  O2-  O303  1  0.67463206  0.66989897  0.17189225  1
  O2-  O304  1  0.66302776  0.67646462  0.49653700  1
  O2-  O305  1  0.66636073  0.67684055  0.83154753  1
  O2-  O306  1  0.16806263  0.18597994  0.16567110  1
  O2-  O307  1  0.17831102  0.18648628  0.50783736  1
  O2-  O308  1  0.17093732  0.17277266  0.83233945  1
  O2-  O309  1  0.16417110  0.67231982  0.16948295  1
  O2-  O310  1  0.15739795  0.67963398  0.51038067  1
  O2-  O311  1  0.16930075  0.67401605  0.83587470  1
  O2-  O312  1  0.49358782  0.18537338  0.16735084  1
  O2-  O313  1  0.49812509  0.17190861  0.50216144  1
  O2-  O314  1  0.50274131  0.18408437  0.81613284  1
  O2-  O315  1  0.49673959  0.68266258  0.16349541  1
  O2-  O316  1  0.50279832  0.67151380  0.49556079  1
  O2-  O317  1  0.49806716  0.67351660  0.84026780  1
  O2-  O318  1  0.83327705  0.18024782  0.17043476  1
  O2-  O319  1  0.82962560  0.18242113  0.49937516  1
  O2-  O320  1  0.83462750  0.19073388  0.82640020  1
  O2-  O321  1  0.83614977  0.66692109  0.17140291  1
  O2-  O322  1  0.83090886  0.67592803  0.50024266  1
  O2-  O323  1  0.83743997  0.67459540  0.82309962  1
  O2-  O324  1  0.00381310  0.31624394  0.17334082  1
  O2-  O325  1  0.00365015  0.32913691  0.49884226  1
  O2-  O326  1  0.00607893  0.32973102  0.84064359  1
  O2-  O327  1  0.00418881  0.82523319  0.17017801  1
  O2-  O328  1  -0.00844328  0.82755602  0.49027299  1
  O2-  O329  1  -0.00156236  0.83206755  0.83432718  1
  O2-  O330  1  0.33411341  0.31219900  0.16614800  1
  O2-  O331  1  0.32441092  0.32160519  0.49345530  1
  O2-  O332  1  0.33377435  0.32412704  0.82659620  1
  O2-  O333  1  0.32958265  0.81386762  0.16442591  1
  O2-  O334  1  0.33115915  0.82652408  0.49428625  1
  O2-  O335  1  0.33265254  0.82020800  0.83620408  1
  O2-  O336  1  0.66725173  0.32504711  0.16636407  1
  O2-  O337  1  0.66471061  0.31535483  0.49532619  1
  O2-  O338  1  0.67249785  0.32273781  0.83474336  1
  O2-  O339  1  0.66133460  0.83091644  0.16352978  1
  O2-  O340  1  0.66339433  0.82734699  0.49776815  1
  O2-  O341  1  0.66716337  0.82660809  0.83476186  1
  O2-  O342  1  0.16352849  0.31413992  0.16890178  1
  O2-  O343  1  0.16878253  0.32629829  0.50049860  1
  O2-  O344  1  0.17393518  0.33179721  0.82477996  1
  O2-  O345  1  0.16109759  0.82163988  0.17243436  1
  O2-  O346  1  0.17095754  0.83072791  0.49155480  1
  O2-  O347  1  0.16768992  0.81998994  0.83948384  1
  O2-  O348  1  0.49846793  0.31754306  0.16970047  1
  O2-  O349  1  0.50012592  0.32363502  0.50234662  1
  O2-  O350  1  0.49702857  0.32218711  0.83556143  1
  O2-  O351  1  0.50165631  0.82080254  0.15708526  1
  O2-  O352  1  0.50681363  0.82893604  0.49436735  1
  O2-  O353  1  0.49587989  0.82755677  0.83589903  1
  O2-  O354  1  0.82268070  0.32810936  0.17522110  1
  O2-  O355  1  0.83650462  0.31731047  0.49372394  1
  O2-  O356  1  0.82959626  0.32810281  0.83492257  1
  O2-  O357  1  0.82991865  0.82836206  0.17266648  1
  O2-  O358  1  0.83420980  0.82778314  0.49720337  1
  O2-  O359  1  0.83365704  0.82624142  0.83103766  1
  O2-  O360  1  0.08475415  0.07269124  0.11179545  1
  O2-  O361  1  0.09713593  0.08640443  0.42926901  1
  O2-  O362  1  0.09325477  0.07323954  0.78830398  1
  O2-  O363  1  0.06732776  0.58279602  0.10580360  1
  O2-  O364  1  0.07200749  0.57782352  0.42891139  1
  O2-  O365  1  0.08867906  0.58073371  0.78806286  1
  O2-  O366  1  0.40670780  0.07860085  0.11597742  1
  O2-  O367  1  0.41768857  0.08265560  0.44705474  1
  O2-  O368  1  0.41274920  0.08160419  0.76466365  1
  O2-  O369  1  0.41545414  0.58111141  0.11342467  1
  O2-  O370  1  0.42789993  0.58137146  0.43727089  1
  O2-  O371  1  0.40592036  0.57976589  0.77701586  1
  O2-  O372  1  0.76036264  0.08483239  0.11114470  1
  O2-  O373  1  0.73646792  0.07927946  0.44942727  1
  O2-  O374  1  0.73569504  0.07606924  0.75019344  1
  O2-  O375  1  0.77283665  0.57283520  0.11484458  1
  O2-  O376  1  0.74027541  0.58143995  0.44821103  1
  O2-  O377  1  0.76056826  0.58303124  0.76090476  1
  O2-  O378  1  0.24714268  0.07896810  0.21560024  1
  O2-  O379  1  0.27237196  0.08406753  0.55969892  1
  O2-  O380  1  0.24512624  0.07966762  0.88964028  1
  O2-  O381  1  0.26483549  0.58539891  0.22935921  1
  O2-  O382  1  0.24384498  0.58139825  0.57701870  1
  O2-  O383  1  0.24769259  0.58147458  0.88812235  1
  O2-  O384  1  0.58964489  0.08553025  0.24517434  1
  O2-  O385  1  0.58470938  0.08521179  0.55715195  1
  O2-  O386  1  0.57945355  0.07639777  0.88784376  1
  O2-  O387  1  0.56794958  0.58230015  0.23142679  1
  O2-  O388  1  0.59008223  0.57836214  0.55579023  1
  O2-  O389  1  0.57234942  0.58360869  0.89745613  1
  O2-  O390  1  0.91832670  0.08060780  0.22323892  1
  O2-  O391  1  0.90704505  0.08231665  0.55619032  1
  O2-  O392  1  0.93246359  0.08605242  0.90219864  1
  O2-  O393  1  0.92001475  0.57755578  0.23035857  1
  O2-  O394  1  0.91726872  0.58320271  0.56834629  1
  O2-  O395  1  0.91991337  0.57717767  0.87764251  1
  O2-  O396  1  0.09917061  0.42115831  0.11354430  1
  O2-  O397  1  0.09363506  0.41805298  0.44357150  1
  O2-  O398  1  0.09704573  0.41787673  0.76786198  1
  O2-  O399  1  0.08709657  0.91738251  0.10015701  1
  O2-  O400  1  0.07203085  0.92184571  0.43328448  1
  O2-  O401  1  0.08084111  0.92390192  0.78123537  1
  O2-  O402  1  0.41675866  0.41874476  0.12077623  1
  O2-  O403  1  0.40141110  0.41609689  0.42469820  1
  O2-  O404  1  0.39925313  0.42400426  0.77557424  1
  O2-  O405  1  0.43063789  0.92294980  0.09994197  1
  O2-  O406  1  0.41934589  0.91778904  0.43358800  1
  O2-  O407  1  0.41902573  0.91642240  0.77754925  1
  O2-  O408  1  0.73976815  0.41910753  0.11407486  1
  O2-  O409  1  0.75857773  0.41405481  0.41671318  1
  O2-  O410  1  0.73224279  0.42474794  0.77886647  1
  O2-  O411  1  0.74131057  0.91871569  0.10868719  1
  O2-  O412  1  0.75363267  0.91650384  0.43971104  1
  O2-  O413  1  0.74946297  0.91658701  0.76756982  1
  O2-  O414  1  0.24194189  0.41654756  0.22047367  1
  O2-  O415  1  0.24593460  0.42064681  0.55750227  1
  O2-  O416  1  0.25758402  0.41411969  0.89610617  1
  O2-  O417  1  0.24051539  0.91743313  0.24076126  1
  O2-  O418  1  0.24975488  0.92108625  0.55237818  1
  O2-  O419  1  0.25454042  0.91624140  0.90663613  1
  O2-  O420  1  0.58579340  0.41789697  0.22284411  1
  O2-  O421  1  0.58904448  0.41520290  0.58302590  1
  O2-  O422  1  0.58144285  0.41475833  0.88778435  1
  O2-  O423  1  0.58299354  0.92168441  0.21866294  1
  O2-  O424  1  0.59027286  0.91790332  0.56217794  1
  O2-  O425  1  0.58453385  0.92502612  0.89007209  1
  O2-  O426  1  0.92464681  0.41419374  0.23701549  1
  O2-  O427  1  0.93130354  0.42037379  0.55433583  1
  O2-  O428  1  0.90829104  0.41869807  0.90126658  1
  O2-  O429  1  0.91899617  0.91974229  0.24009324  1
  O2-  O430  1  0.91681376  0.91791262  0.55466440  1
  O2-  O431  1  0.90159887  0.92067715  0.89324906  1
  O2-  O432  1  0.00006446  0.00480290  -0.00692133  1
  O2-  O433  1  -0.00026904  0.00099666  0.33324311  1
  O2-  O434  1  -0.00451919  -0.00124308  0.68700841  1
  O2-  O435  1  0.01057438  0.51251998  -0.02336477  1
  O2-  O436  1  0.00980033  0.49567431  0.31714559  1
  O2-  O437  1  0.00144635  0.50574654  0.66537457  1
  O2-  O438  1  0.32907838  0.00233211  0.00810440  1
  O2-  O439  1  0.32123593  0.00477191  0.35040703  1
  O2-  O440  1  0.33891290  0.01596665  0.65925910  1
  O2-  O441  1  0.33678622  0.49714087  0.00250099  1
  O2-  O442  1  0.32562804  0.49674345  0.33657947  1
  O2-  O443  1  0.32026696  0.50373389  0.68703479  1
  O2-  O444  1  0.66436104  -0.01015811  0.00176014  1
  O2-  O445  1  0.66525530  -0.00356570  0.33251796  1
  O2-  O446  1  0.66535261  -0.00510904  0.64957884  1
  O2-  O447  1  0.67029432  0.48676255  -0.00867468  1
  O2-  O448  1  0.67673244  0.50525289  0.32000427  1
  O2-  O449  1  0.67303272  0.50218024  0.66407499  1
  O2-  O450  1  0.15502165  0.01538440  -0.01029044  1
  O2-  O451  1  0.16592020  0.00336696  0.33344810  1
  O2-  O452  1  0.18530522  0.01290563  0.67946443  1
  O2-  O453  1  0.15748632  0.50113017  -0.01497576  1
  O2-  O454  1  0.16561993  0.49167768  0.33086357  1
  O2-  O455  1  0.16719304  0.49268907  0.66821504  1
  O2-  O456  1  0.50285102  -0.00820090  0.00547796  1
  O2-  O457  1  0.49790881  0.00618722  0.33690079  1
  O2-  O458  1  0.50457116  0.00951450  0.67244615  1
  O2-  O459  1  0.50078992  0.49089844  -0.00222286  1
  O2-  O460  1  0.47689965  0.50114626  0.30409004  1
  O2-  O461  1  0.51358799  0.49966703  0.67711701  1
  O2-  O462  1  0.83128010  0.00134234  -0.00488954  1
  O2-  O463  1  0.83394951  -0.01146228  0.33044961  1
  O2-  O464  1  0.81885495  -0.00002537  0.64169425  1
  O2-  O465  1  0.83290226  0.50088150  -0.00329693  1
  O2-  O466  1  0.83942228  0.50332953  0.33745284  1
  O2-  O467  1  0.82291262  0.51053290  0.65736808  1
  O2-  O468  1  0.58338698  0.74808888  0.59334354  1
  O2-  O469  1  0.74387924  0.74931200  0.39856422  1
  O2-  O470  1  0.08212082  0.75430446  0.40562057  1
  O2-  O471  1  0.75094038  0.75441934  0.07718934  1
  O2-  O472  1  0.75324836  0.25296538  0.07039765  1
  O2-  O473  1  0.07812871  0.74979855  0.07030970  1
  O2-  O474  1  0.24850610  0.75149914  0.26992497  1
  O2-  O475  1  0.91347636  0.74973589  0.60036082  1
  O2-  O476  1  0.92679399  0.25165555  0.59397117  1
  O2-  O477  1  0.07180853  0.75300557  0.74218234  1
  O2-  O478  1  0.58277927  0.75313859  0.92462759  1
  O2-  O479  1  0.58738465  0.25022684  0.92606940  1
  O2-  O480  1  0.08148141  0.25074102  0.74076979  1
  O2-  O481  1  0.91657693  0.75103101  0.92348044  1
  O2-  O482  1  0.91786933  0.25261631  0.92237537  1
  O2-  O483  1  0.75043468  0.75012276  0.73546300  1
  O2-  O484  1  0.42427897  0.75020347  0.74156796  1
  O2-  O485  1  0.42570776  0.74921491  0.40129554  1
  O2-  O486  1  0.58891404  0.74895849  0.26927789  1
  O2-  O487  1  0.41692449  0.25053137  0.40512399  1
  O2-  O488  1  0.58050816  0.24994104  0.59092493  1
  O2-  O489  1  0.24594378  0.24640994  0.92404451  1
  O2-  O490  1  0.24805524  0.75679188  0.58931352  1
  O2-  O491  1  0.91817806  0.75503891  0.25976610  1
  O2-  O492  1  0.08830315  0.25291815  0.40679701  1
