# generated using pymatgen
data_Ca108Mn108O277
_symmetry_space_group_name_H-M   'P 1'
_cell_length_a   16.03347687
_cell_length_b   22.31403504
_cell_length_c   16.39475233
_cell_angle_alpha   89.99312557
_cell_angle_beta   90.00795626
_cell_angle_gamma   89.99854370
_symmetry_Int_Tables_number   1
_chemical_formula_structural   Ca108Mn108O277
_chemical_formula_sum   'Ca108 Mn108 O277'
_cell_volume   5865.57609230
_cell_formula_units_Z   1
loop_
 _symmetry_equiv_pos_site_id
 _symmetry_equiv_pos_as_xyz
  1  'x, y, z'
loop_
 _atom_type_symbol
 _atom_type_oxidation_number
  Ca2+  2.0
  Mn3.34+  3.34
  O2-  -2.0
loop_
 _atom_site_type_symbol
 _atom_site_label
 _atom_site_symmetry_multiplicity
 _atom_site_fract_x
 _atom_site_fract_y
 _atom_site_fract_z
 _atom_site_occupancy
  Ca2+  Ca0  1  0.10137538  0.25511020  0.23029681  1
  Ca2+  Ca1  1  0.07479629  0.25835825  0.58237816  1
  Ca2+  Ca2  1  0.09595556  0.24475291  0.94094375  1
  Ca2+  Ca3  1  0.08237960  0.74974094  0.24238292  1
  Ca2+  Ca4  1  0.10057049  0.74813808  0.59409592  1
  Ca2+  Ca5  1  0.09453944  0.75920959  0.92014902  1
  Ca2+  Ca6  1  0.40020963  0.23989263  0.25441276  1
  Ca2+  Ca7  1  0.42748886  0.25706903  0.57159393  1
  Ca2+  Ca8  1  0.40791215  0.26408358  0.92313267  1
  Ca2+  Ca9  1  0.42774953  0.75543560  0.24969162  1
  Ca2+  Ca10  1  0.39765903  0.73790265  0.58768952  1
  Ca2+  Ca11  1  0.39947085  0.75947195  0.91223918  1
  Ca2+  Ca12  1  0.75269252  0.25177189  0.22918317  1
  Ca2+  Ca13  1  0.73879807  0.26495109  0.58473490  1
  Ca2+  Ca14  1  0.75219714  0.26031620  0.93209493  1
  Ca2+  Ca15  1  0.74055256  0.74592522  0.24536579  1
  Ca2+  Ca16  1  0.74634801  0.75245153  0.58856111  1
  Ca2+  Ca17  1  0.75494632  0.75289816  0.91452301  1
  Ca2+  Ca18  1  0.24286458  0.22866965  0.08846411  1
  Ca2+  Ca19  1  0.26019439  0.23741007  0.39267539  1
  Ca2+  Ca20  1  0.25104365  0.25776768  0.76715716  1
  Ca2+  Ca21  1  0.24447163  0.74777258  0.07313768  1
  Ca2+  Ca22  1  0.25870999  0.75610789  0.41866466  1
  Ca2+  Ca23  1  0.25415701  0.72934451  0.75823618  1
  Ca2+  Ca24  1  0.60150736  0.24240027  0.08831972  1
  Ca2+  Ca25  1  0.55892252  0.23977428  0.41474096  1
  Ca2+  Ca26  1  0.58029447  0.25496111  0.75062870  1
  Ca2+  Ca27  1  0.59126250  0.75267320  0.10154183  1
  Ca2+  Ca28  1  0.58591297  0.75636371  0.40041955  1
  Ca2+  Ca29  1  0.59884172  0.74438004  0.75213542  1
  Ca2+  Ca30  1  0.92167469  0.24619267  0.08507046  1
  Ca2+  Ca31  1  0.92696539  0.25091071  0.41193177  1
  Ca2+  Ca32  1  0.91409332  0.26313741  0.76224858  1
  Ca2+  Ca33  1  0.91093319  0.74709574  0.08245100  1
  Ca2+  Ca34  1  0.90408054  0.76074042  0.41351518  1
  Ca2+  Ca35  1  0.88807255  0.73204546  0.75492268  1
  Ca2+  Ca36  1  0.89920617  0.06789453  0.74739168  1
  Ca2+  Ca37  1  0.91486490  0.57980008  0.34580546  1
  Ca2+  Ca38  1  0.25692113  0.59353573  0.40980388  1
  Ca2+  Ca39  1  0.56799256  0.59492009  0.39675953  1
  Ca2+  Ca40  1  0.39223636  0.06902541  0.96641975  1
  Ca2+  Ca41  1  0.75758359  0.60318777  0.91191849  1
  Ca2+  Ca42  1  0.40108123  0.06644864  0.97071113  1
  Ca2+  Ca43  1  0.73537604  0.09881049  0.24367241  1
  Ca2+  Ca44  1  0.41140531  0.59380680  0.25544201  1
  Ca2+  Ca45  1  0.42569557  0.10055569  0.56314640  1
  Ca2+  Ca46  1  0.09417345  0.61046278  0.92012159  1
  Ca2+  Ca47  1  0.75251054  0.59800535  0.61521647  1
  Ca2+  Ca48  1  0.13041040  0.59464854  0.60063069  1
  Ca2+  Ca49  1  0.55626785  0.09448426  0.40533139  1
  Ca2+  Ca50  1  0.58282752  0.59901429  0.75507267  1
  Ca2+  Ca51  1  0.59899606  0.06513542  0.73464534  1
  Ca2+  Ca52  1  0.90487910  0.08752815  0.39662878  1
  Ca2+  Ca53  1  0.74853921  0.60081142  0.90780500  1
  Ca2+  Ca54  1  0.92350465  0.09696622  0.09403648  1
  Ca2+  Ca55  1  0.26454763  0.10260578  0.38930453  1
  Ca2+  Ca56  1  0.39986165  0.60147211  0.91015807  1
  Ca2+  Ca57  1  0.91441791  0.09098812  0.39424353  1
  Ca2+  Ca58  1  0.59646773  0.59986389  0.10010430  1
  Ca2+  Ca59  1  0.74552620  0.09749064  0.24159475  1
  Ca2+  Ca60  1  0.73364995  0.07546102  0.58075913  1
  Ca2+  Ca61  1  0.10471279  0.61158013  0.91908727  1
  Ca2+  Ca62  1  0.40895820  0.59708985  0.90622837  1
  Ca2+  Ca63  1  0.14028417  0.59399294  0.59643942  1
  Ca2+  Ca64  1  0.38855072  0.09756981  0.23826031  1
  Ca2+  Ca65  1  0.08645545  0.10659201  0.56740931  1
  Ca2+  Ca66  1  0.11406587  0.11793732  0.24232841  1
  Ca2+  Ca67  1  0.42322663  0.59455764  0.25521163  1
  Ca2+  Ca68  1  0.74467282  0.59373484  0.60736502  1
  Ca2+  Ca69  1  0.92552234  0.57898201  0.34692084  1
  Ca2+  Ca70  1  0.36437833  0.58830016  0.58759043  1
  Ca2+  Ca71  1  0.10391975  0.11767047  0.24188785  1
  Ca2+  Ca72  1  0.40572107  0.41213014  0.25081327  1
  Ca2+  Ca73  1  0.57098682  0.40376651  0.75919055  1
  Ca2+  Ca74  1  0.42433929  0.90392408  0.58518509  1
  Ca2+  Ca75  1  0.57831266  0.90873175  0.08391526  1
  Ca2+  Ca76  1  0.92004265  0.40657594  0.09375676  1
  Ca2+  Ca77  1  0.25209333  0.41079912  0.41911125  1
  Ca2+  Ca78  1  0.56274363  0.41934445  0.07549163  1
  Ca2+  Ca79  1  0.58280135  0.40407602  0.75844049  1
  Ca2+  Ca80  1  0.10330030  0.41401689  0.58668617  1
  Ca2+  Ca81  1  0.57381997  0.90908585  0.74844548  1
  Ca2+  Ca82  1  0.91929463  0.40695932  0.40095978  1
  Ca2+  Ca83  1  0.77064348  0.41839416  0.26376339  1
  Ca2+  Ca84  1  0.26854065  0.91669613  0.07166911  1
  Ca2+  Ca85  1  0.58774150  0.39744834  0.41152565  1
  Ca2+  Ca86  1  0.74904817  0.91199619  0.57904710  1
  Ca2+  Ca87  1  0.75200435  0.91084851  0.92010138  1
  Ca2+  Ca88  1  0.75840167  0.41602649  0.26417788  1
  Ca2+  Ca89  1  0.09454175  0.41114456  0.59107522  1
  Ca2+  Ca90  1  0.08677233  0.89223703  0.58289243  1
  Ca2+  Ca91  1  0.41274298  0.90326512  0.58525339  1
  Ca2+  Ca92  1  0.59360400  0.91832642  0.40516053  1
  Ca2+  Ca93  1  0.91643093  0.40656734  0.75401974  1
  Ca2+  Ca94  1  0.74140350  0.91083129  0.91893756  1
  Ca2+  Ca95  1  0.90966458  0.90094338  0.75562042  1
  Ca2+  Ca96  1  0.73790293  0.91148960  0.57998681  1
  Ca2+  Ca97  1  0.24964995  0.89465740  0.75552412  1
  Ca2+  Ca98  1  0.25805835  0.91617050  0.07219472  1
  Ca2+  Ca99  1  0.26144081  0.41152576  0.73433007  1
  Ca2+  Ca100  1  0.41744588  0.90658557  0.24525742  1
  Ca2+  Ca101  1  0.07645070  0.40649677  0.91503245  1
  Ca2+  Ca102  1  0.07536013  0.40718905  0.25548148  1
  Ca2+  Ca103  1  0.92153458  0.89977996  0.75596833  1
  Ca2+  Ca104  1  0.25135164  0.40312156  0.08709577  1
  Ca2+  Ca105  1  0.57246833  0.41583794  0.07405200  1
  Ca2+  Ca106  1  0.08269175  0.89712581  0.24850179  1
  Ca2+  Ca107  1  0.41686751  0.41285630  0.25270864  1
  Mn3.34+  Mn108  1  0.08325271  0.33735805  0.08293665  1
  Mn3.34+  Mn109  1  0.08801465  0.32959302  0.41759026  1
  Mn3.34+  Mn110  1  0.08495623  0.33269542  0.75519305  1
  Mn3.34+  Mn111  1  0.07866557  0.84094356  0.08444151  1
  Mn3.34+  Mn112  1  0.08175249  0.82793076  0.41540827  1
  Mn3.34+  Mn113  1  0.08311714  0.83023880  0.75505737  1
  Mn3.34+  Mn114  1  0.41564110  0.33262448  0.08257213  1
  Mn3.34+  Mn115  1  0.41387247  0.33222788  0.41843970  1
  Mn3.34+  Mn116  1  0.41382798  0.33254421  0.74791880  1
  Mn3.34+  Mn117  1  0.41698631  0.83600077  0.08167271  1
  Mn3.34+  Mn118  1  0.41733151  0.83629295  0.41586279  1
  Mn3.34+  Mn119  1  0.41805492  0.82988552  0.75526119  1
  Mn3.34+  Mn120  1  0.75161292  0.33696246  0.08354180  1
  Mn3.34+  Mn121  1  0.75071864  0.32320906  0.41850832  1
  Mn3.34+  Mn122  1  0.74953523  0.33496319  0.75194109  1
  Mn3.34+  Mn123  1  0.75526444  0.83349656  0.08827896  1
  Mn3.34+  Mn124  1  0.75486114  0.84563700  0.40763303  1
  Mn3.34+  Mn125  1  0.74673536  0.83447780  0.75132528  1
  Mn3.34+  Mn126  1  0.24906089  0.33554228  0.24850905  1
  Mn3.34+  Mn127  1  0.25591859  0.33487020  0.57685113  1
  Mn3.34+  Mn128  1  0.25026262  0.33581655  0.91809594  1
  Mn3.34+  Mn129  1  0.24948727  0.82910848  0.24770581  1
  Mn3.34+  Mn130  1  0.24999995  0.82715791  0.58203083  1
  Mn3.34+  Mn131  1  0.24800587  0.83375564  0.91411112  1
  Mn3.34+  Mn132  1  0.58327067  0.33127017  0.24540497  1
  Mn3.34+  Mn133  1  0.58236980  0.33321957  0.57879239  1
  Mn3.34+  Mn134  1  0.58324485  0.33381673  0.92011722  1
  Mn3.34+  Mn135  1  0.58814650  0.83659204  0.24864617  1
  Mn3.34+  Mn136  1  0.58059587  0.82857141  0.58035641  1
  Mn3.34+  Mn137  1  0.57739501  0.83544655  0.91538047  1
  Mn3.34+  Mn138  1  0.91963492  0.32886383  0.24796303  1
  Mn3.34+  Mn139  1  0.91164619  0.33658989  0.58020847  1
  Mn3.34+  Mn140  1  0.91196927  0.34021354  0.91985407  1
  Mn3.34+  Mn141  1  0.91344091  0.83738990  0.24435931  1
  Mn3.34+  Mn142  1  0.92023478  0.82740436  0.57721867  1
  Mn3.34+  Mn143  1  0.92317406  0.82939595  0.92290699  1
  Mn3.34+  Mn144  1  0.07792019  0.16497093  0.75699897  1
  Mn3.34+  Mn145  1  0.92157340  0.15883558  0.92079185  1
  Mn3.34+  Mn146  1  0.57243998  0.66826137  0.58035527  1
  Mn3.34+  Mn147  1  0.24357691  0.66898275  0.24607409  1
  Mn3.34+  Mn148  1  0.75653070  0.66936309  0.09335400  1
  Mn3.34+  Mn149  1  0.74307596  0.66220697  0.41981234  1
  Mn3.34+  Mn150  1  0.41543023  0.66900950  0.42203004  1
  Mn3.34+  Mn151  1  0.58334820  0.16647159  0.58047139  1
  Mn3.34+  Mn152  1  0.58300975  0.16326673  0.92398126  1
  Mn3.34+  Mn153  1  0.92017227  0.66864858  0.58270192  1
  Mn3.34+  Mn154  1  0.42433067  0.16246411  0.75557884  1
  Mn3.34+  Mn155  1  0.09123608  0.15891371  0.75880613  1
  Mn3.34+  Mn156  1  0.40764612  0.66273159  0.08534741  1
  Mn3.34+  Mn157  1  0.74359901  0.16685573  0.42356009  1
  Mn3.34+  Mn158  1  0.41457974  0.66626878  0.74591912  1
  Mn3.34+  Mn159  1  0.24568755  0.16975530  0.58036445  1
  Mn3.34+  Mn160  1  0.74288258  0.16398370  0.74980406  1
  Mn3.34+  Mn161  1  0.08338814  0.66885665  0.41765704  1
  Mn3.34+  Mn162  1  0.24960740  0.16533564  0.92244080  1
  Mn3.34+  Mn163  1  0.07330158  0.67624627  0.41604767  1
  Mn3.34+  Mn164  1  0.91604493  0.66807462  0.91962865  1
  Mn3.34+  Mn165  1  0.57511045  0.16296301  0.24365381  1
  Mn3.34+  Mn166  1  0.90699391  0.16747760  0.57976526  1
  Mn3.34+  Mn167  1  0.07898564  0.66415012  0.09171787  1
  Mn3.34+  Mn168  1  0.91660694  0.17076624  0.24819346  1
  Mn3.34+  Mn169  1  0.41752359  0.66791612  0.08319212  1
  Mn3.34+  Mn170  1  0.07484102  0.66863320  0.75345417  1
  Mn3.34+  Mn171  1  0.41741147  0.16852566  0.08916107  1
  Mn3.34+  Mn172  1  0.75533388  0.15751553  0.75362407  1
  Mn3.34+  Mn173  1  0.75198346  0.66829769  0.41826902  1
  Mn3.34+  Mn174  1  0.58286077  0.67137967  0.91802695  1
  Mn3.34+  Mn175  1  0.91143164  0.16410973  0.92070899  1
  Mn3.34+  Mn176  1  0.91733798  0.17244311  0.58294420  1
  Mn3.34+  Mn177  1  0.41085538  0.15674681  0.75819306  1
  Mn3.34+  Mn178  1  0.25602275  0.17847438  0.58329420  1
  Mn3.34+  Mn179  1  0.59326462  0.15829991  0.92189861  1
  Mn3.34+  Mn180  1  0.08901273  -0.00253868  0.41240373  1
  Mn3.34+  Mn181  1  0.76152913  0.50545394  0.08016910  1
  Mn3.34+  Mn182  1  0.58839928  0.50316605  0.25414986  1
  Mn3.34+  Mn183  1  0.93520837  -0.00505397  0.57493280  1
  Mn3.34+  Mn184  1  0.92392111  -0.00069937  0.57253873  1
  Mn3.34+  Mn185  1  0.24644036  0.49873171  0.92732797  1
  Mn3.34+  Mn186  1  0.08971149  0.50061320  0.41682339  1
  Mn3.34+  Mn187  1  0.25935082  0.49294479  0.92250781  1
  Mn3.34+  Mn188  1  0.56819562  0.50291256  0.58181542  1
  Mn3.34+  Mn189  1  0.74951764  0.49849762  0.75204002  1
  Mn3.34+  Mn190  1  0.58777405  0.00173266  0.25878800  1
  Mn3.34+  Mn191  1  0.57269946  -0.00027690  0.57482765  1
  Mn3.34+  Mn192  1  0.23749416  -0.00328559  0.57190020  1
  Mn3.34+  Mn193  1  0.07898005  -0.00068621  0.07416013  1
  Mn3.34+  Mn194  1  0.24154189  0.50585776  0.25004272  1
  Mn3.34+  Mn195  1  0.75655460  -0.00444884  0.07287073  1
  Mn3.34+  Mn196  1  0.58172759  0.00127442  0.92644502  1
  Mn3.34+  Mn197  1  0.23398682  -0.00005994  0.91413656  1
  Mn3.34+  Mn198  1  0.08288069  0.50040548  0.75191043  1
  Mn3.34+  Mn199  1  0.07599253  -0.00965139  0.41218953  1
  Mn3.34+  Mn200  1  0.40693467  -0.00365157  0.40234872  1
  Mn3.34+  Mn201  1  0.90365137  -0.00320456  0.25105400  1
  Mn3.34+  Mn202  1  0.41551396  0.49870206  0.42027437  1
  Mn3.34+  Mn203  1  0.92733273  -0.00301859  0.92637975  1
  Mn3.34+  Mn204  1  0.92336501  0.50578538  0.58484175  1
  Mn3.34+  Mn205  1  0.41002965  0.49988980  0.73870591  1
  Mn3.34+  Mn206  1  0.08092387  0.50355135  0.08322323  1
  Mn3.34+  Mn207  1  0.24775580  -0.00320218  0.24666292  1
  Mn3.34+  Mn208  1  0.74769821  0.49450973  0.42642287  1
  Mn3.34+  Mn209  1  0.40944109  -0.00163123  0.75103118  1
  Mn3.34+  Mn210  1  0.58180846  0.49724022  0.58039420  1
  Mn3.34+  Mn211  1  0.09171341  -0.00113374  0.75801216  1
  Mn3.34+  Mn212  1  0.25092334  0.00322117  0.57339882  1
  Mn3.34+  Mn213  1  0.91921585  0.50448519  0.92625422  1
  Mn3.34+  Mn214  1  0.58369104  0.50138109  0.93152853  1
  Mn3.34+  Mn215  1  0.90946946  0.49955926  0.58302199  1
  O2-  O216  1  0.00065957  0.16141990  0.00149922  1
  O2-  O217  1  -0.01075105  0.16246412  0.33785699  1
  O2-  O218  1  0.00137271  0.13940752  0.66956072  1
  O2-  O219  1  0.00391330  0.66290765  -0.00233940  1
  O2-  O220  1  -0.00520475  0.67611527  0.33545838  1
  O2-  O221  1  0.01345832  0.65638250  0.64973674  1
  O2-  O222  1  0.33881893  0.15926939  -0.00207343  1
  O2-  O223  1  0.33763996  0.16509498  0.32570394  1
  O2-  O224  1  0.33634264  0.15466657  0.65859325  1
  O2-  O225  1  0.33099766  0.65155370  0.00383098  1
  O2-  O226  1  0.33321284  0.65819203  0.33407906  1
  O2-  O227  1  0.33051671  0.65753152  0.67678290  1
  O2-  O228  1  0.66972210  0.15947001  0.00245866  1
  O2-  O229  1  0.65828399  0.15925930  0.33999180  1
  O2-  O230  1  0.66622363  0.14532949  0.66395168  1
  O2-  O231  1  0.66658139  0.65759994  -0.00300538  1
  O2-  O232  1  0.66032531  0.65843327  0.34361346  1
  O2-  O233  1  0.65172965  0.65219427  0.66333841  1
  O2-  O234  1  0.17134352  0.16281099  -0.00519348  1
  O2-  O235  1  0.16622989  0.16612339  0.34488285  1
  O2-  O236  1  0.16795046  0.16203049  0.66411780  1
  O2-  O237  1  0.15082369  0.68398617  0.00771638  1
  O2-  O238  1  0.16500435  0.66282871  0.33754989  1
  O2-  O239  1  0.16117405  0.67245705  0.67768729  1
  O2-  O240  1  0.49745683  0.14447240  -0.00285879  1
  O2-  O241  1  0.49748458  0.16267177  0.32292822  1
  O2-  O242  1  0.50120071  0.13775437  0.67472626  1
  O2-  O243  1  0.49647549  0.64858325  -0.00405745  1
  O2-  O244  1  0.48716083  0.66439784  0.33194923  1
  O2-  O245  1  0.48914701  0.64652272  0.65421085  1
  O2-  O246  1  0.83922891  0.15641318  0.00416206  1
  O2-  O247  1  0.82629204  0.16808392  0.33376719  1
  O2-  O248  1  0.83389127  0.13701601  0.66243551  1
  O2-  O249  1  0.83322492  0.65234945  -0.00034680  1
  O2-  O250  1  0.83278443  0.66210418  0.33785089  1
  O2-  O251  1  0.84393752  0.65352793  0.66262434  1
  O2-  O252  1  -0.00122270  0.34891789  0.00224709  1
  O2-  O253  1  0.00389991  0.32654676  0.33191351  1
  O2-  O254  1  0.00573287  0.35624819  0.65716624  1
  O2-  O255  1  0.00628182  0.81774975  0.00195354  1
  O2-  O256  1  -0.00043756  0.81260346  0.33140357  1
  O2-  O257  1  -0.00003848  0.83261427  0.66750326  1
  O2-  O258  1  0.33276604  0.35021130  0.00338398  1
  O2-  O259  1  0.33163683  0.35100920  0.33230370  1
  O2-  O260  1  0.32794209  0.32515343  0.66553783  1
  O2-  O261  1  0.33473783  0.84909981  -0.00506137  1
  O2-  O262  1  0.33998054  0.83342112  0.32881224  1
  O2-  O263  1  0.33498786  0.84891578  0.66402035  1
  O2-  O264  1  0.66134370  0.35372480  0.01048893  1
  O2-  O265  1  0.67050397  0.33154289  0.32639939  1
  O2-  O266  1  0.66055964  0.34148040  0.66971623  1
  O2-  O267  1  0.66680195  0.84368038  -0.00692859  1
  O2-  O268  1  0.66269095  0.84765292  0.33656557  1
  O2-  O269  1  0.66423575  0.85597602  0.66811576  1
  O2-  O270  1  0.16346986  0.35293427  -0.00106714  1
  O2-  O271  1  0.16712794  0.34745455  0.33309334  1
  O2-  O272  1  0.16883781  0.33871302  0.66361267  1
  O2-  O273  1  0.17332485  0.84289779  0.00807455  1
  O2-  O274  1  0.16124180  0.83262757  0.32880803  1
  O2-  O275  1  0.16520037  0.84024843  0.66666209  1
  O2-  O276  1  0.49866980  0.34823558  0.00107241  1
  O2-  O277  1  0.49857447  0.34957450  0.32637560  1
  O2-  O278  1  0.50222800  0.34843859  0.66726688  1
  O2-  O279  1  0.50746401  0.83087031  0.00668599  1
  O2-  O280  1  0.50159321  0.84320377  0.33470160  1
  O2-  O281  1  0.49829734  0.84523086  0.66489125  1
  O2-  O282  1  0.83612639  0.34978782  0.00764473  1
  O2-  O283  1  0.83539032  0.31734493  0.33135563  1
  O2-  O284  1  0.83561995  0.34844881  0.67305039  1
  O2-  O285  1  0.83127749  0.84877667  -0.00533700  1
  O2-  O286  1  0.83429837  0.82310827  0.32575105  1
  O2-  O287  1  0.83275717  0.85608159  0.66283615  1
  O2-  O288  1  0.00169170  0.18376477  0.18027725  1
  O2-  O289  1  0.00075517  0.18631301  0.50461370  1
  O2-  O290  1  -0.00903092  0.18334152  0.83381490  1
  O2-  O291  1  0.00566966  0.69661095  0.15553906  1
  O2-  O292  1  -0.00431651  0.69112868  0.49718781  1
  O2-  O293  1  -0.00424176  0.68331064  0.83745242  1
  O2-  O294  1  0.33999368  0.17822288  0.16325263  1
  O2-  O295  1  0.33288944  0.18215790  0.50110774  1
  O2-  O296  1  0.33615938  0.18631178  0.83394794  1
  O2-  O297  1  0.34062420  0.68048311  0.17878710  1
  O2-  O298  1  0.33182480  0.68119120  0.49298840  1
  O2-  O299  1  0.34717137  0.67463495  0.83778654  1
  O2-  O300  1  0.66997750  0.18047717  0.18451129  1
  O2-  O301  1  0.66639635  0.18675815  0.50373390  1
  O2-  O302  1  0.66514979  0.18462634  0.83593616  1
  O2-  O303  1  0.66794637  0.67938609  0.15752693  1
  O2-  O304  1  0.67326972  0.67458701  0.51190718  1
  O2-  O305  1  0.66613157  0.68226215  0.84515613  1
  O2-  O306  1  0.16308934  0.18018507  0.16782048  1
  O2-  O307  1  0.16355674  0.19358097  0.51038297  1
  O2-  O308  1  0.17005535  0.18485156  0.83488148  1
  O2-  O309  1  0.16658136  0.68436296  0.16427953  1
  O2-  O310  1  0.15931887  0.67854483  0.50139541  1
  O2-  O311  1  0.14956391  0.68527172  0.83684372  1
  O2-  O312  1  0.50189990  0.18977097  0.16409824  1
  O2-  O313  1  0.49975073  0.17627024  0.50787186  1
  O2-  O314  1  0.50724604  0.18256083  0.84006324  1
  O2-  O315  1  0.49838872  0.68175532  0.15965526  1
  O2-  O316  1  0.50595474  0.69108451  0.49086667  1
  O2-  O317  1  0.50292613  0.67690702  0.83286672  1
  O2-  O318  1  0.83600952  0.18067206  0.17357880  1
  O2-  O319  1  0.83024028  0.19782080  0.49573331  1
  O2-  O320  1  0.83449841  0.18095834  0.83456617  1
  O2-  O321  1  0.83029206  0.68689625  0.16650094  1
  O2-  O322  1  0.82968825  0.68038162  0.50190561  1
  O2-  O323  1  0.82746965  0.67374066  0.84761726  1
  O2-  O324  1  0.00013508  0.32256549  0.16747392  1
  O2-  O325  1  0.00096002  0.31680372  0.49524872  1
  O2-  O326  1  -0.00582216  0.33040778  0.82897009  1
  O2-  O327  1  0.00306223  0.81995046  0.16888169  1
  O2-  O328  1  0.00513102  0.80729511  0.50312455  1
  O2-  O329  1  -0.00735809  0.81309537  0.82651096  1
  O2-  O330  1  0.34338921  0.33166878  0.17622880  1
  O2-  O331  1  0.32959614  0.31310571  0.49508662  1
  O2-  O332  1  0.33067484  0.32340984  0.83051651  1
  O2-  O333  1  0.32952097  0.82158900  0.16037975  1
  O2-  O334  1  0.34164339  0.81972427  0.50603057  1
  O2-  O335  1  0.32730720  0.82098970  0.82482880  1
  O2-  O336  1  0.66912664  0.32366918  0.16861053  1
  O2-  O337  1  0.66016707  0.31332083  0.48897461  1
  O2-  O338  1  0.66097073  0.31825484  0.83065826  1
  O2-  O339  1  0.66434033  0.82598515  0.16114842  1
  O2-  O340  1  0.66989738  0.82799419  0.51084707  1
  O2-  O341  1  0.66815147  0.82204784  0.83623085  1
  O2-  O342  1  0.16682416  0.33712010  0.16725526  1
  O2-  O343  1  0.16516632  0.31413014  0.50264123  1
  O2-  O344  1  0.16080262  0.31496356  0.84065802  1
  O2-  O345  1  0.16522351  0.81661375  0.16570123  1
  O2-  O346  1  0.16597316  0.81130036  0.50078171  1
  O2-  O347  1  0.16923364  0.81552220  0.82754682  1
  O2-  O348  1  0.50504640  0.31911829  0.16290626  1
  O2-  O349  1  0.50341045  0.32082062  0.49156387  1
  O2-  O350  1  0.50443438  0.32382933  0.82756686  1
  O2-  O351  1  0.49610190  0.82521868  0.16750270  1
  O2-  O352  1  0.49803939  0.81542843  0.50033021  1
  O2-  O353  1  0.50380133  0.81271449  0.83095251  1
  O2-  O354  1  0.83669498  0.32171724  0.16751902  1
  O2-  O355  1  0.83402269  0.31364502  0.49941303  1
  O2-  O356  1  0.82950827  0.32383266  0.83632058  1
  O2-  O357  1  0.83375546  0.81367830  0.16601405  1
  O2-  O358  1  0.83011288  0.83153775  0.50408898  1
  O2-  O359  1  0.83460490  0.82360169  0.82893009  1
  O2-  O360  1  0.06244741  0.06177571  0.13805598  1
  O2-  O361  1  0.06457140  0.07415849  0.44854532  1
  O2-  O362  1  0.08273298  0.08090560  0.79129895  1
  O2-  O363  1  0.09805767  0.58441191  0.07381959  1
  O2-  O364  1  0.07555017  0.58229530  0.44998192  1
  O2-  O365  1  0.08551511  0.58076211  0.78302436  1
  O2-  O366  1  0.41227460  0.08424946  0.10272092  1
  O2-  O367  1  0.40347395  0.07201334  0.43844491  1
  O2-  O368  1  0.41906849  0.07869752  0.80040437  1
  O2-  O369  1  0.42226620  0.58200155  0.11980689  1
  O2-  O370  1  0.41493581  0.58003502  0.44523715  1
  O2-  O371  1  0.42666173  0.57904618  0.77637885  1
  O2-  O372  1  0.78326730  0.06379232  0.12426706  1
  O2-  O373  1  0.78425116  0.08585352  0.45921908  1
  O2-  O374  1  0.74615907  0.07616813  0.76986165  1
  O2-  O375  1  0.74088519  0.58376133  0.10056254  1
  O2-  O376  1  0.74313299  0.57684331  0.46377855  1
  O2-  O377  1  0.73310897  0.57813203  0.77727718  1
  O2-  O378  1  0.23945212  0.07732745  0.23746953  1
  O2-  O379  1  0.23414459  0.08474968  0.54027659  1
  O2-  O380  1  0.26983816  0.08085136  0.90008868  1
  O2-  O381  1  0.26555384  0.58612035  0.23170096  1
  O2-  O382  1  0.24459144  0.56661427  0.53323343  1
  O2-  O383  1  0.23282943  0.57856227  0.89180178  1
  O2-  O384  1  0.59514916  0.07779316  0.21515624  1
  O2-  O385  1  0.58436394  0.08163506  0.54514253  1
  O2-  O386  1  0.58323377  0.07606770  0.87336798  1
  O2-  O387  1  0.55681766  0.57924707  0.23075456  1
  O2-  O388  1  0.57437435  0.58038515  0.53697080  1
  O2-  O389  1  0.58666844  0.57781345  0.89092281  1
  O2-  O390  1  0.91598872  0.08216417  0.23099583  1
  O2-  O391  1  0.92867957  0.08151030  0.54076974  1
  O2-  O392  1  0.91699166  0.07819290  0.87971593  1
  O2-  O393  1  0.93077919  0.56623590  0.22527011  1
  O2-  O394  1  0.91336017  0.58287459  0.53939746  1
  O2-  O395  1  0.92036649  0.58333452  0.89299714  1
  O2-  O396  1  0.06469570  0.42563873  0.12159956  1
  O2-  O397  1  0.08752657  0.41994973  0.45095972  1
  O2-  O398  1  0.10180231  0.41863609  0.77285591  1
  O2-  O399  1  0.10509536  0.92625221  0.11986782  1
  O2-  O400  1  0.08412767  0.91398541  0.44967964  1
  O2-  O401  1  0.05999842  0.91702846  0.76840695  1
  O2-  O402  1  0.43029602  0.42044793  0.11843551  1
  O2-  O403  1  0.40748151  0.41769719  0.43638978  1
  O2-  O404  1  0.42087030  0.42036921  0.77055850  1
  O2-  O405  1  0.40489271  0.91698284  0.10913016  1
  O2-  O406  1  0.42325640  0.92351761  0.45291172  1
  O2-  O407  1  0.42090636  0.91392022  0.77077643  1
  O2-  O408  1  0.75963086  0.42625479  0.12755997  1
  O2-  O409  1  0.76122422  0.41146160  0.41489983  1
  O2-  O410  1  0.72337631  0.41868002  0.77271768  1
  O2-  O411  1  0.73815156  0.91818700  0.09869492  1
  O2-  O412  1  0.73428224  0.92615686  0.44780961  1
  O2-  O413  1  0.76921053  0.92142140  0.78491228  1
  O2-  O414  1  0.26215887  0.42517810  0.22146196  1
  O2-  O415  1  0.23233218  0.41764750  0.55457864  1
  O2-  O416  1  0.23946512  0.41933926  0.87355372  1
  O2-  O417  1  0.25215176  0.91502976  0.21739524  1
  O2-  O418  1  0.25434179  0.91506643  0.55176888  1
  O2-  O419  1  0.23047038  0.92000983  0.88391980  1
  O2-  O420  1  0.58317378  0.42342425  0.21415605  1
  O2-  O421  1  0.58714891  0.42018566  0.54289520  1
  O2-  O422  1  0.58156890  0.42280535  0.89227717  1
  O2-  O423  1  0.56842602  0.92501355  0.22283382  1
  O2-  O424  1  0.56252745  0.91611471  0.55163361  1
  O2-  O425  1  0.60398806  0.92656084  0.87994955  1
  O2-  O426  1  0.90310080  0.41581533  0.24167265  1
  O2-  O427  1  0.92402919  0.42448828  0.53458869  1
  O2-  O428  1  0.92382030  0.42606362  0.88703084  1
  O2-  O429  1  0.94240114  0.92151278  0.23278449  1
  O2-  O430  1  0.94437794  0.91280616  0.55944754  1
  O2-  O431  1  0.91937429  0.91520628  0.88855193  1
  O2-  O432  1  -0.01832855  0.01329002  0.02427396  1
  O2-  O433  1  -0.01520725  0.00980964  0.34214234  1
  O2-  O434  1  -0.01011725  0.00839678  0.68022183  1
  O2-  O435  1  0.02187565  0.49640295  -0.02047336  1
  O2-  O436  1  -0.00979795  0.49072835  0.36658568  1
  O2-  O437  1  -0.01502159  0.48247999  0.67962300  1
  O2-  O438  1  0.32694905  -0.01527892  -0.01179245  1
  O2-  O439  1  0.35096352  0.00307017  0.30280980  1
  O2-  O440  1  0.34947635  -0.00289776  0.63975755  1
  O2-  O441  1  0.35738325  0.51854998  -0.03100430  1
  O2-  O442  1  0.35445240  0.50256256  0.30762155  1
  O2-  O443  1  0.31653495  0.50229319  0.68356066  1
  O2-  O444  1  0.66032594  -0.01021966  0.00499408  1
  O2-  O445  1  0.66791215  0.01923362  0.32575541  1
  O2-  O446  1  0.67448478  -0.00753702  0.63213607  1
  O2-  O447  1  0.65443481  0.49353381  0.02732993  1
  O2-  O448  1  0.67310101  0.48447315  0.32813266  1
  O2-  O449  1  0.67161936  0.51701588  0.65250920  1
  O2-  O450  1  0.17617016  -0.00363089  0.02027594  1
  O2-  O451  1  0.15666122  -0.00826471  0.31905887  1
  O2-  O452  1  0.16256481  -0.00542836  0.66001150  1
  O2-  O453  1  0.18377656  0.48117179  0.02290533  1
  O2-  O454  1  0.18924711  0.49567335  0.35627344  1
  O2-  O455  1  0.13808992  0.50002939  0.64306212  1
  O2-  O456  1  0.49690314  -0.00161636  -0.00818463  1
  O2-  O457  1  0.51346297  0.00044813  0.34806533  1
  O2-  O458  1  0.51266467  -0.00273140  0.68015164  1
  O2-  O459  1  0.50619527  0.49905954  0.00374721  1
  O2-  O460  1  0.50747643  0.49751326  0.34232004  1
  O2-  O461  1  0.51953112  0.49602236  0.69178210  1
  O2-  O462  1  0.81642346  -0.01004599  -0.02575407  1
  O2-  O463  1  0.82297580  0.02915887  0.31915157  1
  O2-  O464  1  0.83189509  -0.00927011  0.64588765  1
  O2-  O465  1  0.81248699  0.51033874  -0.02707894  1
  O2-  O466  1  0.83259529  0.50086960  0.34966531  1
  O2-  O467  1  0.82627302  0.51488288  0.66187447  1
  O2-  O468  1  0.58239199  0.24949483  0.94643826  1
  O2-  O469  1  0.25651184  0.75649836  0.93444044  1
  O2-  O470  1  0.75732959  0.24410954  0.72252866  1
  O2-  O471  1  0.89807332  0.74981339  0.60984568  1
  O2-  O472  1  0.58676268  0.75760480  0.26193379  1
  O2-  O473  1  0.74907671  0.75230281  0.05649402  1
  O2-  O474  1  0.91385370  0.25061084  0.93760095  1
  O2-  O475  1  0.74682039  0.75652279  0.72432295  1
  O2-  O476  1  0.40397110  0.74886422  0.05654108  1
  O2-  O477  1  0.42703476  0.24275488  0.72413305  1
  O2-  O478  1  0.25361818  0.75269999  0.61057080  1
  O2-  O479  1  0.41818393  0.25613761  0.39165518  1
  O2-  O480  1  0.41555495  0.25231663  0.05717924  1
  O2-  O481  1  0.74829938  0.25873874  0.06636324  1
  O2-  O482  1  0.92408320  0.25075160  0.62706235  1
  O2-  O483  1  0.57683119  0.24646812  0.61381239  1
  O2-  O484  1  0.74053932  0.75291893  0.40535187  1
  O2-  O485  1  0.08808006  0.25908525  0.07232980  1
  O2-  O486  1  0.25451033  0.74864329  0.27380418  1
  O2-  O487  1  0.24924385  0.25804539  0.25842829  1
  O2-  O488  1  0.89820018  0.74952382  0.94031257  1
  O2-  O489  1  0.25444344  0.25275409  0.94137558  1
  O2-  O490  1  0.07435459  0.24588919  0.72488308  1
  O2-  O491  1  0.41905567  0.74866861  0.72411840  1
  O2-  O492  1  0.59144488  0.74984372  0.61224439  1
