# generated using pymatgen
data_Ca108Mn108O277
_symmetry_space_group_name_H-M   'P 1'
_cell_length_a   16.03328922
_cell_length_b   22.31688531
_cell_length_c   16.39304819
_cell_angle_alpha   90.00225175
_cell_angle_beta   90.00274459
_cell_angle_gamma   89.99939498
_symmetry_Int_Tables_number   1
_chemical_formula_structural   Ca108Mn108O277
_chemical_formula_sum   'Ca108 Mn108 O277'
_cell_volume   5865.64699713
_cell_formula_units_Z   1
loop_
 _symmetry_equiv_pos_site_id
 _symmetry_equiv_pos_as_xyz
  1  'x, y, z'
loop_
 _atom_type_symbol
 _atom_type_oxidation_number
  Ca2+  2.0
  Mn3.34+  3.34
  O2-  -2.0
loop_
 _atom_site_type_symbol
 _atom_site_label
 _atom_site_symmetry_multiplicity
 _atom_site_fract_x
 _atom_site_fract_y
 _atom_site_fract_z
 _atom_site_occupancy
  Ca2+  Ca0  1  0.09092291  0.25166695  0.26447215  1
  Ca2+  Ca1  1  0.07839678  0.24631268  0.58367877  1
  Ca2+  Ca2  1  0.08565118  0.25302525  0.90561850  1
  Ca2+  Ca3  1  0.07004600  0.75299199  0.24961063  1
  Ca2+  Ca4  1  0.09144206  0.75257228  0.58541308  1
  Ca2+  Ca5  1  0.08731262  0.75514842  0.90938717  1
  Ca2+  Ca6  1  0.40518565  0.26489732  0.25657289  1
  Ca2+  Ca7  1  0.41207851  0.23949774  0.58199931  1
  Ca2+  Ca8  1  0.42816818  0.25057356  0.89473604  1
  Ca2+  Ca9  1  0.42002229  0.75062847  0.23587997  1
  Ca2+  Ca10  1  0.41086193  0.75241878  0.58766654  1
  Ca2+  Ca11  1  0.39993588  0.74213117  0.92558927  1
  Ca2+  Ca12  1  0.74638990  0.25495806  0.25692444  1
  Ca2+  Ca13  1  0.76278492  0.24389499  0.59326661  1
  Ca2+  Ca14  1  0.74266326  0.25861737  0.89340516  1
  Ca2+  Ca15  1  0.75328915  0.75872875  0.26255005  1
  Ca2+  Ca16  1  0.75254661  0.75429136  0.57344518  1
  Ca2+  Ca17  1  0.76767154  0.74178699  0.91127173  1
  Ca2+  Ca18  1  0.24270424  0.25250829  0.09857064  1
  Ca2+  Ca19  1  0.25785333  0.25066386  0.41621030  1
  Ca2+  Ca20  1  0.24990764  0.24147136  0.73342993  1
  Ca2+  Ca21  1  0.27088069  0.74107573  0.07217011  1
  Ca2+  Ca22  1  0.25104675  0.74964523  0.41475791  1
  Ca2+  Ca23  1  0.25178830  0.75159034  0.76038297  1
  Ca2+  Ca24  1  0.58347447  0.25596414  0.07108086  1
  Ca2+  Ca25  1  0.56344713  0.24727230  0.42952759  1
  Ca2+  Ca26  1  0.59062417  0.24238642  0.73887036  1
  Ca2+  Ca27  1  0.56355599  0.75926457  0.08671540  1
  Ca2+  Ca28  1  0.59280301  0.75566615  0.41430398  1
  Ca2+  Ca29  1  0.57601458  0.74184057  0.73625990  1
  Ca2+  Ca30  1  0.92291367  0.25962683  0.08524700  1
  Ca2+  Ca31  1  0.92800641  0.24153961  0.44102006  1
  Ca2+  Ca32  1  0.91498151  0.23155619  0.72636271  1
  Ca2+  Ca33  1  0.92466132  0.74769184  0.09165968  1
  Ca2+  Ca34  1  0.90490219  0.75182985  0.40680297  1
  Ca2+  Ca35  1  0.92975414  0.75311502  0.75111840  1
  Ca2+  Ca36  1  0.23555205  0.08292250  0.71401088  1
  Ca2+  Ca37  1  0.42894697  0.07034529  0.27852448  1
  Ca2+  Ca38  1  0.40506775  0.61275821  0.91275892  1
  Ca2+  Ca39  1  0.76260922  0.59707619  0.26484959  1
  Ca2+  Ca40  1  0.25146996  0.60817727  0.74942535  1
  Ca2+  Ca41  1  0.92489910  0.60102826  0.40880341  1
  Ca2+  Ca42  1  0.08620407  0.10073960  0.88536164  1
  Ca2+  Ca43  1  0.73185887  0.09079156  0.90873865  1
  Ca2+  Ca44  1  0.07158982  0.59900401  0.26197607  1
  Ca2+  Ca45  1  0.56954435  0.06831212  0.42394561  1
  Ca2+  Ca46  1  0.90450546  0.60998739  0.76985095  1
  Ca2+  Ca47  1  0.74414766  0.05791258  0.26771971  1
  Ca2+  Ca48  1  0.23806537  0.08909631  0.43317347  1
  Ca2+  Ca49  1  0.92372796  0.59869244  0.08579784  1
  Ca2+  Ca50  1  0.57403295  0.60702028  0.42691948  1
  Ca2+  Ca51  1  0.55256508  0.60064308  0.08141168  1
  Ca2+  Ca52  1  0.42533704  0.09201543  0.57764196  1
  Ca2+  Ca53  1  0.42028933  0.07450368  0.28311690  1
  Ca2+  Ca54  1  0.93191564  0.60203536  0.09046322  1
  Ca2+  Ca55  1  0.90953750  0.08228601  0.08905220  1
  Ca2+  Ca56  1  0.08211603  0.59850115  0.26142335  1
  Ca2+  Ca57  1  0.24089080  0.58688582  0.42419319  1
  Ca2+  Ca58  1  0.08911381  0.61613344  0.91162732  1
  Ca2+  Ca59  1  0.27728250  0.60583014  0.08142118  1
  Ca2+  Ca60  1  0.40691044  0.60283167  0.24782786  1
  Ca2+  Ca61  1  0.05685600  0.10228425  0.59713243  1
  Ca2+  Ca62  1  0.75765443  0.08966891  0.59399093  1
  Ca2+  Ca63  1  0.08008385  0.61355037  0.90763383  1
  Ca2+  Ca64  1  0.58078505  0.09281372  0.72774707  1
  Ca2+  Ca65  1  0.72287402  0.60500403  0.59226551  1
  Ca2+  Ca66  1  0.25946348  0.07637565  0.07496030  1
  Ca2+  Ca67  1  0.57834182  0.07299094  0.05544163  1
  Ca2+  Ca68  1  0.43211013  0.60856553  0.58104172  1
  Ca2+  Ca69  1  0.71250778  0.60624231  0.59060439  1
  Ca2+  Ca70  1  0.94594572  0.07678225  0.41598609  1
  Ca2+  Ca71  1  0.54283690  0.60429348  0.07988510  1
  Ca2+  Ca72  1  0.91713395  0.40371322  0.09004094  1
  Ca2+  Ca73  1  0.09208430  0.90191731  0.91119508  1
  Ca2+  Ca74  1  0.60278597  0.40674909  0.75227742  1
  Ca2+  Ca75  1  0.56221317  0.40777593  0.07671115  1
  Ca2+  Ca76  1  0.06496304  0.41111023  0.91934193  1
  Ca2+  Ca77  1  0.25485398  0.90978905  0.43443045  1
  Ca2+  Ca78  1  0.24397841  0.40514214  0.09525854  1
  Ca2+  Ca79  1  0.73165562  0.90374438  0.91189940  1
  Ca2+  Ca80  1  0.25586496  0.89900061  0.08849319  1
  Ca2+  Ca81  1  0.25292817  0.91970340  0.71606449  1
  Ca2+  Ca82  1  0.92402535  0.40166653  0.41235690  1
  Ca2+  Ca83  1  0.91645321  0.90730644  0.72897169  1
  Ca2+  Ca84  1  0.91436402  0.89770019  0.09075114  1
  Ca2+  Ca85  1  0.40853890  0.90581822  0.91362839  1
  Ca2+  Ca86  1  0.93451298  0.40488740  0.41399533  1
  Ca2+  Ca87  1  0.23993949  0.40923219  0.72130041  1
  Ca2+  Ca88  1  0.41963469  0.90546808  0.91471884  1
  Ca2+  Ca89  1  0.74327915  0.90384976  0.91317229  1
  Ca2+  Ca90  1  0.44457121  0.91824953  0.27838061  1
  Ca2+  Ca91  1  0.25674344  0.40476815  0.09521321  1
  Ca2+  Ca92  1  0.58192340  0.90203665  0.73484364  1
  Ca2+  Ca93  1  0.42130355  0.40147818  0.91908830  1
  Ca2+  Ca94  1  0.75383275  0.41150916  0.26162577  1
  Ca2+  Ca95  1  0.39948074  0.40774363  0.57513767  1
  Ca2+  Ca96  1  0.57195340  0.41053437  0.07220471  1
  Ca2+  Ca97  1  0.90539125  0.89985740  0.09566703  1
  Ca2+  Ca98  1  0.75612172  0.90502510  0.57368126  1
  Ca2+  Ca99  1  0.74597264  0.41498693  0.59823810  1
  Ca2+  Ca100  1  0.74108536  0.41144454  0.26017316  1
  Ca2+  Ca101  1  0.57811353  0.41192371  0.41075512  1
  Ca2+  Ca102  1  0.25283098  0.40860936  0.72490228  1
  Ca2+  Ca103  1  0.41123759  0.40458573  0.57810049  1
  Ca2+  Ca104  1  0.07558535  0.40729752  0.92255415  1
  Ca2+  Ca105  1  0.88881145  0.40864677  0.74531104  1
  Ca2+  Ca106  1  0.24445608  0.91038128  0.43528580  1
  Ca2+  Ca107  1  0.07359038  0.91128787  0.28322714  1
  Mn3.34+  Mn108  1  0.08279091  0.33304898  0.08971182  1
  Mn3.34+  Mn109  1  0.09503960  0.34587805  0.42630165  1
  Mn3.34+  Mn110  1  0.07748589  0.32860485  0.74856738  1
  Mn3.34+  Mn111  1  0.08836152  0.83070393  0.08547483  1
  Mn3.34+  Mn112  1  0.07952557  0.83816272  0.42686118  1
  Mn3.34+  Mn113  1  0.08497900  0.83699732  0.74351789  1
  Mn3.34+  Mn114  1  0.41282172  0.32512674  0.08152059  1
  Mn3.34+  Mn115  1  0.41387166  0.33438097  0.41276115  1
  Mn3.34+  Mn116  1  0.42227690  0.33093784  0.74893639  1
  Mn3.34+  Mn117  1  0.41843335  0.83682758  0.09204581  1
  Mn3.34+  Mn118  1  0.42246931  0.84137104  0.42500586  1
  Mn3.34+  Mn119  1  0.41660714  0.83419861  0.74462251  1
  Mn3.34+  Mn120  1  0.74961197  0.32884171  0.08647608  1
  Mn3.34+  Mn121  1  0.74727113  0.33077539  0.42546196  1
  Mn3.34+  Mn122  1  0.75061330  0.33309400  0.74595886  1
  Mn3.34+  Mn123  1  0.74023879  0.83570638  0.09063787  1
  Mn3.34+  Mn124  1  0.74780827  0.84543343  0.41400576  1
  Mn3.34+  Mn125  1  0.74867040  0.82790723  0.74681853  1
  Mn3.34+  Mn126  1  0.24621156  0.33833120  0.26293709  1
  Mn3.34+  Mn127  1  0.24391285  0.32887624  0.57361434  1
  Mn3.34+  Mn128  1  0.25165158  0.32958756  0.91068720  1
  Mn3.34+  Mn129  1  0.24758716  0.82900523  0.25072614  1
  Mn3.34+  Mn130  1  0.25142858  0.83146704  0.58582855  1
  Mn3.34+  Mn131  1  0.24905113  0.83299022  0.91402487  1
  Mn3.34+  Mn132  1  0.57776508  0.33230032  0.25002706  1
  Mn3.34+  Mn133  1  0.58444248  0.33257492  0.57954475  1
  Mn3.34+  Mn134  1  0.58770546  0.33391054  0.90999953  1
  Mn3.34+  Mn135  1  0.58810331  0.83988681  0.25308837  1
  Mn3.34+  Mn136  1  0.57933346  0.83432929  0.57387162  1
  Mn3.34+  Mn137  1  0.58135666  0.82821855  0.91733903  1
  Mn3.34+  Mn138  1  0.91822792  0.32414105  0.25190071  1
  Mn3.34+  Mn139  1  0.91930027  0.32998821  0.58372620  1
  Mn3.34+  Mn140  1  0.90819073  0.33541382  0.91331674  1
  Mn3.34+  Mn141  1  0.91291607  0.83202468  0.25831290  1
  Mn3.34+  Mn142  1  0.91896682  0.83036637  0.57597540  1
  Mn3.34+  Mn143  1  0.91807121  0.82903849  0.91309677  1
  Mn3.34+  Mn144  1  0.08854179  0.66941508  0.08883090  1
  Mn3.34+  Mn145  1  0.59007930  0.16208802  0.24248794  1
  Mn3.34+  Mn146  1  0.75639928  0.16524088  0.08719006  1
  Mn3.34+  Mn147  1  0.75666393  0.15733404  0.42125468  1
  Mn3.34+  Mn148  1  0.91159097  0.16364999  0.90955815  1
  Mn3.34+  Mn149  1  0.24732210  0.16659924  0.91227107  1
  Mn3.34+  Mn150  1  0.74795747  0.17131011  0.08385081  1
  Mn3.34+  Mn151  1  0.58082532  0.66879049  0.90758599  1
  Mn3.34+  Mn152  1  0.41857623  0.67240903  0.74734697  1
  Mn3.34+  Mn153  1  0.74771695  0.16328926  0.42008196  1
  Mn3.34+  Mn154  1  0.74118553  0.67111779  0.07881206  1
  Mn3.34+  Mn155  1  0.58159369  0.66879325  0.25247853  1
  Mn3.34+  Mn156  1  0.42094799  0.16237404  0.08267838  1
  Mn3.34+  Mn157  1  0.58076845  0.16677948  0.90672649  1
  Mn3.34+  Mn158  1  0.74926025  0.16468163  0.74518983  1
  Mn3.34+  Mn159  1  0.92438878  0.17045358  0.91225076  1
  Mn3.34+  Mn160  1  0.08327773  0.66325478  0.42936939  1
  Mn3.34+  Mn161  1  0.24983786  0.66845007  0.25238355  1
  Mn3.34+  Mn162  1  0.24940070  0.16709303  0.25385980  1
  Mn3.34+  Mn163  1  0.41552412  0.16340154  0.42314303  1
  Mn3.34+  Mn164  1  0.24553185  0.16471768  0.57978759  1
  Mn3.34+  Mn165  1  0.91887691  0.66952231  0.58266547  1
  Mn3.34+  Mn166  1  0.57903880  0.16654442  0.24530374  1
  Mn3.34+  Mn167  1  0.08584604  0.16072232  0.42100658  1
  Mn3.34+  Mn168  1  0.07661212  0.16334123  0.08881738  1
  Mn3.34+  Mn169  1  0.41271542  0.66767270  0.41856987  1
  Mn3.34+  Mn170  1  0.08234423  0.67270014  0.74187435  1
  Mn3.34+  Mn171  1  0.26043729  0.15987348  0.90909402  1
  Mn3.34+  Mn172  1  0.74906132  0.66853883  0.41957205  1
  Mn3.34+  Mn173  1  0.92084120  0.15881660  0.25540116  1
  Mn3.34+  Mn174  1  0.08758904  0.16801419  0.08622459  1
  Mn3.34+  Mn175  1  0.25044533  0.66478730  0.58118652  1
  Mn3.34+  Mn176  1  0.41117916  0.16752326  0.08036372  1
  Mn3.34+  Mn177  1  0.41915747  0.16450583  0.74433379  1
  Mn3.34+  Mn178  1  0.74377137  0.66304986  0.75514948  1
  Mn3.34+  Mn179  1  0.75084485  0.66563973  0.08070753  1
  Mn3.34+  Mn180  1  0.91725752  -0.00179057  0.27535359  1
  Mn3.34+  Mn181  1  0.42101426  0.50602914  0.75028151  1
  Mn3.34+  Mn182  1  0.24032822  -0.00299496  0.25519511  1
  Mn3.34+  Mn183  1  0.92248784  -0.00051784  0.89960135  1
  Mn3.34+  Mn184  1  0.91838792  -0.00605327  0.58202129  1
  Mn3.34+  Mn185  1  0.73531471  -0.00037001  0.08255821  1
  Mn3.34+  Mn186  1  0.24458771  0.50364497  0.26301898  1
  Mn3.34+  Mn187  1  0.58496078  -0.00450522  0.58893376  1
  Mn3.34+  Mn188  1  0.09216103  0.00279991  0.09244823  1
  Mn3.34+  Mn189  1  0.41569094  0.50377816  0.40788736  1
  Mn3.34+  Mn190  1  0.43543722  0.50070057  0.75312720  1
  Mn3.34+  Mn191  1  0.07664944  0.50096276  0.74517442  1
  Mn3.34+  Mn192  1  0.92089021  0.50199218  0.57758470  1
  Mn3.34+  Mn193  1  0.91100230  0.50734706  0.58005397  1
  Mn3.34+  Mn194  1  0.25284798  0.00259003  0.91513653  1
  Mn3.34+  Mn195  1  0.42114077  -0.00526990  0.08535568  1
  Mn3.34+  Mn196  1  0.75741179  0.50129290  0.08556460  1
  Mn3.34+  Mn197  1  0.07805474  -0.00330492  0.09115583  1
  Mn3.34+  Mn198  1  0.08345993  -0.00480246  0.73085891  1
  Mn3.34+  Mn199  1  0.08944796  0.50758050  0.74285012  1
  Mn3.34+  Mn200  1  0.75415166  0.00260442  0.74115137  1
  Mn3.34+  Mn201  1  0.41594783  0.00507123  0.74166876  1
  Mn3.34+  Mn202  1  0.90950449  0.50165477  0.91665903  1
  Mn3.34+  Mn203  1  0.74662869  0.50251418  0.41451664  1
  Mn3.34+  Mn204  1  0.91702647  0.00089017  0.91045255  1
  Mn3.34+  Mn205  1  0.58629104  0.50421744  0.91568275  1
  Mn3.34+  Mn206  1  0.74833104  0.49611854  0.08092364  1
  Mn3.34+  Mn207  1  0.92434712  0.49446844  0.25808090  1
  Mn3.34+  Mn208  1  0.24877237  0.50449730  0.91599474  1
  Mn3.34+  Mn209  1  0.08384190  0.49805764  0.08851562  1
  Mn3.34+  Mn210  1  0.58626617  0.49979684  0.57860631  1
  Mn3.34+  Mn211  1  0.41163249  0.49727432  0.09854259  1
  Mn3.34+  Mn212  1  0.22698083  0.00396089  0.25783378  1
  Mn3.34+  Mn213  1  0.56885073  0.50026120  0.26217380  1
  Mn3.34+  Mn214  1  0.57728904  0.00104352  0.90590025  1
  Mn3.34+  Mn215  1  0.26393632  0.49998766  0.91204751  1
  O2-  O216  1  -0.00085295  0.14064781  -0.00160585  1
  O2-  O217  1  0.00453757  0.18147007  0.34158425  1
  O2-  O218  1  0.01867701  0.18180635  0.66980101  1
  O2-  O219  1  0.00622672  0.65588359  0.00802066  1
  O2-  O220  1  0.01163432  0.67118773  0.33927225  1
  O2-  O221  1  -0.01024258  0.65650294  0.67277264  1
  O2-  O222  1  0.33042502  0.14339934  -0.00028514  1
  O2-  O223  1  0.33587290  0.14523464  0.32923240  1
  O2-  O224  1  0.33316778  0.15229461  0.66497303  1
  O2-  O225  1  0.33636300  0.66625622  -0.00077686  1
  O2-  O226  1  0.32674323  0.65847870  0.33841951  1
  O2-  O227  1  0.33759306  0.65539305  0.66341372  1
  O2-  O228  1  0.66579462  0.15199225  0.00129506  1
  O2-  O229  1  0.68033227  0.15457931  0.32697792  1
  O2-  O230  1  0.66747780  0.16216157  0.66959575  1
  O2-  O231  1  0.65968247  0.64666738  0.00366941  1
  O2-  O232  1  0.66545401  0.64980337  0.33453114  1
  O2-  O233  1  0.67661673  0.68504378  0.66958556  1
  O2-  O234  1  0.16678401  0.13777812  -0.00127464  1
  O2-  O235  1  0.17125916  0.16706334  0.33855263  1
  O2-  O236  1  0.16631640  0.16748638  0.65948441  1
  O2-  O237  1  0.16754206  0.64818543  0.01223739  1
  O2-  O238  1  0.16630964  0.65564002  0.34073659  1
  O2-  O239  1  0.16648618  0.65629549  0.66359099  1
  O2-  O240  1  0.50265088  0.15860282  -0.00167902  1
  O2-  O241  1  0.50534613  0.14660305  0.33752607  1
  O2-  O242  1  0.49657861  0.16258017  0.66527715  1
  O2-  O243  1  0.49923220  0.66504444  -0.00980896  1
  O2-  O244  1  0.49236670  0.65900172  0.32775618  1
  O2-  O245  1  0.49646860  0.67493413  0.66425815  1
  O2-  O246  1  0.83771085  0.14726731  0.00069583  1
  O2-  O247  1  0.83151342  0.19088644  0.34062493  1
  O2-  O248  1  0.82924244  0.15722615  0.67089851  1
  O2-  O249  1  0.83284549  0.64894772  0.00329215  1
  O2-  O250  1  0.83272031  0.65627006  0.34289793  1
  O2-  O251  1  0.82790786  0.65046926  0.65977459  1
  O2-  O252  1  -0.00284277  0.35010194  0.00505236  1
  O2-  O253  1  -0.00632696  0.32556845  0.34224674  1
  O2-  O254  1  -0.01247601  0.34030405  0.67797511  1
  O2-  O255  1  -0.00280568  0.85693542  0.00018694  1
  O2-  O256  1  0.00548028  0.83114934  0.33281102  1
  O2-  O257  1  -0.00321034  0.84126346  0.66858106  1
  O2-  O258  1  0.32831845  0.34840042  0.00040468  1
  O2-  O259  1  0.33398057  0.34255062  0.33462805  1
  O2-  O260  1  0.33903049  0.34569082  0.66847957  1
  O2-  O261  1  0.33496126  0.84939600  -0.00161293  1
  O2-  O262  1  0.32982118  0.83729947  0.33281107  1
  O2-  O263  1  0.33274008  0.84521370  0.66896215  1
  O2-  O264  1  0.65822670  0.34335214  0.01276938  1
  O2-  O265  1  0.66972589  0.34599428  0.33518275  1
  O2-  O266  1  0.66305615  0.33158289  0.66349270  1
  O2-  O267  1  0.66576915  0.84915196  0.00063522  1
  O2-  O268  1  0.66808499  0.83428509  0.33380792  1
  O2-  O269  1  0.66402723  0.81686725  0.66903497  1
  O2-  O270  1  0.16870808  0.35539613  -0.00727030  1
  O2-  O271  1  0.16119421  0.32319510  0.33994805  1
  O2-  O272  1  0.16821480  0.33047463  0.67017371  1
  O2-  O273  1  0.16783562  0.84984032  0.00003348  1
  O2-  O274  1  0.16701683  0.83733354  0.33897939  1
  O2-  O275  1  0.16905898  0.84460316  0.66839690  1
  O2-  O276  1  0.49458770  0.33465125  -0.00333251  1
  O2-  O277  1  0.50164044  0.34541761  0.33516000  1
  O2-  O278  1  0.50070090  0.35476278  0.66334108  1
  O2-  O279  1  0.49667768  0.85115311  -0.00247822  1
  O2-  O280  1  0.49669782  0.83205288  0.33781529  1
  O2-  O281  1  0.50405006  0.83179031  0.66726659  1
  O2-  O282  1  0.83282206  0.33655293  0.00835713  1
  O2-  O283  1  0.82826824  0.33371819  0.33186974  1
  O2-  O284  1  0.82638049  0.34195960  0.65514058  1
  O2-  O285  1  0.83161563  0.85375921  -0.00660209  1
  O2-  O286  1  0.83185555  0.83926185  0.33436659  1
  O2-  O287  1  0.83009342  0.83929568  0.66661175  1
  O2-  O288  1  -0.00383474  0.19203822  0.16704824  1
  O2-  O289  1  0.01331242  0.17780367  0.49961122  1
  O2-  O290  1  0.00434962  0.18583189  0.83391339  1
  O2-  O291  1  -0.00048435  0.67458808  0.16234111  1
  O2-  O292  1  -0.00276587  0.68805695  0.49707336  1
  O2-  O293  1  0.00723331  0.68124334  0.83006623  1
  O2-  O294  1  0.33283282  0.18606129  0.16343416  1
  O2-  O295  1  0.32947860  0.17422740  0.49496313  1
  O2-  O296  1  0.33657271  0.18614361  0.82952475  1
  O2-  O297  1  0.32870657  0.67768014  0.17582634  1
  O2-  O298  1  0.33350964  0.68870855  0.49943268  1
  O2-  O299  1  0.33457340  0.67654202  0.82442083  1
  O2-  O300  1  0.66569756  0.19901353  0.16077908  1
  O2-  O301  1  0.67019413  0.19180814  0.49303793  1
  O2-  O302  1  0.66826155  0.18013820  0.83538692  1
  O2-  O303  1  0.66764880  0.67974992  0.16598022  1
  O2-  O304  1  0.66774141  0.67793613  0.50202744  1
  O2-  O305  1  0.66886377  0.68753658  0.83167992  1
  O2-  O306  1  0.16924755  0.18246666  0.16922153  1
  O2-  O307  1  0.17067148  0.18392042  0.49327329  1
  O2-  O308  1  0.16671750  0.18563243  0.83523997  1
  O2-  O309  1  0.15598549  0.67437479  0.18159372  1
  O2-  O310  1  0.16908650  0.68566656  0.49778411  1
  O2-  O311  1  0.15925896  0.67992167  0.82689654  1
  O2-  O312  1  0.49878279  0.19659471  0.15997106  1
  O2-  O313  1  0.49137936  0.17682866  0.50041895  1
  O2-  O314  1  0.50440697  0.18421078  0.82378062  1
  O2-  O315  1  0.50671556  0.67777446  0.16562080  1
  O2-  O316  1  0.49525913  0.68456835  0.48766243  1
  O2-  O317  1  0.49639879  0.68854085  0.83448616  1
  O2-  O318  1  0.83527692  0.19020320  0.16665455  1
  O2-  O319  1  0.83245125  0.17326664  0.50086610  1
  O2-  O320  1  0.82467047  0.18030744  0.83937195  1
  O2-  O321  1  0.83559120  0.66682087  0.15947557  1
  O2-  O322  1  0.82864488  0.67619253  0.50595935  1
  O2-  O323  1  0.83059859  0.69040632  0.81137027  1
  O2-  O324  1  -0.00290926  0.31832153  0.17022905  1
  O2-  O325  1  0.00210028  0.32328610  0.49940430  1
  O2-  O326  1  0.01150937  0.32389079  0.84522779  1
  O2-  O327  1  -0.00642491  0.82635056  0.15895852  1
  O2-  O328  1  -0.00015728  0.81045632  0.49841644  1
  O2-  O329  1  0.00387008  0.82315888  0.83620415  1
  O2-  O330  1  0.32774461  0.32223694  0.15801023  1
  O2-  O331  1  0.33914361  0.32605730  0.50446459  1
  O2-  O332  1  0.33682161  0.32244855  0.83126990  1
  O2-  O333  1  0.32420534  0.81870428  0.16220955  1
  O2-  O334  1  0.32915569  0.81915348  0.49445412  1
  O2-  O335  1  0.34212583  0.82720851  0.84199194  1
  O2-  O336  1  0.66965651  0.31911552  0.17219811  1
  O2-  O337  1  0.66439668  0.30945179  0.49986571  1
  O2-  O338  1  0.66367335  0.32266436  0.82273739  1
  O2-  O339  1  0.66488716  0.81379698  0.16780311  1
  O2-  O340  1  0.66683096  0.81909192  0.50279559  1
  O2-  O341  1  0.67209754  0.82202656  0.83853769  1
  O2-  O342  1  0.17263664  0.32295746  0.16400084  1
  O2-  O343  1  0.16604450  0.30772859  0.49848188  1
  O2-  O344  1  0.16816342  0.31588016  0.82832425  1
  O2-  O345  1  0.16269767  0.81578056  0.16828885  1
  O2-  O346  1  0.16958840  0.81664131  0.49693297  1
  O2-  O347  1  0.16497564  0.82685249  0.83415440  1
  O2-  O348  1  0.50427475  0.31747571  0.15449183  1
  O2-  O349  1  0.49409941  0.31853434  0.50822712  1
  O2-  O350  1  0.50267488  0.31847774  0.82704442  1
  O2-  O351  1  0.49598508  0.82355517  0.17406688  1
  O2-  O352  1  0.49786773  0.80712929  0.50014548  1
  O2-  O353  1  0.49831656  0.83051606  0.83532109  1
  O2-  O354  1  0.83139501  0.30979109  0.17021365  1
  O2-  O355  1  0.84104636  0.31735198  0.49124020  1
  O2-  O356  1  0.83677860  0.32090189  0.82452867  1
  O2-  O357  1  0.83761881  0.82543985  0.15948208  1
  O2-  O358  1  0.83138276  0.82216309  0.50114274  1
  O2-  O359  1  0.82992408  0.81889981  0.83533526  1
  O2-  O360  1  0.07026219  0.07980839  0.13199699  1
  O2-  O361  1  0.08665948  0.08429606  0.44749492  1
  O2-  O362  1  0.09215445  0.06805348  0.76500751  1
  O2-  O363  1  0.07054384  0.58128798  0.11812075  1
  O2-  O364  1  0.07754535  0.58499704  0.42704990  1
  O2-  O365  1  0.08305641  0.58660934  0.77550524  1
  O2-  O366  1  0.41885116  0.07850266  0.12988665  1
  O2-  O367  1  0.41425358  0.08000620  0.43410348  1
  O2-  O368  1  0.42631336  0.08208733  0.77450144  1
  O2-  O369  1  0.41458237  0.57871748  0.11239670  1
  O2-  O370  1  0.41622947  0.58077639  0.44838383  1
  O2-  O371  1  0.41634429  0.58608745  0.77400589  1
  O2-  O372  1  0.74877314  0.08139039  0.12672864  1
  O2-  O373  1  0.73483775  0.07930454  0.45393298  1
  O2-  O374  1  0.74449628  0.08104474  0.77639753  1
  O2-  O375  1  0.73734094  0.57902429  0.12461117  1
  O2-  O376  1  0.74291843  0.58207305  0.45471209  1
  O2-  O377  1  0.74744380  0.58684406  0.75843289  1
  O2-  O378  1  0.25203250  0.07968353  0.21091240  1
  O2-  O379  1  0.24149800  0.08388422  0.56704431  1
  O2-  O380  1  0.23767288  0.08252306  0.86785685  1
  O2-  O381  1  0.24446632  0.58120726  0.21790393  1
  O2-  O382  1  0.26679094  0.58694700  0.55659290  1
  O2-  O383  1  0.23330344  0.58258420  0.88430755  1
  O2-  O384  1  0.58252105  0.08615590  0.19122438  1
  O2-  O385  1  0.57505420  0.07052460  0.55724958  1
  O2-  O386  1  0.58714473  0.08335891  0.88263989  1
  O2-  O387  1  0.57585371  0.58084791  0.21434000  1
  O2-  O388  1  0.58057221  0.57972199  0.55911084  1
  O2-  O389  1  0.55984767  0.58540341  0.89880068  1
  O2-  O390  1  0.90227325  0.06992153  0.22086982  1
  O2-  O391  1  0.92567196  0.06793296  0.54552669  1
  O2-  O392  1  0.93342815  0.08334118  0.87250639  1
  O2-  O393  1  0.94074431  0.57242119  0.22205857  1
  O2-  O394  1  0.92422407  0.58615497  0.54526374  1
  O2-  O395  1  0.95500632  0.57757733  0.88962937  1
  O2-  O396  1  0.10137120  0.41617698  0.11491236  1
  O2-  O397  1  0.06290490  0.42266636  0.43755973  1
  O2-  O398  1  0.09826080  0.42170997  0.78590274  1
  O2-  O399  1  0.08275092  0.91616282  0.11585421  1
  O2-  O400  1  0.10555279  0.91620740  0.42874206  1
  O2-  O401  1  0.07319968  0.92390577  0.77997288  1
  O2-  O402  1  0.42020314  0.41477207  0.10399587  1
  O2-  O403  1  0.42620214  0.42168720  0.44442695  1
  O2-  O404  1  0.42130847  0.42077073  0.78838601  1
  O2-  O405  1  0.39866541  0.91936223  0.12706748  1
  O2-  O406  1  0.38893555  0.92012275  0.42568884  1
  O2-  O407  1  0.42328061  0.92507576  0.77875588  1
  O2-  O408  1  0.76699042  0.41776082  0.12486593  1
  O2-  O409  1  0.76646068  0.41979980  0.44407073  1
  O2-  O410  1  0.74332003  0.41381279  0.75431757  1
  O2-  O411  1  0.77035866  0.91939624  0.10407274  1
  O2-  O412  1  0.74422165  0.91957600  0.44101678  1
  O2-  O413  1  0.75138027  0.92204541  0.77789432  1
  O2-  O414  1  0.25346087  0.42378263  0.22685565  1
  O2-  O415  1  0.25861635  0.41219062  0.57978726  1
  O2-  O416  1  0.24820564  0.42342929  0.86409536  1
  O2-  O417  1  0.22437472  0.91774960  0.22301976  1
  O2-  O418  1  0.25060745  0.91405043  0.56527923  1
  O2-  O419  1  0.26292079  0.92048416  0.88377583  1
  O2-  O420  1  0.60420790  0.42401380  0.20232331  1
  O2-  O421  1  0.58711805  0.41992447  0.54717553  1
  O2-  O422  1  0.56696213  0.41920849  0.89070664  1
  O2-  O423  1  0.57993876  0.91515872  0.23110284  1
  O2-  O424  1  0.60933877  0.91541956  0.58754465  1
  O2-  O425  1  0.59474024  0.91903640  0.87962746  1
  O2-  O426  1  0.89581976  0.41489616  0.23243669  1
  O2-  O427  1  0.90807870  0.41941967  0.54695539  1
  O2-  O428  1  0.93157112  0.42118332  0.87495838  1
  O2-  O429  1  0.92949411  0.92493613  0.22466088  1
  O2-  O430  1  0.90812486  0.91397590  0.56818440  1
  O2-  O431  1  0.90568127  0.91690564  0.87587642  1
  O2-  O432  1  -0.00137174  0.00021601  0.00127166  1
  O2-  O433  1  0.01095137  0.00508876  0.32381511  1
  O2-  O434  1  -0.00834970  -0.00082592  0.67193392  1
  O2-  O435  1  0.01151566  0.48270494  -0.00715291  1
  O2-  O436  1  -0.02805699  0.49713455  0.35368975  1
  O2-  O437  1  0.00602859  0.49472224  0.65663709  1
  O2-  O438  1  0.32676910  -0.00092976  0.01217024  1
  O2-  O439  1  0.34806875  -0.00583297  0.30269656  1
  O2-  O440  1  0.32543533  0.00624651  0.68641724  1
  O2-  O441  1  0.33550205  0.49376432  0.00572397  1
  O2-  O442  1  0.33529178  0.52190716  0.32866665  1
  O2-  O443  1  0.34472194  0.47689096  0.67094516  1
  O2-  O444  1  0.68056835  0.00242057  -0.02837158  1
  O2-  O445  1  0.64580658  0.02103189  0.33444540  1
  O2-  O446  1  0.66083500  0.01052133  0.67556867  1
  O2-  O447  1  0.66119612  0.47810198  0.01051739  1
  O2-  O448  1  0.67186156  0.48158183  0.32321526  1
  O2-  O449  1  0.68816199  0.50589190  0.62268741  1
  O2-  O450  1  0.16180846  0.00394214  -0.00164357  1
  O2-  O451  1  0.19369001  0.00191799  0.36830071  1
  O2-  O452  1  0.16691616  -0.00512097  0.66975964  1
  O2-  O453  1  0.17424268  0.48574825  0.00357306  1
  O2-  O454  1  0.14543407  0.51578281  0.30724263  1
  O2-  O455  1  0.19614890  0.50150615  0.70324864  1
  O2-  O456  1  0.50035778  -0.00393043  -0.00428232  1
  O2-  O457  1  0.51082291  0.00738816  0.32423586  1
  O2-  O458  1  0.50106301  0.00297812  0.67070656  1
  O2-  O459  1  0.51049996  0.49830599  0.02868973  1
  O2-  O460  1  0.52623541  0.50642150  0.37668512  1
  O2-  O461  1  0.50233490  0.49095973  0.65741771  1
  O2-  O462  1  0.84360326  0.01447837  0.00724635  1
  O2-  O463  1  0.84329206  0.01599248  0.34809389  1
  O2-  O464  1  0.82065012  -0.00154545  0.64445063  1
  O2-  O465  1  0.86027217  0.51317435  0.03139817  1
  O2-  O466  1  0.81912450  0.50444697  0.30928193  1
  O2-  O467  1  0.84124168  0.48917300  0.66674252  1
  O2-  O468  1  0.08268090  0.75347287  0.72376641  1
  O2-  O469  1  0.25020263  0.75001842  0.61407192  1
  O2-  O470  1  0.24625703  0.75554991  0.93377615  1
  O2-  O471  1  0.58999592  0.24960697  0.93553939  1
  O2-  O472  1  0.08204775  0.75044017  0.05660001  1
  O2-  O473  1  0.41890764  0.75923347  0.06701047  1
  O2-  O474  1  0.41363860  0.24843781  0.39253165  1
  O2-  O475  1  0.91705052  0.25165332  0.59350257  1
  O2-  O476  1  0.75954110  0.75383187  0.05471943  1
  O2-  O477  1  0.24012973  0.74817800  0.27502226  1
  O2-  O478  1  0.75137821  0.74892009  0.39968783  1
  O2-  O479  1  0.40359629  0.75383667  0.73111107  1
  O2-  O480  1  0.25452056  0.24357183  0.95696012  1
  O2-  O481  1  0.91140109  0.75391033  0.25967316  1
  O2-  O482  1  0.91865824  0.24889498  0.94856708  1
  O2-  O483  1  0.08869760  0.25138886  0.04530916  1
  O2-  O484  1  0.59115435  0.74992760  0.94656177  1
  O2-  O485  1  0.58642675  0.74800534  0.27213012  1
  O2-  O486  1  0.25972447  0.25079770  0.26986312  1
  O2-  O487  1  0.41381335  0.25026836  0.72303138  1
  O2-  O488  1  0.91928871  0.75475795  0.94671781  1
  O2-  O489  1  0.58468343  0.24580567  0.28754829  1
  O2-  O490  1  0.26661337  0.24927586  0.59874702  1
  O2-  O491  1  0.75332303  0.24896012  0.73331097  1
  O2-  O492  1  0.90846912  0.74904813  0.61024768  1
