# generated using pymatgen
data_Ca108Mn108O277
_symmetry_space_group_name_H-M   'P 1'
_cell_length_a   16.01028903
_cell_length_b   22.28313601
_cell_length_c   16.37676340
_cell_angle_alpha   90.00134667
_cell_angle_beta   90.00023754
_cell_angle_gamma   89.99819342
_symmetry_Int_Tables_number   1
_chemical_formula_structural   Ca108Mn108O277
_chemical_formula_sum   'Ca108 Mn108 O277'
_cell_volume   5842.56506794
_cell_formula_units_Z   1
loop_
 _symmetry_equiv_pos_site_id
 _symmetry_equiv_pos_as_xyz
  1  'x, y, z'
loop_
 _atom_type_symbol
 _atom_type_oxidation_number
  Ca2+  2.0
  Mn3.34+  3.34
  O2-  -2.0
loop_
 _atom_site_type_symbol
 _atom_site_label
 _atom_site_symmetry_multiplicity
 _atom_site_fract_x
 _atom_site_fract_y
 _atom_site_fract_z
 _atom_site_occupancy
  Ca2+  Ca0  1  0.06787167  0.24967838  0.25544541  1
  Ca2+  Ca1  1  0.06469395  0.25554321  0.58442448  1
  Ca2+  Ca2  1  0.06282480  0.26282354  0.91075065  1
  Ca2+  Ca3  1  0.06702652  0.74500907  0.25291836  1
  Ca2+  Ca4  1  0.07986266  0.73495852  0.59638573  1
  Ca2+  Ca5  1  0.07724810  0.74574542  0.88950770  1
  Ca2+  Ca6  1  0.42120107  0.25769752  0.25410047  1
  Ca2+  Ca7  1  0.40964655  0.26001248  0.58687381  1
  Ca2+  Ca8  1  0.41781026  0.26121888  0.90835938  1
  Ca2+  Ca9  1  0.42849327  0.75026338  0.23190035  1
  Ca2+  Ca10  1  0.39633774  0.74503806  0.59882900  1
  Ca2+  Ca11  1  0.43815970  0.74249181  0.91410611  1
  Ca2+  Ca12  1  0.76461275  0.24619209  0.24088665  1
  Ca2+  Ca13  1  0.77945764  0.24212749  0.58918389  1
  Ca2+  Ca14  1  0.77388679  0.24684278  0.91868040  1
  Ca2+  Ca15  1  0.75635994  0.74207306  0.24391498  1
  Ca2+  Ca16  1  0.77111751  0.73194378  0.58652675  1
  Ca2+  Ca17  1  0.73308121  0.74536480  0.92234137  1
  Ca2+  Ca18  1  0.24797001  0.26345196  0.08469126  1
  Ca2+  Ca19  1  0.24784125  0.25410720  0.41665660  1
  Ca2+  Ca20  1  0.24998580  0.26562966  0.74637306  1
  Ca2+  Ca21  1  0.25788211  0.75398849  0.08040436  1
  Ca2+  Ca22  1  0.24083508  0.75140235  0.43907864  1
  Ca2+  Ca23  1  0.23767499  0.73888408  0.73054911  1
  Ca2+  Ca24  1  0.60482633  0.25747417  0.08659984  1
  Ca2+  Ca25  1  0.59665114  0.25806160  0.40833363  1
  Ca2+  Ca26  1  0.59404452  0.26614046  0.75304443  1
  Ca2+  Ca27  1  0.59646293  0.74220177  0.06927690  1
  Ca2+  Ca28  1  0.59893680  0.74597557  0.41023274  1
  Ca2+  Ca29  1  0.58633110  0.73316916  0.77179412  1
  Ca2+  Ca30  1  0.90153148  0.24896879  0.07907048  1
  Ca2+  Ca31  1  0.90996050  0.24428559  0.41161936  1
  Ca2+  Ca32  1  0.90569075  0.25180483  0.75806888  1
  Ca2+  Ca33  1  0.90080792  0.75121159  0.09290352  1
  Ca2+  Ca34  1  0.91147572  0.74325696  0.42352878  1
  Ca2+  Ca35  1  0.92247828  0.74209057  0.73282642  1
  Ca2+  Ca36  1  0.26688114  0.09668922  0.74719306  1
  Ca2+  Ca37  1  0.42866302  0.59695723  0.91031468  1
  Ca2+  Ca38  1  0.57227278  0.09442416  0.75717451  1
  Ca2+  Ca39  1  0.90080544  0.09751007  0.75250087  1
  Ca2+  Ca40  1  0.93595667  0.59206206  0.73995092  1
  Ca2+  Ca41  1  0.60556013  0.59318616  0.42431022  1
  Ca2+  Ca42  1  0.78197812  0.10036170  0.23706187  1
  Ca2+  Ca43  1  0.25548448  0.10200267  0.39556002  1
  Ca2+  Ca44  1  0.42157062  0.58686677  0.59185141  1
  Ca2+  Ca45  1  0.58501158  0.09382543  0.75691150  1
  Ca2+  Ca46  1  0.59568768  0.59684451  0.07646396  1
  Ca2+  Ca47  1  0.61083580  0.08838735  0.08692870  1
  Ca2+  Ca48  1  0.91682901  0.10973889  0.42192653  1
  Ca2+  Ca49  1  0.06303689  0.10463800  0.25367085  1
  Ca2+  Ca50  1  0.24580552  0.59384777  0.42706741  1
  Ca2+  Ca51  1  0.92657115  0.59493184  0.73761582  1
  Ca2+  Ca52  1  0.73647121  0.59636528  0.92200341  1
  Ca2+  Ca53  1  0.89346514  0.60673773  0.43078698  1
  Ca2+  Ca54  1  0.05678855  0.10172850  0.57530042  1
  Ca2+  Ca55  1  0.42395904  0.58436969  0.25061992  1
  Ca2+  Ca56  1  0.56804877  0.09192806  0.40762299  1
  Ca2+  Ca57  1  0.41781924  0.09362674  0.57908595  1
  Ca2+  Ca58  1  0.58085654  0.09210060  0.40806164  1
  Ca2+  Ca59  1  0.22568470  0.59241051  0.74042917  1
  Ca2+  Ca60  1  0.25941025  0.58091543  0.07844677  1
  Ca2+  Ca61  1  0.41126726  0.58416064  0.25130445  1
  Ca2+  Ca62  1  0.24981876  0.09901202  0.11090498  1
  Ca2+  Ca63  1  0.61571979  0.59500120  0.42339113  1
  Ca2+  Ca64  1  0.27937225  0.09832441  0.74795504  1
  Ca2+  Ca65  1  0.24499242  0.10294105  0.39894234  1
  Ca2+  Ca66  1  0.23676666  0.59633079  0.42164209  1
  Ca2+  Ca67  1  0.05010309  0.09254320  0.92154204  1
  Ca2+  Ca68  1  0.40983725  0.09629770  0.58760856  1
  Ca2+  Ca69  1  0.40358914  0.09612420  0.25725336  1
  Ca2+  Ca70  1  0.08097315  0.59987742  0.59333011  1
  Ca2+  Ca71  1  0.41093876  0.58711840  0.59112334  1
  Ca2+  Ca72  1  0.42799198  0.90523555  0.91631733  1
  Ca2+  Ca73  1  0.40556350  0.91035331  0.26032604  1
  Ca2+  Ca74  1  0.58533235  0.90086190  0.75444640  1
  Ca2+  Ca75  1  0.91632751  0.40885549  0.41101149  1
  Ca2+  Ca76  1  0.23526417  0.41655346  0.76363179  1
  Ca2+  Ca77  1  0.25027842  0.90505024  0.08524567  1
  Ca2+  Ca78  1  0.75672460  0.40839238  0.23279548  1
  Ca2+  Ca79  1  0.58424983  0.89863300  0.41968015  1
  Ca2+  Ca80  1  0.39849705  0.41021257  0.91956525  1
  Ca2+  Ca81  1  0.91379394  0.89455280  0.42331954  1
  Ca2+  Ca82  1  0.08176385  0.40078300  0.24533147  1
  Ca2+  Ca83  1  0.41089948  0.89766758  0.57311076  1
  Ca2+  Ca84  1  0.92778237  0.40863320  0.41105993  1
  Ca2+  Ca85  1  0.61002519  0.91012062  0.07807941  1
  Ca2+  Ca86  1  0.90581985  0.90838519  0.74827101  1
  Ca2+  Ca87  1  0.26235634  0.41089855  0.41179666  1
  Ca2+  Ca88  1  0.93081184  0.41466169  0.76604898  1
  Ca2+  Ca89  1  0.56101206  0.41770492  0.41633344  1
  Ca2+  Ca90  1  0.07040096  0.90557923  0.91329028  1
  Ca2+  Ca91  1  0.91726709  0.90817245  0.74789304  1
  Ca2+  Ca92  1  0.08566780  0.41362739  0.60074009  1
  Ca2+  Ca93  1  0.42196637  0.41486724  0.58529392  1
  Ca2+  Ca94  1  0.08210497  0.90517602  0.91364117  1
  Ca2+  Ca95  1  0.88713602  0.91275298  0.08745428  1
  Ca2+  Ca96  1  0.59822640  0.90040040  0.75494231  1
  Ca2+  Ca97  1  0.74650880  0.41293304  0.58994947  1
  Ca2+  Ca98  1  0.73550898  0.41310102  0.59057196  1
  Ca2+  Ca99  1  0.07372460  0.90079954  0.24595627  1
  Ca2+  Ca100  1  0.59194436  0.40690530  0.08779763  1
  Ca2+  Ca101  1  0.76665491  0.41147962  0.92427079  1
  Ca2+  Ca102  1  0.07843644  0.89504097  0.58090773  1
  Ca2+  Ca103  1  0.41745757  0.90491522  0.91233618  1
  Ca2+  Ca104  1  0.08660224  0.90140185  0.24640596  1
  Ca2+  Ca105  1  0.57259482  0.41386817  0.41306761  1
  Ca2+  Ca106  1  0.40931025  0.90389684  0.25201651  1
  Ca2+  Ca107  1  0.57174542  0.89819922  0.42264031  1
  Mn3.34+  Mn108  1  0.08175525  0.33505025  0.08218784  1
  Mn3.34+  Mn109  1  0.08642740  0.33209231  0.41751660  1
  Mn3.34+  Mn110  1  0.08306830  0.34086996  0.75411755  1
  Mn3.34+  Mn111  1  0.08110759  0.83290863  0.08266345  1
  Mn3.34+  Mn112  1  0.08277673  0.82584121  0.41943129  1
  Mn3.34+  Mn113  1  0.08580571  0.83090751  0.74738403  1
  Mn3.34+  Mn114  1  0.41534384  0.33587273  0.08598901  1
  Mn3.34+  Mn115  1  0.41300699  0.33702551  0.41560963  1
  Mn3.34+  Mn116  1  0.41852262  0.33913456  0.75182059  1
  Mn3.34+  Mn117  1  0.41883475  0.83321461  0.08471832  1
  Mn3.34+  Mn118  1  0.41225840  0.83075910  0.41980368  1
  Mn3.34+  Mn119  1  0.41222309  0.83084385  0.74697999  1
  Mn3.34+  Mn120  1  0.75298062  0.33811319  0.08146040  1
  Mn3.34+  Mn121  1  0.74924996  0.33527783  0.41700292  1
  Mn3.34+  Mn122  1  0.74975254  0.33721129  0.75639698  1
  Mn3.34+  Mn123  1  0.74979504  0.83489898  0.08558998  1
  Mn3.34+  Mn124  1  0.75134556  0.82769676  0.42000333  1
  Mn3.34+  Mn125  1  0.75196413  0.82841981  0.74936209  1
  Mn3.34+  Mn126  1  0.25153707  0.33125815  0.24544968  1
  Mn3.34+  Mn127  1  0.24829800  0.33366112  0.58237302  1
  Mn3.34+  Mn128  1  0.24383788  0.34105911  0.92028720  1
  Mn3.34+  Mn129  1  0.24814004  0.82497562  0.25324086  1
  Mn3.34+  Mn130  1  0.24671218  0.82720556  0.58435129  1
  Mn3.34+  Mn131  1  0.25020552  0.82955046  0.91305717  1
  Mn3.34+  Mn132  1  0.58208564  0.33412303  0.24619214  1
  Mn3.34+  Mn133  1  0.58068239  0.33897776  0.58369928  1
  Mn3.34+  Mn134  1  0.58437160  0.33463531  0.91650697  1
  Mn3.34+  Mn135  1  0.59011829  0.82900670  0.24592135  1
  Mn3.34+  Mn136  1  0.58592852  0.81932132  0.58544529  1
  Mn3.34+  Mn137  1  0.58951097  0.83045521  0.91863239  1
  Mn3.34+  Mn138  1  0.91668091  0.33117575  0.24268457  1
  Mn3.34+  Mn139  1  0.91767109  0.33275671  0.58476823  1
  Mn3.34+  Mn140  1  0.91923034  0.33893374  0.92110823  1
  Mn3.34+  Mn141  1  0.90901919  0.83181704  0.25047928  1
  Mn3.34+  Mn142  1  0.91311424  0.82901037  0.58108110  1
  Mn3.34+  Mn143  1  0.90684724  0.83388619  0.91859665  1
  Mn3.34+  Mn144  1  0.25133465  0.66235942  0.91443669  1
  Mn3.34+  Mn145  1  0.75726893  0.16838900  0.75273970  1
  Mn3.34+  Mn146  1  0.92048401  0.65634482  0.91759950  1
  Mn3.34+  Mn147  1  0.08273037  0.16953035  0.74950485  1
  Mn3.34+  Mn148  1  0.91194875  0.66249667  0.91859246  1
  Mn3.34+  Mn149  1  0.57999694  0.16886532  0.91836812  1
  Mn3.34+  Mn150  1  0.08393611  0.66456456  0.08930561  1
  Mn3.34+  Mn151  1  0.41456543  0.67656470  0.41829873  1
  Mn3.34+  Mn152  1  0.41915344  0.66569815  0.08409604  1
  Mn3.34+  Mn153  1  0.26175134  0.16751581  0.91566267  1
  Mn3.34+  Mn154  1  0.07362381  0.65955203  0.08982251  1
  Mn3.34+  Mn155  1  0.41389397  0.17589995  0.08947300  1
  Mn3.34+  Mn156  1  0.24664281  0.17084566  0.57991681  1
  Mn3.34+  Mn157  1  0.08635635  0.16945997  0.08295720  1
  Mn3.34+  Mn158  1  0.42407566  0.67084025  0.41950063  1
  Mn3.34+  Mn159  1  0.58671120  0.17509549  0.58494316  1
  Mn3.34+  Mn160  1  0.59059041  0.66594098  0.24674920  1
  Mn3.34+  Mn161  1  0.59205418  0.65867786  0.59033752  1
  Mn3.34+  Mn162  1  0.07814495  0.66537330  0.41662356  1
  Mn3.34+  Mn163  1  0.59032124  0.16384713  0.91801739  1
  Mn3.34+  Mn164  1  0.24143064  0.65713323  0.91341987  1
  Mn3.34+  Mn165  1  0.76393631  0.16162642  0.08125218  1
  Mn3.34+  Mn166  1  0.90926114  0.66380991  0.25523348  1
  Mn3.34+  Mn167  1  0.08309534  0.17485247  0.41737351  1
  Mn3.34+  Mn168  1  0.59979944  0.16872263  0.58364088  1
  Mn3.34+  Mn169  1  0.07293674  0.16404053  0.75032389  1
  Mn3.34+  Mn170  1  0.75489127  0.16925340  0.41715179  1
  Mn3.34+  Mn171  1  0.59053246  0.17119443  0.24711655  1
  Mn3.34+  Mn172  1  0.07272277  0.17299636  0.08662493  1
  Mn3.34+  Mn173  1  0.24865242  0.17362592  0.91637072  1
  Mn3.34+  Mn174  1  0.24782938  0.66728966  0.24825855  1
  Mn3.34+  Mn175  1  0.41849550  0.17440748  0.41464870  1
  Mn3.34+  Mn176  1  0.42227310  0.16945201  0.09036629  1
  Mn3.34+  Mn177  1  0.75342699  0.65934884  0.08860604  1
  Mn3.34+  Mn178  1  0.41972303  0.66471342  0.75084057  1
  Mn3.34+  Mn179  1  0.74594205  0.66323682  0.75073516  1
  Mn3.34+  Mn180  1  0.07116216  0.50086614  0.05903125  1
  Mn3.34+  Mn181  1  0.07295392  0.00175457  0.08409699  1
  Mn3.34+  Mn182  1  0.59200273  0.49878964  0.91569078  1
  Mn3.34+  Mn183  1  0.57870338  0.50367874  0.90965584  1
  Mn3.34+  Mn184  1  0.08223367  0.50159572  0.40943738  1
  Mn3.34+  Mn185  1  0.58609855  -0.00458870  0.58175911  1
  Mn3.34+  Mn186  1  0.42304708  0.00113264  0.08320946  1
  Mn3.34+  Mn187  1  0.25514277  0.49721012  0.25843321  1
  Mn3.34+  Mn188  1  0.41483367  -0.00024883  0.75574491  1
  Mn3.34+  Mn189  1  0.91194169  -0.00077698  0.59011469  1
  Mn3.34+  Mn190  1  0.75582311  0.50286043  0.41267619  1
  Mn3.34+  Mn191  1  0.90352334  0.00300357  0.93693904  1
  Mn3.34+  Mn192  1  0.59714145  -0.00078440  0.58157424  1
  Mn3.34+  Mn193  1  0.24012197  -0.00127616  0.57541111  1
  Mn3.34+  Mn194  1  0.25281421  0.00225093  0.25072507  1
  Mn3.34+  Mn195  1  0.24614141  -0.00158807  0.91430953  1
  Mn3.34+  Mn196  1  0.91721613  0.50328413  0.25139119  1
  Mn3.34+  Mn197  1  0.75076256  0.00175827  0.75733588  1
  Mn3.34+  Mn198  1  0.08451065  -0.00025483  0.74811367  1
  Mn3.34+  Mn199  1  0.58208597  0.00201130  0.24443388  1
  Mn3.34+  Mn200  1  0.73663396  0.50295378  0.73672842  1
  Mn3.34+  Mn201  1  0.58274648  0.50019097  0.25426601  1
  Mn3.34+  Mn202  1  0.24458146  0.49764681  0.59300090  1
  Mn3.34+  Mn203  1  0.91515365  0.00255554  0.24909207  1
  Mn3.34+  Mn204  1  0.07629294  0.00148234  0.42212955  1
  Mn3.34+  Mn205  1  0.42854996  0.50031328  0.74065567  1
  Mn3.34+  Mn206  1  0.76370993  -0.00282464  0.42654323  1
  Mn3.34+  Mn207  1  0.08216224  0.49365356  0.05739810  1
  Mn3.34+  Mn208  1  0.40958504  0.49770517  0.07335477  1
  Mn3.34+  Mn209  1  0.74970505  0.00291947  0.42524722  1
  Mn3.34+  Mn210  1  0.59269080  -0.00188315  0.24305287  1
  Mn3.34+  Mn211  1  0.08831234  -0.00438248  0.42232716  1
  Mn3.34+  Mn212  1  0.25677453  0.00238370  0.91325962  1
  Mn3.34+  Mn213  1  0.25097214  -0.00646108  0.57630345  1
  Mn3.34+  Mn214  1  0.59556733  -0.00168217  0.93374131  1
  Mn3.34+  Mn215  1  0.92059627  0.50264982  0.59292451  1
  O2-  O216  1  0.00514588  0.17272599  -0.00294977  1
  O2-  O217  1  0.00376414  0.17167154  0.33867661  1
  O2-  O218  1  -0.00288338  0.16137161  0.66626655  1
  O2-  O219  1  0.00334100  0.66456451  -0.00289278  1
  O2-  O220  1  -0.00086784  0.67557061  0.33441798  1
  O2-  O221  1  0.00269888  0.66157674  0.66902329  1
  O2-  O222  1  0.33093157  0.16723263  0.00905472  1
  O2-  O223  1  0.33465780  0.17076291  0.33775753  1
  O2-  O224  1  0.33282123  0.15849979  0.65886299  1
  O2-  O225  1  0.32816467  0.65828101  0.00311604  1
  O2-  O226  1  0.33629399  0.66697227  0.33047204  1
  O2-  O227  1  0.33957037  0.65460231  0.66676248  1
  O2-  O228  1  0.66050373  0.16190573  0.00722463  1
  O2-  O229  1  0.66195391  0.15602524  0.33530149  1
  O2-  O230  1  0.65970107  0.15793171  0.67991195  1
  O2-  O231  1  0.67290602  0.66607004  0.00671650  1
  O2-  O232  1  0.65771636  0.66659567  0.33733624  1
  O2-  O233  1  0.66673883  0.68099815  0.66771139  1
  O2-  O234  1  0.16946009  0.15925690  0.00311990  1
  O2-  O235  1  0.16979536  0.17132270  0.33910907  1
  O2-  O236  1  0.16767017  0.15223935  0.67128415  1
  O2-  O237  1  0.16719188  0.65960305  0.00938686  1
  O2-  O238  1  0.17381275  0.67477873  0.33841806  1
  O2-  O239  1  0.16512822  0.66319394  0.66573408  1
  O2-  O240  1  0.49870691  0.16556564  0.00352026  1
  O2-  O241  1  0.50087420  0.16131182  0.33368504  1
  O2-  O242  1  0.49923331  0.15547516  0.66192390  1
  O2-  O243  1  0.49571103  0.65998926  0.00612372  1
  O2-  O244  1  0.49731742  0.66162005  0.32991121  1
  O2-  O245  1  0.49562747  0.66556098  0.65889903  1
  O2-  O246  1  0.82990333  0.16937192  0.00162707  1
  O2-  O247  1  0.82869948  0.16304987  0.33720483  1
  O2-  O248  1  0.83104657  0.16506238  0.67384198  1
  O2-  O249  1  0.83526797  0.66414055  0.00041778  1
  O2-  O250  1  0.83577473  0.67443844  0.33500557  1
  O2-  O251  1  0.83991622  0.65867973  0.68198619  1
  O2-  O252  1  -0.00157448  0.32141453  0.00529965  1
  O2-  O253  1  0.00058535  0.33713451  0.33593188  1
  O2-  O254  1  0.00244847  0.34004441  0.66334791  1
  O2-  O255  1  0.00042006  0.84674091  -0.00410793  1
  O2-  O256  1  0.00250387  0.83721043  0.33084934  1
  O2-  O257  1  -0.00471196  0.84419040  0.66942109  1
  O2-  O258  1  0.33661801  0.32717579  -0.00131461  1
  O2-  O259  1  0.33085331  0.31694193  0.33596345  1
  O2-  O260  1  0.33572797  0.33199952  0.66579949  1
  O2-  O261  1  0.33383162  0.84364038  0.00043773  1
  O2-  O262  1  0.33925396  0.82367115  0.32757580  1
  O2-  O263  1  0.33723736  0.83760496  0.66046986  1
  O2-  O264  1  0.66260245  0.34026387  0.00347807  1
  O2-  O265  1  0.66148444  0.34843091  0.34051880  1
  O2-  O266  1  0.66979098  0.34196039  0.66207176  1
  O2-  O267  1  0.66410138  0.83349845  0.00383582  1
  O2-  O268  1  0.65986530  0.83228783  0.34239788  1
  O2-  O269  1  0.66106164  0.83498607  0.67300628  1
  O2-  O270  1  0.16174038  0.31964198  0.00176239  1
  O2-  O271  1  0.16627054  0.31972210  0.33293913  1
  O2-  O272  1  0.16808907  0.33935021  0.66554470  1
  O2-  O273  1  0.16543016  0.84429519  0.00032152  1
  O2-  O274  1  0.15962372  0.82056045  0.32947748  1
  O2-  O275  1  0.16207336  0.83766573  0.66306621  1
  O2-  O276  1  0.49669068  0.32847142  0.00009805  1
  O2-  O277  1  0.50182610  0.33183167  0.33911984  1
  O2-  O278  1  0.49503687  0.32757497  0.66387388  1
  O2-  O279  1  0.50027121  0.84556395  -0.00400529  1
  O2-  O280  1  0.49745932  0.83743406  0.33471444  1
  O2-  O281  1  0.50166415  0.83944474  0.66677972  1
  O2-  O282  1  0.82899107  0.33280888  -0.00401433  1
  O2-  O283  1  0.83503451  0.34478225  0.33764262  1
  O2-  O284  1  0.82975897  0.34566650  0.66171333  1
  O2-  O285  1  0.83698158  0.83461447  0.00752783  1
  O2-  O286  1  0.83532852  0.82751035  0.33959514  1
  O2-  O287  1  0.83739723  0.84138263  0.67064403  1
  O2-  O288  1  0.00072294  0.18215102  0.16624544  1
  O2-  O289  1  0.00693012  0.18143942  0.49781556  1
  O2-  O290  1  -0.00082066  0.17089141  0.83497427  1
  O2-  O291  1  -0.00157810  0.67383108  0.17029627  1
  O2-  O292  1  0.00418072  0.67712725  0.49381870  1
  O2-  O293  1  -0.00602346  0.66753046  0.83218300  1
  O2-  O294  1  0.33333933  0.18333095  0.17037467  1
  O2-  O295  1  0.33769193  0.17190932  0.49658992  1
  O2-  O296  1  0.32658586  0.17823955  0.81888908  1
  O2-  O297  1  0.33461662  0.67868102  0.17200680  1
  O2-  O298  1  0.33034366  0.67544353  0.49623229  1
  O2-  O299  1  0.33455400  0.67408919  0.83202734  1
  O2-  O300  1  0.66651662  0.17413207  0.16771932  1
  O2-  O301  1  0.65676912  0.17101272  0.48592495  1
  O2-  O302  1  0.66388943  0.17228229  0.82842368  1
  O2-  O303  1  0.66493852  0.67317288  0.16495286  1
  O2-  O304  1  0.65674648  0.67790330  0.50085711  1
  O2-  O305  1  0.67609768  0.67288598  0.83488088  1
  O2-  O306  1  0.16597931  0.18324826  0.16253773  1
  O2-  O307  1  0.17347703  0.17217846  0.49434697  1
  O2-  O308  1  0.16784188  0.16643913  0.82875929  1
  O2-  O309  1  0.16905469  0.68035787  0.16706480  1
  O2-  O310  1  0.16584480  0.67308687  0.48914218  1
  O2-  O311  1  0.16782016  0.67214609  0.83105097  1
  O2-  O312  1  0.50199034  0.17813193  0.17231796  1
  O2-  O313  1  0.49924363  0.17359762  0.49989535  1
  O2-  O314  1  0.50837354  0.17382989  0.82811930  1
  O2-  O315  1  0.49597370  0.66874642  0.17168762  1
  O2-  O316  1  0.50085035  0.68849806  0.50180322  1
  O2-  O317  1  0.49275619  0.67326667  0.83302658  1
  O2-  O318  1  0.82964813  0.17591276  0.16305600  1
  O2-  O319  1  0.83265951  0.17602475  0.49271811  1
  O2-  O320  1  0.83402463  0.17333482  0.82704982  1
  O2-  O321  1  0.83460909  0.67660579  0.16927368  1
  O2-  O322  1  0.83086555  0.68163566  0.49042818  1
  O2-  O323  1  0.83136334  0.67090559  0.83661782  1
  O2-  O324  1  0.00584664  0.32188953  0.17088355  1
  O2-  O325  1  -0.00405837  0.32711246  0.49444284  1
  O2-  O326  1  -0.00354677  0.32937403  0.82782553  1
  O2-  O327  1  0.00463889  0.83007565  0.17105885  1
  O2-  O328  1  -0.00201684  0.82356156  0.49832218  1
  O2-  O329  1  -0.00194398  0.83472273  0.83465520  1
  O2-  O330  1  0.33605287  0.31025811  0.16807524  1
  O2-  O331  1  0.33280937  0.32320248  0.49768213  1
  O2-  O332  1  0.33632449  0.32214953  0.83032643  1
  O2-  O333  1  0.33148976  0.82547042  0.17171263  1
  O2-  O334  1  0.33576905  0.81838284  0.50223979  1
  O2-  O335  1  0.34443896  0.83177369  0.84238801  1
  O2-  O336  1  0.66745044  0.32913267  0.16932293  1
  O2-  O337  1  0.66584717  0.33489638  0.49777979  1
  O2-  O338  1  0.67100225  0.32637391  0.83798977  1
  O2-  O339  1  0.66108657  0.82336787  0.16090851  1
  O2-  O340  1  0.66120009  0.81611197  0.49507904  1
  O2-  O341  1  0.66242952  0.82782939  0.82847209  1
  O2-  O342  1  0.16329168  0.31433803  0.17081750  1
  O2-  O343  1  0.16566067  0.32089024  0.49939969  1
  O2-  O344  1  0.17014034  0.32904249  0.82949483  1
  O2-  O345  1  0.16778170  0.82503863  0.16903118  1
  O2-  O346  1  0.15989727  0.81859890  0.50395920  1
  O2-  O347  1  0.15686985  0.83008649  0.84115990  1
  O2-  O348  1  0.50268430  0.31787838  0.16253055  1
  O2-  O349  1  0.49909520  0.32244134  0.49641005  1
  O2-  O350  1  0.49927603  0.32017633  0.83263649  1
  O2-  O351  1  0.49271366  0.83566915  0.17718322  1
  O2-  O352  1  0.50227578  0.81624166  0.49765675  1
  O2-  O353  1  0.50169476  0.83248256  0.83465622  1
  O2-  O354  1  0.82816983  0.32774193  0.17038168  1
  O2-  O355  1  0.83344971  0.33496346  0.49903202  1
  O2-  O356  1  0.83486640  0.32856745  0.82998149  1
  O2-  O357  1  0.83505119  0.82878017  0.16570038  1
  O2-  O358  1  0.83507267  0.82040030  0.49786316  1
  O2-  O359  1  0.83876357  0.83491495  0.82466815  1
  O2-  O360  1  0.09582177  0.08378572  0.10878001  1
  O2-  O361  1  0.09194263  0.08317994  0.43499086  1
  O2-  O362  1  0.08880390  0.08030693  0.77904438  1
  O2-  O363  1  0.09005116  0.57492524  0.10651957  1
  O2-  O364  1  0.09598314  0.58047487  0.44006436  1
  O2-  O365  1  0.07086748  0.58228756  0.74197447  1
  O2-  O366  1  0.40954391  0.08291543  0.11499894  1
  O2-  O367  1  0.43038574  0.07743240  0.44992445  1
  O2-  O368  1  0.41494402  0.08241171  0.76095424  1
  O2-  O369  1  0.41109628  0.57747190  0.11533059  1
  O2-  O370  1  0.41068036  0.58288636  0.44730410  1
  O2-  O371  1  0.41490279  0.57945369  0.76924019  1
  O2-  O372  1  0.74367456  0.08354070  0.10660879  1
  O2-  O373  1  0.73819593  0.08327586  0.43792783  1
  O2-  O374  1  0.73272600  0.08276432  0.76954839  1
  O2-  O375  1  0.74148410  0.58098938  0.08581344  1
  O2-  O376  1  0.74753098  0.57998078  0.43825517  1
  O2-  O377  1  0.75983283  0.57756148  0.77458689  1
  O2-  O378  1  0.25343952  0.08363782  0.24387953  1
  O2-  O379  1  0.25500052  0.08179639  0.55311767  1
  O2-  O380  1  0.25088283  0.08410065  0.89113000  1
  O2-  O381  1  0.26806725  0.57766533  0.22125038  1
  O2-  O382  1  0.26184427  0.57363617  0.55471607  1
  O2-  O383  1  0.25836641  0.57778937  0.89199787  1
  O2-  O384  1  0.58070370  0.08502377  0.23151117  1
  O2-  O385  1  0.57673144  0.08118550  0.55648091  1
  O2-  O386  1  0.58172706  0.07775205  0.89150259  1
  O2-  O387  1  0.56973317  0.58116829  0.22772917  1
  O2-  O388  1  0.55735287  0.58132766  0.54847412  1
  O2-  O389  1  0.58311037  0.58327279  0.90391272  1
  O2-  O390  1  0.92251149  0.07966706  0.23481952  1
  O2-  O391  1  0.92729830  0.07217199  0.54821956  1
  O2-  O392  1  0.92297033  0.06748965  0.88277605  1
  O2-  O393  1  0.91745152  0.58285523  0.24405670  1
  O2-  O394  1  0.92760050  0.57620747  0.56219710  1
  O2-  O395  1  0.90599561  0.57753987  0.88669036  1
  O2-  O396  1  0.08579004  0.42320917  0.10878550  1
  O2-  O397  1  0.07522023  0.42153892  0.43990904  1
  O2-  O398  1  0.08553063  0.41951314  0.75335513  1
  O2-  O399  1  0.09241308  0.91948751  0.11294981  1
  O2-  O400  1  0.07768774  0.91459685  0.43090494  1
  O2-  O401  1  0.07233199  0.91917929  0.77469106  1
  O2-  O402  1  0.43082464  0.42048078  0.09141759  1
  O2-  O403  1  0.42694545  0.42251517  0.44322961  1
  O2-  O404  1  0.40451640  0.42443322  0.77302235  1
  O2-  O405  1  0.40683524  0.91914768  0.11511678  1
  O2-  O406  1  0.43938595  0.91894830  0.43503927  1
  O2-  O407  1  0.43256815  0.91754753  0.77035608  1
  O2-  O408  1  0.74069682  0.41790321  0.09759375  1
  O2-  O409  1  0.75292343  0.42258199  0.44497703  1
  O2-  O410  1  0.75450346  0.42307967  0.76838300  1
  O2-  O411  1  0.74717370  0.91506804  0.09869536  1
  O2-  O412  1  0.74121014  0.91638551  0.43589928  1
  O2-  O413  1  0.74003516  0.91808711  0.76407805  1
  O2-  O414  1  0.23551555  0.41727913  0.25170225  1
  O2-  O415  1  0.24988292  0.41837951  0.55955591  1
  O2-  O416  1  0.26177539  0.41826925  0.89769163  1
  O2-  O417  1  0.24894486  0.91875290  0.23178788  1
  O2-  O418  1  0.25038348  0.91217310  0.56400442  1
  O2-  O419  1  0.24950142  0.91586562  0.90235549  1
  O2-  O420  1  0.58802619  0.41883032  0.23419071  1
  O2-  O421  1  0.58741789  0.42115619  0.55134920  1
  O2-  O422  1  0.57716286  0.41778830  0.90631695  1
  O2-  O423  1  0.58035694  0.91499299  0.24176992  1
  O2-  O424  1  0.57829882  0.91327242  0.55976073  1
  O2-  O425  1  0.57621656  0.92134993  0.88846635  1
  O2-  O426  1  0.92051107  0.41936998  0.24190523  1
  O2-  O427  1  0.91555808  0.42504017  0.55216608  1
  O2-  O428  1  0.90498839  0.41897691  0.89929593  1
  O2-  O429  1  0.93483194  0.92002996  0.22991244  1
  O2-  O430  1  0.92409467  0.91854899  0.56086642  1
  O2-  O431  1  0.92616437  0.93102786  0.88395840  1
  O2-  O432  1  0.00675358  -0.00519856  -0.01724412  1
  O2-  O433  1  0.00734185  -0.00115400  0.32490637  1
  O2-  O434  1  0.00259592  -0.00173104  0.66516677  1
  O2-  O435  1  -0.01967260  0.50383665  0.00458316  1
  O2-  O436  1  -0.00781398  0.49195458  0.34404598  1
  O2-  O437  1  -0.00463092  0.50012258  0.66985009  1
  O2-  O438  1  0.33075780  -0.00440680  0.00337579  1
  O2-  O439  1  0.34703547  0.00116802  0.31352050  1
  O2-  O440  1  0.33834423  0.01276219  0.65579351  1
  O2-  O441  1  0.33978101  0.50885430  -0.00293375  1
  O2-  O442  1  0.33546235  0.51627632  0.33154870  1
  O2-  O443  1  0.33205892  0.50543028  0.66462807  1
  O2-  O444  1  0.65352630  0.00233999  0.02145100  1
  O2-  O445  1  0.66592090  0.00439851  0.33914115  1
  O2-  O446  1  0.65349822  0.00194767  0.68597902  1
  O2-  O447  1  0.67392247  0.49816388  -0.01103271  1
  O2-  O448  1  0.65561130  0.49942880  0.35433939  1
  O2-  O449  1  0.67520010  0.49140506  0.65089974  1
  O2-  O450  1  0.16316345  -0.00091517  -0.00328703  1
  O2-  O451  1  0.16901220  0.00652942  0.33400427  1
  O2-  O452  1  0.17250079  0.01145710  0.66958610  1
  O2-  O453  1  0.18089970  0.50656737  0.01849018  1
  O2-  O454  1  0.18237642  0.50538344  0.35300225  1
  O2-  O455  1  0.16502576  0.50339049  0.66202508  1
  O2-  O456  1  0.49340950  -0.01210790  -0.01199700  1
  O2-  O457  1  0.50752384  0.00781169  0.33426680  1
  O2-  O458  1  0.49777723  0.00769405  0.66149400  1
  O2-  O459  1  0.50121986  0.50776026  -0.00160615  1
  O2-  O460  1  0.50425843  0.51008600  0.33437896  1
  O2-  O461  1  0.48335095  0.50401802  0.64544403  1
  O2-  O462  1  0.83590263  -0.00552155  0.01198880  1
  O2-  O463  1  0.83823608  0.00299171  0.33785571  1
  O2-  O464  1  0.84837731  -0.00255954  0.69262183  1
  O2-  O465  1  0.82323479  0.50480850  -0.01057765  1
  O2-  O466  1  0.84087225  0.49042712  0.34259304  1
  O2-  O467  1  0.83615258  0.49498663  0.66878554  1
  O2-  O468  1  0.75937557  0.74887364  0.74521957  1
  O2-  O469  1  0.58606574  0.25195755  0.92688371  1
  O2-  O470  1  0.91134436  0.25487608  0.26225827  1
  O2-  O471  1  0.58257972  0.75152264  0.92360120  1
  O2-  O472  1  0.08062062  0.75259688  0.74415454  1
  O2-  O473  1  0.91956872  0.75106125  0.24799436  1
  O2-  O474  1  0.08231350  0.74927731  0.07253319  1
  O2-  O475  1  0.25026636  0.25377637  0.91898235  1
  O2-  O476  1  0.58857531  0.25132310  0.26641099  1
  O2-  O477  1  0.57638761  0.74853164  0.25846607  1
  O2-  O478  1  0.24594000  0.74570577  0.93238633  1
  O2-  O479  1  0.92218934  0.74568338  0.92343103  1
  O2-  O480  1  0.41310366  0.74964761  0.74086107  1
  O2-  O481  1  0.24937382  0.74953148  0.59468789  1
  O2-  O482  1  0.91668234  0.25467986  0.59389346  1
  O2-  O483  1  0.74576469  0.25290399  0.73678945  1
  O2-  O484  1  0.74414808  0.25297066  0.40672811  1
  O2-  O485  1  0.91817680  0.75097044  0.59588349  1
  O2-  O486  1  0.08985870  0.25284442  0.74122601  1
  O2-  O487  1  0.75255444  0.74908303  0.07895579  1
  O2-  O488  1  0.58927031  0.25588140  0.58815187  1
  O2-  O489  1  0.25114666  0.25126221  0.59645779  1
  O2-  O490  1  0.74613764  0.25082521  0.07675385  1
  O2-  O491  1  0.41576822  0.75013544  0.07499059  1
  O2-  O492  1  0.91544172  0.25606022  0.91498413  1
