# generated using pymatgen
data_Ca108Mn108O277
_symmetry_space_group_name_H-M   'P 1'
_cell_length_a   16.03147700
_cell_length_b   22.31091490
_cell_length_c   16.39175865
_cell_angle_alpha   90.00209234
_cell_angle_beta   90.00248885
_cell_angle_gamma   89.99750488
_symmetry_Int_Tables_number   1
_chemical_formula_structural   Ca108Mn108O277
_chemical_formula_sum   'Ca108 Mn108 O277'
_cell_volume   5862.95371670
_cell_formula_units_Z   1
loop_
 _symmetry_equiv_pos_site_id
 _symmetry_equiv_pos_as_xyz
  1  'x, y, z'
loop_
 _atom_type_symbol
 _atom_type_oxidation_number
  Ca2+  2.0
  Mn3.34+  3.34
  O2-  -2.0
loop_
 _atom_site_type_symbol
 _atom_site_label
 _atom_site_symmetry_multiplicity
 _atom_site_fract_x
 _atom_site_fract_y
 _atom_site_fract_z
 _atom_site_occupancy
  Ca2+  Ca0  1  0.07850536  0.26031476  0.24485795  1
  Ca2+  Ca1  1  0.09632158  0.24645172  0.59299169  1
  Ca2+  Ca2  1  0.07614815  0.23771226  0.90317372  1
  Ca2+  Ca3  1  0.09620807  0.74087262  0.22404647  1
  Ca2+  Ca4  1  0.06134050  0.75475236  0.58139281  1
  Ca2+  Ca5  1  0.10053524  0.75201404  0.93193999  1
  Ca2+  Ca6  1  0.42582399  0.25304098  0.26709736  1
  Ca2+  Ca7  1  0.41976282  0.24277653  0.56112954  1
  Ca2+  Ca8  1  0.42343286  0.25865520  0.91565535  1
  Ca2+  Ca9  1  0.42901801  0.74783988  0.24851777  1
  Ca2+  Ca10  1  0.42783188  0.75263221  0.56726687  1
  Ca2+  Ca11  1  0.44118350  0.74187722  0.92616908  1
  Ca2+  Ca12  1  0.73931761  0.25457215  0.25631879  1
  Ca2+  Ca13  1  0.73552790  0.25310794  0.57414826  1
  Ca2+  Ca14  1  0.74793607  0.25601798  0.92725718  1
  Ca2+  Ca15  1  0.71915319  0.72724888  0.24965758  1
  Ca2+  Ca16  1  0.76420290  0.74496645  0.57636190  1
  Ca2+  Ca17  1  0.72378265  0.74802282  0.92369795  1
  Ca2+  Ca18  1  0.23780919  0.24987750  0.08376556  1
  Ca2+  Ca19  1  0.27067581  0.25538334  0.42454342  1
  Ca2+  Ca20  1  0.23369061  0.24973262  0.74672589  1
  Ca2+  Ca21  1  0.25490378  0.75098197  0.08581408  1
  Ca2+  Ca22  1  0.26020854  0.74235099  0.40473924  1
  Ca2+  Ca23  1  0.23514384  0.76269043  0.75811051  1
  Ca2+  Ca24  1  0.59223752  0.25213240  0.09979518  1
  Ca2+  Ca25  1  0.57113316  0.23953057  0.41447758  1
  Ca2+  Ca26  1  0.58025281  0.26206673  0.73850181  1
  Ca2+  Ca27  1  0.56997960  0.74599602  0.08378337  1
  Ca2+  Ca28  1  0.58337213  0.75450645  0.40824132  1
  Ca2+  Ca29  1  0.60028652  0.75287484  0.75566781  1
  Ca2+  Ca30  1  0.92030996  0.25132642  0.08408357  1
  Ca2+  Ca31  1  0.90811202  0.27035246  0.41241515  1
  Ca2+  Ca32  1  0.93534258  0.24547418  0.75012156  1
  Ca2+  Ca33  1  0.93312267  0.75488820  0.08570116  1
  Ca2+  Ca34  1  0.90895953  0.75172383  0.43531833  1
  Ca2+  Ca35  1  0.90831388  0.75324019  0.72649749  1
  Ca2+  Ca36  1  0.09586582  0.07365132  0.23719327  1
  Ca2+  Ca37  1  0.89238486  0.60897009  0.43808364  1
  Ca2+  Ca38  1  0.10873082  0.06289063  0.59412768  1
  Ca2+  Ca39  1  0.60731970  0.60538215  0.40767509  1
  Ca2+  Ca40  1  0.08323254  0.07335538  0.23660453  1
  Ca2+  Ca41  1  0.28614611  0.09926221  0.42465953  1
  Ca2+  Ca42  1  0.40255994  0.08310335  0.93963914  1
  Ca2+  Ca43  1  0.90346254  0.60953575  0.43729881  1
  Ca2+  Ca44  1  0.73359064  0.08766882  0.27670084  1
  Ca2+  Ca45  1  0.41553217  0.08266379  0.93959537  1
  Ca2+  Ca46  1  0.59557323  0.61039874  0.10010312  1
  Ca2+  Ca47  1  0.75311142  0.60895084  0.57760277  1
  Ca2+  Ca48  1  0.70898574  0.60804175  0.93954297  1
  Ca2+  Ca49  1  0.07678010  0.58699501  0.94706500  1
  Ca2+  Ca50  1  0.43558344  0.09573806  0.26817705  1
  Ca2+  Ca51  1  0.42598246  0.10002551  0.26855659  1
  Ca2+  Ca52  1  0.06637674  0.60930993  0.57767517  1
  Ca2+  Ca53  1  0.40488254  0.60103396  0.24181990  1
  Ca2+  Ca54  1  0.61753461  0.60608710  0.41011715  1
  Ca2+  Ca55  1  0.24175530  0.08657185  0.07469973  1
  Ca2+  Ca56  1  0.44638218  0.58457378  0.57355485  1
  Ca2+  Ca57  1  0.58851547  0.60347946  0.76067205  1
  Ca2+  Ca58  1  0.08206944  0.08560346  0.93540436  1
  Ca2+  Ca59  1  0.95004624  0.08058747  0.75629377  1
  Ca2+  Ca60  1  0.23893531  0.60055762  0.74984626  1
  Ca2+  Ca61  1  0.73568541  0.07809784  0.56022428  1
  Ca2+  Ca62  1  0.88478399  0.60559921  0.07540482  1
  Ca2+  Ca63  1  0.09010253  0.58721061  0.94748462  1
  Ca2+  Ca64  1  0.25174584  0.60080993  0.74963469  1
  Ca2+  Ca65  1  0.91172279  0.59514392  0.71544626  1
  Ca2+  Ca66  1  0.43061560  0.57679360  0.96333091  1
  Ca2+  Ca67  1  0.96147702  0.08284542  0.76107922  1
  Ca2+  Ca68  1  0.41522176  0.60061737  0.24065285  1
  Ca2+  Ca69  1  0.20787164  0.09580826  0.76168852  1
  Ca2+  Ca70  1  0.11742982  0.06597635  0.59004728  1
  Ca2+  Ca71  1  0.23501893  0.60835250  0.10026146  1
  Ca2+  Ca72  1  0.72573181  0.40810453  0.57632235  1
  Ca2+  Ca73  1  0.75513628  0.89838712  0.91311670  1
  Ca2+  Ca74  1  0.91002319  0.40437546  0.07585462  1
  Ca2+  Ca75  1  0.23961217  0.91341127  0.43224273  1
  Ca2+  Ca76  1  0.93259514  0.91025311  0.08045696  1
  Ca2+  Ca77  1  0.26319739  0.41900566  0.07638327  1
  Ca2+  Ca78  1  0.58730451  0.90413916  0.74472444  1
  Ca2+  Ca79  1  0.90741889  0.40108774  0.74940288  1
  Ca2+  Ca80  1  0.09201934  0.40580390  0.25817517  1
  Ca2+  Ca81  1  0.41672961  0.41123489  0.25245422  1
  Ca2+  Ca82  1  0.57197151  0.40925587  0.08134779  1
  Ca2+  Ca83  1  0.25099324  0.41695195  0.07519045  1
  Ca2+  Ca84  1  0.07231498  0.91510019  0.91758821  1
  Ca2+  Ca85  1  0.74755974  0.40934784  0.92790107  1
  Ca2+  Ca86  1  0.09064482  0.90896593  0.24862753  1
  Ca2+  Ca87  1  0.91208530  0.91784941  0.41511096  1
  Ca2+  Ca88  1  0.58100082  0.90053175  0.08429869  1
  Ca2+  Ca89  1  0.41617036  0.41015095  0.93196576  1
  Ca2+  Ca90  1  0.41949294  0.90615207  0.92106136  1
  Ca2+  Ca91  1  0.41330477  0.90168896  0.24823543  1
  Ca2+  Ca92  1  0.08048535  0.39242480  0.57521951  1
  Ca2+  Ca93  1  0.43116390  0.40187241  0.57595473  1
  Ca2+  Ca94  1  0.73910548  0.90741408  0.26075127  1
  Ca2+  Ca95  1  0.22400143  0.92683550  0.71575879  1
  Ca2+  Ca96  1  0.08728383  0.40212126  0.92455687  1
  Ca2+  Ca97  1  0.74288829  0.90735244  0.57955299  1
  Ca2+  Ca98  1  0.92003551  0.40156538  0.74894599  1
  Ca2+  Ca99  1  0.74277378  0.40572766  0.25335173  1
  Ca2+  Ca100  1  0.24865177  0.91218149  0.42767340  1
  Ca2+  Ca101  1  0.21252063  0.92886903  0.71960131  1
  Ca2+  Ca102  1  0.08078682  0.91267035  0.92266157  1
  Ca2+  Ca103  1  0.58034655  0.41470832  0.72723391  1
  Ca2+  Ca104  1  0.92463260  0.91872069  0.41663975  1
  Ca2+  Ca105  1  0.23919359  0.91464929  0.08279963  1
  Ca2+  Ca106  1  0.75063268  0.90643674  0.26091273  1
  Ca2+  Ca107  1  0.42041683  0.90322588  0.58054641  1
  Mn3.34+  Mn108  1  0.08428573  0.33189740  0.08561325  1
  Mn3.34+  Mn109  1  0.08649504  0.33265659  0.41711848  1
  Mn3.34+  Mn110  1  0.08760716  0.32780746  0.75129420  1
  Mn3.34+  Mn111  1  0.08713418  0.83500636  0.08691541  1
  Mn3.34+  Mn112  1  0.08429684  0.83653407  0.41815299  1
  Mn3.34+  Mn113  1  0.07236267  0.83631560  0.75088906  1
  Mn3.34+  Mn114  1  0.41536773  0.33048911  0.08933183  1
  Mn3.34+  Mn115  1  0.41765089  0.33648696  0.41678836  1
  Mn3.34+  Mn116  1  0.41115386  0.33282890  0.74941205  1
  Mn3.34+  Mn117  1  0.41271669  0.83406323  0.08494974  1
  Mn3.34+  Mn118  1  0.42023568  0.83294849  0.41608496  1
  Mn3.34+  Mn119  1  0.41641283  0.83113094  0.75147326  1
  Mn3.34+  Mn120  1  0.74729637  0.33491377  0.08829751  1
  Mn3.34+  Mn121  1  0.74452632  0.33352938  0.41575307  1
  Mn3.34+  Mn122  1  0.74717573  0.32800383  0.75078796  1
  Mn3.34+  Mn123  1  0.75195974  0.82874834  0.08729970  1
  Mn3.34+  Mn124  1  0.74425939  0.84028458  0.42513964  1
  Mn3.34+  Mn125  1  0.75353347  0.83514742  0.74891944  1
  Mn3.34+  Mn126  1  0.25325158  0.33510554  0.25047989  1
  Mn3.34+  Mn127  1  0.25342930  0.33135470  0.58486053  1
  Mn3.34+  Mn128  1  0.25116080  0.32833474  0.91191940  1
  Mn3.34+  Mn129  1  0.25135388  0.83190444  0.24991980  1
  Mn3.34+  Mn130  1  0.24764319  0.82742038  0.58063058  1
  Mn3.34+  Mn131  1  0.25573437  0.83555677  0.91354688  1
  Mn3.34+  Mn132  1  0.58077797  0.33680934  0.25440726  1
  Mn3.34+  Mn133  1  0.58034656  0.33333932  0.57826909  1
  Mn3.34+  Mn134  1  0.58281743  0.33538681  0.91447296  1
  Mn3.34+  Mn135  1  0.57987387  0.83054237  0.25072154  1
  Mn3.34+  Mn136  1  0.58483383  0.83159296  0.58121342  1
  Mn3.34+  Mn137  1  0.58204451  0.83339555  0.91535367  1
  Mn3.34+  Mn138  1  0.91613115  0.33682504  0.25121414  1
  Mn3.34+  Mn139  1  0.91233934  0.32998620  0.57855901  1
  Mn3.34+  Mn140  1  0.91600584  0.33116044  0.91644167  1
  Mn3.34+  Mn141  1  0.91926862  0.83204667  0.24863042  1
  Mn3.34+  Mn142  1  0.91500236  0.83709593  0.58501607  1
  Mn3.34+  Mn143  1  0.91403572  0.82822567  0.91333407  1
  Mn3.34+  Mn144  1  0.91962792  0.16525478  0.25042433  1
  Mn3.34+  Mn145  1  0.41174223  0.16703680  0.74567042  1
  Mn3.34+  Mn146  1  0.41810976  0.68017139  0.74171667  1
  Mn3.34+  Mn147  1  0.25406136  0.67110310  0.91838344  1
  Mn3.34+  Mn148  1  0.92352228  0.66511631  0.24592656  1
  Mn3.34+  Mn149  1  0.91068803  0.67247140  0.24803613  1
  Mn3.34+  Mn150  1  0.91972660  0.68028150  0.90889502  1
  Mn3.34+  Mn151  1  0.08299417  0.67517881  0.74958551  1
  Mn3.34+  Mn152  1  0.75137067  0.16904281  0.08674150  1
  Mn3.34+  Mn153  1  0.08244827  0.16726072  0.08149687  1
  Mn3.34+  Mn154  1  0.41344652  0.66463640  0.41688474  1
  Mn3.34+  Mn155  1  0.90854074  0.67204682  0.90653955  1
  Mn3.34+  Mn156  1  0.41523525  0.66711169  0.08396794  1
  Mn3.34+  Mn157  1  0.07929665  0.15815073  0.41891159  1
  Mn3.34+  Mn158  1  0.58640987  0.16968302  0.24877697  1
  Mn3.34+  Mn159  1  0.42444488  0.16039339  0.74722725  1
  Mn3.34+  Mn160  1  0.74056011  0.15539993  0.75320729  1
  Mn3.34+  Mn161  1  0.09017190  0.66318785  0.41062140  1
  Mn3.34+  Mn162  1  0.75358896  0.16211124  0.75214865  1
  Mn3.34+  Mn163  1  0.57978665  0.16041273  0.57552346  1
  Mn3.34+  Mn164  1  0.25403858  0.16246144  0.58126733  1
  Mn3.34+  Mn165  1  0.58033892  0.16605419  0.92310020  1
  Mn3.34+  Mn166  1  0.90965523  0.15998832  0.24773755  1
  Mn3.34+  Mn167  1  0.09138346  0.16504386  0.41561430  1
  Mn3.34+  Mn168  1  0.24891386  0.16894146  0.24378179  1
  Mn3.34+  Mn169  1  0.41452219  0.17072407  0.09263774  1
  Mn3.34+  Mn170  1  0.74768238  0.67096197  0.74952923  1
  Mn3.34+  Mn171  1  0.91858590  0.16300203  0.57533845  1
  Mn3.34+  Mn172  1  0.41755927  0.67539632  0.75187944  1
  Mn3.34+  Mn173  1  0.90485689  0.15743559  0.57404992  1
  Mn3.34+  Mn174  1  0.74310804  0.16337602  0.41762174  1
  Mn3.34+  Mn175  1  0.24815334  0.67112221  0.57135466  1
  Mn3.34+  Mn176  1  0.58613326  0.66802650  0.58022423  1
  Mn3.34+  Mn177  1  0.90822492  0.16206606  0.92163469  1
  Mn3.34+  Mn178  1  0.59252532  0.15891626  0.92042928  1
  Mn3.34+  Mn179  1  0.25185236  0.17214876  0.91607706  1
  Mn3.34+  Mn180  1  0.43133447  0.00128490  0.74409029  1
  Mn3.34+  Mn181  1  0.73812298  0.00411463  0.08133673  1
  Mn3.34+  Mn182  1  0.58083280  0.49541635  0.92340137  1
  Mn3.34+  Mn183  1  0.25746684  0.49930851  0.91605438  1
  Mn3.34+  Mn184  1  0.91234346  0.50256077  0.91841371  1
  Mn3.34+  Mn185  1  0.91853724  0.49614698  0.58020780  1
  Mn3.34+  Mn186  1  0.25279979  -0.00252449  0.91467724  1
  Mn3.34+  Mn187  1  0.74957880  0.50104413  0.08185424  1
  Mn3.34+  Mn188  1  0.08898830  0.49809077  0.41372901  1
  Mn3.34+  Mn189  1  0.74700215  0.00011608  0.74290765  1
  Mn3.34+  Mn190  1  0.91248329  0.50124964  0.25600366  1
  Mn3.34+  Mn191  1  0.26031383  0.00001579  0.25497835  1
  Mn3.34+  Mn192  1  0.40799475  0.49633979  0.74935700  1
  Mn3.34+  Mn193  1  0.07907331  0.49927026  0.08564295  1
  Mn3.34+  Mn194  1  0.74968425  0.01091296  0.07726062  1
  Mn3.34+  Mn195  1  0.41085537  0.50013735  0.41095541  1
  Mn3.34+  Mn196  1  0.58326644  -0.00182511  0.91205117  1
  Mn3.34+  Mn197  1  0.75355039  0.50668686  0.75737488  1
  Mn3.34+  Mn198  1  0.58107905  0.49961082  0.26262533  1
  Mn3.34+  Mn199  1  0.57950701  -0.00221570  0.26367341  1
  Mn3.34+  Mn200  1  0.92295230  0.50660228  0.25654836  1
  Mn3.34+  Mn201  1  0.74620123  0.49502690  0.41436256  1
  Mn3.34+  Mn202  1  0.91667110  -0.00172270  0.59712367  1
  Mn3.34+  Mn203  1  0.74228316  0.50239399  0.75500876  1
  Mn3.34+  Mn204  1  0.91474009  -0.00290281  0.24841915  1
  Mn3.34+  Mn205  1  0.42220949  -0.00027367  0.08912963  1
  Mn3.34+  Mn206  1  0.58636028  -0.00220817  0.57391810  1
  Mn3.34+  Mn207  1  0.42110589  0.50324952  0.75236598  1
  Mn3.34+  Mn208  1  0.24067922  0.49683891  0.56870660  1
  Mn3.34+  Mn209  1  0.25413051  0.50258234  0.56689527  1
  Mn3.34+  Mn210  1  0.91191968  -0.00230407  0.92368230  1
  Mn3.34+  Mn211  1  0.08042979  0.50195555  0.75435120  1
  Mn3.34+  Mn212  1  0.24944930  0.50153559  0.26508142  1
  Mn3.34+  Mn213  1  0.42310901  -0.00399817  0.40956439  1
  Mn3.34+  Mn214  1  0.42022316  0.00605243  0.74271605  1
  Mn3.34+  Mn215  1  0.09397002  0.49500582  0.75289760  1
  O2-  O216  1  0.00283361  0.16518938  -0.00620156  1
  O2-  O217  1  0.00513373  0.13835049  0.32816632  1
  O2-  O218  1  -0.00274615  0.14466534  0.65499636  1
  O2-  O219  1  -0.00904187  0.66646906  -0.00276435  1
  O2-  O220  1  -0.00456259  0.64327416  0.33168089  1
  O2-  O221  1  0.00239098  0.66232578  0.67523361  1
  O2-  O222  1  0.33604742  0.16943982  0.00142636  1
  O2-  O223  1  0.33287163  0.16419596  0.31929124  1
  O2-  O224  1  0.32324613  0.14511323  0.67790100  1
  O2-  O225  1  0.33503747  0.65248131  -0.00619249  1
  O2-  O226  1  0.34078527  0.66541469  0.33164282  1
  O2-  O227  1  0.32937022  0.66696161  0.66630480  1
  O2-  O228  1  0.67011771  0.15087833  0.00364517  1
  O2-  O229  1  0.66643162  0.16574417  0.33088268  1
  O2-  O230  1  0.67718416  0.14336151  0.65936872  1
  O2-  O231  1  0.66503652  0.68086875  0.01767860  1
  O2-  O232  1  0.66361444  0.67979061  0.34980468  1
  O2-  O233  1  0.66341211  0.65173559  0.66953920  1
  O2-  O234  1  0.17125506  0.16343087  0.00232599  1
  O2-  O235  1  0.16792979  0.14371465  0.32957943  1
  O2-  O236  1  0.16015006  0.14880667  0.65190461  1
  O2-  O237  1  0.16936284  0.65777202  -0.00991572  1
  O2-  O238  1  0.15404064  0.70053250  0.33685283  1
  O2-  O239  1  0.16814518  0.65692637  0.66504099  1
  O2-  O240  1  0.49192165  0.15481446  0.00156611  1
  O2-  O241  1  0.50230814  0.16926095  0.32370140  1
  O2-  O242  1  0.50169674  0.15080701  0.66711244  1
  O2-  O243  1  0.49966449  0.65771435  0.00901641  1
  O2-  O244  1  0.49532864  0.63943727  0.34254580  1
  O2-  O245  1  0.49674780  0.65146791  0.66462284  1
  O2-  O246  1  0.83608968  0.18738998  0.00248813  1
  O2-  O247  1  0.83111626  0.15446285  0.32977346  1
  O2-  O248  1  0.84254372  0.14200672  0.67708987  1
  O2-  O249  1  0.82586052  0.67457716  -0.01419735  1
  O2-  O250  1  0.83475028  0.65850011  0.32920037  1
  O2-  O251  1  0.82625337  0.66057998  0.66915386  1
  O2-  O252  1  0.00019439  0.34431961  -0.00024502  1
  O2-  O253  1  0.00407982  0.34660900  0.33097457  1
  O2-  O254  1  -0.00285814  0.34043491  0.67327983  1
  O2-  O255  1  0.00028053  0.84038796  0.00134328  1
  O2-  O256  1  -0.00094730  0.85645229  0.33394687  1
  O2-  O257  1  -0.00391120  0.83974941  0.66666029  1
  O2-  O258  1  0.33420204  0.31988663  0.00121249  1
  O2-  O259  1  0.33650745  0.33655941  0.32896335  1
  O2-  O260  1  0.33720058  0.35066263  0.66286301  1
  O2-  O261  1  0.32758709  0.85394093  0.00443963  1
  O2-  O262  1  0.32352360  0.84703682  0.34333820  1
  O2-  O263  1  0.33375567  0.81614513  0.66535043  1
  O2-  O264  1  0.66293995  0.35259927  0.00389072  1
  O2-  O265  1  0.66693662  0.34524018  0.32976517  1
  O2-  O266  1  0.66423723  0.34347696  0.66939871  1
  O2-  O267  1  0.67081101  0.84642304  0.00076885  1
  O2-  O268  1  0.67065984  0.83647338  0.33394458  1
  O2-  O269  1  0.66514389  0.84651923  0.66627493  1
  O2-  O270  1  0.17546390  0.34188088  0.00708714  1
  O2-  O271  1  0.16705982  0.32831921  0.32642272  1
  O2-  O272  1  0.16407484  0.34297086  0.66716050  1
  O2-  O273  1  0.16353551  0.85443786  -0.00607013  1
  O2-  O274  1  0.16609825  0.83391535  0.33258307  1
  O2-  O275  1  0.17099416  0.84057430  0.66991517  1
  O2-  O276  1  0.49432128  0.34096679  0.00124872  1
  O2-  O277  1  0.49425624  0.34721263  0.32770614  1
  O2-  O278  1  0.50084838  0.34435162  0.67152814  1
  O2-  O279  1  0.49738330  0.84742333  -0.00119995  1
  O2-  O280  1  0.49475647  0.84722613  0.32882234  1
  O2-  O281  1  0.49739101  0.84417961  0.66624398  1
  O2-  O282  1  0.82995746  0.33818774  -0.00302491  1
  O2-  O283  1  0.82847348  0.34406067  0.32868049  1
  O2-  O284  1  0.82874231  0.34791478  0.66529437  1
  O2-  O285  1  0.83449638  0.81979116  0.00225738  1
  O2-  O286  1  0.83569534  0.84637279  0.33688071  1
  O2-  O287  1  0.82853585  0.84580247  0.66050230  1
  O2-  O288  1  0.00153136  0.17738101  0.17012549  1
  O2-  O289  1  -0.00064768  0.18587140  0.49606098  1
  O2-  O290  1  -0.01673804  0.17591691  0.83491935  1
  O2-  O291  1  -0.00324038  0.68040396  0.16513366  1
  O2-  O292  1  0.00099546  0.67882428  0.48383569  1
  O2-  O293  1  0.00823833  0.68813786  0.83873595  1
  O2-  O294  1  0.32879380  0.19391366  0.16402046  1
  O2-  O295  1  0.32922496  0.17814040  0.50203286  1
  O2-  O296  1  0.34377629  0.18296473  0.83816310  1
  O2-  O297  1  0.33389228  0.67856805  0.16616052  1
  O2-  O298  1  0.33708351  0.68870915  0.50243417  1
  O2-  O299  1  0.32760139  0.68706119  0.82465358  1
  O2-  O300  1  0.67239620  0.18024031  0.17163993  1
  O2-  O301  1  0.66908261  0.17962643  0.50198432  1
  O2-  O302  1  0.66108672  0.18314695  0.83123734  1
  O2-  O303  1  0.66730499  0.68847275  0.14071867  1
  O2-  O304  1  0.66686380  0.67990719  0.50790013  1
  O2-  O305  1  0.67080994  0.67798882  0.83193135  1
  O2-  O306  1  0.16045565  0.18626609  0.17212771  1
  O2-  O307  1  0.16961787  0.18606603  0.49679387  1
  O2-  O308  1  0.17541342  0.18335274  0.83831536  1
  O2-  O309  1  0.18924143  0.68665821  0.16428756  1
  O2-  O310  1  0.15900992  0.68831337  0.50277185  1
  O2-  O311  1  0.17380001  0.67958809  0.82724146  1
  O2-  O312  1  0.49738260  0.18528508  0.16894678  1
  O2-  O313  1  0.50509287  0.17641385  0.50265719  1
  O2-  O314  1  0.50101106  0.18273853  0.83606930  1
  O2-  O315  1  0.48813933  0.67424665  0.17007684  1
  O2-  O316  1  0.50343027  0.67810193  0.49826269  1
  O2-  O317  1  0.50410370  0.68217336  0.82425120  1
  O2-  O318  1  0.83576346  0.18921088  0.16707126  1
  O2-  O319  1  0.82890093  0.18298260  0.49871407  1
  O2-  O320  1  0.82415092  0.18573150  0.83775050  1
  O2-  O321  1  0.83895536  0.68804414  0.16355284  1
  O2-  O322  1  0.83086938  0.67913015  0.49300323  1
  O2-  O323  1  0.83907304  0.68921003  0.82139021  1
  O2-  O324  1  0.00048841  0.32638339  0.16364872  1
  O2-  O325  1  0.00157747  0.31659648  0.50693567  1
  O2-  O326  1  -0.00295671  0.31772343  0.83376483  1
  O2-  O327  1  0.00287907  0.82322391  0.16899876  1
  O2-  O328  1  -0.00724537  0.82801959  0.48907282  1
  O2-  O329  1  0.00558137  0.81503237  0.84458002  1
  O2-  O330  1  0.33210259  0.31206984  0.16604205  1
  O2-  O331  1  0.33773146  0.32205296  0.50591076  1
  O2-  O332  1  0.32941844  0.30786390  0.83159170  1
  O2-  O333  1  0.33856861  0.81435529  0.17652532  1
  O2-  O334  1  0.33125293  0.81625284  0.49893251  1
  O2-  O335  1  0.33906264  0.81245113  0.83654258  1
  O2-  O336  1  0.66696592  0.32933175  0.17061297  1
  O2-  O337  1  0.66543327  0.32126971  0.50032006  1
  O2-  O338  1  0.67103923  0.32083005  0.83800997  1
  O2-  O339  1  0.66917063  0.82326517  0.16959449  1
  O2-  O340  1  0.66910341  0.81175202  0.50319245  1
  O2-  O341  1  0.66801029  0.82306272  0.83462432  1
  O2-  O342  1  0.16863709  0.31924772  0.16734904  1
  O2-  O343  1  0.16516443  0.31412048  0.50389179  1
  O2-  O344  1  0.15819938  0.31789836  0.84379993  1
  O2-  O345  1  0.17347622  0.82407624  0.16426342  1
  O2-  O346  1  0.16608597  0.81144095  0.49627510  1
  O2-  O347  1  0.16458624  0.82599255  0.83991746  1
  O2-  O348  1  0.50127475  0.32220941  0.16423204  1
  O2-  O349  1  0.49645387  0.32248705  0.50302311  1
  O2-  O350  1  0.49862093  0.31929338  0.83374052  1
  O2-  O351  1  0.50242993  0.82616722  0.16170785  1
  O2-  O352  1  0.49821460  0.82368870  0.50169361  1
  O2-  O353  1  0.50178511  0.81397810  0.82920317  1
  O2-  O354  1  0.83552370  0.31995114  0.16262505  1
  O2-  O355  1  0.82600602  0.32242302  0.50436101  1
  O2-  O356  1  0.84038221  0.31469135  0.82736998  1
  O2-  O357  1  0.83497261  0.81496615  0.17013869  1
  O2-  O358  1  0.82995771  0.82130751  0.49672687  1
  O2-  O359  1  0.83003997  0.81269064  0.83646412  1
  O2-  O360  1  0.09908642  0.08315273  0.10409577  1
  O2-  O361  1  0.09320064  0.08026775  0.45383069  1
  O2-  O362  1  0.08271050  0.07072314  0.80554179  1
  O2-  O363  1  0.07652711  0.57975820  0.08328101  1
  O2-  O364  1  0.07009413  0.57584493  0.45014836  1
  O2-  O365  1  0.10196466  0.58187011  0.78996081  1
  O2-  O366  1  0.40358671  0.08248216  0.12340467  1
  O2-  O367  1  0.42183182  0.07614999  0.40268981  1
  O2-  O368  1  0.41163344  0.07909863  0.80250679  1
  O2-  O369  1  0.41241591  0.58381449  0.10385586  1
  O2-  O370  1  0.40294582  0.57912901  0.44672849  1
  O2-  O371  1  0.38926251  0.58319313  0.78655979  1
  O2-  O372  1  0.76206114  0.08446029  0.12561702  1
  O2-  O373  1  0.74211570  0.08369190  0.42508585  1
  O2-  O374  1  0.75284928  0.07849130  0.79402909  1
  O2-  O375  1  0.74483497  0.57976353  0.08477391  1
  O2-  O376  1  0.75501063  0.57290706  0.45246031  1
  O2-  O377  1  0.75755106  0.58597233  0.79245050  1
  O2-  O378  1  0.24382851  0.07885905  0.21387691  1
  O2-  O379  1  0.24270219  0.08071687  0.54974693  1
  O2-  O380  1  0.26517272  0.08105087  0.89762059  1
  O2-  O381  1  0.27185204  0.57201938  0.22010172  1
  O2-  O382  1  0.24909157  0.58424041  0.55281488  1
  O2-  O383  1  0.24258341  0.58077202  0.88332438  1
  O2-  O384  1  0.57164675  0.08173229  0.23585037  1
  O2-  O385  1  0.59323159  0.07735929  0.54864945  1
  O2-  O386  1  0.55748441  0.08102123  0.89143800  1
  O2-  O387  1  0.55167286  0.56862115  0.21694599  1
  O2-  O388  1  0.58480278  0.58580520  0.54397588  1
  O2-  O389  1  0.57841553  0.57052088  0.88887198  1
  O2-  O390  1  0.93771636  0.07681010  0.21581362  1
  O2-  O391  1  0.90474558  0.07707194  0.53977513  1
  O2-  O392  1  0.91279239  0.07647214  0.88961022  1
  O2-  O393  1  0.90661474  0.58347537  0.20539830  1
  O2-  O394  1  0.91494238  0.57837200  0.56592923  1
  O2-  O395  1  0.94073034  0.58519857  0.88853934  1
  O2-  O396  1  0.10422402  0.41768933  0.10768065  1
  O2-  O397  1  0.09319992  0.42032266  0.44639520  1
  O2-  O398  1  0.06327878  0.41574873  0.78354370  1
  O2-  O399  1  0.07983837  0.91911798  0.10670346  1
  O2-  O400  1  0.10445420  0.92010907  0.43493678  1
  O2-  O401  1  0.09123438  0.92017057  0.78265845  1
  O2-  O402  1  0.39628168  0.41408423  0.10677994  1
  O2-  O403  1  0.40789489  0.42238505  0.44368450  1
  O2-  O404  1  0.41775835  0.41954670  0.79233668  1
  O2-  O405  1  0.41415200  0.91695505  0.11308908  1
  O2-  O406  1  0.39832912  0.91716293  0.44714399  1
  O2-  O407  1  0.42664456  0.92109961  0.78440832  1
  O2-  O408  1  0.75626620  0.42003112  0.11512516  1
  O2-  O409  1  0.74655754  0.41688241  0.44106835  1
  O2-  O410  1  0.76904882  0.42092184  0.78764698  1
  O2-  O411  1  0.75601489  0.92548506  0.12611117  1
  O2-  O412  1  0.76698970  0.92008839  0.43984529  1
  O2-  O413  1  0.74005330  0.91951162  0.78014150  1
  O2-  O414  1  0.24987672  0.42543689  0.21033619  1
  O2-  O415  1  0.24213821  0.41571054  0.55953050  1
  O2-  O416  1  0.25944270  0.41659826  0.91368285  1
  O2-  O417  1  0.25964960  0.92084370  0.22179658  1
  O2-  O418  1  0.25651074  0.91724158  0.56651911  1
  O2-  O419  1  0.26159998  0.92085644  0.86950783  1
  O2-  O420  1  0.58020568  0.42365400  0.21938452  1
  O2-  O421  1  0.58037468  0.41354827  0.57235505  1
  O2-  O422  1  0.58688908  0.42229120  0.87477214  1
  O2-  O423  1  0.59491371  0.91872095  0.22314419  1
  O2-  O424  1  0.58590697  0.91543075  0.55458640  1
  O2-  O425  1  0.57768432  0.91731294  0.88153049  1
  O2-  O426  1  0.91851654  0.42442897  0.20890224  1
  O2-  O427  1  0.92861733  0.41478634  0.57662667  1
  O2-  O428  1  0.91110269  0.42049591  0.88185529  1
  O2-  O429  1  0.90446667  0.91760411  0.21374267  1
  O2-  O430  1  0.90428155  0.92189108  0.55014674  1
  O2-  O431  1  0.92603620  0.91705398  0.89740418  1
  O2-  O432  1  0.01286968  -0.00204000  -0.03102452  1
  O2-  O433  1  0.00603401  -0.00965006  0.30544210  1
  O2-  O434  1  0.00830499  0.02335853  0.66000307  1
  O2-  O435  1  0.01351818  0.49288415  -0.01618790  1
  O2-  O436  1  -0.00204580  0.49184375  0.34086678  1
  O2-  O437  1  0.00513256  0.50560991  0.66364866  1
  O2-  O438  1  0.32169377  0.00920483  0.01295138  1
  O2-  O439  1  0.30351536  -0.00522438  0.37232033  1
  O2-  O440  1  0.32398489  -0.01012043  0.68554273  1
  O2-  O441  1  0.33284729  0.49767256  -0.00416540  1
  O2-  O442  1  0.35659301  0.49790810  0.30397968  1
  O2-  O443  1  0.32737107  0.51006173  0.66346957  1
  O2-  O444  1  0.65707872  -0.01348094  0.00342509  1
  O2-  O445  1  0.69277161  -0.00290524  0.27719967  1
  O2-  O446  1  0.68721615  -0.00639663  0.63844726  1
  O2-  O447  1  0.67209022  0.49261363  -0.00879140  1
  O2-  O448  1  0.66344801  0.51895241  0.33683314  1
  O2-  O449  1  0.66381146  0.49416693  0.67486201  1
  O2-  O450  1  0.16397622  -0.01123956  -0.02304256  1
  O2-  O451  1  0.15597103  -0.00076885  0.29542579  1
  O2-  O452  1  0.16929511  0.01152765  0.68534562  1
  O2-  O453  1  0.16866230  0.50172228  -0.00110339  1
  O2-  O454  1  0.15499224  0.48915170  0.31880658  1
  O2-  O455  1  0.17026762  0.51700448  0.66575480  1
  O2-  O456  1  0.47601559  -0.00184481  -0.02567152  1
  O2-  O457  1  0.46272783  -0.00661408  0.29008935  1
  O2-  O458  1  0.49707654  -0.01143474  0.65110066  1
  O2-  O459  1  0.49931663  0.48449158  -0.00753884  1
  O2-  O460  1  0.50640679  0.50082445  0.34352640  1
  O2-  O461  1  0.49467760  0.50784258  0.66455262  1
  O2-  O462  1  0.82920572  -0.02044166  0.00001702  1
  O2-  O463  1  0.84236722  -0.01972260  0.33060244  1
  O2-  O464  1  0.85011266  0.01685546  0.68939425  1
  O2-  O465  1  0.84489380  0.49295123  0.01511148  1
  O2-  O466  1  0.83042519  0.50964857  0.33726709  1
  O2-  O467  1  0.84323805  0.49968686  0.67661792  1
  O2-  O468  1  0.92731412  0.24776275  0.27624396  1
  O2-  O469  1  0.09004534  0.75534201  0.06831597  1
  O2-  O470  1  0.58603898  0.24644893  0.60433386  1
  O2-  O471  1  0.74227983  0.24120714  0.71657914  1
  O2-  O472  1  0.93607074  0.74992487  0.28709728  1
  O2-  O473  1  0.57357527  0.74971264  0.61376843  1
  O2-  O474  1  0.25278998  0.24821808  0.61120033  1
  O2-  O475  1  0.24650791  0.75343369  0.94377732  1
  O2-  O476  1  0.58733555  0.24769170  0.94741295  1
  O2-  O477  1  0.58703938  0.25451937  0.26759574  1
  O2-  O478  1  0.42865581  0.75014876  0.39236072  1
  O2-  O479  1  0.42541766  0.24834263  0.71889692  1
  O2-  O480  1  0.73129554  0.25393866  0.06548098  1
  O2-  O481  1  0.41356826  0.75261051  0.05913142  1
  O2-  O482  1  0.58232783  0.75663781  0.94112735  1
  O2-  O483  1  0.41955866  0.25627653  0.40559849  1
  O2-  O484  1  0.74453881  0.75225278  0.71946891  1
  O2-  O485  1  0.90943550  0.24396755  0.61184265  1
  O2-  O486  1  0.09044096  0.75428836  0.72415955  1
  O2-  O487  1  0.91694711  0.75691125  0.59192655  1
  O2-  O488  1  0.07730217  0.25120525  0.06131531  1
  O2-  O489  1  0.57355812  0.75268487  0.26540211  1
  O2-  O490  1  0.08455694  0.25007779  0.73103338  1
  O2-  O491  1  0.07046123  0.24205088  0.38272457  1
  O2-  O492  1  0.75484707  0.25177855  0.39513229  1
