# generated using pymatgen
data_Ca108Mn108O277
_symmetry_space_group_name_H-M   'P 1'
_cell_length_a   16.02653219
_cell_length_b   22.30593403
_cell_length_c   16.38920464
_cell_angle_alpha   89.99791200
_cell_angle_beta   89.99746020
_cell_angle_gamma   90.00394732
_symmetry_Int_Tables_number   1
_chemical_formula_structural   Ca108Mn108O277
_chemical_formula_sum   'Ca108 Mn108 O277'
_cell_volume   5858.92380269
_cell_formula_units_Z   1
loop_
 _symmetry_equiv_pos_site_id
 _symmetry_equiv_pos_as_xyz
  1  'x, y, z'
loop_
 _atom_type_symbol
 _atom_type_oxidation_number
  Ca2+  2.0
  Mn3.34+  3.34
  O2-  -2.0
loop_
 _atom_site_type_symbol
 _atom_site_label
 _atom_site_symmetry_multiplicity
 _atom_site_fract_x
 _atom_site_fract_y
 _atom_site_fract_z
 _atom_site_occupancy
  Ca2+  Ca0  1  0.09022087  0.26863768  0.24735178  1
  Ca2+  Ca1  1  0.09050062  0.23277149  0.59095303  1
  Ca2+  Ca2  1  0.10656537  0.24802352  0.90120899  1
  Ca2+  Ca3  1  0.08164917  0.76355906  0.24928130  1
  Ca2+  Ca4  1  0.09547677  0.75638704  0.59039505  1
  Ca2+  Ca5  1  0.10919354  0.75736821  0.91097588  1
  Ca2+  Ca6  1  0.41879803  0.26471528  0.24118503  1
  Ca2+  Ca7  1  0.39336392  0.23170225  0.61183993  1
  Ca2+  Ca8  1  0.40885923  0.22144401  0.90590881  1
  Ca2+  Ca9  1  0.43124434  0.74369922  0.24612843  1
  Ca2+  Ca10  1  0.40395545  0.75840649  0.58974687  1
  Ca2+  Ca11  1  0.41037866  0.75068179  0.91395532  1
  Ca2+  Ca12  1  0.73791922  0.25868354  0.23662848  1
  Ca2+  Ca13  1  0.76103826  0.25428545  0.59592603  1
  Ca2+  Ca14  1  0.72680456  0.25135125  0.90954846  1
  Ca2+  Ca15  1  0.72812108  0.74686254  0.23313684  1
  Ca2+  Ca16  1  0.75735019  0.75797273  0.59036167  1
  Ca2+  Ca17  1  0.72114760  0.73848748  0.92548678  1
  Ca2+  Ca18  1  0.26802963  0.25693386  0.07038450  1
  Ca2+  Ca19  1  0.25212760  0.25249502  0.43482408  1
  Ca2+  Ca20  1  0.25222911  0.24013531  0.75242294  1
  Ca2+  Ca21  1  0.26634100  0.73806461  0.05648429  1
  Ca2+  Ca22  1  0.26123821  0.76210813  0.42226122  1
  Ca2+  Ca23  1  0.25734292  0.74712616  0.76277714  1
  Ca2+  Ca24  1  0.56484771  0.25218778  0.06210764  1
  Ca2+  Ca25  1  0.56907622  0.26406003  0.41056707  1
  Ca2+  Ca26  1  0.56874424  0.24177652  0.75974153  1
  Ca2+  Ca27  1  0.57623478  0.74175829  0.09035985  1
  Ca2+  Ca28  1  0.56210708  0.75101673  0.39909318  1
  Ca2+  Ca29  1  0.57453936  0.75659054  0.76090537  1
  Ca2+  Ca30  1  0.91115691  0.25752108  0.08539553  1
  Ca2+  Ca31  1  0.93185289  0.25104955  0.44238016  1
  Ca2+  Ca32  1  0.91092016  0.22097553  0.72898591  1
  Ca2+  Ca33  1  0.90299889  0.74927508  0.09501073  1
  Ca2+  Ca34  1  0.92992055  0.75041430  0.41753530  1
  Ca2+  Ca35  1  0.92535390  0.74690463  0.74224402  1
  Ca2+  Ca36  1  0.08588001  0.60042150  0.58257223  1
  Ca2+  Ca37  1  0.26874160  0.58606976  0.41883392  1
  Ca2+  Ca38  1  0.25691810  0.58702007  0.41899323  1
  Ca2+  Ca39  1  0.10182019  0.08730971  0.89757409  1
  Ca2+  Ca40  1  0.14176594  0.61210226  0.91259648  1
  Ca2+  Ca41  1  0.40847641  0.59890967  0.94945102  1
  Ca2+  Ca42  1  0.41905986  0.08167542  0.24151254  1
  Ca2+  Ca43  1  0.40129176  0.59422836  0.58371315  1
  Ca2+  Ca44  1  0.71088335  0.60354678  0.22471986  1
  Ca2+  Ca45  1  0.57975136  0.60248377  0.06603158  1
  Ca2+  Ca46  1  0.90716145  0.08243033  0.07212420  1
  Ca2+  Ca47  1  0.89625324  0.60793919  0.09135061  1
  Ca2+  Ca48  1  0.75422464  0.09533445  0.62670627  1
  Ca2+  Ca49  1  0.26218131  0.09083794  0.74205422  1
  Ca2+  Ca50  1  0.73704261  0.07991920  0.25628341  1
  Ca2+  Ca51  1  0.76312505  0.58336006  0.60906983  1
  Ca2+  Ca52  1  0.58053384  0.07289917  0.41385919  1
  Ca2+  Ca53  1  0.09833889  0.09319711  0.59903503  1
  Ca2+  Ca54  1  0.27816108  0.08384653  0.04947199  1
  Ca2+  Ca55  1  0.72015278  0.60654520  0.22212260  1
  Ca2+  Ca56  1  0.93233269  0.59298676  0.41254114  1
  Ca2+  Ca57  1  0.25187430  0.09028576  0.74209300  1
  Ca2+  Ca58  1  0.58784588  0.60608391  0.79731647  1
  Ca2+  Ca59  1  0.26812812  0.08534732  0.04705096  1
  Ca2+  Ca60  1  0.24648865  0.08710813  0.45287949  1
  Ca2+  Ca61  1  0.45551902  0.58847792  0.22372479  1
  Ca2+  Ca62  1  0.77489818  0.58303623  0.60793770  1
  Ca2+  Ca63  1  0.92428031  0.09959648  0.43577876  1
  Ca2+  Ca64  1  0.76347802  0.09732338  0.62267713  1
  Ca2+  Ca65  1  0.93698565  0.09978377  0.43565127  1
  Ca2+  Ca66  1  0.56858232  0.58166563  0.37849581  1
  Ca2+  Ca67  1  0.08003342  0.59714127  0.25358494  1
  Ca2+  Ca68  1  0.56739928  0.09413412  0.06309158  1
  Ca2+  Ca69  1  0.11383108  0.08783600  0.89517942  1
  Ca2+  Ca70  1  0.71480898  0.11092630  0.87566598  1
  Ca2+  Ca71  1  0.41849242  0.59810241  0.94880751  1
  Ca2+  Ca72  1  0.74159693  0.90499836  0.24602969  1
  Ca2+  Ca73  1  0.59194992  0.39732324  0.75689366  1
  Ca2+  Ca74  1  0.25399386  0.89799130  0.07687088  1
  Ca2+  Ca75  1  0.08638582  0.39875906  0.91909223  1
  Ca2+  Ca76  1  0.92169181  0.40903989  0.41244053  1
  Ca2+  Ca77  1  0.55242414  0.42596026  0.38470258  1
  Ca2+  Ca78  1  0.55658662  0.42981617  0.08858622  1
  Ca2+  Ca79  1  0.24722581  0.40228387  0.75326048  1
  Ca2+  Ca80  1  0.90697092  0.40595735  0.08753824  1
  Ca2+  Ca81  1  0.07786398  0.40570347  0.57764792  1
  Ca2+  Ca82  1  0.71957755  0.41348640  0.91866500  1
  Ca2+  Ca83  1  0.27449885  0.41589752  0.40299441  1
  Ca2+  Ca84  1  0.72340183  0.91496334  0.58584423  1
  Ca2+  Ca85  1  0.91924536  0.90294142  0.75536927  1
  Ca2+  Ca86  1  0.40157439  0.91370681  0.58384080  1
  Ca2+  Ca87  1  0.39925744  0.91025261  0.25277149  1
  Ca2+  Ca88  1  0.91983154  0.40571171  0.08751287  1
  Ca2+  Ca89  1  0.12472684  0.93130481  0.60870149  1
  Ca2+  Ca90  1  0.73754128  0.41823679  0.25901023  1
  Ca2+  Ca91  1  0.57081713  0.90863746  0.41290239  1
  Ca2+  Ca92  1  0.91789381  0.90632278  0.41177303  1
  Ca2+  Ca93  1  0.72611301  0.42128169  0.25609480  1
  Ca2+  Ca94  1  0.26520725  0.89836587  0.07716200  1
  Ca2+  Ca95  1  0.27908517  0.41439424  0.08772998  1
  Ca2+  Ca96  1  0.09065639  0.40511989  0.57717131  1
  Ca2+  Ca97  1  0.43659568  0.42050511  0.93686425  1
  Ca2+  Ca98  1  0.93051045  0.90702499  0.41230458  1
  Ca2+  Ca99  1  0.93183597  0.90165274  0.75699384  1
  Ca2+  Ca100  1  0.90159012  0.39608836  0.74994521  1
  Ca2+  Ca101  1  0.90923399  0.40705105  0.41406162  1
  Ca2+  Ca102  1  0.75409500  0.90694775  0.24763477  1
  Ca2+  Ca103  1  0.41917427  0.39870238  0.57317758  1
  Ca2+  Ca104  1  0.73682347  0.89677971  0.91633857  1
  Ca2+  Ca105  1  0.25964735  0.40281566  0.75466880  1
  Ca2+  Ca106  1  0.91344306  0.89286426  0.08437614  1
  Ca2+  Ca107  1  0.73466222  0.91168285  0.58891134  1
  Mn3.34+  Mn108  1  0.09053280  0.33539782  0.08466809  1
  Mn3.34+  Mn109  1  0.08816055  0.33081422  0.41630707  1
  Mn3.34+  Mn110  1  0.07833964  0.32990308  0.75285009  1
  Mn3.34+  Mn111  1  0.08433745  0.82521948  0.08060537  1
  Mn3.34+  Mn112  1  0.09737002  0.84378603  0.42022130  1
  Mn3.34+  Mn113  1  0.09308996  0.83833410  0.75401871  1
  Mn3.34+  Mn114  1  0.41985161  0.33870982  0.08403186  1
  Mn3.34+  Mn115  1  0.41663895  0.33690724  0.41539108  1
  Mn3.34+  Mn116  1  0.42020841  0.33119977  0.75173909  1
  Mn3.34+  Mn117  1  0.42716432  0.83407795  0.07940958  1
  Mn3.34+  Mn118  1  0.41185293  0.83525747  0.41608896  1
  Mn3.34+  Mn119  1  0.41679409  0.83621731  0.75268932  1
  Mn3.34+  Mn120  1  0.74163689  0.33795507  0.08062989  1
  Mn3.34+  Mn121  1  0.74422880  0.33356002  0.42296489  1
  Mn3.34+  Mn122  1  0.74833121  0.33080523  0.75219661  1
  Mn3.34+  Mn123  1  0.74113666  0.83170056  0.07917792  1
  Mn3.34+  Mn124  1  0.74759550  0.82966513  0.41964483  1
  Mn3.34+  Mn125  1  0.74284997  0.83181045  0.75636243  1
  Mn3.34+  Mn126  1  0.25385099  0.33594506  0.24873588  1
  Mn3.34+  Mn127  1  0.25121083  0.33103483  0.58036690  1
  Mn3.34+  Mn128  1  0.25590545  0.33250019  0.91850704  1
  Mn3.34+  Mn129  1  0.24935711  0.83478257  0.24802490  1
  Mn3.34+  Mn130  1  0.25132305  0.83994031  0.58494587  1
  Mn3.34+  Mn131  1  0.25647902  0.83941833  0.90807216  1
  Mn3.34+  Mn132  1  0.57729580  0.33657225  0.24526077  1
  Mn3.34+  Mn133  1  0.58438042  0.32898332  0.58169119  1
  Mn3.34+  Mn134  1  0.57729075  0.33436392  0.91482657  1
  Mn3.34+  Mn135  1  0.57694977  0.83162025  0.24545499  1
  Mn3.34+  Mn136  1  0.57466664  0.83632222  0.58236784  1
  Mn3.34+  Mn137  1  0.56859418  0.84198698  0.92033405  1
  Mn3.34+  Mn138  1  0.91653469  0.33337802  0.24912101  1
  Mn3.34+  Mn139  1  0.91460715  0.33004358  0.58572170  1
  Mn3.34+  Mn140  1  0.91215587  0.32794126  0.91211555  1
  Mn3.34+  Mn141  1  0.91895962  0.82962027  0.24668262  1
  Mn3.34+  Mn142  1  0.92158741  0.83210659  0.57819861  1
  Mn3.34+  Mn143  1  0.91830744  0.82349314  0.91673345  1
  Mn3.34+  Mn144  1  0.24002173  0.15539816  0.24693317  1
  Mn3.34+  Mn145  1  0.25946920  0.66829024  0.23936970  1
  Mn3.34+  Mn146  1  0.57035474  0.16281497  0.59109222  1
  Mn3.34+  Mn147  1  0.41927241  0.15730298  0.42193605  1
  Mn3.34+  Mn148  1  0.25168441  0.67155121  0.58724946  1
  Mn3.34+  Mn149  1  0.74211543  0.15983511  0.08031032  1
  Mn3.34+  Mn150  1  0.91621685  0.16382234  0.24851860  1
  Mn3.34+  Mn151  1  0.08727825  0.67195369  0.74913300  1
  Mn3.34+  Mn152  1  0.24846358  0.66420142  0.23753897  1
  Mn3.34+  Mn153  1  0.92216163  0.67775238  0.91717435  1
  Mn3.34+  Mn154  1  0.08176065  0.16462399  0.74662800  1
  Mn3.34+  Mn155  1  0.57619874  0.16664724  0.24695491  1
  Mn3.34+  Mn156  1  0.58628260  0.67184106  0.58544340  1
  Mn3.34+  Mn157  1  0.75236516  0.16489172  0.07862618  1
  Mn3.34+  Mn158  1  0.74674533  0.67320348  0.41818223  1
  Mn3.34+  Mn159  1  0.41650413  0.66552101  0.41502900  1
  Mn3.34+  Mn160  1  0.91766540  0.67004560  0.25025290  1
  Mn3.34+  Mn161  1  0.75007426  0.67204367  0.75579247  1
  Mn3.34+  Mn162  1  0.90873783  0.67163091  0.91597428  1
  Mn3.34+  Mn163  1  0.58163448  0.15947203  0.59031925  1
  Mn3.34+  Mn164  1  0.07994474  0.67304390  0.08525506  1
  Mn3.34+  Mn165  1  0.07439474  0.16335196  0.08011186  1
  Mn3.34+  Mn166  1  0.92756393  0.15937379  0.24649048  1
  Mn3.34+  Mn167  1  0.57384709  0.66466323  0.58296994  1
  Mn3.34+  Mn168  1  0.08847066  0.16934299  0.07906382  1
  Mn3.34+  Mn169  1  0.74617452  0.17610415  0.41623714  1
  Mn3.34+  Mn170  1  0.08897209  0.67124275  0.41757986  1
  Mn3.34+  Mn171  1  0.73725067  0.17032345  0.41900979  1
  Mn3.34+  Mn172  1  0.25330411  0.16164679  0.24752650  1
  Mn3.34+  Mn173  1  0.41888174  0.16981507  0.08116695  1
  Mn3.34+  Mn174  1  0.41530248  0.67099579  0.75736066  1
  Mn3.34+  Mn175  1  0.75499664  0.66688465  0.42069455  1
  Mn3.34+  Mn176  1  0.40962822  0.16271663  0.41961165  1
  Mn3.34+  Mn177  1  0.91411156  0.17094944  0.90533722  1
  Mn3.34+  Mn178  1  0.92259478  0.67056161  0.58445510  1
  Mn3.34+  Mn179  1  0.09256094  0.16394346  0.42092443  1
  Mn3.34+  Mn180  1  0.59355010  0.49422249  0.57879936  1
  Mn3.34+  Mn181  1  0.43551094  0.00322665  0.74341576  1
  Mn3.34+  Mn182  1  0.41402536  0.50702265  0.75424965  1
  Mn3.34+  Mn183  1  0.09294382  0.00046597  0.39860487  1
  Mn3.34+  Mn184  1  0.91672733  0.50009413  0.58078885  1
  Mn3.34+  Mn185  1  0.25947758  0.50146377  0.25524265  1
  Mn3.34+  Mn186  1  0.92450751  0.00034938  0.59303000  1
  Mn3.34+  Mn187  1  0.92052245  -0.00188184  0.91518438  1
  Mn3.34+  Mn188  1  0.92304054  0.49967375  0.90574225  1
  Mn3.34+  Mn189  1  0.73382675  -0.00408241  0.07108775  1
  Mn3.34+  Mn190  1  0.92349733  0.50388798  0.25384970  1
  Mn3.34+  Mn191  1  0.74996874  0.00078286  0.41477634  1
  Mn3.34+  Mn192  1  0.57646406  -0.00153911  0.24653513  1
  Mn3.34+  Mn193  1  0.25671444  0.50193572  0.92113787  1
  Mn3.34+  Mn194  1  0.07781780  -0.00327999  0.09734132  1
  Mn3.34+  Mn195  1  0.72944924  -0.00525724  0.75388240  1
  Mn3.34+  Mn196  1  0.25161656  0.49815173  0.58267695  1
  Mn3.34+  Mn197  1  0.08708919  0.50840473  0.75352573  1
  Mn3.34+  Mn198  1  0.08875510  0.00121376  0.10061485  1
  Mn3.34+  Mn199  1  0.75278002  0.50299061  0.75749735  1
  Mn3.34+  Mn200  1  0.93707803  -0.00014608  0.59443392  1
  Mn3.34+  Mn201  1  0.09524262  0.50001675  0.08624626  1
  Mn3.34+  Mn202  1  0.08229526  0.50677690  0.08568946  1
  Mn3.34+  Mn203  1  0.42633095  -0.00240906  0.74461401  1
  Mn3.34+  Mn204  1  0.93275375  -0.00395336  0.25440348  1
  Mn3.34+  Mn205  1  0.42714273  0.50030393  0.75534450  1
  Mn3.34+  Mn206  1  0.74220467  0.50114541  0.06610633  1
  Mn3.34+  Mn207  1  0.42327995  -0.00616026  0.06511573  1
  Mn3.34+  Mn208  1  0.40350828  -0.00443331  0.40155699  1
  Mn3.34+  Mn209  1  0.74737366  0.50263722  0.41810672  1
  Mn3.34+  Mn210  1  0.07295718  0.50247101  0.75360085  1
  Mn3.34+  Mn211  1  0.58406223  -0.00072168  0.92089979  1
  Mn3.34+  Mn212  1  0.90633539  0.00431418  0.91606679  1
  Mn3.34+  Mn213  1  0.58026472  0.50067313  0.57674493  1
  Mn3.34+  Mn214  1  0.90876430  0.50528225  0.90772367  1
  Mn3.34+  Mn215  1  0.08502583  0.50138000  0.41325322  1
  O2-  O216  1  0.00067049  0.16379649  -0.00962953  1
  O2-  O217  1  0.00096285  0.16267588  0.34204710  1
  O2-  O218  1  0.00722971  0.15744146  0.66579702  1
  O2-  O219  1  -0.00826223  0.66349542  0.00701908  1
  O2-  O220  1  0.00633880  0.66546352  0.33390576  1
  O2-  O221  1  0.00199005  0.65690383  0.66338991  1
  O2-  O222  1  0.33434620  0.16529572  0.00464410  1
  O2-  O223  1  0.33198789  0.13911682  0.33309621  1
  O2-  O224  1  0.32490560  0.16451742  0.68216972  1
  O2-  O225  1  0.36042118  0.68041097  0.00087233  1
  O2-  O226  1  0.32841020  0.64930289  0.33393986  1
  O2-  O227  1  0.33889262  0.65952450  0.66076203  1
  O2-  O228  1  0.66596955  0.15501894  -0.00328197  1
  O2-  O229  1  0.66047200  0.15337208  0.33347310  1
  O2-  O230  1  0.66142418  0.16603873  0.66949129  1
  O2-  O231  1  0.64284087  0.67907541  0.00069327  1
  O2-  O232  1  0.66782592  0.66011273  0.33376065  1
  O2-  O233  1  0.67274993  0.65090172  0.65807533  1
  O2-  O234  1  0.16625515  0.14513717  -0.00048981  1
  O2-  O235  1  0.16857167  0.16821355  0.33500495  1
  O2-  O236  1  0.16885715  0.16067003  0.67468860  1
  O2-  O237  1  0.15631862  0.68205168  0.00554697  1
  O2-  O238  1  0.17271619  0.65218138  0.33045590  1
  O2-  O239  1  0.16261985  0.65975591  0.65959222  1
  O2-  O240  1  0.49858667  0.16604032  0.00718823  1
  O2-  O241  1  0.49645149  0.14310669  0.33895357  1
  O2-  O242  1  0.49230315  0.15579623  0.66789260  1
  O2-  O243  1  0.50159528  0.67683205  -0.00086376  1
  O2-  O244  1  0.49111755  0.65751805  0.33373884  1
  O2-  O245  1  0.50380750  0.64495833  0.67091901  1
  O2-  O246  1  0.84268198  0.16046967  0.00319753  1
  O2-  O247  1  0.82821665  0.14792181  0.33303504  1
  O2-  O248  1  0.81727052  0.17660206  0.65781189  1
  O2-  O249  1  0.83322152  0.68653837  0.00098124  1
  O2-  O250  1  0.83753220  0.64992736  0.33832067  1
  O2-  O251  1  0.83357781  0.65911320  0.66318870  1
  O2-  O252  1  -0.00761500  0.34277138  0.00211743  1
  O2-  O253  1  -0.00641320  0.33271453  0.34353198  1
  O2-  O254  1  -0.00080469  0.35374058  0.66702140  1
  O2-  O255  1  -0.00236862  0.80415613  0.00043755  1
  O2-  O256  1  0.00187286  0.84004185  0.34042862  1
  O2-  O257  1  -0.00490642  0.84549405  0.66528901  1
  O2-  O258  1  0.33727752  0.34754352  -0.00215018  1
  O2-  O259  1  0.33115014  0.33852826  0.33590639  1
  O2-  O260  1  0.33344025  0.35080148  0.66520987  1
  O2-  O261  1  0.33900369  0.83049096  0.00356823  1
  O2-  O262  1  0.33221523  0.84438842  0.33147097  1
  O2-  O263  1  0.33773386  0.84210959  0.66364591  1
  O2-  O264  1  0.66424888  0.34008972  -0.00343622  1
  O2-  O265  1  0.66506910  0.34393300  0.33448812  1
  O2-  O266  1  0.66438507  0.32283143  0.67185020  1
  O2-  O267  1  0.66361411  0.82525169  -0.00523417  1
  O2-  O268  1  0.66859783  0.83961517  0.33330618  1
  O2-  O269  1  0.66710738  0.84483601  0.66513120  1
  O2-  O270  1  0.17245323  0.35019559  0.00171942  1
  O2-  O271  1  0.16915075  0.32662828  0.33772795  1
  O2-  O272  1  0.16612825  0.35337714  0.66790341  1
  O2-  O273  1  0.17275265  0.82778431  0.00661575  1
  O2-  O274  1  0.16554199  0.82105425  0.33482597  1
  O2-  O275  1  0.16119556  0.84235699  0.66111329  1
  O2-  O276  1  0.50582444  0.34619263  0.00424318  1
  O2-  O277  1  0.49826172  0.34063769  0.33067566  1
  O2-  O278  1  0.49979582  0.35261368  0.66873349  1
  O2-  O279  1  0.50131739  0.80650067  0.00095509  1
  O2-  O280  1  0.49779224  0.84716806  0.33052850  1
  O2-  O281  1  0.49224159  0.84704951  0.65693274  1
  O2-  O282  1  0.83311957  0.34678717  0.00088308  1
  O2-  O283  1  0.82487338  0.34591530  0.32762141  1
  O2-  O284  1  0.83300778  0.33114020  0.66854811  1
  O2-  O285  1  0.83182712  0.82753569  0.00074334  1
  O2-  O286  1  0.83043319  0.84793752  0.33565870  1
  O2-  O287  1  0.83053290  0.85524898  0.65760663  1
  O2-  O288  1  -0.00699494  0.18906767  0.15333722  1
  O2-  O289  1  0.00469553  0.17451606  0.49398397  1
  O2-  O290  1  0.00432348  0.18230087  0.83524948  1
  O2-  O291  1  -0.00543435  0.68754035  0.16568333  1
  O2-  O292  1  0.00287428  0.68295033  0.49852723  1
  O2-  O293  1  0.00063593  0.68680604  0.83771346  1
  O2-  O294  1  0.32995815  0.17296140  0.16302252  1
  O2-  O295  1  0.33203672  0.17446473  0.49939426  1
  O2-  O296  1  0.32287282  0.16929267  0.81873814  1
  O2-  O297  1  0.34440922  0.67769862  0.16775386  1
  O2-  O298  1  0.32894741  0.67635118  0.49682596  1
  O2-  O299  1  0.33934305  0.67784554  0.83208312  1
  O2-  O300  1  0.66804066  0.17798798  0.16754837  1
  O2-  O301  1  0.66730118  0.18798447  0.51055072  1
  O2-  O302  1  0.66227813  0.19104830  0.82562582  1
  O2-  O303  1  0.67010141  0.67914361  0.15455404  1
  O2-  O304  1  0.66335272  0.69033807  0.49773517  1
  O2-  O305  1  0.66437497  0.68542074  0.82372202  1
  O2-  O306  1  0.15771736  0.18230041  0.16805416  1
  O2-  O307  1  0.16878640  0.17699482  0.49653874  1
  O2-  O308  1  0.16220882  0.17081523  0.83440580  1
  O2-  O309  1  0.15719469  0.68840163  0.17233818  1
  O2-  O310  1  0.17145949  0.68233722  0.49441853  1
  O2-  O311  1  0.16368642  0.68409075  0.82583416  1
  O2-  O312  1  0.49087013  0.17741311  0.17345600  1
  O2-  O313  1  0.51305015  0.17083337  0.49193969  1
  O2-  O314  1  0.51369601  0.16936303  0.84120515  1
  O2-  O315  1  0.49892679  0.67317508  0.15966689  1
  O2-  O316  1  0.49759486  0.67950133  0.50065186  1
  O2-  O317  1  0.49882563  0.68346353  0.83072609  1
  O2-  O318  1  0.82972540  0.17691849  0.16337777  1
  O2-  O319  1  0.83960098  0.18311373  0.48413974  1
  O2-  O320  1  0.82721525  0.19014591  0.84456240  1
  O2-  O321  1  0.82817413  0.67322743  0.18040459  1
  O2-  O322  1  0.83546775  0.68851903  0.50010446  1
  O2-  O323  1  0.83517747  0.69324066  0.83481167  1
  O2-  O324  1  -0.00392629  0.32302575  0.16109902  1
  O2-  O325  1  0.00608635  0.32566514  0.50265075  1
  O2-  O326  1  0.00347591  0.31788413  0.84051936  1
  O2-  O327  1  -0.00386064  0.81566353  0.15826346  1
  O2-  O328  1  0.00127377  0.81852505  0.49459304  1
  O2-  O329  1  -0.00353733  0.81880656  0.82931844  1
  O2-  O330  1  0.33321604  0.32631052  0.16127711  1
  O2-  O331  1  0.33300744  0.32520135  0.49917316  1
  O2-  O332  1  0.32517163  0.32723780  0.82385762  1
  O2-  O333  1  0.33100087  0.81855908  0.15934102  1
  O2-  O334  1  0.33933205  0.82351219  0.50375862  1
  O2-  O335  1  0.33544064  0.82380985  0.82953128  1
  O2-  O336  1  0.67185252  0.33104063  0.17361066  1
  O2-  O337  1  0.66903249  0.30436245  0.49799706  1
  O2-  O338  1  0.66514236  0.32546117  0.83347392  1
  O2-  O339  1  0.66693143  0.82325566  0.16828673  1
  O2-  O340  1  0.67183092  0.81601295  0.50414562  1
  O2-  O341  1  0.66787933  0.81696433  0.83894555  1
  O2-  O342  1  0.17270351  0.32177614  0.16369354  1
  O2-  O343  1  0.15894451  0.31703836  0.50780531  1
  O2-  O344  1  0.17001065  0.32812733  0.83052289  1
  O2-  O345  1  0.16848987  0.81738142  0.16305838  1
  O2-  O346  1  0.16855885  0.81814902  0.50177513  1
  O2-  O347  1  0.17206024  0.82610366  0.83029083  1
  O2-  O348  1  0.50631163  0.32291809  0.15975616  1
  O2-  O349  1  0.49913274  0.32550931  0.49667177  1
  O2-  O350  1  0.50070430  0.32958122  0.82949448  1
  O2-  O351  1  0.49520067  0.81905345  0.16856754  1
  O2-  O352  1  0.50429591  0.82074558  0.49213428  1
  O2-  O353  1  0.49765188  0.81869598  0.83669724  1
  O2-  O354  1  0.83348451  0.32761472  0.16033663  1
  O2-  O355  1  0.84069926  0.32068719  0.49107319  1
  O2-  O356  1  0.83188331  0.31221845  0.83208997  1
  O2-  O357  1  0.82262294  0.81527034  0.16632043  1
  O2-  O358  1  0.84019961  0.81643586  0.49130547  1
  O2-  O359  1  0.84029608  0.82192104  0.82463178  1
  O2-  O360  1  0.06574509  0.08253609  0.12743595  1
  O2-  O361  1  0.07066481  0.07462126  0.45645770  1
  O2-  O362  1  0.09637285  0.08141067  0.76515437  1
  O2-  O363  1  0.08157292  0.58537295  0.11608942  1
  O2-  O364  1  0.08562117  0.58148125  0.44565792  1
  O2-  O365  1  0.08077559  0.58777551  0.78392892  1
  O2-  O366  1  0.41234393  0.07840265  0.09944791  1
  O2-  O367  1  0.41490038  0.07311054  0.45186136  1
  O2-  O368  1  0.40017381  0.07320775  0.78647630  1
  O2-  O369  1  0.43981821  0.57535382  0.08578904  1
  O2-  O370  1  0.40447423  0.58425495  0.44914012  1
  O2-  O371  1  0.42493721  0.58599291  0.78032734  1
  O2-  O372  1  0.75402639  0.07746406  0.11776042  1
  O2-  O373  1  0.75016838  0.08377024  0.44978904  1
  O2-  O374  1  0.74834161  0.07567996  0.75713444  1
  O2-  O375  1  0.76788810  0.57446206  0.10461678  1
  O2-  O376  1  0.75326246  0.58216749  0.46439656  1
  O2-  O377  1  0.74460762  0.58656274  0.76649973  1
  O2-  O378  1  0.25076118  0.07978133  0.19640548  1
  O2-  O379  1  0.23678942  0.06880721  0.58147515  1
  O2-  O380  1  0.23595164  0.06385637  0.87763243  1
  O2-  O381  1  0.24287817  0.58136819  0.21335392  1
  O2-  O382  1  0.24635348  0.58272770  0.55511328  1
  O2-  O383  1  0.27332615  0.57978467  0.89946148  1
  O2-  O384  1  0.57906600  0.07974569  0.21440353  1
  O2-  O385  1  0.60947051  0.08342986  0.55407843  1
  O2-  O386  1  0.58037973  0.06801031  0.87782572  1
  O2-  O387  1  0.59443280  0.56994803  0.21269520  1
  O2-  O388  1  0.59635736  0.58082429  0.54037005  1
  O2-  O389  1  0.53668301  0.56804295  0.90530988  1
  O2-  O390  1  0.91224736  0.07622759  0.20970226  1
  O2-  O391  1  0.88625148  0.07673861  0.55835478  1
  O2-  O392  1  0.92213184  0.08398302  0.89107570  1
  O2-  O393  1  0.93571022  0.58687017  0.22543136  1
  O2-  O394  1  0.90653575  0.58516746  0.55055630  1
  O2-  O395  1  0.91898252  0.58670076  0.90237327  1
  O2-  O396  1  0.06482337  0.42037337  0.10822379  1
  O2-  O397  1  0.07234386  0.42062886  0.44270399  1
  O2-  O398  1  0.08537032  0.42099440  0.78610139  1
  O2-  O399  1  0.07459247  0.91390621  0.09200182  1
  O2-  O400  1  0.06446985  0.92752774  0.45479415  1
  O2-  O401  1  0.06616139  0.91598297  0.77077964  1
  O2-  O402  1  0.41796391  0.41910377  0.09422557  1
  O2-  O403  1  0.41517870  0.41746875  0.43868719  1
  O2-  O404  1  0.40080221  0.42086950  0.78596345  1
  O2-  O405  1  0.40731589  0.91810887  0.11233319  1
  O2-  O406  1  0.42416033  0.92105231  0.44417039  1
  O2-  O407  1  0.42552126  0.92023658  0.77400737  1
  O2-  O408  1  0.76820950  0.42936375  0.12417805  1
  O2-  O409  1  0.76974814  0.42150585  0.43669281  1
  O2-  O410  1  0.75712939  0.42152466  0.78330990  1
  O2-  O411  1  0.76477649  0.91881916  0.11457419  1
  O2-  O412  1  0.76602085  0.91930846  0.45326033  1
  O2-  O413  1  0.75941949  0.91548268  0.78298729  1
  O2-  O414  1  0.24929167  0.42286145  0.22768692  1
  O2-  O415  1  0.22865903  0.41843701  0.54099376  1
  O2-  O416  1  0.24136025  0.42291793  0.88491772  1
  O2-  O417  1  0.25326220  0.91377351  0.21458845  1
  O2-  O418  1  0.25583204  0.91693017  0.56234369  1
  O2-  O419  1  0.24932316  0.91561305  0.93824911  1
  O2-  O420  1  0.59329581  0.41953495  0.22811522  1
  O2-  O421  1  0.58761495  0.41470466  0.54945073  1
  O2-  O422  1  0.58005465  0.41787527  0.89008442  1
  O2-  O423  1  0.60136443  0.91744734  0.23136137  1
  O2-  O424  1  0.59423511  0.91603001  0.54693319  1
  O2-  O425  1  0.59677573  0.92428572  0.88700501  1
  O2-  O426  1  0.91299533  0.42020335  0.22235746  1
  O2-  O427  1  0.93266192  0.41816775  0.54610403  1
  O2-  O428  1  0.91854055  0.41863757  0.88275776  1
  O2-  O429  1  0.90489136  0.91362644  0.22109576  1
  O2-  O430  1  0.91235939  0.91971686  0.54516632  1
  O2-  O431  1  0.90907186  0.91574714  0.89530934  1
  O2-  O432  1  0.00053973  0.01011396  0.00452482  1
  O2-  O433  1  -0.02440573  0.00357201  0.37251344  1
  O2-  O434  1  0.01977695  -0.01103668  0.66547989  1
  O2-  O435  1  -0.00184844  0.49332142  0.00101892  1
  O2-  O436  1  -0.02494781  0.49919241  0.36853453  1
  O2-  O437  1  0.01392353  0.49459381  0.65143357  1
  O2-  O438  1  0.30922841  -0.00871993  0.04619213  1
  O2-  O439  1  0.35093853  0.00562736  0.31071518  1
  O2-  O440  1  0.32853307  -0.00273965  0.68997927  1
  O2-  O441  1  0.34724001  0.49412941  -0.02204443  1
  O2-  O442  1  0.32246257  0.50940219  0.34672016  1
  O2-  O443  1  0.33715096  0.49044284  0.66610865  1
  O2-  O444  1  0.68791758  0.00826362  -0.03821568  1
  O2-  O445  1  0.66763392  0.00507650  0.32496024  1
  O2-  O446  1  0.70015730  0.00058723  0.63671574  1
  O2-  O447  1  0.65468883  0.48244714  0.01210425  1
  O2-  O448  1  0.66332908  0.49618131  0.34083003  1
  O2-  O449  1  0.66538374  0.50753332  0.67031395  1
  O2-  O450  1  0.15973086  0.02713978  0.01278468  1
  O2-  O451  1  0.19094836  0.01843416  0.36324633  1
  O2-  O452  1  0.17522162  0.01827487  0.65731825  1
  O2-  O453  1  0.16519108  0.50072551  -0.00750789  1
  O2-  O454  1  0.16835441  0.51561159  0.33592678  1
  O2-  O455  1  0.17115168  0.48448960  0.67415967  1
  O2-  O456  1  0.52778532  0.00315391  0.01749363  1
  O2-  O457  1  0.50707037  -0.00029168  0.34613490  1
  O2-  O458  1  0.50274138  -0.00408228  0.65718856  1
  O2-  O459  1  0.49875190  0.50763837  0.00701053  1
  O2-  O460  1  0.49694685  0.50783872  0.33645092  1
  O2-  O461  1  0.49870402  0.49941010  0.66098681  1
  O2-  O462  1  0.84492457  -0.00129701  0.01567845  1
  O2-  O463  1  0.82476264  -0.00909538  0.31720999  1
  O2-  O464  1  0.85205551  -0.01220019  0.68730499  1
  O2-  O465  1  0.83977979  0.48634822  0.00292540  1
  O2-  O466  1  0.82114565  0.49675803  0.31992119  1
  O2-  O467  1  0.83014861  0.50349225  0.66507490  1
  O2-  O468  1  0.75293686  0.75238071  0.72257035  1
  O2-  O469  1  0.55692768  0.24599143  0.60309978  1
  O2-  O470  1  0.41510909  0.25280601  0.07195300  1
  O2-  O471  1  0.25131277  0.25410818  0.93225203  1
  O2-  O472  1  0.75190261  0.24945967  0.06776420  1
  O2-  O473  1  0.25247307  0.75155472  0.60571095  1
  O2-  O474  1  0.41357972  0.75083318  0.39296944  1
  O2-  O475  1  0.57471151  0.25305847  0.92520270  1
  O2-  O476  1  0.58382796  0.25079417  0.27070592  1
  O2-  O477  1  0.57661460  0.75219076  0.61508632  1
  O2-  O478  1  0.25460669  0.75614227  0.91876574  1
  O2-  O479  1  0.26016408  0.74727187  0.27397343  1
  O2-  O480  1  0.25841941  0.24403630  0.26236802  1
  O2-  O481  1  0.92866985  0.25350399  0.59499006  1
  O2-  O482  1  0.90665532  0.24895875  0.26350573  1
  O2-  O483  1  0.91026217  0.75012355  0.27924935  1
  O2-  O484  1  0.41965880  0.75213663  0.72677804  1
  O2-  O485  1  0.08940433  0.25113144  0.72913898  1
  O2-  O486  1  0.57986770  0.75365456  0.26472828  1
  O2-  O487  1  0.07862033  0.75269614  0.72684635  1
  O2-  O488  1  0.91214769  0.75263891  0.60795378  1
  O2-  O489  1  0.08763931  0.25269034  0.05501322  1
  O2-  O490  1  0.41776119  0.24597867  0.39348367  1
  O2-  O491  1  0.25093773  0.25513318  0.60641571  1
  O2-  O492  1  0.41897234  0.25300706  0.74386021  1
