# generated using pymatgen
data_Ca108Mn108O277
_symmetry_space_group_name_H-M   'P 1'
_cell_length_a   16.03146309
_cell_length_b   22.31042996
_cell_length_c   16.39076252
_cell_angle_alpha   89.99606081
_cell_angle_beta   89.99828627
_cell_angle_gamma   89.99873278
_symmetry_Int_Tables_number   1
_chemical_formula_structural   Ca108Mn108O277
_chemical_formula_sum   'Ca108 Mn108 O277'
_cell_volume   5862.46490559
_cell_formula_units_Z   1
loop_
 _symmetry_equiv_pos_site_id
 _symmetry_equiv_pos_as_xyz
  1  'x, y, z'
loop_
 _atom_type_symbol
 _atom_type_oxidation_number
  Ca2+  2.0
  Mn3.34+  3.34
  O2-  -2.0
loop_
 _atom_site_type_symbol
 _atom_site_label
 _atom_site_symmetry_multiplicity
 _atom_site_fract_x
 _atom_site_fract_y
 _atom_site_fract_z
 _atom_site_occupancy
  Ca2+  Ca0  1  0.06205706  0.24823613  0.24943817  1
  Ca2+  Ca1  1  0.06912668  0.25384780  0.57114097  1
  Ca2+  Ca2  1  0.07648618  0.26238348  0.92901439  1
  Ca2+  Ca3  1  0.09914736  0.74972615  0.25157073  1
  Ca2+  Ca4  1  0.09124205  0.71903366  0.60282309  1
  Ca2+  Ca5  1  0.08946179  0.73778272  0.90131858  1
  Ca2+  Ca6  1  0.41723572  0.25513105  0.22366209  1
  Ca2+  Ca7  1  0.43049833  0.26876140  0.59001008  1
  Ca2+  Ca8  1  0.42348930  0.25897629  0.92866765  1
  Ca2+  Ca9  1  0.40706011  0.75167481  0.24298154  1
  Ca2+  Ca10  1  0.41515912  0.75061494  0.58155720  1
  Ca2+  Ca11  1  0.41138383  0.74151719  0.92296489  1
  Ca2+  Ca12  1  0.77418719  0.23893837  0.26081126  1
  Ca2+  Ca13  1  0.74594811  0.24826913  0.58513358  1
  Ca2+  Ca14  1  0.74912290  0.24696116  0.90794765  1
  Ca2+  Ca15  1  0.74004586  0.75709772  0.22574711  1
  Ca2+  Ca16  1  0.76363697  0.74733701  0.59053856  1
  Ca2+  Ca17  1  0.74031464  0.73215671  0.93691084  1
  Ca2+  Ca18  1  0.25636976  0.25335263  0.08978217  1
  Ca2+  Ca19  1  0.23191649  0.25552938  0.41363279  1
  Ca2+  Ca20  1  0.26048491  0.26270837  0.74448234  1
  Ca2+  Ca21  1  0.25210693  0.74152150  0.08736556  1
  Ca2+  Ca22  1  0.24772569  0.74229071  0.40992575  1
  Ca2+  Ca23  1  0.23433307  0.75690186  0.75465849  1
  Ca2+  Ca24  1  0.57048462  0.25371802  0.07965966  1
  Ca2+  Ca25  1  0.61085485  0.25157023  0.42517238  1
  Ca2+  Ca26  1  0.59750474  0.25571085  0.74501003  1
  Ca2+  Ca27  1  0.59041097  0.75065961  0.08380873  1
  Ca2+  Ca28  1  0.58040358  0.75396422  0.40524516  1
  Ca2+  Ca29  1  0.59267186  0.74646978  0.76109287  1
  Ca2+  Ca30  1  0.91578094  0.23673771  0.10458535  1
  Ca2+  Ca31  1  0.90470163  0.24926492  0.41149580  1
  Ca2+  Ca32  1  0.88880065  0.24973607  0.74710698  1
  Ca2+  Ca33  1  0.89794444  0.74631658  0.08041576  1
  Ca2+  Ca34  1  0.93229031  0.75096693  0.42337323  1
  Ca2+  Ca35  1  0.93063728  0.74746887  0.75109650  1
  Ca2+  Ca36  1  0.39939192  0.58185648  0.91515439  1
  Ca2+  Ca37  1  0.89371337  0.10614541  0.39895285  1
  Ca2+  Ca38  1  0.23578376  0.61107960  0.75609270  1
  Ca2+  Ca39  1  0.24798087  0.07571902  0.72053543  1
  Ca2+  Ca40  1  0.06043918  0.09811978  0.23732527  1
  Ca2+  Ca41  1  0.73905065  0.59636238  0.24113363  1
  Ca2+  Ca42  1  0.87651065  0.10174041  0.75955811  1
  Ca2+  Ca43  1  0.58723710  0.59704885  0.08396336  1
  Ca2+  Ca44  1  0.91841044  0.59386371  0.74383165  1
  Ca2+  Ca45  1  0.75165939  0.59517515  0.24035432  1
  Ca2+  Ca46  1  0.43514634  0.10498262  0.94111222  1
  Ca2+  Ca47  1  0.77864589  0.09543710  0.23256384  1
  Ca2+  Ca48  1  0.09057568  0.09345680  0.57572618  1
  Ca2+  Ca49  1  0.24208189  0.08538876  0.41195640  1
  Ca2+  Ca50  1  0.57386803  0.57960869  0.38964714  1
  Ca2+  Ca51  1  0.40821140  0.08557311  0.58361321  1
  Ca2+  Ca52  1  0.39619424  0.60562860  0.57917433  1
  Ca2+  Ca53  1  0.77603514  0.07989880  0.94037664  1
  Ca2+  Ca54  1  0.42080437  0.08781300  0.58261399  1
  Ca2+  Ca55  1  0.59770154  0.59887333  0.08582624  1
  Ca2+  Ca56  1  0.75800021  0.58197144  0.59847291  1
  Ca2+  Ca57  1  0.90209044  0.10083747  0.40270402  1
  Ca2+  Ca58  1  0.04246032  0.06671252  0.97460160  1
  Ca2+  Ca59  1  0.74752564  0.10810241  0.57746333  1
  Ca2+  Ca60  1  0.40402867  0.59895622  0.58314883  1
  Ca2+  Ca61  1  0.56251905  0.57918431  0.38946185  1
  Ca2+  Ca62  1  0.76761800  0.07663226  0.94470927  1
  Ca2+  Ca63  1  0.24638085  0.10399878  0.09303738  1
  Ca2+  Ca64  1  0.59101419  0.09506150  0.06950386  1
  Ca2+  Ca65  1  0.23788087  0.07633707  0.71536491  1
  Ca2+  Ca66  1  0.61216880  0.10941888  0.76036839  1
  Ca2+  Ca67  1  0.39736995  0.10460245  0.23816117  1
  Ca2+  Ca68  1  0.23333679  0.61469641  0.74743655  1
  Ca2+  Ca69  1  0.61694953  0.09325264  0.41914974  1
  Ca2+  Ca70  1  0.93004088  0.59385690  0.74432040  1
  Ca2+  Ca71  1  0.93921281  0.59288251  0.42635007  1
  Ca2+  Ca72  1  0.57786266  0.89453956  0.75365065  1
  Ca2+  Ca73  1  0.74931225  0.91820191  0.92726631  1
  Ca2+  Ca74  1  0.74192577  0.90062370  0.58262777  1
  Ca2+  Ca75  1  0.92968045  0.40530919  0.07782260  1
  Ca2+  Ca76  1  0.56473389  0.40657918  0.42089519  1
  Ca2+  Ca77  1  0.12052121  0.91282257  0.58965800  1
  Ca2+  Ca78  1  0.92640240  0.40524534  0.42001784  1
  Ca2+  Ca79  1  0.08447919  0.39920075  0.58187616  1
  Ca2+  Ca80  1  0.75109236  0.40209318  0.91152578  1
  Ca2+  Ca81  1  0.57291002  0.90810871  0.40017264  1
  Ca2+  Ca82  1  0.40714440  0.40919737  0.25318318  1
  Ca2+  Ca83  1  0.26870161  0.40790258  0.75615015  1
  Ca2+  Ca84  1  0.24610401  0.41314349  0.06573015  1
  Ca2+  Ca85  1  0.74670242  0.40804160  0.24507173  1
  Ca2+  Ca86  1  0.73351116  0.41183760  0.59316620  1
  Ca2+  Ca87  1  0.91839875  0.40509263  0.07669215  1
  Ca2+  Ca88  1  0.10581808  0.41171848  0.25109724  1
  Ca2+  Ca89  1  0.41787166  0.88943533  0.91175463  1
  Ca2+  Ca90  1  0.10976993  0.91429221  0.59148675  1
  Ca2+  Ca91  1  0.07823601  0.91083343  0.92724868  1
  Ca2+  Ca92  1  0.73725513  0.40527897  0.24242933  1
  Ca2+  Ca93  1  0.73201095  0.90422178  0.57767905  1
  Ca2+  Ca94  1  0.90560523  0.40972755  0.74266047  1
  Ca2+  Ca95  1  0.39400123  0.90185439  0.58374479  1
  Ca2+  Ca96  1  0.91662813  0.90704408  0.75775882  1
  Ca2+  Ca97  1  0.90298182  0.93244710  0.07306259  1
  Ca2+  Ca98  1  0.58435459  0.40759895  0.07812745  1
  Ca2+  Ca99  1  0.25491090  0.90936600  0.40752611  1
  Ca2+  Ca100  1  0.59231862  0.90424671  0.09195280  1
  Ca2+  Ca101  1  0.76008523  0.91809420  0.92941736  1
  Ca2+  Ca102  1  0.92286784  0.90743588  0.40755428  1
  Ca2+  Ca103  1  0.91159197  0.90688564  0.40580351  1
  Ca2+  Ca104  1  0.25162149  0.41652810  0.39423589  1
  Ca2+  Ca105  1  0.91150849  0.93509801  0.06843176  1
  Ca2+  Ca106  1  0.06722226  0.90938759  0.92842525  1
  Ca2+  Ca107  1  0.24096117  0.89686147  0.09187618  1
  Mn3.34+  Mn108  1  0.08905841  0.33255580  0.08495081  1
  Mn3.34+  Mn109  1  0.08392879  0.33608056  0.41656451  1
  Mn3.34+  Mn110  1  0.08356469  0.32935682  0.75206159  1
  Mn3.34+  Mn111  1  0.07776666  0.83711677  0.09185464  1
  Mn3.34+  Mn112  1  0.08780672  0.83035946  0.41505485  1
  Mn3.34+  Mn113  1  0.08404507  0.83431202  0.75290358  1
  Mn3.34+  Mn114  1  0.41473016  0.33387407  0.07864351  1
  Mn3.34+  Mn115  1  0.41327979  0.33229043  0.41915035  1
  Mn3.34+  Mn116  1  0.42570951  0.33777691  0.75386911  1
  Mn3.34+  Mn117  1  0.41624867  0.83037425  0.08684478  1
  Mn3.34+  Mn118  1  0.41351789  0.83373028  0.41480701  1
  Mn3.34+  Mn119  1  0.41214309  0.82505779  0.74998060  1
  Mn3.34+  Mn120  1  0.74716874  0.32825275  0.08050115  1
  Mn3.34+  Mn121  1  0.75125200  0.33411773  0.42252556  1
  Mn3.34+  Mn122  1  0.74368118  0.33422405  0.74923385  1
  Mn3.34+  Mn123  1  0.75173998  0.83700988  0.08643722  1
  Mn3.34+  Mn124  1  0.74917573  0.82790274  0.41237656  1
  Mn3.34+  Mn125  1  0.74892179  0.83033823  0.75562341  1
  Mn3.34+  Mn126  1  0.25084725  0.33625397  0.24570713  1
  Mn3.34+  Mn127  1  0.25442249  0.33543237  0.57937162  1
  Mn3.34+  Mn128  1  0.24956129  0.34084781  0.91211630  1
  Mn3.34+  Mn129  1  0.24942064  0.83198152  0.24984588  1
  Mn3.34+  Mn130  1  0.25057576  0.82313928  0.58067387  1
  Mn3.34+  Mn131  1  0.25085090  0.82897224  0.91795380  1
  Mn3.34+  Mn132  1  0.57983262  0.33778295  0.25071531  1
  Mn3.34+  Mn133  1  0.58077899  0.34199941  0.58459869  1
  Mn3.34+  Mn134  1  0.57955705  0.34283985  0.90786149  1
  Mn3.34+  Mn135  1  0.57916993  0.83360021  0.24825266  1
  Mn3.34+  Mn136  1  0.57747699  0.82943567  0.57842548  1
  Mn3.34+  Mn137  1  0.58181527  0.82991050  0.91859592  1
  Mn3.34+  Mn138  1  0.91909187  0.33852946  0.25002006  1
  Mn3.34+  Mn139  1  0.91450549  0.33576637  0.58365201  1
  Mn3.34+  Mn140  1  0.91969025  0.33645340  0.90784960  1
  Mn3.34+  Mn141  1  0.92115721  0.83293990  0.24275829  1
  Mn3.34+  Mn142  1  0.92062831  0.83254789  0.58394426  1
  Mn3.34+  Mn143  1  0.91445966  0.83069106  0.91433624  1
  Mn3.34+  Mn144  1  0.58856390  0.17121871  0.91247535  1
  Mn3.34+  Mn145  1  0.24826175  0.66351325  0.92260243  1
  Mn3.34+  Mn146  1  0.08115421  0.16394755  0.75544838  1
  Mn3.34+  Mn147  1  0.75241031  0.16714779  0.08264908  1
  Mn3.34+  Mn148  1  0.08212799  0.16954502  0.41699239  1
  Mn3.34+  Mn149  1  0.58013897  0.66340928  0.91368023  1
  Mn3.34+  Mn150  1  0.59022660  0.16125930  0.24520058  1
  Mn3.34+  Mn151  1  0.25414927  0.17477971  0.91429642  1
  Mn3.34+  Mn152  1  0.24979356  0.17226249  0.57929964  1
  Mn3.34+  Mn153  1  0.24134739  0.16897884  0.24995029  1
  Mn3.34+  Mn154  1  0.42130624  0.17938245  0.41577652  1
  Mn3.34+  Mn155  1  0.09739221  0.66308965  0.42052360  1
  Mn3.34+  Mn156  1  0.74701308  0.66317288  0.75713576  1
  Mn3.34+  Mn157  1  0.07899325  0.16830774  0.08798548  1
  Mn3.34+  Mn158  1  0.59544495  0.66095563  0.57853143  1
  Mn3.34+  Mn159  1  0.58247892  0.16996416  0.58271422  1
  Mn3.34+  Mn160  1  0.57702769  0.16763580  0.24765910  1
  Mn3.34+  Mn161  1  0.41118642  0.66591275  0.08689958  1
  Mn3.34+  Mn162  1  0.92007036  0.66917836  0.24797418  1
  Mn3.34+  Mn163  1  0.91926626  0.66687843  0.57895249  1
  Mn3.34+  Mn164  1  0.91359488  0.66287869  0.92500167  1
  Mn3.34+  Mn165  1  0.75543206  0.66952806  0.42010921  1
  Mn3.34+  Mn166  1  0.24820574  0.65653765  0.24806394  1
  Mn3.34+  Mn167  1  0.91484322  0.16950004  0.58189907  1
  Mn3.34+  Mn168  1  0.42295420  0.65945316  0.76003103  1
  Mn3.34+  Mn169  1  0.24196661  0.16718238  0.91176788  1
  Mn3.34+  Mn170  1  0.93232105  0.66198818  0.24485016  1
  Mn3.34+  Mn171  1  0.07031665  0.16892294  0.75279696  1
  Mn3.34+  Mn172  1  0.40877899  0.66391737  0.41086810  1
  Mn3.34+  Mn173  1  0.41129057  0.17445069  0.41759772  1
  Mn3.34+  Mn174  1  0.58486693  0.66560047  0.58064609  1
  Mn3.34+  Mn175  1  0.57805416  0.66908856  0.24576087  1
  Mn3.34+  Mn176  1  0.92425841  0.65848219  0.92455121  1
  Mn3.34+  Mn177  1  0.91890138  0.16418429  0.91943185  1
  Mn3.34+  Mn178  1  0.42089646  0.17215567  0.75568441  1
  Mn3.34+  Mn179  1  0.09176732  0.65251225  0.08713858  1
  Mn3.34+  Mn180  1  0.74716446  -0.00293114  0.41348621  1
  Mn3.34+  Mn181  1  0.90562809  0.00005245  0.58878924  1
  Mn3.34+  Mn182  1  0.26401479  -0.00328608  0.90927132  1
  Mn3.34+  Mn183  1  0.23761905  0.50229904  0.57882496  1
  Mn3.34+  Mn184  1  0.40872179  0.00111817  0.09566903  1
  Mn3.34+  Mn185  1  0.08420570  0.49192812  0.77205355  1
  Mn3.34+  Mn186  1  0.09640018  0.49786334  0.77070360  1
  Mn3.34+  Mn187  1  0.42894676  -0.00107587  0.75998786  1
  Mn3.34+  Mn188  1  0.41533719  0.00141089  0.41078996  1
  Mn3.34+  Mn189  1  0.58124936  0.50347804  0.91722110  1
  Mn3.34+  Mn190  1  0.58248666  -0.00003580  0.57389313  1
  Mn3.34+  Mn191  1  0.40674021  0.50170477  0.08371113  1
  Mn3.34+  Mn192  1  0.76341291  0.49908729  0.42003786  1
  Mn3.34+  Mn193  1  0.24948053  0.00224186  0.90807602  1
  Mn3.34+  Mn194  1  0.74978985  0.49999689  0.06578300  1
  Mn3.34+  Mn195  1  0.39793587  0.50803725  0.08218682  1
  Mn3.34+  Mn196  1  0.09004018  0.50172270  0.07171687  1
  Mn3.34+  Mn197  1  0.75236515  0.50377284  0.42036917  1
  Mn3.34+  Mn198  1  0.41766216  0.00370569  0.76117459  1
  Mn3.34+  Mn199  1  0.40501002  0.49720912  0.40532570  1
  Mn3.34+  Mn200  1  0.73841976  0.00028774  0.74646469  1
  Mn3.34+  Mn201  1  0.92108465  -0.00490184  0.25526876  1
  Mn3.34+  Mn202  1  0.57155767  0.00046823  0.90903946  1
  Mn3.34+  Mn203  1  0.92042122  0.00540883  0.58631254  1
  Mn3.34+  Mn204  1  0.94012946  0.50402045  0.25512510  1
  Mn3.34+  Mn205  1  0.58101684  -0.00053474  0.25882235  1
  Mn3.34+  Mn206  1  0.92419200  0.49792979  0.92266818  1
  Mn3.34+  Mn207  1  0.24972688  0.49505518  0.57841647  1
  Mn3.34+  Mn208  1  0.92664440  0.50122375  0.58826253  1
  Mn3.34+  Mn209  1  0.42234394  -0.00470570  0.09211077  1
  Mn3.34+  Mn210  1  0.08745978  0.00121182  0.41523537  1
  Mn3.34+  Mn211  1  0.43203782  0.49505031  0.72741081  1
  Mn3.34+  Mn212  1  0.08090682  0.00225022  0.75208199  1
  Mn3.34+  Mn213  1  0.09024940  0.50281884  0.40755163  1
  Mn3.34+  Mn214  1  0.24837654  -0.00282472  0.25374609  1
  Mn3.34+  Mn215  1  0.74021769  0.50035795  0.73780443  1
  O2-  O216  1  0.00169519  0.16670486  -0.00020606  1
  O2-  O217  1  0.00318064  0.15236699  0.34170646  1
  O2-  O218  1  -0.00366318  0.13726842  0.66583005  1
  O2-  O219  1  0.00783926  0.67388608  0.00251634  1
  O2-  O220  1  0.00364811  0.64911171  0.33054799  1
  O2-  O221  1  -0.00579379  0.65319478  0.66180174  1
  O2-  O222  1  0.32862805  0.15809527  -0.00332891  1
  O2-  O223  1  0.32772326  0.17358034  0.33531318  1
  O2-  O224  1  0.33017954  0.15181102  0.67433587  1
  O2-  O225  1  0.33877544  0.65304191  -0.00125422  1
  O2-  O226  1  0.33453347  0.67839404  0.33068759  1
  O2-  O227  1  0.34332901  0.66142428  0.67626093  1
  O2-  O228  1  0.67745668  0.15455548  -0.01247176  1
  O2-  O229  1  0.66942617  0.15230571  0.32115151  1
  O2-  O230  1  0.66220436  0.15724961  0.65788431  1
  O2-  O231  1  0.65712118  0.65572386  -0.00341478  1
  O2-  O232  1  0.66782760  0.65307963  0.33816826  1
  O2-  O233  1  0.67077038  0.64707304  0.66384436  1
  O2-  O234  1  0.16742289  0.16543495  -0.00128554  1
  O2-  O235  1  0.16687979  0.16035059  0.33824135  1
  O2-  O236  1  0.16619955  0.15146661  0.66793490  1
  O2-  O237  1  0.16645722  0.67104203  0.00419794  1
  O2-  O238  1  0.16882138  0.66469389  0.33170383  1
  O2-  O239  1  0.18920646  0.68071933  0.67529991  1
  O2-  O240  1  0.51488041  0.17431147  -0.00094765  1
  O2-  O241  1  0.50107208  0.14468857  0.33753378  1
  O2-  O242  1  0.49502812  0.14578962  0.66913571  1
  O2-  O243  1  0.49797189  0.65058561  0.00042452  1
  O2-  O244  1  0.50226641  0.66062051  0.33599736  1
  O2-  O245  1  0.49595224  0.66007435  0.66241925  1
  O2-  O246  1  0.83776208  0.15980749  0.00166626  1
  O2-  O247  1  0.82848470  0.16148152  0.32790960  1
  O2-  O248  1  0.83471566  0.15893719  0.65867910  1
  O2-  O249  1  0.83637833  0.65786173  0.00323211  1
  O2-  O250  1  0.83841057  0.64930779  0.33608691  1
  O2-  O251  1  0.83482121  0.65514568  0.66561889  1
  O2-  O252  1  -0.00052927  0.34133534  -0.00342486  1
  O2-  O253  1  0.00573000  0.35677295  0.32539494  1
  O2-  O254  1  -0.00183460  0.35158712  0.66792528  1
  O2-  O255  1  -0.00352487  0.84037747  0.00115235  1
  O2-  O256  1  0.00191303  0.85036800  0.33137229  1
  O2-  O257  1  0.00730269  0.86090038  0.66205639  1
  O2-  O258  1  0.32809934  0.33191903  -0.00037560  1
  O2-  O259  1  0.33234633  0.31991680  0.32971759  1
  O2-  O260  1  0.33185034  0.33780102  0.66796627  1
  O2-  O261  1  0.33125166  0.84704306  0.00297190  1
  O2-  O262  1  0.33149451  0.83318485  0.33491972  1
  O2-  O263  1  0.33264310  0.80980545  0.66391651  1
  O2-  O264  1  0.66334043  0.33479565  0.00102799  1
  O2-  O265  1  0.66473529  0.35493346  0.34041629  1
  O2-  O266  1  0.66438662  0.34421345  0.66687670  1
  O2-  O267  1  0.67051770  0.85243894  -0.00422609  1
  O2-  O268  1  0.66149069  0.83364298  0.33854203  1
  O2-  O269  1  0.66471876  0.84696338  0.66818543  1
  O2-  O270  1  0.17471044  0.33130134  0.00386106  1
  O2-  O271  1  0.17444042  0.34049183  0.33660353  1
  O2-  O272  1  0.17280063  0.34264111  0.66835096  1
  O2-  O273  1  0.15956082  0.84659935  -0.00024817  1
  O2-  O274  1  0.17321797  0.84284416  0.34064478  1
  O2-  O275  1  0.17145125  0.84198104  0.67032330  1
  O2-  O276  1  0.50294727  0.33921341  -0.00034901  1
  O2-  O277  1  0.49091554  0.34658410  0.32922113  1
  O2-  O278  1  0.50021846  0.34257803  0.66768875  1
  O2-  O279  1  0.50360261  0.84693195  0.00440876  1
  O2-  O280  1  0.49950896  0.83159175  0.33587687  1
  O2-  O281  1  0.49139401  0.84192659  0.66006725  1
  O2-  O282  1  0.83629210  0.34635791  -0.00046413  1
  O2-  O283  1  0.83130611  0.35631199  0.33064652  1
  O2-  O284  1  0.82923659  0.34805683  0.66402414  1
  O2-  O285  1  0.83751157  0.85000365  0.00033755  1
  O2-  O286  1  0.83842977  0.84220508  0.33493798  1
  O2-  O287  1  0.83044747  0.85193518  0.66551443  1
  O2-  O288  1  0.00482456  0.17475897  0.16851938  1
  O2-  O289  1  -0.00092651  0.17661426  0.49770536  1
  O2-  O290  1  -0.00199985  0.18773296  0.84022661  1
  O2-  O291  1  0.00347329  0.68667846  0.16187329  1
  O2-  O292  1  -0.00163467  0.67622204  0.49569939  1
  O2-  O293  1  -0.00758045  0.67251512  0.83525821  1
  O2-  O294  1  0.32248262  0.18417271  0.17633552  1
  O2-  O295  1  0.33695054  0.19433569  0.50468831  1
  O2-  O296  1  0.33397445  0.19133642  0.83630708  1
  O2-  O297  1  0.33471378  0.68140146  0.16755618  1
  O2-  O298  1  0.34708984  0.68341432  0.50146110  1
  O2-  O299  1  0.33452829  0.68044618  0.83346160  1
  O2-  O300  1  0.65716761  0.18284214  0.15261706  1
  O2-  O301  1  0.66110430  0.17404581  0.50264894  1
  O2-  O302  1  0.66229595  0.18695808  0.83318121  1
  O2-  O303  1  0.66587586  0.67154288  0.17223405  1
  O2-  O304  1  0.67136302  0.69489617  0.49478865  1
  O2-  O305  1  0.66623643  0.67928683  0.83608548  1
  O2-  O306  1  0.16416786  0.18536284  0.16720115  1
  O2-  O307  1  0.16161742  0.18547700  0.50420150  1
  O2-  O308  1  0.16943656  0.19422678  0.83189368  1
  O2-  O309  1  0.16690417  0.67899982  0.16625897  1
  O2-  O310  1  0.16756201  0.68585440  0.49455622  1
  O2-  O311  1  0.17637213  0.67987356  0.83771587  1
  O2-  O312  1  0.49532593  0.17717150  0.17498933  1
  O2-  O313  1  0.49634103  0.18845054  0.50317798  1
  O2-  O314  1  0.50088022  0.18567607  0.83397779  1
  O2-  O315  1  0.50845609  0.67978574  0.15670603  1
  O2-  O316  1  0.50386115  0.68055129  0.49609784  1
  O2-  O317  1  0.49939137  0.68862203  0.83445241  1
  O2-  O318  1  0.82378103  0.17498205  0.16520654  1
  O2-  O319  1  0.83930572  0.17837274  0.50036040  1
  O2-  O320  1  0.84039258  0.18294076  0.84531370  1
  O2-  O321  1  0.83034821  0.68040910  0.18005714  1
  O2-  O322  1  0.83707306  0.69107430  0.49592316  1
  O2-  O323  1  0.84096081  0.67492378  0.82927049  1
  O2-  O324  1  -0.00664866  0.33021194  0.15955829  1
  O2-  O325  1  -0.00187077  0.32657428  0.49816634  1
  O2-  O326  1  -0.00561922  0.30833676  0.82821144  1
  O2-  O327  1  -0.00115560  0.80740941  0.16240664  1
  O2-  O328  1  -0.00865178  0.83492684  0.48921805  1
  O2-  O329  1  -0.00361519  0.82163079  0.83414796  1
  O2-  O330  1  0.33075304  0.32008999  0.16606961  1
  O2-  O331  1  0.33193468  0.30801386  0.49697278  1
  O2-  O332  1  0.33199172  0.31890880  0.83606043  1
  O2-  O333  1  0.32862825  0.81868005  0.16172087  1
  O2-  O334  1  0.33248296  0.81208408  0.49905212  1
  O2-  O335  1  0.33743195  0.81257164  0.83859451  1
  O2-  O336  1  0.67188454  0.32261289  0.17407634  1
  O2-  O337  1  0.67289631  0.32061319  0.50628859  1
  O2-  O338  1  0.66862039  0.31968545  0.83853842  1
  O2-  O339  1  0.66147015  0.82843734  0.16004518  1
  O2-  O340  1  0.67417660  0.81796605  0.50648596  1
  O2-  O341  1  0.66294686  0.82120272  0.83346549  1
  O2-  O342  1  0.16301257  0.31577635  0.17635596  1
  O2-  O343  1  0.16306825  0.31518576  0.50618597  1
  O2-  O344  1  0.17108017  0.30991017  0.83799737  1
  O2-  O345  1  0.16750047  0.81832309  0.15864024  1
  O2-  O346  1  0.15664927  0.81844944  0.51088002  1
  O2-  O347  1  0.15851338  0.82319637  0.84411802  1
  O2-  O348  1  0.50183976  0.33109015  0.16372678  1
  O2-  O349  1  0.50669533  0.31956156  0.48965059  1
  O2-  O350  1  0.50267682  0.31127949  0.83453671  1
  O2-  O351  1  0.50237602  0.81741491  0.16308781  1
  O2-  O352  1  0.49785887  0.81173729  0.49470927  1
  O2-  O353  1  0.50039407  0.81643649  0.83102556  1
  O2-  O354  1  0.83169504  0.32947579  0.16636408  1
  O2-  O355  1  0.83836396  0.31855180  0.49768508  1
  O2-  O356  1  0.82924805  0.32139906  0.83541773  1
  O2-  O357  1  0.83592189  0.81972778  0.16394368  1
  O2-  O358  1  0.83153484  0.81955979  0.49909521  1
  O2-  O359  1  0.83254928  0.82461402  0.83387891  1
  O2-  O360  1  0.09745833  0.08595035  0.10113131  1
  O2-  O361  1  0.09463989  0.08274493  0.44265339  1
  O2-  O362  1  0.10777177  0.08198670  0.79706822  1
  O2-  O363  1  0.07317965  0.56749717  0.12316524  1
  O2-  O364  1  0.08558842  0.57884274  0.44708359  1
  O2-  O365  1  0.08741897  0.57976394  0.77602189  1
  O2-  O366  1  0.41139433  0.08226826  0.10779796  1
  O2-  O367  1  0.40331772  0.08486170  0.44788229  1
  O2-  O368  1  0.41017467  0.08442317  0.79663473  1
  O2-  O369  1  0.43608804  0.58276493  0.11809217  1
  O2-  O370  1  0.42809215  0.57506524  0.45009104  1
  O2-  O371  1  0.39985499  0.57091187  0.77780612  1
  O2-  O372  1  0.73867753  0.08388118  0.09265435  1
  O2-  O373  1  0.76095202  0.07284991  0.45067127  1
  O2-  O374  1  0.74516610  0.07436406  0.80538102  1
  O2-  O375  1  0.73280599  0.57373425  0.11337960  1
  O2-  O376  1  0.75612674  0.58278545  0.45963833  1
  O2-  O377  1  0.77071638  0.57814448  0.77063571  1
  O2-  O378  1  0.25247179  0.07834254  0.22326522  1
  O2-  O379  1  0.26847891  0.08368900  0.55498896  1
  O2-  O380  1  0.25994998  0.08310273  0.87049044  1
  O2-  O381  1  0.25580360  0.58298932  0.23337217  1
  O2-  O382  1  0.26709074  0.58131489  0.56508662  1
  O2-  O383  1  0.25457112  0.58547752  0.88129097  1
  O2-  O384  1  0.57474476  0.07886609  0.20906009  1
  O2-  O385  1  0.55800621  0.08332019  0.54558878  1
  O2-  O386  1  0.56787533  0.08171492  0.88979759  1
  O2-  O387  1  0.59176810  0.58320372  0.23062779  1
  O2-  O388  1  0.59361284  0.58507387  0.52902725  1
  O2-  O389  1  0.55842035  0.58173498  0.89086750  1
  O2-  O390  1  0.91901237  0.07496644  0.25091743  1
  O2-  O391  1  0.91868206  0.08161336  0.54012622  1
  O2-  O392  1  0.91198401  0.08299692  0.89525040  1
  O2-  O393  1  0.89481612  0.58206030  0.22082214  1
  O2-  O394  1  0.90166006  0.58280840  0.55638629  1
  O2-  O395  1  0.92100554  0.57749132  0.88273789  1
  O2-  O396  1  0.08762243  0.42381382  0.11499833  1
  O2-  O397  1  0.08915441  0.42312515  0.44747947  1
  O2-  O398  1  0.09425945  0.41131472  0.78363982  1
  O2-  O399  1  0.07091683  0.91498160  0.10190611  1
  O2-  O400  1  0.08763262  0.92214064  0.45623604  1
  O2-  O401  1  0.07456153  0.92134089  0.79166993  1
  O2-  O402  1  0.40049989  0.42018805  0.11287106  1
  O2-  O403  1  0.39807995  0.42079569  0.44113995  1
  O2-  O404  1  0.41228988  0.42022282  0.77886911  1
  O2-  O405  1  0.41516835  0.91482876  0.10711255  1
  O2-  O406  1  0.41525705  0.92243360  0.44979524  1
  O2-  O407  1  0.42229429  0.91549094  0.77329464  1
  O2-  O408  1  0.74108951  0.41888906  0.10555001  1
  O2-  O409  1  0.75918887  0.41942729  0.45504571  1
  O2-  O410  1  0.75361988  0.42267639  0.77522582  1
  O2-  O411  1  0.76301660  0.92204518  0.08888857  1
  O2-  O412  1  0.75641533  0.91785730  0.44604534  1
  O2-  O413  1  0.74467959  0.91761883  0.78705543  1
  O2-  O414  1  0.25268677  0.41424105  0.22040900  1
  O2-  O415  1  0.23658399  0.41957358  0.53599366  1
  O2-  O416  1  0.24235665  0.41614280  0.89220457  1
  O2-  O417  1  0.25058028  0.91751593  0.22637081  1
  O2-  O418  1  0.25087985  0.91647922  0.55205577  1
  O2-  O419  1  0.26191968  0.91510386  0.88912853  1
  O2-  O420  1  0.60037734  0.42005247  0.22346593  1
  O2-  O421  1  0.59357871  0.41780421  0.55246280  1
  O2-  O422  1  0.61058828  0.42570750  0.90091361  1
  O2-  O423  1  0.57818415  0.91743146  0.23159251  1
  O2-  O424  1  0.59581606  0.91697754  0.53949710  1
  O2-  O425  1  0.57175958  0.91747756  0.88845682  1
  O2-  O426  1  0.90574681  0.42579944  0.20871251  1
  O2-  O427  1  0.91940765  0.41941089  0.55605650  1
  O2-  O428  1  0.91608470  0.42192031  0.87718750  1
  O2-  O429  1  0.91984569  0.91823163  0.21007213  1
  O2-  O430  1  0.89108420  0.92292845  0.54320793  1
  O2-  O431  1  0.91877471  0.91334712  0.89282134  1
  O2-  O432  1  -0.00295054  -0.02235427  -0.00437616  1
  O2-  O433  1  -0.00899640  -0.00922958  0.35437559  1
  O2-  O434  1  0.00839218  -0.01245009  0.65590485  1
  O2-  O435  1  -0.00249469  0.48479722  0.01662807  1
  O2-  O436  1  -0.02024320  0.49887241  0.37197415  1
  O2-  O437  1  -0.00505845  0.50311787  0.69319298  1
  O2-  O438  1  0.32771946  0.00992841  0.00702397  1
  O2-  O439  1  0.33402311  0.01361854  0.33268020  1
  O2-  O440  1  0.33868711  0.01349648  0.66957293  1
  O2-  O441  1  0.32592188  0.50049006  -0.00325515  1
  O2-  O442  1  0.33961549  0.48664724  0.32400977  1
  O2-  O443  1  0.32262380  0.49035660  0.67210864  1
  O2-  O444  1  0.67818106  0.00212580  -0.04223543  1
  O2-  O445  1  0.66973370  0.01400420  0.33572483  1
  O2-  O446  1  0.68522290  -0.00910515  0.63898240  1
  O2-  O447  1  0.64426845  0.50817127  0.02215019  1
  O2-  O448  1  0.66898710  0.51947196  0.34023564  1
  O2-  O449  1  0.68438637  0.50213424  0.64663592  1
  O2-  O450  1  0.15563023  -0.00783085  -0.02512187  1
  O2-  O451  1  0.17903434  0.00041629  0.34924185  1
  O2-  O452  1  0.16047713  0.01169452  0.65471959  1
  O2-  O453  1  0.17088764  0.49281646  0.01150909  1
  O2-  O454  1  0.16161725  0.48498350  0.33180313  1
  O2-  O455  1  0.15866425  0.49190440  0.66666033  1
  O2-  O456  1  0.51014004  0.00993678  0.01428529  1
  O2-  O457  1  0.51769933  0.00273645  0.36234135  1
  O2-  O458  1  0.49504397  0.00356385  0.66050436  1
  O2-  O459  1  0.49406838  0.49469704  0.00447955  1
  O2-  O460  1  0.51010077  0.49147006  0.36347140  1
  O2-  O461  1  0.47863798  0.53036784  0.64054258  1
  O2-  O462  1  0.83133580  -0.00772224  -0.01729003  1
  O2-  O463  1  0.84593767  -0.00637069  0.35136350  1
  O2-  O464  1  0.84945249  0.00681767  0.69018285  1
  O2-  O465  1  0.83884149  0.47724328  0.00304782  1
  O2-  O466  1  0.81796453  0.49181907  0.31304412  1
  O2-  O467  1  0.84231510  0.50106060  0.68139422  1
  O2-  O468  1  0.07380031  0.25208651  0.39142408  1
  O2-  O469  1  0.92569547  0.25138681  0.60982249  1
  O2-  O470  1  0.07440821  0.74954969  0.39175646  1
  O2-  O471  1  0.92260817  0.75027620  0.61079367  1
  O2-  O472  1  0.41666770  0.74877594  0.06052779  1
  O2-  O473  1  0.07571767  0.75640441  0.73615934  1
  O2-  O474  1  0.75882720  0.24965055  0.05619260  1
  O2-  O475  1  0.58687298  0.74926798  0.94422582  1
  O2-  O476  1  0.75054152  0.25817160  0.39378930  1
  O2-  O477  1  0.57846386  0.25002109  0.27845163  1
  O2-  O478  1  0.90589289  0.74904674  0.93632846  1
  O2-  O479  1  0.41442117  0.25022424  0.72330809  1
  O2-  O480  1  0.24338110  0.75186166  0.26342921  1
  O2-  O481  1  0.25359889  0.75016674  0.94608222  1
  O2-  O482  1  0.91880499  0.25982553  0.26939105  1
  O2-  O483  1  0.74771783  0.74837673  0.72816524  1
  O2-  O484  1  0.58947794  0.74498430  0.61702852  1
  O2-  O485  1  0.08336628  0.24841178  0.71009168  1
  O2-  O486  1  0.07396560  0.25188384  0.06753809  1
  O2-  O487  1  0.58957503  0.74970610  0.26594518  1
  O2-  O488  1  0.74562054  0.75641566  0.06956580  1
  O2-  O489  1  0.92010316  0.74927054  0.28154417  1
  O2-  O490  1  0.74804454  0.25668148  0.72614772  1
  O2-  O491  1  0.58089311  0.25114898  0.60612537  1
  O2-  O492  1  0.42045359  0.25532729  0.07283492  1
