# generated using pymatgen
data_Ca108Mn108O277
_symmetry_space_group_name_H-M   'P 1'
_cell_length_a   16.02808760
_cell_length_b   22.30711260
_cell_length_c   16.38871505
_cell_angle_alpha   90.00661605
_cell_angle_beta   90.00288635
_cell_angle_gamma   89.99879192
_symmetry_Int_Tables_number   1
_chemical_formula_structural   Ca108Mn108O277
_chemical_formula_sum   'Ca108 Mn108 O277'
_cell_volume   5859.62694739
_cell_formula_units_Z   1
loop_
 _symmetry_equiv_pos_site_id
 _symmetry_equiv_pos_as_xyz
  1  'x, y, z'
loop_
 _atom_type_symbol
 _atom_type_oxidation_number
  Ca2+  2.0
  Mn3.34+  3.34
  O2-  -2.0
loop_
 _atom_site_type_symbol
 _atom_site_label
 _atom_site_symmetry_multiplicity
 _atom_site_fract_x
 _atom_site_fract_y
 _atom_site_fract_z
 _atom_site_occupancy
  Ca2+  Ca0  1  0.06704322  0.23603955  0.25675729  1
  Ca2+  Ca1  1  0.11568162  0.24528307  0.56776964  1
  Ca2+  Ca2  1  0.07218735  0.26479701  0.93141403  1
  Ca2+  Ca3  1  0.08734446  0.74407546  0.24554433  1
  Ca2+  Ca4  1  0.08393126  0.74278493  0.59906946  1
  Ca2+  Ca5  1  0.07420325  0.73908089  0.89881258  1
  Ca2+  Ca6  1  0.42534743  0.23897480  0.25878000  1
  Ca2+  Ca7  1  0.41553145  0.22843676  0.58628090  1
  Ca2+  Ca8  1  0.44521367  0.24232207  0.90897643  1
  Ca2+  Ca9  1  0.41782162  0.76231502  0.25983975  1
  Ca2+  Ca10  1  0.42834588  0.75774969  0.58426826  1
  Ca2+  Ca11  1  0.42208956  0.76048704  0.90216208  1
  Ca2+  Ca12  1  0.76331640  0.24955505  0.25252256  1
  Ca2+  Ca13  1  0.73413655  0.25341942  0.57000517  1
  Ca2+  Ca14  1  0.72666390  0.25021850  0.91836802  1
  Ca2+  Ca15  1  0.74488580  0.75790093  0.24766602  1
  Ca2+  Ca16  1  0.74125702  0.75499246  0.58352596  1
  Ca2+  Ca17  1  0.75460522  0.74517682  0.92027495  1
  Ca2+  Ca18  1  0.24641490  0.25356793  0.11022073  1
  Ca2+  Ca19  1  0.25380313  0.22824545  0.42754962  1
  Ca2+  Ca20  1  0.27672637  0.25044157  0.72839895  1
  Ca2+  Ca21  1  0.23384262  0.74953724  0.08027037  1
  Ca2+  Ca22  1  0.24540468  0.75234778  0.42203457  1
  Ca2+  Ca23  1  0.22498735  0.74226425  0.73917679  1
  Ca2+  Ca24  1  0.58105110  0.25627196  0.07421596  1
  Ca2+  Ca25  1  0.58771328  0.24914654  0.41303433  1
  Ca2+  Ca26  1  0.56073474  0.24604926  0.75444045  1
  Ca2+  Ca27  1  0.60185326  0.75863106  0.08059351  1
  Ca2+  Ca28  1  0.58852792  0.75245120  0.42462799  1
  Ca2+  Ca29  1  0.59286530  0.74388045  0.73516452  1
  Ca2+  Ca30  1  0.91648839  0.26016258  0.10289232  1
  Ca2+  Ca31  1  0.92117342  0.24221035  0.39183348  1
  Ca2+  Ca32  1  0.91164746  0.25701817  0.75441529  1
  Ca2+  Ca33  1  0.91703995  0.74594782  0.07410123  1
  Ca2+  Ca34  1  0.92006439  0.75868758  0.42016935  1
  Ca2+  Ca35  1  0.93319508  0.73513515  0.74601756  1
  Ca2+  Ca36  1  0.73566507  0.09251733  0.57563935  1
  Ca2+  Ca37  1  0.92474139  0.08268605  0.36655306  1
  Ca2+  Ca38  1  0.56212396  0.09841238  0.42252639  1
  Ca2+  Ca39  1  0.77506921  0.57787707  0.93636788  1
  Ca2+  Ca40  1  0.90618765  0.09745908  0.11020882  1
  Ca2+  Ca41  1  0.62001977  0.57781687  0.06819493  1
  Ca2+  Ca42  1  0.20959761  0.59879879  0.09519071  1
  Ca2+  Ca43  1  0.59167031  0.59631914  0.74719509  1
  Ca2+  Ca44  1  0.26443481  0.09480884  0.09817391  1
  Ca2+  Ca45  1  0.75735158  0.58832752  0.23882325  1
  Ca2+  Ca46  1  0.44644081  0.10544608  0.90884972  1
  Ca2+  Ca47  1  0.93062277  0.59269872  0.07294784  1
  Ca2+  Ca48  1  0.57389139  0.09453257  0.07342180  1
  Ca2+  Ca49  1  0.41819275  0.58662157  0.92379645  1
  Ca2+  Ca50  1  0.38457793  0.60397133  0.57844253  1
  Ca2+  Ca51  1  0.06908585  0.09168748  0.92867014  1
  Ca2+  Ca52  1  0.74928243  0.59506327  0.59017927  1
  Ca2+  Ca53  1  0.27405716  0.10324080  0.69107679  1
  Ca2+  Ca54  1  0.25158431  0.09487762  0.09815674  1
  Ca2+  Ca55  1  0.61004850  0.57632899  0.06910979  1
  Ca2+  Ca56  1  0.55220247  0.09752223  0.42063332  1
  Ca2+  Ca57  1  0.09223094  0.58863724  0.60321754  1
  Ca2+  Ca58  1  0.95474314  0.58665188  0.74840852  1
  Ca2+  Ca59  1  0.74829840  0.09205121  0.57648705  1
  Ca2+  Ca60  1  0.91684180  0.09934826  0.10709116  1
  Ca2+  Ca61  1  0.06693170  0.59675857  0.90439514  1
  Ca2+  Ca62  1  0.76219790  0.59464249  0.59062563  1
  Ca2+  Ca63  1  0.43074407  0.58474108  0.92345871  1
  Ca2+  Ca64  1  0.20339321  0.60195270  0.08786747  1
  Ca2+  Ca65  1  0.20836658  0.59763275  0.74245511  1
  Ca2+  Ca66  1  0.08205763  0.08165987  0.27857075  1
  Ca2+  Ca67  1  0.40166965  0.08502254  0.29620446  1
  Ca2+  Ca68  1  0.93878610  0.57249441  0.41853428  1
  Ca2+  Ca69  1  0.27086185  0.09689312  0.69457035  1
  Ca2+  Ca70  1  0.90947661  0.09678638  0.74831686  1
  Ca2+  Ca71  1  0.57542282  0.11368022  0.76382350  1
  Ca2+  Ca72  1  0.75830406  0.91123906  0.94102096  1
  Ca2+  Ca73  1  0.23370129  0.40662953  0.07920533  1
  Ca2+  Ca74  1  0.92888732  0.40768449  0.42794518  1
  Ca2+  Ca75  1  0.41759695  0.40355115  0.25690601  1
  Ca2+  Ca76  1  0.56852466  0.91392704  0.40095756  1
  Ca2+  Ca77  1  0.74514691  0.91229482  0.94329270  1
  Ca2+  Ca78  1  0.94122052  0.42324252  0.74563243  1
  Ca2+  Ca79  1  0.25110574  0.92485473  0.42553866  1
  Ca2+  Ca80  1  0.06499463  0.92076356  0.27717354  1
  Ca2+  Ca81  1  0.55848116  0.91737340  0.40251750  1
  Ca2+  Ca82  1  0.07593029  0.41620081  0.25445894  1
  Ca2+  Ca83  1  0.24535575  0.40720665  0.07835288  1
  Ca2+  Ca84  1  0.42424275  0.90238606  0.92893527  1
  Ca2+  Ca85  1  0.91657984  0.90246462  0.74905660  1
  Ca2+  Ca86  1  0.42855870  0.40031871  0.91441494  1
  Ca2+  Ca87  1  0.76539402  0.39683257  0.58897101  1
  Ca2+  Ca88  1  0.07818843  0.42031089  0.58945592  1
  Ca2+  Ca89  1  0.24998704  0.89843211  0.08569623  1
  Ca2+  Ca90  1  0.57524432  0.39437483  0.41643958  1
  Ca2+  Ca91  1  0.41586049  0.40037128  0.91530063  1
  Ca2+  Ca92  1  0.26282722  0.89751105  0.08623904  1
  Ca2+  Ca93  1  0.07416809  0.91875223  0.28130828  1
  Ca2+  Ca94  1  0.23235138  0.41008642  0.42254070  1
  Ca2+  Ca95  1  0.42900554  0.40287126  0.25716300  1
  Ca2+  Ca96  1  0.92612334  0.91331510  0.41496171  1
  Ca2+  Ca97  1  0.89107304  0.42338413  0.06195663  1
  Ca2+  Ca98  1  0.08084034  0.89213649  0.91732646  1
  Ca2+  Ca99  1  0.57136425  0.89953829  0.75630418  1
  Ca2+  Ca100  1  0.75273018  0.90654763  0.57387368  1
  Ca2+  Ca101  1  0.06987487  0.41414290  0.26323820  1
  Ca2+  Ca102  1  0.95352754  0.42487731  0.74732693  1
  Ca2+  Ca103  1  0.59234476  0.39520407  0.75645968  1
  Ca2+  Ca104  1  0.92794518  0.90237316  0.75017620  1
  Ca2+  Ca105  1  0.24384133  0.40993048  0.42262916  1
  Ca2+  Ca106  1  0.22391187  0.41329871  0.74059780  1
  Ca2+  Ca107  1  0.58259282  0.89953443  0.75484015  1
  Mn3.34+  Mn108  1  0.07443200  0.33615998  0.08313902  1
  Mn3.34+  Mn109  1  0.08150034  0.33097290  0.42322350  1
  Mn3.34+  Mn110  1  0.08630108  0.32670726  0.75388610  1
  Mn3.34+  Mn111  1  0.07647666  0.82784547  0.08888279  1
  Mn3.34+  Mn112  1  0.08816987  0.83467723  0.42575178  1
  Mn3.34+  Mn113  1  0.09049471  0.83132652  0.74552046  1
  Mn3.34+  Mn114  1  0.42006987  0.32921410  0.08693818  1
  Mn3.34+  Mn115  1  0.41545099  0.33054808  0.42577606  1
  Mn3.34+  Mn116  1  0.41603890  0.33110390  0.74426821  1
  Mn3.34+  Mn117  1  0.42517982  0.83206436  0.09001754  1
  Mn3.34+  Mn118  1  0.41007090  0.83902207  0.42527301  1
  Mn3.34+  Mn119  1  0.40163146  0.83780734  0.74192995  1
  Mn3.34+  Mn120  1  0.74466662  0.34529696  0.08301611  1
  Mn3.34+  Mn121  1  0.75255264  0.33108743  0.41450884  1
  Mn3.34+  Mn122  1  0.75113300  0.32563215  0.75273156  1
  Mn3.34+  Mn123  1  0.75579155  0.83228682  0.09326483  1
  Mn3.34+  Mn124  1  0.75105999  0.83874191  0.41243470  1
  Mn3.34+  Mn125  1  0.75059526  0.83096945  0.74870947  1
  Mn3.34+  Mn126  1  0.24688792  0.33471318  0.25207369  1
  Mn3.34+  Mn127  1  0.25455737  0.33294985  0.58444180  1
  Mn3.34+  Mn128  1  0.24670704  0.33222496  0.90775238  1
  Mn3.34+  Mn129  1  0.25250539  0.83226073  0.25529845  1
  Mn3.34+  Mn130  1  0.24986930  0.84343011  0.58358295  1
  Mn3.34+  Mn131  1  0.25070588  0.82790068  0.91279660  1
  Mn3.34+  Mn132  1  0.59447312  0.32939305  0.24557435  1
  Mn3.34+  Mn133  1  0.57875696  0.33056963  0.58372399  1
  Mn3.34+  Mn134  1  0.59037363  0.33720846  0.91773314  1
  Mn3.34+  Mn135  1  0.58385853  0.83340583  0.24747380  1
  Mn3.34+  Mn136  1  0.58125148  0.83551348  0.57722766  1
  Mn3.34+  Mn137  1  0.58491816  0.82894811  0.91939544  1
  Mn3.34+  Mn138  1  0.90903618  0.33832067  0.24779449  1
  Mn3.34+  Mn139  1  0.91913426  0.32941659  0.58171457  1
  Mn3.34+  Mn140  1  0.90716173  0.34302600  0.91422573  1
  Mn3.34+  Mn141  1  0.91547368  0.83817457  0.24371672  1
  Mn3.34+  Mn142  1  0.91931775  0.83297187  0.57782942  1
  Mn3.34+  Mn143  1  0.91698081  0.82935307  0.91813229  1
  Mn3.34+  Mn144  1  0.07806599  0.17227083  0.75777705  1
  Mn3.34+  Mn145  1  0.92454436  0.17564865  0.57647449  1
  Mn3.34+  Mn146  1  0.91870609  0.66545689  0.58140139  1
  Mn3.34+  Mn147  1  0.75068262  0.16407098  0.40688795  1
  Mn3.34+  Mn148  1  0.41421295  0.67466021  0.08813952  1
  Mn3.34+  Mn149  1  0.41825337  0.66510310  0.74829542  1
  Mn3.34+  Mn150  1  0.75701959  0.66865310  0.08721282  1
  Mn3.34+  Mn151  1  0.74936723  0.16967490  0.08413290  1
  Mn3.34+  Mn152  1  0.08193438  0.17096754  0.08724356  1
  Mn3.34+  Mn153  1  0.42070456  0.16856594  0.09014402  1
  Mn3.34+  Mn154  1  0.25700891  0.17143520  0.91675128  1
  Mn3.34+  Mn155  1  0.09363755  0.65879134  0.41962234  1
  Mn3.34+  Mn156  1  0.90934471  0.16884082  0.91450272  1
  Mn3.34+  Mn157  1  0.08346571  0.66364981  0.41773638  1
  Mn3.34+  Mn158  1  0.08695344  0.17839812  0.75704675  1
  Mn3.34+  Mn159  1  0.74438388  0.66330862  0.41458963  1
  Mn3.34+  Mn160  1  0.42174923  0.66188198  0.41452449  1
  Mn3.34+  Mn161  1  0.24858291  0.66998884  0.25017611  1
  Mn3.34+  Mn162  1  0.92115620  0.66334355  0.24407914  1
  Mn3.34+  Mn163  1  0.91547485  0.16981449  0.57572128  1
  Mn3.34+  Mn164  1  0.75729479  0.66978750  0.41241622  1
  Mn3.34+  Mn165  1  0.08736934  0.15996103  0.41920430  1
  Mn3.34+  Mn166  1  0.40957269  0.67145575  0.74714300  1
  Mn3.34+  Mn167  1  0.58206617  0.16371740  0.24908148  1
  Mn3.34+  Mn168  1  0.74057384  0.16365546  0.08531987  1
  Mn3.34+  Mn169  1  0.58600101  0.66733659  0.24758820  1
  Mn3.34+  Mn170  1  0.24883918  0.17775073  0.91975639  1
  Mn3.34+  Mn171  1  0.75421275  0.66705054  0.75542011  1
  Mn3.34+  Mn172  1  0.41130253  0.66614102  0.41363333  1
  Mn3.34+  Mn173  1  0.42320771  0.68057061  0.08601243  1
  Mn3.34+  Mn174  1  0.24779008  0.66625413  0.91186255  1
  Mn3.34+  Mn175  1  0.74888812  0.17655032  0.75166114  1
  Mn3.34+  Mn176  1  0.57809306  0.16838775  0.58349868  1
  Mn3.34+  Mn177  1  0.25131476  0.16857197  0.26027199  1
  Mn3.34+  Mn178  1  0.59085875  0.66446670  0.91076189  1
  Mn3.34+  Mn179  1  0.91670294  0.66257340  0.91234048  1
  Mn3.34+  Mn180  1  0.56361518  -0.00063118  0.58670361  1
  Mn3.34+  Mn181  1  0.40300734  -0.00742972  0.73091687  1
  Mn3.34+  Mn182  1  0.75696736  0.50090184  0.76438921  1
  Mn3.34+  Mn183  1  0.57620316  0.00159633  0.25467850  1
  Mn3.34+  Mn184  1  0.42387490  0.49324562  0.74291944  1
  Mn3.34+  Mn185  1  0.75012975  -0.00310874  0.09262103  1
  Mn3.34+  Mn186  1  0.58375260  0.00142411  0.92683944  1
  Mn3.34+  Mn187  1  0.41411323  0.50010562  0.09510015  1
  Mn3.34+  Mn188  1  0.41021920  0.49962323  0.74497323  1
  Mn3.34+  Mn189  1  0.06385994  -0.00257382  0.09140867  1
  Mn3.34+  Mn190  1  0.75390449  0.00778122  0.75374234  1
  Mn3.34+  Mn191  1  0.24502012  0.50263161  0.58757488  1
  Mn3.34+  Mn192  1  0.09103350  0.00417769  0.74060037  1
  Mn3.34+  Mn193  1  0.42497942  0.50470861  0.09449241  1
  Mn3.34+  Mn194  1  0.41348035  -0.00217505  0.73980682  1
  Mn3.34+  Mn195  1  0.75544422  0.00020920  0.39314926  1
  Mn3.34+  Mn196  1  0.58225668  0.49702878  0.24624242  1
  Mn3.34+  Mn197  1  0.07396074  0.49879606  0.06686773  1
  Mn3.34+  Mn198  1  0.74958865  0.49321284  0.41100972  1
  Mn3.34+  Mn199  1  0.42425809  0.00070971  0.08771639  1
  Mn3.34+  Mn200  1  0.73765424  0.49833031  0.41293577  1
  Mn3.34+  Mn201  1  0.57266656  0.49744020  0.57571645  1
  Mn3.34+  Mn202  1  0.74565782  0.49392150  0.76560694  1
  Mn3.34+  Mn203  1  0.92015463  0.50281643  0.25330640  1
  Mn3.34+  Mn204  1  0.24559137  0.51105932  0.27152932  1
  Mn3.34+  Mn205  1  0.93140306  -0.00065147  0.57912722  1
  Mn3.34+  Mn206  1  0.24590962  -0.00170478  0.91096303  1
  Mn3.34+  Mn207  1  0.26032175  -0.00322928  0.26444349  1
  Mn3.34+  Mn208  1  0.10303093  -0.00258038  0.73555416  1
  Mn3.34+  Mn209  1  0.23134637  0.50050231  0.91238281  1
  Mn3.34+  Mn210  1  0.26013274  0.00465941  0.91263108  1
  Mn3.34+  Mn211  1  0.90860573  0.00607166  0.92026276  1
  Mn3.34+  Mn212  1  0.42122504  0.49920409  0.41279837  1
  Mn3.34+  Mn213  1  0.73823202  0.00351584  0.75267260  1
  Mn3.34+  Mn214  1  0.58770233  0.50208149  0.57683487  1
  Mn3.34+  Mn215  1  0.07611039  0.00153627  0.09273135  1
  O2-  O216  1  -0.00152243  0.16298475  -0.00043377  1
  O2-  O217  1  0.00400998  0.16434563  0.33370049  1
  O2-  O218  1  -0.00472143  0.17327072  0.67284673  1
  O2-  O219  1  -0.00121770  0.66601762  -0.00929683  1
  O2-  O220  1  0.00026443  0.65821999  0.33681371  1
  O2-  O221  1  0.00041945  0.65615224  0.65465700  1
  O2-  O222  1  0.33426774  0.14786732  0.00110144  1
  O2-  O223  1  0.33528131  0.17531307  0.33157255  1
  O2-  O224  1  0.33970219  0.17260125  0.66225047  1
  O2-  O225  1  0.33552092  0.65440102  0.00100937  1
  O2-  O226  1  0.33676348  0.67215395  0.32944977  1
  O2-  O227  1  0.32482207  0.66561614  0.67157230  1
  O2-  O228  1  0.66398095  0.15758836  0.00528187  1
  O2-  O229  1  0.65751222  0.14682031  0.33756436  1
  O2-  O230  1  0.67588384  0.15449846  0.65912502  1
  O2-  O231  1  0.67439415  0.65386069  -0.00431401  1
  O2-  O232  1  0.67401443  0.64679130  0.32615724  1
  O2-  O233  1  0.67738828  0.65281767  0.67229841  1
  O2-  O234  1  0.17156163  0.15624738  0.00463031  1
  O2-  O235  1  0.16474867  0.15656841  0.33028392  1
  O2-  O236  1  0.17102875  0.17321718  0.67829156  1
  O2-  O237  1  0.16777036  0.66085920  -0.00569674  1
  O2-  O238  1  0.16880201  0.65128526  0.33399004  1
  O2-  O239  1  0.16409340  0.67012885  0.66127447  1
  O2-  O240  1  0.49693574  0.16175951  0.01097637  1
  O2-  O241  1  0.49965714  0.16219142  0.32742471  1
  O2-  O242  1  0.50711190  0.15997575  0.66308960  1
  O2-  O243  1  0.50231401  0.65533642  -0.00008231  1
  O2-  O244  1  0.49794788  0.67286680  0.33095839  1
  O2-  O245  1  0.49474438  0.65104905  0.66592815  1
  O2-  O246  1  0.83594562  0.15538235  0.00512330  1
  O2-  O247  1  0.83461846  0.16228595  0.33775799  1
  O2-  O248  1  0.83499638  0.17563829  0.66674977  1
  O2-  O249  1  0.83829062  0.65891458  0.00632479  1
  O2-  O250  1  0.83812667  0.65268401  0.33569844  1
  O2-  O251  1  0.83927543  0.65069617  0.67482420  1
  O2-  O252  1  -0.01085166  0.33159296  0.00301679  1
  O2-  O253  1  -0.00010304  0.34900899  0.33757970  1
  O2-  O254  1  -0.00429400  0.32896419  0.67442955  1
  O2-  O255  1  0.00715098  0.82555303  -0.00554668  1
  O2-  O256  1  -0.00035443  0.83495463  0.33209519  1
  O2-  O257  1  -0.00095696  0.84546681  0.66896369  1
  O2-  O258  1  0.32842315  0.34978183  0.00268722  1
  O2-  O259  1  0.33196071  0.34691386  0.33420588  1
  O2-  O260  1  0.32246517  0.34853635  0.67739254  1
  O2-  O261  1  0.33554998  0.83298745  0.00436162  1
  O2-  O262  1  0.33030847  0.82970704  0.34396190  1
  O2-  O263  1  0.32442431  0.81283242  0.66241341  1
  O2-  O264  1  0.66656978  0.33842257  0.00043214  1
  O2-  O265  1  0.66535591  0.34554147  0.33672936  1
  O2-  O266  1  0.67356214  0.34039772  0.66225056  1
  O2-  O267  1  0.67100590  0.84039287  -0.00484064  1
  O2-  O268  1  0.65731064  0.84969361  0.34294955  1
  O2-  O269  1  0.66429886  0.85335964  0.66552655  1
  O2-  O270  1  0.16713090  0.33898436  -0.00203433  1
  O2-  O271  1  0.16254988  0.35377261  0.33172831  1
  O2-  O272  1  0.16031638  0.33522697  0.66193202  1
  O2-  O273  1  0.16927008  0.83768798  0.00801635  1
  O2-  O274  1  0.16673350  0.85414936  0.33230754  1
  O2-  O275  1  0.16871813  0.82432904  0.66193355  1
  O2-  O276  1  0.49583501  0.34203809  -0.00165708  1
  O2-  O277  1  0.49302274  0.33129258  0.33584905  1
  O2-  O278  1  0.50484631  0.34665122  0.67225347  1
  O2-  O279  1  0.49655952  0.82857155  -0.00315309  1
  O2-  O280  1  0.49564963  0.82912981  0.34198604  1
  O2-  O281  1  0.49655687  0.85104040  0.66515709  1
  O2-  O282  1  0.83432122  0.33322993  -0.00006011  1
  O2-  O283  1  0.84093347  0.34324987  0.34231505  1
  O2-  O284  1  0.83321824  0.31483676  0.66455993  1
  O2-  O285  1  0.83287144  0.84038282  -0.00407291  1
  O2-  O286  1  0.83959207  0.83054931  0.33199320  1
  O2-  O287  1  0.83373723  0.85120757  0.66751648  1
  O2-  O288  1  -0.00351201  0.17406335  0.15775817  1
  O2-  O289  1  0.00435858  0.18785068  0.49677762  1
  O2-  O290  1  -0.00459639  0.19336272  0.83788382  1
  O2-  O291  1  -0.00908923  0.69144272  0.16964466  1
  O2-  O292  1  -0.00420456  0.68119310  0.49287702  1
  O2-  O293  1  -0.00509543  0.67069988  0.83247080  1
  O2-  O294  1  0.32709078  0.17502508  0.16459725  1
  O2-  O295  1  0.33896549  0.16523384  0.50134564  1
  O2-  O296  1  0.32892936  0.18622278  0.83285098  1
  O2-  O297  1  0.32844650  0.69232180  0.16319512  1
  O2-  O298  1  0.33924827  0.68830451  0.49663594  1
  O2-  O299  1  0.33921539  0.68058129  0.83793737  1
  O2-  O300  1  0.66263553  0.17540097  0.16736401  1
  O2-  O301  1  0.66660220  0.16973962  0.49736495  1
  O2-  O302  1  0.66432227  0.19117376  0.81593108  1
  O2-  O303  1  0.66193285  0.67510365  0.15544134  1
  O2-  O304  1  0.67761636  0.67794273  0.50266133  1
  O2-  O305  1  0.66291449  0.68173102  0.82530674  1
  O2-  O306  1  0.17113608  0.16706851  0.16359053  1
  O2-  O307  1  0.16714656  0.16971862  0.49650955  1
  O2-  O308  1  0.15476514  0.18740727  0.85160373  1
  O2-  O309  1  0.17085741  0.67974420  0.16412225  1
  O2-  O310  1  0.16231844  0.68187708  0.50231094  1
  O2-  O311  1  0.16964135  0.67138616  0.83626896  1
  O2-  O312  1  0.50197653  0.18431022  0.16628372  1
  O2-  O313  1  0.50807574  0.17936351  0.49708228  1
  O2-  O314  1  0.50052227  0.17476846  0.83339158  1
  O2-  O315  1  0.50373448  0.69036952  0.16637818  1
  O2-  O316  1  0.49563610  0.68658236  0.49264462  1
  O2-  O317  1  0.49568572  0.67683993  0.83548872  1
  O2-  O318  1  0.83380712  0.17645200  0.16106668  1
  O2-  O319  1  0.82367768  0.18357995  0.50417901  1
  O2-  O320  1  0.83184788  0.19173191  0.83302908  1
  O2-  O321  1  0.82624250  0.68478081  0.17678068  1
  O2-  O322  1  0.83021659  0.68457345  0.50196545  1
  O2-  O323  1  0.82916192  0.68157365  0.83626109  1
  O2-  O324  1  0.00825758  0.32831727  0.17870649  1
  O2-  O325  1  0.00036098  0.31395421  0.50250003  1
  O2-  O326  1  -0.00151439  0.31488695  0.83382596  1
  O2-  O327  1  0.00145704  0.80989610  0.17170163  1
  O2-  O328  1  -0.00048537  0.81882470  0.49757387  1
  O2-  O329  1  -0.00565813  0.83025278  0.82856814  1
  O2-  O330  1  0.32996613  0.33323204  0.16643039  1
  O2-  O331  1  0.32122891  0.32765811  0.48801201  1
  O2-  O332  1  0.34336522  0.31591456  0.84580907  1
  O2-  O333  1  0.33098130  0.81814852  0.16195508  1
  O2-  O334  1  0.33278877  0.81540292  0.50449791  1
  O2-  O335  1  0.33761913  0.82718538  0.83845073  1
  O2-  O336  1  0.66796490  0.31755117  0.16364505  1
  O2-  O337  1  0.66538861  0.32598821  0.49648187  1
  O2-  O338  1  0.66077648  0.32043875  0.82561631  1
  O2-  O339  1  0.66998114  0.82329534  0.16803891  1
  O2-  O340  1  0.67014491  0.82528976  0.50204659  1
  O2-  O341  1  0.66323920  0.82744281  0.82926381  1
  O2-  O342  1  0.17092423  0.33757727  0.16284004  1
  O2-  O343  1  0.17125790  0.32538401  0.49546207  1
  O2-  O344  1  0.17096814  0.30109651  0.82679508  1
  O2-  O345  1  0.17032582  0.82063412  0.16177042  1
  O2-  O346  1  0.17208996  0.81915487  0.50125580  1
  O2-  O347  1  0.16062189  0.82188606  0.84163461  1
  O2-  O348  1  0.49091050  0.31900150  0.17835641  1
  O2-  O349  1  0.50167541  0.31031860  0.49699678  1
  O2-  O350  1  0.49774830  0.32418429  0.83371185  1
  O2-  O351  1  0.50331344  0.80866198  0.16608352  1
  O2-  O352  1  0.50154315  0.81886641  0.49495586  1
  O2-  O353  1  0.50551068  0.82975113  0.83419905  1
  O2-  O354  1  0.83300801  0.32733518  0.16461720  1
  O2-  O355  1  0.83419677  0.31442980  0.50434726  1
  O2-  O356  1  0.82981247  0.31046599  0.83767570  1
  O2-  O357  1  0.83865498  0.81240439  0.16657873  1
  O2-  O358  1  0.83038259  0.82149038  0.50062108  1
  O2-  O359  1  0.83224257  0.83432558  0.83322112  1
  O2-  O360  1  0.09025367  0.08421902  0.09834027  1
  O2-  O361  1  0.06327829  0.08302155  0.42486490  1
  O2-  O362  1  0.07413668  0.08328335  0.78888848  1
  O2-  O363  1  0.07576390  0.57603224  0.10333806  1
  O2-  O364  1  0.07571010  0.57995641  0.45456299  1
  O2-  O365  1  0.08946601  0.56604201  0.78283495  1
  O2-  O366  1  0.40671664  0.08227024  0.11847999  1
  O2-  O367  1  0.43286331  0.07307224  0.42686264  1
  O2-  O368  1  0.39274664  0.07136835  0.78835833  1
  O2-  O369  1  0.41571474  0.58737569  0.11047579  1
  O2-  O370  1  0.41833812  0.57917744  0.44974466  1
  O2-  O371  1  0.42007654  0.57799347  0.78879456  1
  O2-  O372  1  0.76586578  0.08028354  0.11861532  1
  O2-  O373  1  0.75675597  0.07822976  0.44367320  1
  O2-  O374  1  0.76481082  0.08878057  0.76897104  1
  O2-  O375  1  0.75061136  0.58632921  0.10701817  1
  O2-  O376  1  0.75723246  0.57855317  0.45486324  1
  O2-  O377  1  0.73936550  0.58099720  0.79118251  1
  O2-  O378  1  0.26050257  0.07689772  0.23078974  1
  O2-  O379  1  0.26050636  0.09437226  0.55734455  1
  O2-  O380  1  0.23946720  0.08416091  0.87997436  1
  O2-  O381  1  0.26226731  0.58350464  0.21414041  1
  O2-  O382  1  0.24848951  0.57703856  0.56378217  1
  O2-  O383  1  0.27567568  0.58109941  0.88889016  1
  O2-  O384  1  0.57013300  0.07924794  0.21360929  1
  O2-  O385  1  0.59649549  0.08079307  0.55289190  1
  O2-  O386  1  0.58150182  0.07381128  0.88724144  1
  O2-  O387  1  0.58617448  0.57782076  0.20746747  1
  O2-  O388  1  0.61128072  0.57939119  0.55516477  1
  O2-  O389  1  0.56411196  0.58394174  0.88318626  1
  O2-  O390  1  0.96306450  0.05149176  0.20603282  1
  O2-  O391  1  0.88870290  0.08232208  0.56861096  1
  O2-  O392  1  0.92751530  0.08409380  0.87900484  1
  O2-  O393  1  0.90317815  0.57748452  0.21101772  1
  O2-  O394  1  0.89730668  0.58540362  0.55026840  1
  O2-  O395  1  0.91517063  0.58136000  0.89244376  1
  O2-  O396  1  0.09373198  0.42397629  0.11540733  1
  O2-  O397  1  0.08622133  0.41523190  0.45186511  1
  O2-  O398  1  0.08301564  0.41007868  0.76854175  1
  O2-  O399  1  0.09312429  0.91659960  0.11433721  1
  O2-  O400  1  0.08109328  0.91575840  0.42473466  1
  O2-  O401  1  0.08140281  0.92065212  0.78087622  1
  O2-  O402  1  0.42120337  0.41752077  0.11282959  1
  O2-  O403  1  0.42784173  0.41925950  0.44130977  1
  O2-  O404  1  0.41385378  0.41538954  0.78064529  1
  O2-  O405  1  0.39871974  0.91887742  0.09281961  1
  O2-  O406  1  0.42384691  0.91705558  0.43886335  1
  O2-  O407  1  0.42788141  0.92061980  0.79175797  1
  O2-  O408  1  0.75460482  0.42103866  0.09759289  1
  O2-  O409  1  0.76478131  0.41675753  0.45433645  1
  O2-  O410  1  0.76312178  0.41313385  0.76145264  1
  O2-  O411  1  0.75359271  0.91552906  0.08492564  1
  O2-  O412  1  0.74784742  0.92287364  0.43902487  1
  O2-  O413  1  0.73719864  0.92278421  0.78495686  1
  O2-  O414  1  0.26513692  0.43794552  0.20315747  1
  O2-  O415  1  0.24012374  0.42176927  0.55783669  1
  O2-  O416  1  0.26305475  0.42018675  0.87631919  1
  O2-  O417  1  0.25139498  0.92136740  0.21684584  1
  O2-  O418  1  0.25256852  0.91806046  0.56058259  1
  O2-  O419  1  0.25669842  0.91598110  0.92014425  1
  O2-  O420  1  0.56630526  0.41359444  0.23297806  1
  O2-  O421  1  0.58065043  0.41607916  0.55532358  1
  O2-  O422  1  0.55746822  0.42081750  0.88429135  1
  O2-  O423  1  0.56726281  0.91875146  0.25304517  1
  O2-  O424  1  0.58724030  0.92093523  0.54087990  1
  O2-  O425  1  0.58946240  0.92026955  0.89259596  1
  O2-  O426  1  0.93016194  0.42523849  0.21149698  1
  O2-  O427  1  0.91924863  0.41192017  0.57530798  1
  O2-  O428  1  0.91258461  0.42122956  0.87760321  1
  O2-  O429  1  0.93983781  0.91493514  0.22731340  1
  O2-  O430  1  0.90981798  0.91719235  0.55296730  1
  O2-  O431  1  0.91044855  0.92196190  0.88838130  1
  O2-  O432  1  0.00638169  0.00700599  -0.00977340  1
  O2-  O433  1  0.00499609  -0.00330862  0.33430586  1
  O2-  O434  1  -0.01474463  -0.00423995  0.69151971  1
  O2-  O435  1  -0.02326741  0.49955820  0.02014897  1
  O2-  O436  1  -0.00103001  0.48715125  0.33133088  1
  O2-  O437  1  -0.00867900  0.50028507  0.68483293  1
  O2-  O438  1  0.31466491  0.00976017  0.02161063  1
  O2-  O439  1  0.32772375  -0.00579093  0.34232523  1
  O2-  O440  1  0.33425747  0.01233965  0.65123121  1
  O2-  O441  1  0.34645978  0.49140749  -0.00766859  1
  O2-  O442  1  0.32540630  0.47780374  0.34627839  1
  O2-  O443  1  0.32910999  0.49875022  0.66506268  1
  O2-  O444  1  0.67802767  -0.00397238  -0.00776356  1
  O2-  O445  1  0.64640105  0.00462168  0.35909487  1
  O2-  O446  1  0.68117958  0.00750456  0.64749284  1
  O2-  O447  1  0.67849292  0.52062300  -0.01058880  1
  O2-  O448  1  0.67031126  0.50717127  0.32008237  1
  O2-  O449  1  0.65291700  0.49796680  0.68064563  1
  O2-  O450  1  0.16129410  0.00627048  -0.00097986  1
  O2-  O451  1  0.15898429  -0.00366881  0.30668116  1
  O2-  O452  1  0.17161487  0.03120778  0.66150666  1
  O2-  O453  1  0.18922563  0.50228137  0.03321719  1
  O2-  O454  1  0.16578162  0.47206103  0.33086548  1
  O2-  O455  1  0.16104768  0.49771104  0.65536253  1
  O2-  O456  1  0.48365345  0.00670783  -0.01545026  1
  O2-  O457  1  0.50062191  0.00731112  0.33795447  1
  O2-  O458  1  0.52801737  -0.00839913  0.70438127  1
  O2-  O459  1  0.50253047  0.51837539  0.00645215  1
  O2-  O460  1  0.48601147  0.48932503  0.31487151  1
  O2-  O461  1  0.49543170  0.52053848  0.65906386  1
  O2-  O462  1  0.84161798  0.00359872  0.01626514  1
  O2-  O463  1  0.86163839  -0.00497558  0.37256262  1
  O2-  O464  1  0.83445876  -0.00822082  0.67001498  1
  O2-  O465  1  0.83634682  0.51121919  0.02027177  1
  O2-  O466  1  0.84324098  0.51052941  0.34244093  1
  O2-  O467  1  0.81547397  0.50627227  0.66320651  1
  O2-  O468  1  0.25756873  0.74746309  0.93669253  1
  O2-  O469  1  0.74881311  0.75060910  0.06109979  1
  O2-  O470  1  0.73770002  0.24825632  0.39296778  1
  O2-  O471  1  0.09440529  0.25162220  0.39471172  1
  O2-  O472  1  0.74825092  0.74922063  0.72503089  1
  O2-  O473  1  0.23414169  0.75055521  0.27663034  1
  O2-  O474  1  0.91495886  0.75050372  0.60680227  1
  O2-  O475  1  0.23711036  0.25060987  0.25601267  1
  O2-  O476  1  0.25941390  0.25440001  0.58834447  1
  O2-  O477  1  0.09036149  0.74696320  0.39285633  1
  O2-  O478  1  0.91506933  0.25833084  0.25681941  1
  O2-  O479  1  0.59235223  0.24715712  0.27230703  1
  O2-  O480  1  0.90765044  0.74956246  0.92631441  1
  O2-  O481  1  0.59329651  0.24958294  0.60689098  1
  O2-  O482  1  0.75024944  0.25103137  0.06655543  1
  O2-  O483  1  0.43693806  0.75400459  0.73936382  1
  O2-  O484  1  0.07742789  0.75253941  0.74387084  1
  O2-  O485  1  0.58326002  0.25699535  0.93562603  1
  O2-  O486  1  0.60177671  0.74975396  0.27503402  1
  O2-  O487  1  0.40024841  0.24965013  0.06295766  1
  O2-  O488  1  0.73977028  0.75283305  0.39190737  1
  O2-  O489  1  0.09388854  0.25114139  0.07428746  1
  O2-  O490  1  0.58737547  0.74711591  0.93471483  1
  O2-  O491  1  0.58659306  0.75759401  0.60251645  1
  O2-  O492  1  0.41944172  0.25537376  0.72539029  1
