# generated using pymatgen
data_Ca108Mn108O277
_symmetry_space_group_name_H-M   'P 1'
_cell_length_a   16.03152612
_cell_length_b   22.31302270
_cell_length_c   16.39283749
_cell_angle_alpha   90.00533235
_cell_angle_beta   90.00048884
_cell_angle_gamma   89.99719995
_symmetry_Int_Tables_number   1
_chemical_formula_structural   Ca108Mn108O277
_chemical_formula_sum   'Ca108 Mn108 O277'
_cell_volume   5863.91147499
_cell_formula_units_Z   1
loop_
 _symmetry_equiv_pos_site_id
 _symmetry_equiv_pos_as_xyz
  1  'x, y, z'
loop_
 _atom_type_symbol
 _atom_type_oxidation_number
  Ca2+  2.0
  Mn3.34+  3.34
  O2-  -2.0
loop_
 _atom_site_type_symbol
 _atom_site_label
 _atom_site_symmetry_multiplicity
 _atom_site_fract_x
 _atom_site_fract_y
 _atom_site_fract_z
 _atom_site_occupancy
  Ca2+  Ca0  1  0.07363721  0.26089164  0.23832487  1
  Ca2+  Ca1  1  0.05131047  0.25129663  0.58879274  1
  Ca2+  Ca2  1  0.07941601  0.26139751  0.91692945  1
  Ca2+  Ca3  1  0.09022385  0.75122981  0.25477772  1
  Ca2+  Ca4  1  0.09593161  0.74143563  0.58009171  1
  Ca2+  Ca5  1  0.09714009  0.75232515  0.91679956  1
  Ca2+  Ca6  1  0.45497458  0.23053861  0.24698284  1
  Ca2+  Ca7  1  0.43366766  0.24929663  0.57014968  1
  Ca2+  Ca8  1  0.43210831  0.25636770  0.93007632  1
  Ca2+  Ca9  1  0.41268926  0.75244275  0.24515366  1
  Ca2+  Ca10  1  0.42351024  0.74034107  0.58933943  1
  Ca2+  Ca11  1  0.39825008  0.75140287  0.90563737  1
  Ca2+  Ca12  1  0.74019819  0.22100345  0.26307612  1
  Ca2+  Ca13  1  0.75934837  0.25475612  0.55991342  1
  Ca2+  Ca14  1  0.73663036  0.24715098  0.93236717  1
  Ca2+  Ca15  1  0.74012563  0.75176731  0.25593349  1
  Ca2+  Ca16  1  0.72317530  0.73728102  0.58822763  1
  Ca2+  Ca17  1  0.76970876  0.75237292  0.90396058  1
  Ca2+  Ca18  1  0.25754021  0.25463837  0.08540766  1
  Ca2+  Ca19  1  0.26692993  0.25375986  0.41307662  1
  Ca2+  Ca20  1  0.24148445  0.26821585  0.74877733  1
  Ca2+  Ca21  1  0.24636987  0.75596172  0.08521111  1
  Ca2+  Ca22  1  0.24120166  0.74420619  0.41408543  1
  Ca2+  Ca23  1  0.26224082  0.71928357  0.74113033  1
  Ca2+  Ca24  1  0.59908683  0.23253692  0.08642908  1
  Ca2+  Ca25  1  0.60348055  0.25470698  0.40858709  1
  Ca2+  Ca26  1  0.58440057  0.25697127  0.75559031  1
  Ca2+  Ca27  1  0.56850276  0.75961667  0.10316114  1
  Ca2+  Ca28  1  0.58119077  0.75787819  0.41873330  1
  Ca2+  Ca29  1  0.56028293  0.73860358  0.72818443  1
  Ca2+  Ca30  1  0.89649041  0.25428619  0.09853378  1
  Ca2+  Ca31  1  0.89526742  0.25737202  0.41932794  1
  Ca2+  Ca32  1  0.92317175  0.26186630  0.73380414  1
  Ca2+  Ca33  1  0.93413353  0.75508908  0.08583901  1
  Ca2+  Ca34  1  0.92928584  0.75245729  0.41170221  1
  Ca2+  Ca35  1  0.92305978  0.73587304  0.75037680  1
  Ca2+  Ca36  1  0.08208704  0.07145995  0.27280909  1
  Ca2+  Ca37  1  0.27863758  0.08975623  0.39845986  1
  Ca2+  Ca38  1  0.93261864  0.58132551  0.73149800  1
  Ca2+  Ca39  1  0.93569584  0.58794487  0.09088430  1
  Ca2+  Ca40  1  0.59493513  0.09324782  0.74737938  1
  Ca2+  Ca41  1  0.75548961  0.58465429  0.90452317  1
  Ca2+  Ca42  1  0.58392874  0.60647895  0.45502296  1
  Ca2+  Ca43  1  0.41324021  0.60122412  0.25526121  1
  Ca2+  Ca44  1  0.57269499  0.59215425  0.09567612  1
  Ca2+  Ca45  1  0.90584390  0.10774499  0.43100074  1
  Ca2+  Ca46  1  0.89066345  0.09746297  0.09857916  1
  Ca2+  Ca47  1  0.41771169  0.59492719  0.58984322  1
  Ca2+  Ca48  1  0.93134705  0.09844870  0.72369813  1
  Ca2+  Ca49  1  0.10124848  0.60412137  0.87850592  1
  Ca2+  Ca50  1  0.58379554  0.09283318  0.74780723  1
  Ca2+  Ca51  1  0.72548425  0.08806110  0.94957852  1
  Ca2+  Ca52  1  0.74285686  0.58341632  0.90555227  1
  Ca2+  Ca53  1  0.23651154  0.07922336  0.75683532  1
  Ca2+  Ca54  1  0.93167990  0.58586694  0.10005658  1
  Ca2+  Ca55  1  0.46622901  0.09713816  0.57496594  1
  Ca2+  Ca56  1  0.87842416  0.09654800  0.10213149  1
  Ca2+  Ca57  1  0.24953237  0.59903450  0.07566185  1
  Ca2+  Ca58  1  0.76419440  0.57935808  0.28189408  1
  Ca2+  Ca59  1  0.56578187  0.12397067  0.41227978  1
  Ca2+  Ca60  1  0.06767157  0.59323035  0.26173044  1
  Ca2+  Ca61  1  0.89246367  0.10744176  0.42974943  1
  Ca2+  Ca62  1  0.92251516  0.10130259  0.71567123  1
  Ca2+  Ca63  1  0.43064973  0.09538663  0.96422113  1
  Ca2+  Ca64  1  0.56176980  0.59456610  0.09739935  1
  Ca2+  Ca65  1  0.71841665  0.11646188  0.56638922  1
  Ca2+  Ca66  1  0.59244402  0.60364412  0.45084707  1
  Ca2+  Ca67  1  0.24826264  0.07570327  0.75477664  1
  Ca2+  Ca68  1  0.09260067  0.58147268  0.62043187  1
  Ca2+  Ca69  1  0.57584777  0.58404263  0.69835557  1
  Ca2+  Ca70  1  0.72825012  0.11881475  0.56449668  1
  Ca2+  Ca71  1  0.57337790  0.11970338  0.40848181  1
  Ca2+  Ca72  1  0.60635516  0.41699431  0.42424975  1
  Ca2+  Ca73  1  0.74826069  0.40441145  0.90898730  1
  Ca2+  Ca74  1  0.72981629  0.89358467  0.57961212  1
  Ca2+  Ca75  1  0.41352592  0.90940052  0.91643553  1
  Ca2+  Ca76  1  0.57046345  0.90862210  0.08575785  1
  Ca2+  Ca77  1  0.57772734  0.41689445  0.74029250  1
  Ca2+  Ca78  1  0.73655046  0.40492260  0.90905063  1
  Ca2+  Ca79  1  0.42467159  0.41355260  0.59244796  1
  Ca2+  Ca80  1  0.25710983  0.40094559  0.07801678  1
  Ca2+  Ca81  1  0.24285155  0.90426896  0.40547231  1
  Ca2+  Ca82  1  0.59448381  0.41668521  0.42028367  1
  Ca2+  Ca83  1  0.57471919  0.39944434  0.08488329  1
  Ca2+  Ca84  1  0.42079695  0.39709964  0.24757963  1
  Ca2+  Ca85  1  0.10351636  0.40692673  0.90994207  1
  Ca2+  Ca86  1  0.23506398  0.42571656  0.74172392  1
  Ca2+  Ca87  1  0.77463577  0.41713999  0.26525335  1
  Ca2+  Ca88  1  0.25622313  0.90134810  0.75572817  1
  Ca2+  Ca89  1  0.74537412  0.90686858  0.91922238  1
  Ca2+  Ca90  1  0.08580668  0.89283667  0.57000021  1
  Ca2+  Ca91  1  0.73391254  0.90610064  0.91895262  1
  Ca2+  Ca92  1  0.92511681  0.89372043  0.74719497  1
  Ca2+  Ca93  1  0.26748845  0.90136345  0.75655169  1
  Ca2+  Ca94  1  0.05657528  0.41496816  0.25300570  1
  Ca2+  Ca95  1  0.93136882  0.42269077  0.72360859  1
  Ca2+  Ca96  1  0.55444747  0.92365205  0.71653847  1
  Ca2+  Ca97  1  0.23863219  0.40756747  0.42105583  1
  Ca2+  Ca98  1  0.93769269  0.89305228  0.74815485  1
  Ca2+  Ca99  1  0.54275829  0.92580801  0.71998800  1
  Ca2+  Ca100  1  0.92025419  0.90513454  0.09513640  1
  Ca2+  Ca101  1  0.76429826  0.41677056  0.26342523  1
  Ca2+  Ca102  1  0.41390023  0.89978130  0.25062751  1
  Ca2+  Ca103  1  0.25135398  0.40858277  0.41938025  1
  Ca2+  Ca104  1  0.07136699  0.42257969  0.59679307  1
  Ca2+  Ca105  1  0.08329050  0.91215431  0.27020085  1
  Ca2+  Ca106  1  0.91985060  0.40590505  0.09278269  1
  Ca2+  Ca107  1  0.74253005  0.90021742  0.24921129  1
  Mn3.34+  Mn108  1  0.08307092  0.33654542  0.08133551  1
  Mn3.34+  Mn109  1  0.07656229  0.34125371  0.42162535  1
  Mn3.34+  Mn110  1  0.08334971  0.33801809  0.75129136  1
  Mn3.34+  Mn111  1  0.08636231  0.83805802  0.08760225  1
  Mn3.34+  Mn112  1  0.08261242  0.83310596  0.41765638  1
  Mn3.34+  Mn113  1  0.09319300  0.82484741  0.74922052  1
  Mn3.34+  Mn114  1  0.41790532  0.33165389  0.08554210  1
  Mn3.34+  Mn115  1  0.42286794  0.33246302  0.42092585  1
  Mn3.34+  Mn116  1  0.41296801  0.33842225  0.75430600  1
  Mn3.34+  Mn117  1  0.40942928  0.83716231  0.08279057  1
  Mn3.34+  Mn118  1  0.41326856  0.82885167  0.41998378  1
  Mn3.34+  Mn119  1  0.41576847  0.82762298  0.74832098  1
  Mn3.34+  Mn120  1  0.74941772  0.33462668  0.08789837  1
  Mn3.34+  Mn121  1  0.75506531  0.33844914  0.41922029  1
  Mn3.34+  Mn122  1  0.75020252  0.33641226  0.74282364  1
  Mn3.34+  Mn123  1  0.74970755  0.83323651  0.08641759  1
  Mn3.34+  Mn124  1  0.75113288  0.82857763  0.41870596  1
  Mn3.34+  Mn125  1  0.74707106  0.82764816  0.74990711  1
  Mn3.34+  Mn126  1  0.24780689  0.33175933  0.24680021  1
  Mn3.34+  Mn127  1  0.25145275  0.33495303  0.58604950  1
  Mn3.34+  Mn128  1  0.25960395  0.33760624  0.91346262  1
  Mn3.34+  Mn129  1  0.24836660  0.83265054  0.24657623  1
  Mn3.34+  Mn130  1  0.25652563  0.82910460  0.57742975  1
  Mn3.34+  Mn131  1  0.24510360  0.83587453  0.92491699  1
  Mn3.34+  Mn132  1  0.58580588  0.33105382  0.24630726  1
  Mn3.34+  Mn133  1  0.59307545  0.34004521  0.58591970  1
  Mn3.34+  Mn134  1  0.57589210  0.33637728  0.91198354  1
  Mn3.34+  Mn135  1  0.58002074  0.83839628  0.25493345  1
  Mn3.34+  Mn136  1  0.57380503  0.83169911  0.57566651  1
  Mn3.34+  Mn137  1  0.57830413  0.83240231  0.91306955  1
  Mn3.34+  Mn138  1  0.91689007  0.33315740  0.25271306  1
  Mn3.34+  Mn139  1  0.91275282  0.34138028  0.57860187  1
  Mn3.34+  Mn140  1  0.91750525  0.33397943  0.91525088  1
  Mn3.34+  Mn141  1  0.91522402  0.83337375  0.25329539  1
  Mn3.34+  Mn142  1  0.91318466  0.82530710  0.57519795  1
  Mn3.34+  Mn143  1  0.92732506  0.83084089  0.92107089  1
  Mn3.34+  Mn144  1  0.25793158  0.16855477  0.57878470  1
  Mn3.34+  Mn145  1  0.74826332  0.66461310  0.74635553  1
  Mn3.34+  Mn146  1  0.75562496  0.66186501  0.41579984  1
  Mn3.34+  Mn147  1  0.58358829  0.17155295  0.92162242  1
  Mn3.34+  Mn148  1  0.25877601  0.16355637  0.91952305  1
  Mn3.34+  Mn149  1  0.91970990  0.66352107  0.57773473  1
  Mn3.34+  Mn150  1  0.25941841  0.16788303  0.24215900  1
  Mn3.34+  Mn151  1  0.27086297  0.16463401  0.24073573  1
  Mn3.34+  Mn152  1  0.08824625  0.66240225  0.41848226  1
  Mn3.34+  Mn153  1  0.91528565  0.16870449  0.25168257  1
  Mn3.34+  Mn154  1  0.08075020  0.16365482  0.41700795  1
  Mn3.34+  Mn155  1  0.91220324  0.65671455  0.57615181  1
  Mn3.34+  Mn156  1  0.24713398  0.66919587  0.25069890  1
  Mn3.34+  Mn157  1  0.91206970  0.17047471  0.91355809  1
  Mn3.34+  Mn158  1  0.41790846  0.17091584  0.75162706  1
  Mn3.34+  Mn159  1  0.58176388  0.66966898  0.25533377  1
  Mn3.34+  Mn160  1  0.40786544  0.67077058  0.08243838  1
  Mn3.34+  Mn161  1  0.25373928  0.66806675  0.91135788  1
  Mn3.34+  Mn162  1  0.92221150  0.16459421  0.91194056  1
  Mn3.34+  Mn163  1  0.75994340  0.67177025  0.08593005  1
  Mn3.34+  Mn164  1  0.92358674  0.66659949  0.91302668  1
  Mn3.34+  Mn165  1  0.09040562  0.16897481  0.41546411  1
  Mn3.34+  Mn166  1  0.08753410  0.66859937  0.08391693  1
  Mn3.34+  Mn167  1  0.25112700  0.66442743  0.57978829  1
  Mn3.34+  Mn168  1  0.57129272  0.66927255  0.91181914  1
  Mn3.34+  Mn169  1  0.74912988  0.66696704  0.08917624  1
  Mn3.34+  Mn170  1  0.07897294  0.16011450  0.08453731  1
  Mn3.34+  Mn171  1  0.41083139  0.66690268  0.41895816  1
  Mn3.34+  Mn172  1  0.57976822  0.66332213  0.90915328  1
  Mn3.34+  Mn173  1  0.74862418  0.17583410  0.75289654  1
  Mn3.34+  Mn174  1  0.91723902  0.66764556  0.25662409  1
  Mn3.34+  Mn175  1  0.09074338  0.17182950  0.74765853  1
  Mn3.34+  Mn176  1  0.24761967  0.16732566  0.92055232  1
  Mn3.34+  Mn177  1  0.40559400  0.16519986  0.75378511  1
  Mn3.34+  Mn178  1  0.09013386  0.15522154  0.08485261  1
  Mn3.34+  Mn179  1  0.24408045  0.16296873  0.57685572  1
  Mn3.34+  Mn180  1  0.25378515  0.50392606  0.92455250  1
  Mn3.34+  Mn181  1  0.43416016  -0.01025676  0.42354104  1
  Mn3.34+  Mn182  1  0.75106234  0.00450367  0.75421267  1
  Mn3.34+  Mn183  1  0.76234312  -0.00013299  0.75538356  1
  Mn3.34+  Mn184  1  0.09540186  -0.00528169  0.08020134  1
  Mn3.34+  Mn185  1  0.92102355  -0.00742937  0.57376337  1
  Mn3.34+  Mn186  1  0.10316638  0.50130463  0.07519275  1
  Mn3.34+  Mn187  1  0.91417455  -0.00111751  0.26335964  1
  Mn3.34+  Mn188  1  0.74539147  -0.00864237  0.41195002  1
  Mn3.34+  Mn189  1  0.93706915  0.00049027  0.92778613  1
  Mn3.34+  Mn190  1  0.41127177  -0.00146047  0.07456482  1
  Mn3.34+  Mn191  1  0.42116177  -0.00313070  0.42350737  1
  Mn3.34+  Mn192  1  0.25477089  -0.00253141  0.25258970  1
  Mn3.34+  Mn193  1  0.24570155  0.50400619  0.24937754  1
  Mn3.34+  Mn194  1  0.58126452  0.00914609  0.24692625  1
  Mn3.34+  Mn195  1  0.57456567  0.49698394  0.25754992  1
  Mn3.34+  Mn196  1  0.94839938  0.49980051  0.91345784  1
  Mn3.34+  Mn197  1  0.24111557  -0.00194144  0.94604536  1
  Mn3.34+  Mn198  1  0.41449638  0.50061411  0.42387088  1
  Mn3.34+  Mn199  1  0.74894673  0.50079782  0.72446444  1
  Mn3.34+  Mn200  1  0.25623738  0.49903603  0.24727548  1
  Mn3.34+  Mn201  1  0.06898188  0.50306927  0.40854815  1
  Mn3.34+  Mn202  1  0.93731907  0.50084815  0.91049835  1
  Mn3.34+  Mn203  1  0.73285223  -0.00199106  0.41035769  1
  Mn3.34+  Mn204  1  0.41281643  0.49838703  0.06624670  1
  Mn3.34+  Mn205  1  0.57352073  -0.00048005  0.91375790  1
  Mn3.34+  Mn206  1  0.41631394  0.49926610  0.74393687  1
  Mn3.34+  Mn207  1  0.08122849  -0.00049030  0.76517662  1
  Mn3.34+  Mn208  1  0.24534010  -0.00511622  0.58318782  1
  Mn3.34+  Mn209  1  0.55831466  0.49973277  0.91986066  1
  Mn3.34+  Mn210  1  0.73480682  -0.00445824  0.08322695  1
  Mn3.34+  Mn211  1  0.95290809  0.00302445  0.93224089  1
  Mn3.34+  Mn212  1  0.25958714  0.00053284  0.58479930  1
  Mn3.34+  Mn213  1  0.25197093  0.50462308  0.58598710  1
  Mn3.34+  Mn214  1  0.74332351  0.50128884  0.07424032  1
  Mn3.34+  Mn215  1  0.93468974  -0.00090440  0.57526424  1
  O2-  O216  1  -0.01138451  0.13250339  0.00576656  1
  O2-  O217  1  0.00986427  0.15869362  0.32371069  1
  O2-  O218  1  0.01002739  0.16516317  0.66755464  1
  O2-  O219  1  -0.00455710  0.64737408  0.00491141  1
  O2-  O220  1  0.00150424  0.66867334  0.33172681  1
  O2-  O221  1  -0.00008580  0.66301194  0.66163212  1
  O2-  O222  1  0.33665006  0.18781770  -0.00308145  1
  O2-  O223  1  0.33817666  0.16638809  0.33022016  1
  O2-  O224  1  0.33908885  0.13190911  0.65910937  1
  O2-  O225  1  0.32890352  0.66053917  0.00536300  1
  O2-  O226  1  0.33939219  0.67143342  0.32630200  1
  O2-  O227  1  0.33378865  0.65844090  0.65307021  1
  O2-  O228  1  0.66519647  0.16700905  -0.00591278  1
  O2-  O229  1  0.66822897  0.16124624  0.34035012  1
  O2-  O230  1  0.66295717  0.16285712  0.67571213  1
  O2-  O231  1  0.66067321  0.64350206  -0.00191138  1
  O2-  O232  1  0.67438662  0.66662307  0.32694988  1
  O2-  O233  1  0.66294469  0.66493048  0.67796545  1
  O2-  O234  1  0.15856522  0.17122218  -0.00770761  1
  O2-  O235  1  0.17362954  0.14655301  0.33787214  1
  O2-  O236  1  0.18140164  0.14365532  0.66704932  1
  O2-  O237  1  0.15979010  0.65363141  -0.00093781  1
  O2-  O238  1  0.16402763  0.65128967  0.32763262  1
  O2-  O239  1  0.16764073  0.66259139  0.65590427  1
  O2-  O240  1  0.50203661  0.17437009  -0.00302509  1
  O2-  O241  1  0.49736083  0.19432936  0.35946611  1
  O2-  O242  1  0.50486865  0.15505542  0.67644602  1
  O2-  O243  1  0.50318370  0.65705054  0.00574596  1
  O2-  O244  1  0.50262022  0.65913417  0.33691943  1
  O2-  O245  1  0.49436367  0.66250068  0.65946179  1
  O2-  O246  1  0.83107490  0.14864703  -0.00741548  1
  O2-  O247  1  0.84444949  0.16234517  0.33558199  1
  O2-  O248  1  0.82102413  0.15112574  0.66958246  1
  O2-  O249  1  0.83499335  0.63682084  0.00059117  1
  O2-  O250  1  0.83349902  0.68391299  0.33467062  1
  O2-  O251  1  0.83686010  0.64921828  0.66577203  1
  O2-  O252  1  0.00500453  0.35789206  -0.00734639  1
  O2-  O253  1  0.00696443  0.33374914  0.32756861  1
  O2-  O254  1  0.00445924  0.34070803  0.66651555  1
  O2-  O255  1  -0.00483827  0.84462809  0.01090536  1
  O2-  O256  1  0.00125175  0.83123874  0.33175933  1
  O2-  O257  1  0.00509508  0.82674404  0.66848546  1
  O2-  O258  1  0.33317302  0.32048996  0.00420261  1
  O2-  O259  1  0.33109093  0.34192251  0.33915477  1
  O2-  O260  1  0.33057765  0.35548608  0.67320977  1
  O2-  O261  1  0.33649458  0.84649466  -0.00537447  1
  O2-  O262  1  0.33316771  0.83184043  0.33023413  1
  O2-  O263  1  0.33328534  0.84883792  0.66495454  1
  O2-  O264  1  0.66930392  0.35046206  -0.00187348  1
  O2-  O265  1  0.66677773  0.35084855  0.32965802  1
  O2-  O266  1  0.67188563  0.30292628  0.66331440  1
  O2-  O267  1  0.66026181  0.85008235  0.00288405  1
  O2-  O268  1  0.67125423  0.83257905  0.33188248  1
  O2-  O269  1  0.65965933  0.83955605  0.67800553  1
  O2-  O270  1  0.17223617  0.33724118  -0.00149279  1
  O2-  O271  1  0.16453041  0.35123227  0.33321485  1
  O2-  O272  1  0.16754510  0.35217556  0.66825247  1
  O2-  O273  1  0.16233686  0.84140051  0.00063634  1
  O2-  O274  1  0.16596976  0.84206817  0.33068360  1
  O2-  O275  1  0.17282438  0.85177402  0.66537701  1
  O2-  O276  1  0.50157202  0.33364772  0.00462522  1
  O2-  O277  1  0.50687225  0.34502003  0.33850451  1
  O2-  O278  1  0.50691812  0.34064097  0.66680534  1
  O2-  O279  1  0.49992292  0.84390736  -0.00040601  1
  O2-  O280  1  0.49253179  0.82733262  0.33371533  1
  O2-  O281  1  0.49796670  0.83889966  0.66807646  1
  O2-  O282  1  0.83301325  0.35362472  0.00077673  1
  O2-  O283  1  0.83726471  0.34338228  0.33504523  1
  O2-  O284  1  0.84070673  0.34196142  0.67587357  1
  O2-  O285  1  0.82969597  0.85492460  -0.00146020  1
  O2-  O286  1  0.83089628  0.81396869  0.33180976  1
  O2-  O287  1  0.83208219  0.85162787  0.66600675  1
  O2-  O288  1  -0.00524477  0.17555844  0.16371348  1
  O2-  O289  1  -0.00737606  0.19136594  0.48025255  1
  O2-  O290  1  0.00218026  0.18082607  0.83033845  1
  O2-  O291  1  -0.00140025  0.67827344  0.16693449  1
  O2-  O292  1  -0.00090845  0.68285371  0.49837284  1
  O2-  O293  1  0.00380464  0.68386036  0.84159650  1
  O2-  O294  1  0.34521337  0.19596159  0.16708656  1
  O2-  O295  1  0.32901418  0.18210138  0.49532299  1
  O2-  O296  1  0.33051062  0.19350810  0.83268218  1
  O2-  O297  1  0.33324984  0.68042234  0.16786790  1
  O2-  O298  1  0.33450137  0.68706923  0.49661373  1
  O2-  O299  1  0.33386415  0.67660500  0.84293454  1
  O2-  O300  1  0.65001868  0.16424717  0.17997785  1
  O2-  O301  1  0.65641699  0.18623776  0.50202906  1
  O2-  O302  1  0.66472602  0.18427162  0.82966927  1
  O2-  O303  1  0.65145944  0.67586323  0.15770736  1
  O2-  O304  1  0.67009614  0.68610647  0.48204171  1
  O2-  O305  1  0.67314742  0.68663477  0.84568754  1
  O2-  O306  1  0.17730872  0.18004290  0.16467367  1
  O2-  O307  1  0.16368217  0.19628323  0.49670699  1
  O2-  O308  1  0.17796844  0.18299888  0.82668329  1
  O2-  O309  1  0.17083384  0.67863598  0.16109085  1
  O2-  O310  1  0.16667213  0.67725272  0.49643061  1
  O2-  O311  1  0.17032294  0.68505722  0.83898784  1
  O2-  O312  1  0.51304017  0.16872572  0.15387496  1
  O2-  O313  1  0.50138554  0.17806528  0.50860479  1
  O2-  O314  1  0.50203504  0.18056411  0.83352224  1
  O2-  O315  1  0.49677841  0.67177836  0.16754946  1
  O2-  O316  1  0.49960290  0.68236886  0.48662605  1
  O2-  O317  1  0.49673212  0.69167997  0.83526500  1
  O2-  O318  1  0.83737802  0.17389377  0.16981731  1
  O2-  O319  1  0.82700714  0.16773853  0.50501770  1
  O2-  O320  1  0.84027002  0.19220221  0.82198285  1
  O2-  O321  1  0.83943137  0.69069706  0.17208360  1
  O2-  O322  1  0.83258618  0.67873775  0.49901925  1
  O2-  O323  1  0.83002185  0.67040225  0.84125057  1
  O2-  O324  1  -0.00554258  0.32676707  0.16166674  1
  O2-  O325  1  -0.00112383  0.31918963  0.49851807  1
  O2-  O326  1  -0.00277748  0.31730545  0.83121052  1
  O2-  O327  1  -0.00188121  0.81765390  0.17272578  1
  O2-  O328  1  0.00384393  0.81484274  0.50263024  1
  O2-  O329  1  0.00095276  0.81170552  0.82394060  1
  O2-  O330  1  0.33336788  0.32000914  0.16787861  1
  O2-  O331  1  0.33885206  0.31352948  0.50102763  1
  O2-  O332  1  0.33451794  0.31082833  0.83626251  1
  O2-  O333  1  0.33254070  0.81919561  0.16795596  1
  O2-  O334  1  0.32619166  0.81008816  0.49151283  1
  O2-  O335  1  0.33315005  0.82937717  0.83265861  1
  O2-  O336  1  0.66261626  0.33504268  0.16184273  1
  O2-  O337  1  0.66513257  0.32871772  0.49528245  1
  O2-  O338  1  0.67016216  0.32556750  0.83012685  1
  O2-  O339  1  0.66692822  0.82242731  0.16591246  1
  O2-  O340  1  0.66569712  0.81939575  0.50276002  1
  O2-  O341  1  0.67917068  0.81892092  0.85006812  1
  O2-  O342  1  0.16689048  0.31854075  0.16303890  1
  O2-  O343  1  0.17630988  0.32284377  0.48982225  1
  O2-  O344  1  0.16494030  0.32230088  0.83904910  1
  O2-  O345  1  0.16394765  0.82206498  0.16977423  1
  O2-  O346  1  0.16538033  0.81918397  0.50289467  1
  O2-  O347  1  0.17815921  0.82270313  0.82552757  1
  O2-  O348  1  0.49752340  0.31727469  0.16939657  1
  O2-  O349  1  0.50695797  0.31324846  0.49539848  1
  O2-  O350  1  0.49939174  0.31948852  0.82868365  1
  O2-  O351  1  0.49513851  0.82990158  0.16949566  1
  O2-  O352  1  0.49323907  0.81325334  0.49943988  1
  O2-  O353  1  0.50031468  0.81596046  0.83133219  1
  O2-  O354  1  0.83090935  0.32666334  0.17113192  1
  O2-  O355  1  0.83187287  0.32898380  0.49990297  1
  O2-  O356  1  0.82360171  0.31998499  0.84456377  1
  O2-  O357  1  0.83353825  0.81684213  0.16451655  1
  O2-  O358  1  0.82509203  0.80870799  0.50274250  1
  O2-  O359  1  0.83990223  0.83130618  0.83356821  1
  O2-  O360  1  0.08819797  0.07532183  0.13301101  1
  O2-  O361  1  0.04690326  0.08301972  0.43813034  1
  O2-  O362  1  0.09673928  0.08476875  0.77853989  1
  O2-  O363  1  0.07595721  0.58156403  0.12086627  1
  O2-  O364  1  0.07732104  0.57944914  0.44453147  1
  O2-  O365  1  0.05811335  0.55517669  0.77311951  1
  O2-  O366  1  0.40683840  0.07238566  0.09846653  1
  O2-  O367  1  0.42689840  0.07744344  0.44508160  1
  O2-  O368  1  0.39774593  0.08953631  0.79667555  1
  O2-  O369  1  0.42281740  0.57936119  0.11094914  1
  O2-  O370  1  0.43317976  0.58111671  0.43993873  1
  O2-  O371  1  0.43669568  0.56590897  0.78186655  1
  O2-  O372  1  0.75131599  0.07514553  0.09588345  1
  O2-  O373  1  0.75881080  0.07497847  0.44796882  1
  O2-  O374  1  0.74690233  0.08250756  0.79783895  1
  O2-  O375  1  0.74641923  0.58151727  0.12575657  1
  O2-  O376  1  0.72410562  0.58269317  0.42637261  1
  O2-  O377  1  0.74294393  0.57818286  0.77260145  1
  O2-  O378  1  0.25438563  0.08067657  0.23265364  1
  O2-  O379  1  0.25144635  0.07858178  0.53290460  1
  O2-  O380  1  0.25852714  0.07682456  0.88919146  1
  O2-  O381  1  0.25908446  0.58481161  0.21903069  1
  O2-  O382  1  0.25801390  0.58070576  0.55320268  1
  O2-  O383  1  0.24370155  0.58331855  0.90019552  1
  O2-  O384  1  0.57628407  0.08705691  0.26088411  1
  O2-  O385  1  0.60038937  0.07163489  0.53135774  1
  O2-  O386  1  0.58361109  0.08517587  0.88650710  1
  O2-  O387  1  0.57393670  0.57914275  0.23029712  1
  O2-  O388  1  0.55479898  0.56897380  0.56445512  1
  O2-  O389  1  0.60065908  0.57951421  0.87529474  1
  O2-  O390  1  0.92481104  0.07974516  0.22862010  1
  O2-  O391  1  0.91930111  0.08046704  0.56584615  1
  O2-  O392  1  0.91206442  0.07421640  0.85793083  1
  O2-  O393  1  0.91059481  0.58488802  0.22274419  1
  O2-  O394  1  0.93320542  0.57882967  0.56833289  1
  O2-  O395  1  0.91746614  0.58169773  0.87491770  1
  O2-  O396  1  0.09266225  0.42021420  0.11608093  1
  O2-  O397  1  0.10125462  0.42878882  0.45794064  1
  O2-  O398  1  0.07979541  0.41655071  0.77661997  1
  O2-  O399  1  0.06828595  0.91916365  0.12718484  1
  O2-  O400  1  0.09298401  0.91327027  0.43680921  1
  O2-  O401  1  0.06956665  0.91546316  0.76693496  1
  O2-  O402  1  0.41190263  0.42100635  0.10901993  1
  O2-  O403  1  0.39250213  0.42072578  0.45167390  1
  O2-  O404  1  0.41701828  0.42964167  0.78985080  1
  O2-  O405  1  0.41830352  0.92270237  0.11575147  1
  O2-  O406  1  0.40219473  0.91307362  0.43581359  1
  O2-  O407  1  0.41793197  0.91655537  0.77471097  1
  O2-  O408  1  0.75919209  0.42263134  0.11730247  1
  O2-  O409  1  0.73931182  0.42212922  0.42069058  1
  O2-  O410  1  0.74639450  0.42623381  0.77745121  1
  O2-  O411  1  0.75015275  0.91639395  0.11441546  1
  O2-  O412  1  0.75613116  0.91540052  0.44840008  1
  O2-  O413  1  0.75451558  0.91791492  0.78007270  1
  O2-  O414  1  0.25520983  0.41811475  0.21553076  1
  O2-  O415  1  0.26005209  0.42439474  0.55198852  1
  O2-  O416  1  0.25082959  0.42485744  0.88533129  1
  O2-  O417  1  0.26530618  0.91653145  0.23848401  1
  O2-  O418  1  0.25174710  0.91649467  0.54421104  1
  O2-  O419  1  0.25184243  0.92353212  0.88831355  1
  O2-  O420  1  0.56527620  0.41964074  0.21992612  1
  O2-  O421  1  0.56483464  0.41891390  0.55067315  1
  O2-  O422  1  0.59447158  0.41919545  0.88294720  1
  O2-  O423  1  0.58423895  0.92471977  0.21898632  1
  O2-  O424  1  0.58924810  0.91730440  0.58701802  1
  O2-  O425  1  0.59681927  0.92148392  0.86181963  1
  O2-  O426  1  0.91389418  0.41411637  0.22957012  1
  O2-  O427  1  0.93094759  0.42047781  0.57926886  1
  O2-  O428  1  0.90448094  0.42038265  0.87733765  1
  O2-  O429  1  0.89322303  0.92121504  0.23077690  1
  O2-  O430  1  0.93900966  0.91129728  0.57643593  1
  O2-  O431  1  0.92824412  0.92397534  0.87785210  1
  O2-  O432  1  -0.02594417  0.00655705  0.04536446  1
  O2-  O433  1  0.00743460  -0.00783764  0.31106176  1
  O2-  O434  1  -0.01400132  0.00719052  0.68655349  1
  O2-  O435  1  -0.01909037  0.50247351  0.03074960  1
  O2-  O436  1  0.02261493  0.50397789  0.31019465  1
  O2-  O437  1  0.00942941  0.50369349  0.67241445  1
  O2-  O438  1  0.35494206  -0.00197109  -0.02714149  1
  O2-  O439  1  0.32739267  0.00127150  0.35189638  1
  O2-  O440  1  0.31361518  -0.00031522  0.69262831  1
  O2-  O441  1  0.29682518  0.50042738  0.04270460  1
  O2-  O442  1  0.34667309  0.49875474  0.32413249  1
  O2-  O443  1  0.33406980  0.49433099  0.66908041  1
  O2-  O444  1  0.67710262  -0.01138513  -0.02122705  1
  O2-  O445  1  0.68150386  -0.00932831  0.30867691  1
  O2-  O446  1  0.66759182  0.01940895  0.67696172  1
  O2-  O447  1  0.68565368  0.49895602  -0.03743529  1
  O2-  O448  1  0.66748712  0.48985908  0.31088037  1
  O2-  O449  1  0.65049883  0.49536777  0.68539066  1
  O2-  O450  1  0.12922156  0.01247522  -0.02893529  1
  O2-  O451  1  0.16525767  -0.00304239  0.31586048  1
  O2-  O452  1  0.16217928  0.00286941  0.66919119  1
  O2-  O453  1  0.13942413  0.49784769  -0.03969145  1
  O2-  O454  1  0.18043743  0.48703518  0.34546577  1
  O2-  O455  1  0.16458672  0.49252195  0.64745700  1
  O2-  O456  1  0.50659450  -0.01067589  0.01175400  1
  O2-  O457  1  0.49996344  -0.00442619  0.33058008  1
  O2-  O458  1  0.51354737  0.01781214  0.71135038  1
  O2-  O459  1  0.53332604  0.50175721  0.04619201  1
  O2-  O460  1  0.51157067  0.48336775  0.35902340  1
  O2-  O461  1  0.49344463  0.48772589  0.67468884  1
  O2-  O462  1  0.83278962  -0.00591611  -0.01127051  1
  O2-  O463  1  0.84732769  0.01303819  0.35574915  1
  O2-  O464  1  0.83503733  0.00290632  0.66172565  1
  O2-  O465  1  0.83524767  0.51393390  -0.01741495  1
  O2-  O466  1  0.82454256  0.49848000  0.29013448  1
  O2-  O467  1  0.85290792  0.50307051  0.69968116  1
  O2-  O468  1  0.74994865  0.25576261  0.06928535  1
  O2-  O469  1  0.90638483  0.74522255  0.94805679  1
  O2-  O470  1  0.59919397  0.25296483  0.25755252  1
  O2-  O471  1  0.25201416  0.75295347  0.94440826  1
  O2-  O472  1  0.90831233  0.25809497  0.59864110  1
  O2-  O473  1  0.58937987  0.25512762  0.93001881  1
  O2-  O474  1  0.24445066  0.75136241  0.60676806  1
  O2-  O475  1  0.58171947  0.75323638  0.59655579  1
  O2-  O476  1  0.08215068  0.74981139  0.05968314  1
  O2-  O477  1  0.40550062  0.75111981  0.72922748  1
  O2-  O478  1  0.90824803  0.74296571  0.60765211  1
  O2-  O479  1  0.07270600  0.24701402  0.06632002  1
  O2-  O480  1  0.09319977  0.25337267  0.72488441  1
  O2-  O481  1  0.58028396  0.75070661  0.25760949  1
  O2-  O482  1  0.74529727  0.75197825  0.04507615  1
  O2-  O483  1  0.23849928  0.74993501  0.26842943  1
  O2-  O484  1  0.77129066  0.74745910  0.73198355  1
  O2-  O485  1  0.42263001  0.75266519  0.06505312  1
  O2-  O486  1  0.92916663  0.25150924  0.95685802  1
  O2-  O487  1  0.40809450  0.24672686  0.71155283  1
  O2-  O488  1  0.92348817  0.25002110  0.26644301  1
  O2-  O489  1  0.25331315  0.24784821  0.61666853  1
  O2-  O490  1  0.23053977  0.24780182  0.27776121  1
  O2-  O491  1  0.75230520  0.25866709  0.40116160  1
  O2-  O492  1  0.09198938  0.74726509  0.39704845  1
