# generated using pymatgen
data_Ca108Mn108O277
_symmetry_space_group_name_H-M   'P 1'
_cell_length_a   16.02041921
_cell_length_b   22.29748868
_cell_length_c   16.38443131
_cell_angle_alpha   89.99901438
_cell_angle_beta   89.99688337
_cell_angle_gamma   89.99692624
_symmetry_Int_Tables_number   1
_chemical_formula_structural   Ca108Mn108O277
_chemical_formula_sum   'Ca108 Mn108 O277'
_cell_volume   5852.76651154
_cell_formula_units_Z   1
loop_
 _symmetry_equiv_pos_site_id
 _symmetry_equiv_pos_as_xyz
  1  'x, y, z'
loop_
 _atom_type_symbol
 _atom_type_oxidation_number
  Ca2+  2.0
  Mn3.34+  3.34
  O2-  -2.0
loop_
 _atom_site_type_symbol
 _atom_site_label
 _atom_site_symmetry_multiplicity
 _atom_site_fract_x
 _atom_site_fract_y
 _atom_site_fract_z
 _atom_site_occupancy
  Ca2+  Ca0  1  0.07092146  0.24266418  0.24283106  1
  Ca2+  Ca1  1  0.08853061  0.25737199  0.58899202  1
  Ca2+  Ca2  1  0.07051429  0.24980535  0.91639465  1
  Ca2+  Ca3  1  0.07764421  0.76131805  0.26790234  1
  Ca2+  Ca4  1  0.07896006  0.75305751  0.57923835  1
  Ca2+  Ca5  1  0.06365530  0.74560887  0.90160930  1
  Ca2+  Ca6  1  0.41071443  0.24744071  0.24508393  1
  Ca2+  Ca7  1  0.42536301  0.24000391  0.59966350  1
  Ca2+  Ca8  1  0.44251403  0.24234886  0.90526325  1
  Ca2+  Ca9  1  0.41508412  0.76005622  0.25491022  1
  Ca2+  Ca10  1  0.42924561  0.74660988  0.59106518  1
  Ca2+  Ca11  1  0.42367964  0.74682181  0.90627802  1
  Ca2+  Ca12  1  0.76204302  0.25113252  0.22866582  1
  Ca2+  Ca13  1  0.73702952  0.25159721  0.59857619  1
  Ca2+  Ca14  1  0.73800228  0.23967923  0.92327297  1
  Ca2+  Ca15  1  0.75501021  0.76394999  0.23384074  1
  Ca2+  Ca16  1  0.75329126  0.75654926  0.59248746  1
  Ca2+  Ca17  1  0.76868073  0.74147162  0.92037072  1
  Ca2+  Ca18  1  0.24941859  0.24967658  0.09140304  1
  Ca2+  Ca19  1  0.24776044  0.24527486  0.41537749  1
  Ca2+  Ca20  1  0.27185775  0.24154439  0.74437660  1
  Ca2+  Ca21  1  0.25802926  0.76632769  0.07624534  1
  Ca2+  Ca22  1  0.23367834  0.75855264  0.42733927  1
  Ca2+  Ca23  1  0.24461529  0.75656143  0.74960651  1
  Ca2+  Ca24  1  0.60036847  0.24108702  0.06839171  1
  Ca2+  Ca25  1  0.58329170  0.25158944  0.42893488  1
  Ca2+  Ca26  1  0.57770342  0.24113285  0.75325273  1
  Ca2+  Ca27  1  0.59367135  0.75037224  0.07533693  1
  Ca2+  Ca28  1  0.57316427  0.75394928  0.42415060  1
  Ca2+  Ca29  1  0.58229715  0.75350859  0.75086597  1
  Ca2+  Ca30  1  0.89813975  0.22173315  0.08850461  1
  Ca2+  Ca31  1  0.91307147  0.24549917  0.39427599  1
  Ca2+  Ca32  1  0.91471516  0.24943935  0.75932177  1
  Ca2+  Ca33  1  0.90592873  0.75525875  0.06336777  1
  Ca2+  Ca34  1  0.93841210  0.75750264  0.42743723  1
  Ca2+  Ca35  1  0.92651020  0.75680131  0.75512131  1
  Ca2+  Ca36  1  0.74636836  0.57824276  0.26227342  1
  Ca2+  Ca37  1  0.23830352  0.59546097  0.41763580  1
  Ca2+  Ca38  1  0.09433555  0.08453177  0.58042647  1
  Ca2+  Ca39  1  0.57457865  0.59386813  0.43781583  1
  Ca2+  Ca40  1  0.59265393  0.09902914  0.07373072  1
  Ca2+  Ca41  1  0.77767102  0.09833823  0.22964831  1
  Ca2+  Ca42  1  0.25102259  0.59489766  0.41725412  1
  Ca2+  Ca43  1  0.24671459  0.10538650  0.40575473  1
  Ca2+  Ca44  1  0.10628536  0.08398922  0.58032807  1
  Ca2+  Ca45  1  0.08299617  0.58324736  0.26036790  1
  Ca2+  Ca46  1  0.76344783  0.56372000  0.60240997  1
  Ca2+  Ca47  1  0.58846560  0.10851732  0.75643386  1
  Ca2+  Ca48  1  0.04852733  0.10320027  0.24741731  1
  Ca2+  Ca49  1  0.43136056  0.58497725  0.26322399  1
  Ca2+  Ca50  1  0.89740471  0.10147927  0.76154040  1
  Ca2+  Ca51  1  0.78397982  0.09964923  0.23750895  1
  Ca2+  Ca52  1  0.93146024  0.58390011  0.75089004  1
  Ca2+  Ca53  1  0.07638787  0.59270674  0.90136380  1
  Ca2+  Ca54  1  0.24666158  0.10878889  0.10735731  1
  Ca2+  Ca55  1  0.58924580  0.08604499  0.42727286  1
  Ca2+  Ca56  1  0.42342638  0.09776674  0.59015742  1
  Ca2+  Ca57  1  0.55554058  0.61429041  0.72754004  1
  Ca2+  Ca58  1  0.44542144  0.10269996  0.90702609  1
  Ca2+  Ca59  1  0.73958334  0.10821979  0.91301733  1
  Ca2+  Ca60  1  0.92205751  0.58205845  0.75465346  1
  Ca2+  Ca61  1  0.39850678  0.11188098  0.25263196  1
  Ca2+  Ca62  1  0.91226716  0.59076505  0.04482850  1
  Ca2+  Ca63  1  0.73388226  0.58024695  0.26133409  1
  Ca2+  Ca64  1  0.92705827  0.59470127  0.42830722  1
  Ca2+  Ca65  1  0.25728433  0.09048484  0.73329487  1
  Ca2+  Ca66  1  0.59206804  0.59236231  0.08082490  1
  Ca2+  Ca67  1  0.05042741  0.08183110  0.92243818  1
  Ca2+  Ca68  1  0.60303523  0.09933992  0.07516034  1
  Ca2+  Ca69  1  0.58703666  0.59164587  0.43615660  1
  Ca2+  Ca70  1  0.05989704  0.07913633  0.92512608  1
  Ca2+  Ca71  1  0.06124678  0.58777262  0.59300370  1
  Ca2+  Ca72  1  0.25583755  0.39137327  0.41059646  1
  Ca2+  Ca73  1  0.24383517  0.40572389  0.75023942  1
  Ca2+  Ca74  1  0.09003204  0.90624383  0.58411360  1
  Ca2+  Ca75  1  0.05843950  0.42183645  0.60762444  1
  Ca2+  Ca76  1  0.57883789  0.91240823  0.08381074  1
  Ca2+  Ca77  1  0.92036127  0.91397860  0.07119769  1
  Ca2+  Ca78  1  0.42398950  0.39731899  0.57258485  1
  Ca2+  Ca79  1  0.08586363  0.39588481  0.24875859  1
  Ca2+  Ca80  1  0.89628247  0.42267015  0.72982058  1
  Ca2+  Ca81  1  0.59137541  0.91012217  0.08526369  1
  Ca2+  Ca82  1  0.60942572  0.41099673  0.41812337  1
  Ca2+  Ca83  1  0.40778495  0.89946671  0.91676660  1
  Ca2+  Ca84  1  0.57994054  0.40305214  0.09261942  1
  Ca2+  Ca85  1  0.75210202  0.90796428  0.57766961  1
  Ca2+  Ca86  1  0.23117130  0.40564306  0.75043319  1
  Ca2+  Ca87  1  0.23943359  0.90534776  0.42717381  1
  Ca2+  Ca88  1  0.41250227  0.40435758  0.92340930  1
  Ca2+  Ca89  1  0.60334466  0.91272917  0.42136668  1
  Ca2+  Ca90  1  0.90801447  0.40390147  0.08951922  1
  Ca2+  Ca91  1  0.76917478  0.90799451  0.91788379  1
  Ca2+  Ca92  1  0.42259667  0.90208067  0.24895845  1
  Ca2+  Ca93  1  0.59147791  0.90978417  0.42024942  1
  Ca2+  Ca94  1  0.60188876  0.40882962  0.74227449  1
  Ca2+  Ca95  1  0.07343210  0.90601746  0.24691633  1
  Ca2+  Ca96  1  0.91930929  0.40382412  0.08868143  1
  Ca2+  Ca97  1  0.61282132  0.40739296  0.74385275  1
  Ca2+  Ca98  1  0.07951955  0.90770619  0.91468148  1
  Ca2+  Ca99  1  0.25035011  0.40625068  0.08569364  1
  Ca2+  Ca100  1  0.06997564  0.41487219  0.91203941  1
  Ca2+  Ca101  1  0.59263585  0.40291810  0.09352335  1
  Ca2+  Ca102  1  0.06740013  0.90963328  0.91201573  1
  Ca2+  Ca103  1  0.08252070  0.41498147  0.91340936  1
  Ca2+  Ca104  1  0.41709739  0.39623545  0.25542628  1
  Ca2+  Ca105  1  0.88242775  0.41427935  0.42656878  1
  Ca2+  Ca106  1  0.89428923  0.41326559  0.42233399  1
  Ca2+  Ca107  1  0.58338257  0.90278696  0.74290809  1
  Mn3.34+  Mn108  1  0.08420332  0.33133665  0.08355889  1
  Mn3.34+  Mn109  1  0.08026492  0.32578993  0.41848792  1
  Mn3.34+  Mn110  1  0.07775526  0.33243115  0.75118959  1
  Mn3.34+  Mn111  1  0.08604181  0.83208537  0.08693717  1
  Mn3.34+  Mn112  1  0.07983907  0.83651777  0.41937906  1
  Mn3.34+  Mn113  1  0.08534224  0.83389254  0.74566561  1
  Mn3.34+  Mn114  1  0.41657452  0.32939017  0.08411992  1
  Mn3.34+  Mn115  1  0.41885992  0.32649548  0.41687723  1
  Mn3.34+  Mn116  1  0.41767559  0.33423268  0.75176181  1
  Mn3.34+  Mn117  1  0.41490233  0.83557923  0.08382302  1
  Mn3.34+  Mn118  1  0.41278048  0.83162067  0.42276939  1
  Mn3.34+  Mn119  1  0.41290387  0.83092060  0.74753728  1
  Mn3.34+  Mn120  1  0.74999008  0.33020631  0.08104427  1
  Mn3.34+  Mn121  1  0.74678422  0.33170778  0.41779958  1
  Mn3.34+  Mn122  1  0.75627734  0.33524217  0.75494381  1
  Mn3.34+  Mn123  1  0.75294287  0.83666632  0.08443912  1
  Mn3.34+  Mn124  1  0.75963151  0.83624308  0.41752557  1
  Mn3.34+  Mn125  1  0.75420929  0.83584419  0.75165028  1
  Mn3.34+  Mn126  1  0.24852931  0.32672267  0.24899108  1
  Mn3.34+  Mn127  1  0.24982750  0.32869731  0.57887513  1
  Mn3.34+  Mn128  1  0.25063439  0.33387326  0.91917978  1
  Mn3.34+  Mn129  1  0.24851433  0.83429163  0.24921056  1
  Mn3.34+  Mn130  1  0.25518027  0.84332751  0.58770296  1
  Mn3.34+  Mn131  1  0.24832618  0.83080603  0.91217827  1
  Mn3.34+  Mn132  1  0.58552013  0.32669721  0.25222824  1
  Mn3.34+  Mn133  1  0.58566835  0.33179340  0.58087781  1
  Mn3.34+  Mn134  1  0.58773509  0.33232957  0.91386856  1
  Mn3.34+  Mn135  1  0.58893631  0.83242955  0.25114089  1
  Mn3.34+  Mn136  1  0.58123000  0.83846354  0.58374927  1
  Mn3.34+  Mn137  1  0.58520455  0.83319815  0.91129201  1
  Mn3.34+  Mn138  1  0.91448681  0.33169365  0.24983455  1
  Mn3.34+  Mn139  1  0.91415620  0.33435910  0.58292705  1
  Mn3.34+  Mn140  1  0.90880241  0.33218880  0.91337394  1
  Mn3.34+  Mn141  1  0.91289266  0.83965078  0.25166911  1
  Mn3.34+  Mn142  1  0.91672457  0.83523577  0.58551903  1
  Mn3.34+  Mn143  1  0.91655772  0.83271175  0.91337110  1
  Mn3.34+  Mn144  1  0.40836957  0.65919151  0.07697604  1
  Mn3.34+  Mn145  1  0.75310249  0.15822874  0.41992384  1
  Mn3.34+  Mn146  1  0.92108406  0.16707417  0.58461744  1
  Mn3.34+  Mn147  1  0.26060873  0.66609625  0.59181612  1
  Mn3.34+  Mn148  1  0.25003217  0.67053737  0.59156339  1
  Mn3.34+  Mn149  1  0.75556057  0.66462185  0.75204393  1
  Mn3.34+  Mn150  1  0.41778880  0.17471990  0.41946016  1
  Mn3.34+  Mn151  1  0.58024180  0.16845488  0.24977223  1
  Mn3.34+  Mn152  1  0.58448564  0.16165406  0.58855930  1
  Mn3.34+  Mn153  1  0.24573947  0.16548486  0.91600621  1
  Mn3.34+  Mn154  1  0.08163192  0.16678610  0.41593302  1
  Mn3.34+  Mn155  1  0.24405627  0.67044186  0.24657018  1
  Mn3.34+  Mn156  1  0.08128946  0.16838016  0.08701950  1
  Mn3.34+  Mn157  1  0.90894519  0.16757813  0.91781867  1
  Mn3.34+  Mn158  1  0.91324418  0.66901367  0.24688433  1
  Mn3.34+  Mn159  1  0.25929602  0.15885382  0.91420113  1
  Mn3.34+  Mn160  1  0.58170264  0.66954778  0.91049792  1
  Mn3.34+  Mn161  1  0.74639927  0.67852473  0.42248449  1
  Mn3.34+  Mn162  1  0.92586342  0.66222921  0.24454430  1
  Mn3.34+  Mn163  1  0.08277752  0.67287252  0.07510444  1
  Mn3.34+  Mn164  1  0.09542671  0.66564144  0.07602414  1
  Mn3.34+  Mn165  1  0.25623885  0.66346227  0.24349577  1
  Mn3.34+  Mn166  1  0.41875617  0.66477759  0.07736231  1
  Mn3.34+  Mn167  1  0.25247308  0.16745007  0.57889642  1
  Mn3.34+  Mn168  1  0.42221612  0.66909864  0.42130885  1
  Mn3.34+  Mn169  1  0.74884062  0.66753693  0.08116368  1
  Mn3.34+  Mn170  1  0.91081748  0.16200969  0.58435706  1
  Mn3.34+  Mn171  1  0.74512102  0.66044492  0.75137235  1
  Mn3.34+  Mn172  1  0.92008967  0.66722418  0.58118953  1
  Mn3.34+  Mn173  1  0.08454255  0.66474846  0.75241241  1
  Mn3.34+  Mn174  1  0.58299172  0.67186012  0.24668764  1
  Mn3.34+  Mn175  1  0.75427517  0.67191291  0.42481951  1
  Mn3.34+  Mn176  1  0.25303550  0.66500749  0.90302080  1
  Mn3.34+  Mn177  1  0.74550618  0.16499510  0.41925427  1
  Mn3.34+  Mn178  1  0.08368353  0.16569607  0.75167958  1
  Mn3.34+  Mn179  1  0.41582993  0.16896956  0.08688363  1
  Mn3.34+  Mn180  1  0.58880738  0.49580143  0.59459393  1
  Mn3.34+  Mn181  1  0.25188567  -0.00291497  0.24591260  1
  Mn3.34+  Mn182  1  0.75597265  -0.00183742  0.73833470  1
  Mn3.34+  Mn183  1  0.40790905  -0.00294755  0.42895508  1
  Mn3.34+  Mn184  1  0.09125736  0.49406702  0.42056196  1
  Mn3.34+  Mn185  1  0.75075808  0.49893490  0.08798933  1
  Mn3.34+  Mn186  1  0.23933980  0.00357121  0.24708462  1
  Mn3.34+  Mn187  1  0.41546916  0.50017979  0.42168477  1
  Mn3.34+  Mn188  1  0.89969592  0.49469627  0.92181076  1
  Mn3.34+  Mn189  1  0.08740552  0.50163265  0.07941635  1
  Mn3.34+  Mn190  1  0.25538762  0.50704633  0.92626244  1
  Mn3.34+  Mn191  1  0.40870540  0.49768683  0.08288224  1
  Mn3.34+  Mn192  1  0.25392776  0.49391815  0.58352614  1
  Mn3.34+  Mn193  1  0.07445862  -0.00085034  0.40881584  1
  Mn3.34+  Mn194  1  0.08730091  -0.00250730  0.73493928  1
  Mn3.34+  Mn195  1  0.58180614  -0.00244045  0.91738969  1
  Mn3.34+  Mn196  1  0.40617958  -0.00015068  0.73595478  1
  Mn3.34+  Mn197  1  0.59147526  0.00218334  0.25974920  1
  Mn3.34+  Mn198  1  0.59496139  0.50263504  0.91718610  1
  Mn3.34+  Mn199  1  0.08105700  0.49960227  0.42296980  1
  Mn3.34+  Mn200  1  0.25446123  -0.00136572  0.92192913  1
  Mn3.34+  Mn201  1  0.90999308  0.50082194  0.25356166  1
  Mn3.34+  Mn202  1  0.41783614  -0.00708697  0.73386619  1
  Mn3.34+  Mn203  1  0.40598592  0.50654253  0.76157470  1
  Mn3.34+  Mn204  1  0.74394549  0.00496488  0.73795408  1
  Mn3.34+  Mn205  1  0.76140968  -0.00145124  0.06898687  1
  Mn3.34+  Mn206  1  0.24186592  0.49908741  0.58220013  1
  Mn3.34+  Mn207  1  0.08134445  0.00201269  0.08073916  1
  Mn3.34+  Mn208  1  0.41025414  0.00331655  0.08070528  1
  Mn3.34+  Mn209  1  0.25768979  0.50041034  0.24753864  1
  Mn3.34+  Mn210  1  0.41845031  0.00255577  0.42894401  1
  Mn3.34+  Mn211  1  0.58196948  0.50795406  0.91720054  1
  Mn3.34+  Mn212  1  0.91181508  -0.00319972  0.26705246  1
  Mn3.34+  Mn213  1  0.42067356  0.51106955  0.75724632  1
  Mn3.34+  Mn214  1  0.58364414  0.49822398  0.25713215  1
  Mn3.34+  Mn215  1  0.91465036  -0.00200986  0.57697038  1
  O2-  O216  1  0.00526537  0.15749645  -0.00520736  1
  O2-  O217  1  0.00528014  0.17769815  0.33754842  1
  O2-  O218  1  0.00292281  0.14574097  0.66833703  1
  O2-  O219  1  0.00772216  0.65865216  -0.00710498  1
  O2-  O220  1  -0.00006943  0.65043814  0.32948178  1
  O2-  O221  1  -0.00619567  0.65399204  0.67067953  1
  O2-  O222  1  0.33176312  0.15043147  0.00358844  1
  O2-  O223  1  0.33658863  0.18066873  0.33955788  1
  O2-  O224  1  0.33040363  0.15844390  0.65847593  1
  O2-  O225  1  0.32832388  0.67360369  -0.00521917  1
  O2-  O226  1  0.33751688  0.64786531  0.33572744  1
  O2-  O227  1  0.33749644  0.68126215  0.66904875  1
  O2-  O228  1  0.66617319  0.15978420  0.00302060  1
  O2-  O229  1  0.66186396  0.16439911  0.33637490  1
  O2-  O230  1  0.66353154  0.17030313  0.66559573  1
  O2-  O231  1  0.66070559  0.65968419  0.00860468  1
  O2-  O232  1  0.66777026  0.66783695  0.33347197  1
  O2-  O233  1  0.66915510  0.66275042  0.67038698  1
  O2-  O234  1  0.16522419  0.14590187  -0.00607129  1
  O2-  O235  1  0.16439757  0.17796811  0.34254836  1
  O2-  O236  1  0.16479825  0.15173983  0.66381400  1
  O2-  O237  1  0.17055859  0.68639375  -0.00706353  1
  O2-  O238  1  0.16969400  0.65180254  0.33112080  1
  O2-  O239  1  0.16197291  0.65175753  0.66251450  1
  O2-  O240  1  0.49892394  0.15467250  0.01076621  1
  O2-  O241  1  0.49822631  0.17856220  0.33218363  1
  O2-  O242  1  0.50255851  0.16066228  0.66340002  1
  O2-  O243  1  0.50207079  0.65385900  -0.00200074  1
  O2-  O244  1  0.50488371  0.65801187  0.33329194  1
  O2-  O245  1  0.50935506  0.69400615  0.66848088  1
  O2-  O246  1  0.83201103  0.16112569  -0.00777829  1
  O2-  O247  1  0.83190456  0.15660503  0.33738269  1
  O2-  O248  1  0.83714182  0.16920559  0.66898998  1
  O2-  O249  1  0.83145624  0.66447692  0.00934796  1
  O2-  O250  1  0.82992241  0.64800232  0.33790516  1
  O2-  O251  1  0.82893497  0.65381341  0.66252097  1
  O2-  O252  1  -0.00147742  0.35425244  -0.00063317  1
  O2-  O253  1  -0.00239466  0.34148664  0.33439828  1
  O2-  O254  1  -0.00593405  0.34783751  0.67156070  1
  O2-  O255  1  0.00364493  0.83485655  -0.00076215  1
  O2-  O256  1  0.00093447  0.84375817  0.33094824  1
  O2-  O257  1  0.00372900  0.84299201  0.66408794  1
  O2-  O258  1  0.33076730  0.34697097  0.00510934  1
  O2-  O259  1  0.33258805  0.32215668  0.33302487  1
  O2-  O260  1  0.33222686  0.35032992  0.66737345  1
  O2-  O261  1  0.33497498  0.82891209  -0.00849791  1
  O2-  O262  1  0.33601480  0.84915648  0.33326871  1
  O2-  O263  1  0.33598767  0.81906257  0.66551951  1
  O2-  O264  1  0.66158062  0.34383505  0.00448273  1
  O2-  O265  1  0.66043833  0.32792875  0.33967029  1
  O2-  O266  1  0.66842740  0.33268464  0.66990166  1
  O2-  O267  1  0.66602600  0.84962451  0.00018731  1
  O2-  O268  1  0.66585586  0.82051366  0.33919340  1
  O2-  O269  1  0.66520441  0.83628009  0.66521354  1
  O2-  O270  1  0.16217479  0.35323761  -0.00288749  1
  O2-  O271  1  0.16469273  0.32306969  0.33272273  1
  O2-  O272  1  0.16181736  0.34816704  0.66276435  1
  O2-  O273  1  0.16300222  0.81848577  -0.00310043  1
  O2-  O274  1  0.16455210  0.84474045  0.33350733  1
  O2-  O275  1  0.16635140  0.83943570  0.66471252  1
  O2-  O276  1  0.50377537  0.35134238  0.00131182  1
  O2-  O277  1  0.49659584  0.31824702  0.32975195  1
  O2-  O278  1  0.50506805  0.35185078  0.67142157  1
  O2-  O279  1  0.50425721  0.84846544  0.00309107  1
  O2-  O280  1  0.50670527  0.83971684  0.33690686  1
  O2-  O281  1  0.50407764  0.82361415  0.67033734  1
  O2-  O282  1  0.83520353  0.34789472  0.00310267  1
  O2-  O283  1  0.83788594  0.34273178  0.33856973  1
  O2-  O284  1  0.83311081  0.32555033  0.67224526  1
  O2-  O285  1  0.83618293  0.84349175  0.00253291  1
  O2-  O286  1  0.83051723  0.81338418  0.33725594  1
  O2-  O287  1  0.82664038  0.84050562  0.66017229  1
  O2-  O288  1  0.00353912  0.17627457  0.16246021  1
  O2-  O289  1  0.00303410  0.17753633  0.50724272  1
  O2-  O290  1  0.00354637  0.17466792  0.83380807  1
  O2-  O291  1  0.00342473  0.68750559  0.15604892  1
  O2-  O292  1  0.00030650  0.67358226  0.50764737  1
  O2-  O293  1  0.00097797  0.67248559  0.82431525  1
  O2-  O294  1  0.33388492  0.18306301  0.16386467  1
  O2-  O295  1  0.33243744  0.18494354  0.49993184  1
  O2-  O296  1  0.33892169  0.17583182  0.83845893  1
  O2-  O297  1  0.33678104  0.68184165  0.16725563  1
  O2-  O298  1  0.33123342  0.67291531  0.49532304  1
  O2-  O299  1  0.32381753  0.69818224  0.83703862  1
  O2-  O300  1  0.65959035  0.17510588  0.17251482  1
  O2-  O301  1  0.66587243  0.17644917  0.49892552  1
  O2-  O302  1  0.66579138  0.18076071  0.82882480  1
  O2-  O303  1  0.66896995  0.68326428  0.17242915  1
  O2-  O304  1  0.66369594  0.69439070  0.49838261  1
  O2-  O305  1  0.67371344  0.67992780  0.83652763  1
  O2-  O306  1  0.16448904  0.18344725  0.15985009  1
  O2-  O307  1  0.15999101  0.18245966  0.50438986  1
  O2-  O308  1  0.17402232  0.17693753  0.82657937  1
  O2-  O309  1  0.16749877  0.68733721  0.15862928  1
  O2-  O310  1  0.17928265  0.66865366  0.50165642  1
  O2-  O311  1  0.16265632  0.68182046  0.83485525  1
  O2-  O312  1  0.49844833  0.18175907  0.16735093  1
  O2-  O313  1  0.50006254  0.18279687  0.49850599  1
  O2-  O314  1  0.50989420  0.17369206  0.83206787  1
  O2-  O315  1  0.49878877  0.67916123  0.16656433  1
  O2-  O316  1  0.50728711  0.67741578  0.49112964  1
  O2-  O317  1  0.51015782  0.68678307  0.83079491  1
  O2-  O318  1  0.82457592  0.17476111  0.17564058  1
  O2-  O319  1  0.83616868  0.17779641  0.49725988  1
  O2-  O320  1  0.83466693  0.17983886  0.83614367  1
  O2-  O321  1  0.82748786  0.67672990  0.17290371  1
  O2-  O322  1  0.83912898  0.68604329  0.49966840  1
  O2-  O323  1  0.84012343  0.67053882  0.82189392  1
  O2-  O324  1  -0.00150932  0.32650754  0.16337136  1
  O2-  O325  1  -0.00164983  0.31771743  0.49729605  1
  O2-  O326  1  0.00450130  0.32490931  0.84123141  1
  O2-  O327  1  0.00334086  0.82015460  0.16473073  1
  O2-  O328  1  0.00397599  0.82653859  0.50683401  1
  O2-  O329  1  0.00319026  0.82659520  0.83555911  1
  O2-  O330  1  0.33307275  0.31755997  0.16869075  1
  O2-  O331  1  0.33570815  0.31594455  0.49762375  1
  O2-  O332  1  0.32771882  0.33059832  0.82886293  1
  O2-  O333  1  0.33818187  0.82385162  0.17156176  1
  O2-  O334  1  0.32616700  0.82592545  0.49429672  1
  O2-  O335  1  0.33446505  0.81711698  0.83355522  1
  O2-  O336  1  0.66176992  0.32028501  0.16284665  1
  O2-  O337  1  0.66522411  0.32200349  0.49836823  1
  O2-  O338  1  0.66136236  0.32124053  0.82279111  1
  O2-  O339  1  0.66202213  0.82232119  0.16060885  1
  O2-  O340  1  0.66515115  0.81549457  0.50167103  1
  O2-  O341  1  0.66472577  0.82615496  0.83023841  1
  O2-  O342  1  0.16581321  0.31889527  0.16725285  1
  O2-  O343  1  0.16852147  0.31507318  0.49469848  1
  O2-  O344  1  0.16644788  0.32679632  0.83312696  1
  O2-  O345  1  0.16483213  0.81091541  0.16995105  1
  O2-  O346  1  0.16405902  0.83003343  0.49927563  1
  O2-  O347  1  0.15872529  0.82009490  0.83889875  1
  O2-  O348  1  0.50295804  0.31837738  0.16537920  1
  O2-  O349  1  0.49775921  0.32158602  0.50131279  1
  O2-  O350  1  0.49903171  0.33251628  0.83465941  1
  O2-  O351  1  0.50405478  0.81973452  0.17274684  1
  O2-  O352  1  0.50231601  0.81902421  0.50084259  1
  O2-  O353  1  0.49782536  0.82024574  0.83402710  1
  O2-  O354  1  0.83656837  0.33168417  0.16110670  1
  O2-  O355  1  0.83771267  0.32712168  0.49409805  1
  O2-  O356  1  0.83072566  0.31185280  0.83501620  1
  O2-  O357  1  0.83799696  0.82726419  0.16135074  1
  O2-  O358  1  0.83274912  0.81647602  0.50153504  1
  O2-  O359  1  0.82960523  0.82687459  0.83917410  1
  O2-  O360  1  0.09648449  0.08206486  0.11172330  1
  O2-  O361  1  0.09051171  0.07899729  0.44395081  1
  O2-  O362  1  0.08238453  0.07452079  0.78632989  1
  O2-  O363  1  0.07364157  0.58320348  0.11640968  1
  O2-  O364  1  0.10060233  0.57921988  0.45079185  1
  O2-  O365  1  0.07167046  0.58190225  0.76795121  1
  O2-  O366  1  0.40932239  0.08343886  0.11945020  1
  O2-  O367  1  0.40860041  0.08511560  0.44153975  1
  O2-  O368  1  0.41446955  0.07255554  0.77899735  1
  O2-  O369  1  0.42645790  0.58011009  0.12001614  1
  O2-  O370  1  0.43148028  0.58321613  0.44439281  1
  O2-  O371  1  0.42637337  0.59020864  0.76851038  1
  O2-  O372  1  0.72633303  0.06763789  0.11903861  1
  O2-  O373  1  0.73404312  0.07980091  0.42856697  1
  O2-  O374  1  0.75054023  0.07714947  0.78181497  1
  O2-  O375  1  0.74742646  0.57991214  0.12199384  1
  O2-  O376  1  0.72724035  0.58781314  0.45185053  1
  O2-  O377  1  0.75494240  0.57953401  0.76190816  1
  O2-  O378  1  0.25717478  0.08444966  0.23929577  1
  O2-  O379  1  0.24025831  0.08702827  0.54499330  1
  O2-  O380  1  0.24891733  0.07808695  0.87756867  1
  O2-  O381  1  0.23920827  0.58337432  0.21679711  1
  O2-  O382  1  0.25866939  0.58006580  0.55505096  1
  O2-  O383  1  0.22957966  0.58286586  0.89780875  1
  O2-  O384  1  0.57885717  0.07894922  0.22081537  1
  O2-  O385  1  0.56670088  0.08352449  0.55847683  1
  O2-  O386  1  0.58695936  0.07455868  0.89145940  1
  O2-  O387  1  0.59639758  0.57910909  0.21778168  1
  O2-  O388  1  0.60059963  0.57364547  0.56673931  1
  O2-  O389  1  0.58157314  0.58612248  0.88161305  1
  O2-  O390  1  0.91552112  0.06609338  0.21259398  1
  O2-  O391  1  0.92809184  0.08047511  0.55193468  1
  O2-  O392  1  0.92124928  0.08409855  0.89126571  1
  O2-  O393  1  0.91347941  0.58260689  0.20844762  1
  O2-  O394  1  0.91142819  0.58450547  0.55928273  1
  O2-  O395  1  0.92389677  0.57175927  0.89168860  1
  O2-  O396  1  0.08354065  0.41868796  0.11575287  1
  O2-  O397  1  0.08688191  0.41303105  0.43741711  1
  O2-  O398  1  0.09479775  0.41839078  0.77986610  1
  O2-  O399  1  0.07507089  0.92087368  0.10443618  1
  O2-  O400  1  0.08849769  0.92155704  0.44300065  1
  O2-  O401  1  0.08682901  0.92107080  0.77921135  1
  O2-  O402  1  0.42504971  0.41536922  0.12068068  1
  O2-  O403  1  0.40771947  0.41686657  0.42725989  1
  O2-  O404  1  0.40214468  0.42438568  0.78145176  1
  O2-  O405  1  0.43493838  0.92162744  0.11165311  1
  O2-  O406  1  0.42978468  0.91538353  0.43767104  1
  O2-  O407  1  0.42394740  0.91884558  0.77704570  1
  O2-  O408  1  0.73421257  0.41804184  0.10781430  1
  O2-  O409  1  0.74944425  0.41643537  0.43114643  1
  O2-  O410  1  0.74843104  0.41498938  0.76745916  1
  O2-  O411  1  0.73508467  0.92168583  0.10614004  1
  O2-  O412  1  0.73379559  0.91603719  0.44389535  1
  O2-  O413  1  0.74565572  0.92475190  0.78118170  1
  O2-  O414  1  0.25410891  0.41573112  0.23376210  1
  O2-  O415  1  0.25865833  0.41481368  0.54549422  1
  O2-  O416  1  0.24325390  0.42888174  0.87927252  1
  O2-  O417  1  0.24003322  0.91787139  0.22198742  1
  O2-  O418  1  0.24166502  0.92049962  0.56287936  1
  O2-  O419  1  0.23917174  0.91851960  0.90320963  1
  O2-  O420  1  0.56879910  0.41779437  0.22774021  1
  O2-  O421  1  0.57543914  0.41805058  0.55523055  1
  O2-  O422  1  0.58730442  0.42245388  0.87942904  1
  O2-  O423  1  0.57725016  0.92311665  0.22132794  1
  O2-  O424  1  0.59432182  0.91880030  0.55385205  1
  O2-  O425  1  0.57461147  0.91796348  0.88792166  1
  O2-  O426  1  0.93011914  0.41966290  0.22298885  1
  O2-  O427  1  0.92344564  0.41874054  0.55517408  1
  O2-  O428  1  0.92377826  0.41716772  0.88079005  1
  O2-  O429  1  0.92621458  0.92647430  0.21637759  1
  O2-  O430  1  0.90454044  0.91799304  0.56036628  1
  O2-  O431  1  0.93214290  0.91522209  0.90997555  1
  O2-  O432  1  0.00699297  -0.00110175  -0.00845065  1
  O2-  O433  1  0.01616990  0.00388535  0.30670004  1
  O2-  O434  1  0.01254980  0.00563245  0.64518923  1
  O2-  O435  1  0.00296646  0.49119300  -0.01273055  1
  O2-  O436  1  -0.00093431  0.51106965  0.33770389  1
  O2-  O437  1  -0.00976630  0.50426314  0.67865979  1
  O2-  O438  1  0.35264417  0.00227869  -0.02276651  1
  O2-  O439  1  0.33528545  0.00217358  0.33309747  1
  O2-  O440  1  0.32940554  0.01606209  0.66345794  1
  O2-  O441  1  0.32966398  0.47646090  0.00089006  1
  O2-  O442  1  0.32432978  0.51733982  0.34766457  1
  O2-  O443  1  0.32813897  0.49878393  0.67464770  1
  O2-  O444  1  0.66384484  -0.00147796  0.00585693  1
  O2-  O445  1  0.64650354  -0.00711502  0.35380410  1
  O2-  O446  1  0.65791363  -0.00913408  0.67669185  1
  O2-  O447  1  0.65760771  0.50366889  0.01892400  1
  O2-  O448  1  0.65887961  0.52049910  0.34052255  1
  O2-  O449  1  0.65983662  0.49223607  0.67659958  1
  O2-  O450  1  0.15154460  0.00798825  -0.02687417  1
  O2-  O451  1  0.17573920  -0.00080925  0.34610322  1
  O2-  O452  1  0.16518156  0.01892837  0.66421959  1
  O2-  O453  1  0.15898799  0.48781477  -0.01541171  1
  O2-  O454  1  0.16192713  0.50957899  0.32657293  1
  O2-  O455  1  0.16058038  0.48156716  0.66205444  1
  O2-  O456  1  0.51530299  0.00504240  0.01981705  1
  O2-  O457  1  0.49496874  -0.00069119  0.33712717  1
  O2-  O458  1  0.51061762  0.00284503  0.68203437  1
  O2-  O459  1  0.50374404  0.48817776  0.00542090  1
  O2-  O460  1  0.49728892  0.50999991  0.33609642  1
  O2-  O461  1  0.49681742  0.49041275  0.67219750  1
  O2-  O462  1  0.83253371  -0.01414501  -0.00584431  1
  O2-  O463  1  0.81551739  0.00951160  0.30759870  1
  O2-  O464  1  0.84002628  0.00655545  0.66998236  1
  O2-  O465  1  0.85564116  0.49379458  0.03734539  1
  O2-  O466  1  0.83197840  0.51874346  0.33673548  1
  O2-  O467  1  0.85195111  0.51110712  0.68877224  1
  O2-  O468  1  0.08131480  0.74993647  0.72873933  1
  O2-  O469  1  0.41178950  0.74986134  0.39486160  1
  O2-  O470  1  0.75178626  0.75288454  0.06739186  1
  O2-  O471  1  0.08086717  0.24999255  0.72933272  1
  O2-  O472  1  0.75513608  0.74678376  0.73610980  1
  O2-  O473  1  0.91354983  0.75234545  0.92541311  1
  O2-  O474  1  0.92028791  0.75102953  0.60732025  1
  O2-  O475  1  0.75775137  0.24601620  0.40567645  1
  O2-  O476  1  0.08738458  0.25128306  0.05395591  1
  O2-  O477  1  0.41855732  0.25584703  0.73793060  1
  O2-  O478  1  0.75177846  0.25290684  0.06842436  1
  O2-  O479  1  0.08417787  0.75584688  0.40531597  1
  O2-  O480  1  0.92630010  0.25248353  0.93848663  1
  O2-  O481  1  0.91121386  0.25363591  0.25789225  1
  O2-  O482  1  0.58684160  0.75177947  0.93946839  1
  O2-  O483  1  0.58238357  0.25471893  0.93107702  1
  O2-  O484  1  0.24797190  0.24641331  0.94113561  1
  O2-  O485  1  0.92724752  0.24954695  0.60362088  1
  O2-  O486  1  0.41634573  0.24991279  0.05207096  1
  O2-  O487  1  0.26174700  0.74926121  0.27914229  1
  O2-  O488  1  0.58084137  0.25170240  0.59679153  1
  O2-  O489  1  0.24542386  0.25036696  0.61062112  1
  O2-  O490  1  0.23629515  0.75314397  0.58448604  1
  O2-  O491  1  0.42177474  0.74846020  0.06713055  1
  O2-  O492  1  0.92484742  0.74851864  0.26722500  1
