# generated using pymatgen
data_Ca108Mn108O277
_symmetry_space_group_name_H-M   'P 1'
_cell_length_a   16.03107480
_cell_length_b   22.31202837
_cell_length_c   16.39361426
_cell_angle_alpha   89.99811047
_cell_angle_beta   89.99842215
_cell_angle_gamma   90.00059930
_symmetry_Int_Tables_number   1
_chemical_formula_structural   Ca108Mn108O277
_chemical_formula_sum   'Ca108 Mn108 O277'
_cell_volume   5863.76295865
_cell_formula_units_Z   1
loop_
 _symmetry_equiv_pos_site_id
 _symmetry_equiv_pos_as_xyz
  1  'x, y, z'
loop_
 _atom_type_symbol
 _atom_type_oxidation_number
  Ca2+  2.0
  Mn3.34+  3.34
  O2-  -2.0
loop_
 _atom_site_type_symbol
 _atom_site_label
 _atom_site_symmetry_multiplicity
 _atom_site_fract_x
 _atom_site_fract_y
 _atom_site_fract_z
 _atom_site_occupancy
  Ca2+  Ca0  1  0.07633459  0.25043828  0.26625335  1
  Ca2+  Ca1  1  0.07702715  0.23781634  0.57356586  1
  Ca2+  Ca2  1  0.07973208  0.25244549  0.91726425  1
  Ca2+  Ca3  1  0.06859359  0.76015209  0.24829962  1
  Ca2+  Ca4  1  0.09851730  0.73895878  0.60764019  1
  Ca2+  Ca5  1  0.07527603  0.74440090  0.89285713  1
  Ca2+  Ca6  1  0.41288282  0.25867919  0.26020693  1
  Ca2+  Ca7  1  0.40954193  0.25080060  0.57423632  1
  Ca2+  Ca8  1  0.43059711  0.25878861  0.90952614  1
  Ca2+  Ca9  1  0.42060478  0.74411225  0.25383271  1
  Ca2+  Ca10  1  0.39117265  0.74297977  0.59659051  1
  Ca2+  Ca11  1  0.41062304  0.73923542  0.88513424  1
  Ca2+  Ca12  1  0.75597787  0.26559651  0.25568549  1
  Ca2+  Ca13  1  0.76268215  0.25278214  0.57753486  1
  Ca2+  Ca14  1  0.74335865  0.25794475  0.91812020  1
  Ca2+  Ca15  1  0.76147636  0.75507894  0.24419467  1
  Ca2+  Ca16  1  0.75602563  0.76109320  0.58760083  1
  Ca2+  Ca17  1  0.76462404  0.74243723  0.92778934  1
  Ca2+  Ca18  1  0.23757917  0.25830121  0.09191452  1
  Ca2+  Ca19  1  0.24932421  0.25307147  0.42255298  1
  Ca2+  Ca20  1  0.23653965  0.23871111  0.73287851  1
  Ca2+  Ca21  1  0.24675966  0.75716200  0.08381196  1
  Ca2+  Ca22  1  0.26047824  0.74339605  0.44558154  1
  Ca2+  Ca23  1  0.24584900  0.75257558  0.74089584  1
  Ca2+  Ca24  1  0.60286161  0.26048841  0.07939139  1
  Ca2+  Ca25  1  0.58317901  0.26524605  0.41681068  1
  Ca2+  Ca26  1  0.59300108  0.25068286  0.74316369  1
  Ca2+  Ca27  1  0.61108355  0.72799936  0.10162455  1
  Ca2+  Ca28  1  0.57855994  0.74724305  0.40277781  1
  Ca2+  Ca29  1  0.57450044  0.75321011  0.75397057  1
  Ca2+  Ca30  1  0.90955128  0.25945466  0.09892809  1
  Ca2+  Ca31  1  0.91599069  0.25125373  0.41685240  1
  Ca2+  Ca32  1  0.91423827  0.24594811  0.73119926  1
  Ca2+  Ca33  1  0.89411054  0.73666756  0.08415655  1
  Ca2+  Ca34  1  0.92289910  0.75739121  0.40679440  1
  Ca2+  Ca35  1  0.92808537  0.75110359  0.75839237  1
  Ca2+  Ca36  1  0.57892980  0.58171780  0.39079390  1
  Ca2+  Ca37  1  0.21363975  0.11440344  0.43310209  1
  Ca2+  Ca38  1  0.10883264  0.10270744  0.89538562  1
  Ca2+  Ca39  1  0.40770084  0.09243164  0.26227162  1
  Ca2+  Ca40  1  0.56535435  0.58647639  0.74592571  1
  Ca2+  Ca41  1  0.77512221  0.10684055  0.57667255  1
  Ca2+  Ca42  1  0.07205953  0.58400729  0.91427065  1
  Ca2+  Ca43  1  0.74807975  0.58127893  0.58424103  1
  Ca2+  Ca44  1  0.59273151  0.09298707  0.07211736  1
  Ca2+  Ca45  1  0.72681998  0.60869690  0.22603037  1
  Ca2+  Ca46  1  0.77614000  0.08197959  0.26026330  1
  Ca2+  Ca47  1  0.92948494  0.60059988  0.75462378  1
  Ca2+  Ca48  1  0.40029696  0.59269663  0.56752025  1
  Ca2+  Ca49  1  0.23869327  0.60832799  0.74220475  1
  Ca2+  Ca50  1  0.93212118  0.10322085  0.42859262  1
  Ca2+  Ca51  1  0.60469688  0.09500577  0.07555455  1
  Ca2+  Ca52  1  0.58902829  0.09756456  0.41178677  1
  Ca2+  Ca53  1  0.78250842  0.07992150  0.26788920  1
  Ca2+  Ca54  1  0.25000884  0.60896469  0.74114783  1
  Ca2+  Ca55  1  0.89296460  0.58150342  0.39898707  1
  Ca2+  Ca56  1  0.05831846  0.56999796  0.25246952  1
  Ca2+  Ca57  1  0.09231337  0.60243578  0.59836533  1
  Ca2+  Ca58  1  0.06389957  0.09283268  0.26296447  1
  Ca2+  Ca59  1  0.59841163  0.09571059  0.41566267  1
  Ca2+  Ca60  1  0.39419053  0.59862715  0.57336175  1
  Ca2+  Ca61  1  0.55555662  0.58910646  0.75020361  1
  Ca2+  Ca62  1  0.76531931  0.58581131  0.95030997  1
  Ca2+  Ca63  1  0.43652805  0.59939985  0.24860404  1
  Ca2+  Ca64  1  0.41402227  0.09616144  0.92072673  1
  Ca2+  Ca65  1  0.95880033  0.10585775  0.70137938  1
  Ca2+  Ca66  1  0.38736717  0.10236534  0.57116323  1
  Ca2+  Ca67  1  0.56847660  0.58158316  0.39029336  1
  Ca2+  Ca68  1  0.90123727  0.57886817  0.39392848  1
  Ca2+  Ca69  1  0.25804875  0.57547830  0.07887014  1
  Ca2+  Ca70  1  0.07094717  0.57166712  0.25361970  1
  Ca2+  Ca71  1  0.93776436  0.60539539  0.75069813  1
  Ca2+  Ca72  1  0.24442314  0.40949044  0.08071388  1
  Ca2+  Ca73  1  0.60839785  0.91770679  0.39656762  1
  Ca2+  Ca74  1  0.41481881  0.42347147  0.28150085  1
  Ca2+  Ca75  1  0.08073500  0.38525953  0.57874875  1
  Ca2+  Ca76  1  0.92374978  0.90664505  0.73950941  1
  Ca2+  Ca77  1  0.08299826  0.90651875  0.58117670  1
  Ca2+  Ca78  1  0.58121638  0.90152625  0.75330711  1
  Ca2+  Ca79  1  0.42530430  0.42301976  0.28041194  1
  Ca2+  Ca80  1  0.91201625  0.90634240  0.73919480  1
  Ca2+  Ca81  1  0.92156247  0.90967659  0.09225035  1
  Ca2+  Ca82  1  0.41991450  0.40328426  0.91972070  1
  Ca2+  Ca83  1  0.57875137  0.40453933  0.73734011  1
  Ca2+  Ca84  1  0.40725571  0.90699256  0.58365215  1
  Ca2+  Ca85  1  0.43010595  0.40369532  0.56554641  1
  Ca2+  Ca86  1  0.07440388  0.41070599  0.92680710  1
  Ca2+  Ca87  1  0.22724437  0.92358961  0.07653419  1
  Ca2+  Ca88  1  0.23964917  0.91381863  0.40989165  1
  Ca2+  Ca89  1  0.41062360  0.90403761  0.91520561  1
  Ca2+  Ca90  1  0.25246626  0.91454042  0.40868545  1
  Ca2+  Ca91  1  0.58780381  0.40636236  0.74249861  1
  Ca2+  Ca92  1  0.42056816  0.90667178  0.58403425  1
  Ca2+  Ca93  1  0.74765389  0.89708010  0.91922188  1
  Ca2+  Ca94  1  0.91578435  0.40842418  0.40460479  1
  Ca2+  Ca95  1  0.59343293  0.41227824  0.07295643  1
  Ca2+  Ca96  1  0.41672030  0.90773890  0.26030634  1
  Ca2+  Ca97  1  0.08337935  0.91451710  0.92641855  1
  Ca2+  Ca98  1  0.05968918  0.91866293  0.24767669  1
  Ca2+  Ca99  1  0.75391754  0.41016881  0.92117041  1
  Ca2+  Ca100  1  0.59945818  0.91520940  0.39219828  1
  Ca2+  Ca101  1  0.09445320  0.91455432  0.92507307  1
  Ca2+  Ca102  1  0.08676505  0.40981268  0.92694734  1
  Ca2+  Ca103  1  0.07076910  0.90506610  0.57828426  1
  Ca2+  Ca104  1  0.58349193  0.90299420  0.08895015  1
  Ca2+  Ca105  1  0.92210867  0.39392940  0.75161502  1
  Ca2+  Ca106  1  0.59595608  0.90094077  0.09090314  1
  Ca2+  Ca107  1  0.42316176  0.90563498  0.91672641  1
  Mn3.34+  Mn108  1  0.07683490  0.33350471  0.09236368  1
  Mn3.34+  Mn109  1  0.08617570  0.33717438  0.41581723  1
  Mn3.34+  Mn110  1  0.08569625  0.32191115  0.75107957  1
  Mn3.34+  Mn111  1  0.08138872  0.83541741  0.08797613  1
  Mn3.34+  Mn112  1  0.07930435  0.83453098  0.41252358  1
  Mn3.34+  Mn113  1  0.08964167  0.83592011  0.75557217  1
  Mn3.34+  Mn114  1  0.41797406  0.33573064  0.08767132  1
  Mn3.34+  Mn115  1  0.41464367  0.33669329  0.41860646  1
  Mn3.34+  Mn116  1  0.40667220  0.33052068  0.74575621  1
  Mn3.34+  Mn117  1  0.41566536  0.82398358  0.09051184  1
  Mn3.34+  Mn118  1  0.41760530  0.83127229  0.41838360  1
  Mn3.34+  Mn119  1  0.41380197  0.83130736  0.75030580  1
  Mn3.34+  Mn120  1  0.75867514  0.34130640  0.08913539  1
  Mn3.34+  Mn121  1  0.74866347  0.33696825  0.41716894  1
  Mn3.34+  Mn122  1  0.75439400  0.33051596  0.74631527  1
  Mn3.34+  Mn123  1  0.75486084  0.82973671  0.08651767  1
  Mn3.34+  Mn124  1  0.75836443  0.84062678  0.42247279  1
  Mn3.34+  Mn125  1  0.74677551  0.82857683  0.75017123  1
  Mn3.34+  Mn126  1  0.24567982  0.33459695  0.25309817  1
  Mn3.34+  Mn127  1  0.24745703  0.32433550  0.58208582  1
  Mn3.34+  Mn128  1  0.24905882  0.33641073  0.90969774  1
  Mn3.34+  Mn129  1  0.24771456  0.83636441  0.24380950  1
  Mn3.34+  Mn130  1  0.24769680  0.83576207  0.58486606  1
  Mn3.34+  Mn131  1  0.25075705  0.83238200  0.91909991  1
  Mn3.34+  Mn132  1  0.58747452  0.33543198  0.24917603  1
  Mn3.34+  Mn133  1  0.58870927  0.33794920  0.57660968  1
  Mn3.34+  Mn134  1  0.58589177  0.33778432  0.91230464  1
  Mn3.34+  Mn135  1  0.58759532  0.82529989  0.24814263  1
  Mn3.34+  Mn136  1  0.58711108  0.83182735  0.57806427  1
  Mn3.34+  Mn137  1  0.58384592  0.82689985  0.91849571  1
  Mn3.34+  Mn138  1  0.91885046  0.34162773  0.25190044  1
  Mn3.34+  Mn139  1  0.91593222  0.32988540  0.57819803  1
  Mn3.34+  Mn140  1  0.91635270  0.33559486  0.91812940  1
  Mn3.34+  Mn141  1  0.91006083  0.84018920  0.25189466  1
  Mn3.34+  Mn142  1  0.91444948  0.83033566  0.57411690  1
  Mn3.34+  Mn143  1  0.91658706  0.83296594  0.91983738  1
  Mn3.34+  Mn144  1  0.25153030  0.66033646  0.24553666  1
  Mn3.34+  Mn145  1  0.91667610  0.17037179  0.25159208  1
  Mn3.34+  Mn146  1  0.41487459  0.66889281  0.41373081  1
  Mn3.34+  Mn147  1  0.75268508  0.17069788  0.41842505  1
  Mn3.34+  Mn148  1  0.42097868  0.67199816  0.08795594  1
  Mn3.34+  Mn149  1  0.91603238  0.66392294  0.91695991  1
  Mn3.34+  Mn150  1  0.75751978  0.17057957  0.08539377  1
  Mn3.34+  Mn151  1  0.09596846  0.66150396  0.42166310  1
  Mn3.34+  Mn152  1  0.09084288  0.15517435  0.08650078  1
  Mn3.34+  Mn153  1  0.41340450  0.15973434  0.75129435  1
  Mn3.34+  Mn154  1  0.90732218  0.16466750  0.91414694  1
  Mn3.34+  Mn155  1  0.26102177  0.65465326  0.91953915  1
  Mn3.34+  Mn156  1  0.57417915  0.65337855  0.92406845  1
  Mn3.34+  Mn157  1  0.25068188  0.17307089  0.91241335  1
  Mn3.34+  Mn158  1  0.59304562  0.16942937  0.91008131  1
  Mn3.34+  Mn159  1  0.41753518  0.18243944  0.08578236  1
  Mn3.34+  Mn160  1  0.07665600  0.16056801  0.08512421  1
  Mn3.34+  Mn161  1  0.24695959  0.16835989  0.25393607  1
  Mn3.34+  Mn162  1  0.58519074  0.17049879  0.24495494  1
  Mn3.34+  Mn163  1  0.07435511  0.66408382  0.08488196  1
  Mn3.34+  Mn164  1  0.40633926  0.17679162  0.08625771  1
  Mn3.34+  Mn165  1  0.08532842  0.66666721  0.42119586  1
  Mn3.34+  Mn166  1  0.41640857  0.16966311  0.41721897  1
  Mn3.34+  Mn167  1  0.90948584  0.66711582  0.24764765  1
  Mn3.34+  Mn168  1  0.74913987  0.67019451  0.42333130  1
  Mn3.34+  Mn169  1  0.58324225  0.65964587  0.92417106  1
  Mn3.34+  Mn170  1  0.75138004  0.66799283  0.75706559  1
  Mn3.34+  Mn171  1  0.91733332  0.16980066  0.91664013  1
  Mn3.34+  Mn172  1  0.24668424  0.66132442  0.92066598  1
  Mn3.34+  Mn173  1  0.75019215  0.16792640  0.74943658  1
  Mn3.34+  Mn174  1  0.59172932  0.66690587  0.57701838  1
  Mn3.34+  Mn175  1  0.08561475  0.66866479  0.08334129  1
  Mn3.34+  Mn176  1  0.91323314  0.66438981  0.57607182  1
  Mn3.34+  Mn177  1  0.58545399  0.17103279  0.58348538  1
  Mn3.34+  Mn178  1  0.58269190  0.67272124  0.57954693  1
  Mn3.34+  Mn179  1  0.42393256  0.16398673  0.74903567  1
  Mn3.34+  Mn180  1  0.59653045  -0.00262443  0.58835474  1
  Mn3.34+  Mn181  1  0.23831740  0.49489890  0.56020984  1
  Mn3.34+  Mn182  1  0.74500594  0.00858391  0.76266843  1
  Mn3.34+  Mn183  1  0.25014664  0.48741801  0.56230611  1
  Mn3.34+  Mn184  1  0.90381028  0.00651577  0.92546070  1
  Mn3.34+  Mn185  1  0.08380945  0.49666451  0.74955320  1
  Mn3.34+  Mn186  1  0.42971538  0.50399798  0.07725402  1
  Mn3.34+  Mn187  1  0.09360604  0.49860067  0.42013154  1
  Mn3.34+  Mn188  1  0.25428654  0.00433216  0.90263410  1
  Mn3.34+  Mn189  1  0.75730852  0.00170305  0.76329715  1
  Mn3.34+  Mn190  1  0.59164659  0.49616410  0.24747175  1
  Mn3.34+  Mn191  1  0.39008869  0.49792060  0.75820409  1
  Mn3.34+  Mn192  1  0.58333805  0.00394409  0.59076621  1
  Mn3.34+  Mn193  1  0.91387672  0.49611112  0.58222794  1
  Mn3.34+  Mn194  1  0.74582216  0.49022148  0.41302992  1
  Mn3.34+  Mn195  1  0.24940832  0.00277537  0.59621931  1
  Mn3.34+  Mn196  1  0.09285050  0.00186741  0.73762044  1
  Mn3.34+  Mn197  1  0.59516264  0.00189284  0.91752605  1
  Mn3.34+  Mn198  1  0.40487603  -0.00134180  0.74175087  1
  Mn3.34+  Mn199  1  0.09515952  0.49184548  0.74952599  1
  Mn3.34+  Mn200  1  0.40043686  -0.00216087  0.09165390  1
  Mn3.34+  Mn201  1  0.91592113  0.01332097  0.92934414  1
  Mn3.34+  Mn202  1  0.75253486  -0.00366848  0.09456638  1
  Mn3.34+  Mn203  1  0.25144849  0.50133164  0.26255698  1
  Mn3.34+  Mn204  1  0.24807245  0.00305834  0.24647637  1
  Mn3.34+  Mn205  1  0.40258335  0.50165553  0.75918738  1
  Mn3.34+  Mn206  1  0.58500076  0.00264572  0.24801728  1
  Mn3.34+  Mn207  1  0.75444293  0.49370804  0.06304832  1
  Mn3.34+  Mn208  1  0.74932622  0.50806648  0.76189289  1
  Mn3.34+  Mn209  1  0.41266002  0.00225798  0.09082240  1
  Mn3.34+  Mn210  1  0.42805217  0.50513397  0.06456843  1
  Mn3.34+  Mn211  1  0.76262905  0.50163990  0.75981225  1
  Mn3.34+  Mn212  1  0.07350286  0.49989474  0.06747521  1
  Mn3.34+  Mn213  1  0.41222879  0.00220255  0.41588422  1
  Mn3.34+  Mn214  1  0.07419192  0.00065233  0.39994957  1
  Mn3.34+  Mn215  1  0.91100570  -0.00143259  0.58209440  1
  O2-  O216  1  0.00849547  0.14092708  -0.01026081  1
  O2-  O217  1  -0.00266783  0.16907420  0.32944333  1
  O2-  O218  1  0.02175066  0.19114357  0.68138534  1
  O2-  O219  1  0.00584259  0.65030747  -0.00598591  1
  O2-  O220  1  -0.00202957  0.65015017  0.34634803  1
  O2-  O221  1  -0.00698811  0.66548838  0.65968850  1
  O2-  O222  1  0.33445695  0.18609554  -0.00371814  1
  O2-  O223  1  0.33292129  0.15497872  0.33637831  1
  O2-  O224  1  0.33126303  0.15808937  0.67442928  1
  O2-  O225  1  0.33826156  0.66146683  0.00381071  1
  O2-  O226  1  0.33327832  0.66382316  0.32947665  1
  O2-  O227  1  0.33775804  0.64744287  0.66365556  1
  O2-  O228  1  0.67069173  0.16049278  0.00013294  1
  O2-  O229  1  0.67303335  0.14586850  0.31854076  1
  O2-  O230  1  0.67505837  0.15747368  0.65633099  1
  O2-  O231  1  0.66198317  0.65533240  0.00375028  1
  O2-  O232  1  0.65792105  0.66247498  0.35917214  1
  O2-  O233  1  0.66089200  0.65093935  0.67421812  1
  O2-  O234  1  0.16953870  0.16616313  0.00067176  1
  O2-  O235  1  0.16180428  0.16261054  0.32210306  1
  O2-  O236  1  0.14149872  0.17637800  0.67305573  1
  O2-  O237  1  0.17151424  0.63578692  0.00404332  1
  O2-  O238  1  0.15515048  0.64731846  0.31871342  1
  O2-  O239  1  0.16757361  0.66200170  0.67040599  1
  O2-  O240  1  0.49782246  0.16410475  0.00421818  1
  O2-  O241  1  0.50617933  0.14913352  0.33002964  1
  O2-  O242  1  0.49609425  0.14445806  0.65985260  1
  O2-  O243  1  0.50073533  0.69856044  -0.00386976  1
  O2-  O244  1  0.50082884  0.66364039  0.33859809  1
  O2-  O245  1  0.49934619  0.65050353  0.65709613  1
  O2-  O246  1  0.83924463  0.14869164  0.00161889  1
  O2-  O247  1  0.83537254  0.15781655  0.33758931  1
  O2-  O248  1  0.83824291  0.15688655  0.68094598  1
  O2-  O249  1  0.83550120  0.66265174  -0.00733940  1
  O2-  O250  1  0.82949938  0.66132915  0.33643035  1
  O2-  O251  1  0.83457098  0.64504306  0.66356069  1
  O2-  O252  1  0.00651128  0.34148745  -0.00584265  1
  O2-  O253  1  -0.00001504  0.32470794  0.34136552  1
  O2-  O254  1  -0.00008007  0.33426442  0.67057703  1
  O2-  O255  1  0.00320462  0.85411847  -0.00180967  1
  O2-  O256  1  -0.00116606  0.84353885  0.33132547  1
  O2-  O257  1  0.00000765  0.84030540  0.66976925  1
  O2-  O258  1  0.33437519  0.33218453  -0.00266902  1
  O2-  O259  1  0.33978226  0.34307060  0.32669092  1
  O2-  O260  1  0.33810290  0.34272727  0.65636351  1
  O2-  O261  1  0.33456127  0.84268114  0.00616765  1
  O2-  O262  1  0.32789924  0.84693924  0.33530306  1
  O2-  O263  1  0.33322878  0.85053791  0.66509674  1
  O2-  O264  1  0.66861932  0.34783763  -0.00484044  1
  O2-  O265  1  0.66500082  0.34358469  0.33356281  1
  O2-  O266  1  0.66196680  0.34029090  0.67273805  1
  O2-  O267  1  0.66405699  0.84143579  0.00287049  1
  O2-  O268  1  0.66340358  0.82539423  0.33877491  1
  O2-  O269  1  0.65654613  0.82761326  0.67239566  1
  O2-  O270  1  0.16856048  0.32919067  -0.00375816  1
  O2-  O271  1  0.16484303  0.32148560  0.33648216  1
  O2-  O272  1  0.16257721  0.32240960  0.66565718  1
  O2-  O273  1  0.16960147  0.84978502  0.00444377  1
  O2-  O274  1  0.16421795  0.85489126  0.32606615  1
  O2-  O275  1  0.16183258  0.85068428  0.66312213  1
  O2-  O276  1  0.50036000  0.34299279  -0.00103820  1
  O2-  O277  1  0.49613438  0.34296336  0.32748060  1
  O2-  O278  1  0.49585113  0.34633776  0.67146050  1
  O2-  O279  1  0.49866165  0.84501494  0.00354508  1
  O2-  O280  1  0.50640194  0.84438761  0.33674764  1
  O2-  O281  1  0.50014882  0.84560990  0.66296516  1
  O2-  O282  1  0.83339886  0.34992139  -0.00209873  1
  O2-  O283  1  0.83588685  0.33757410  0.33876007  1
  O2-  O284  1  0.83677347  0.34242521  0.66866205  1
  O2-  O285  1  0.83440090  0.84911073  0.00122735  1
  O2-  O286  1  0.82909674  0.82613879  0.33607469  1
  O2-  O287  1  0.83723402  0.84078960  0.66314415  1
  O2-  O288  1  -0.00078752  0.17733042  0.16729615  1
  O2-  O289  1  0.00753894  0.18370033  0.47813737  1
  O2-  O290  1  -0.00369310  0.18348079  0.83840373  1
  O2-  O291  1  0.00669004  0.67670515  0.18125234  1
  O2-  O292  1  0.00223685  0.68858452  0.50345955  1
  O2-  O293  1  -0.00519918  0.67404256  0.83008012  1
  O2-  O294  1  0.33511568  0.18414103  0.17328280  1
  O2-  O295  1  0.33667020  0.17628850  0.49197190  1
  O2-  O296  1  0.33983500  0.18878082  0.83650847  1
  O2-  O297  1  0.33092323  0.68792936  0.16664410  1
  O2-  O298  1  0.34514230  0.67468663  0.50322357  1
  O2-  O299  1  0.31831465  0.67866922  0.82433298  1
  O2-  O300  1  0.65413491  0.17857205  0.15304229  1
  O2-  O301  1  0.65859281  0.18133405  0.48842679  1
  O2-  O302  1  0.66507939  0.18760266  0.82864126  1
  O2-  O303  1  0.66750806  0.69317367  0.20539618  1
  O2-  O304  1  0.67692014  0.69689877  0.51041067  1
  O2-  O305  1  0.66249603  0.69009180  0.84514268  1
  O2-  O306  1  0.16670019  0.18388963  0.16644731  1
  O2-  O307  1  0.15453118  0.19100275  0.48491871  1
  O2-  O308  1  0.16883925  0.18824937  0.84320178  1
  O2-  O309  1  0.16870850  0.68736011  0.16217119  1
  O2-  O310  1  0.16645885  0.68067864  0.50500430  1
  O2-  O311  1  0.16591757  0.67090473  0.84094571  1
  O2-  O312  1  0.49683267  0.18450457  0.16868828  1
  O2-  O313  1  0.50417064  0.17639905  0.49477270  1
  O2-  O314  1  0.49675231  0.17717120  0.83656665  1
  O2-  O315  1  0.49430466  0.68774814  0.16606663  1
  O2-  O316  1  0.50123248  0.69249196  0.50048540  1
  O2-  O317  1  0.50891807  0.67472227  0.83213339  1
  O2-  O318  1  0.81952710  0.17484149  0.18037766  1
  O2-  O319  1  0.83007732  0.17859187  0.49437920  1
  O2-  O320  1  0.82748539  0.19151115  0.83745937  1
  O2-  O321  1  0.83130693  0.67419785  0.17424352  1
  O2-  O322  1  0.83560603  0.68782465  0.49775376  1
  O2-  O323  1  0.84182938  0.68321955  0.82801999  1
  O2-  O324  1  0.00023723  0.32012695  0.17135302  1
  O2-  O325  1  0.00346102  0.31721914  0.49978074  1
  O2-  O326  1  -0.00183666  0.31222935  0.83147812  1
  O2-  O327  1  -0.00305431  0.82276296  0.16204639  1
  O2-  O328  1  0.01077419  0.81615856  0.50993778  1
  O2-  O329  1  -0.00408348  0.82945678  0.82968431  1
  O2-  O330  1  0.33224589  0.31755240  0.16067530  1
  O2-  O331  1  0.33524278  0.32268721  0.49892429  1
  O2-  O332  1  0.33668572  0.31755295  0.83747086  1
  O2-  O333  1  0.33580819  0.80908474  0.17427146  1
  O2-  O334  1  0.33414565  0.82471836  0.50591460  1
  O2-  O335  1  0.33678938  0.82002483  0.84119029  1
  O2-  O336  1  0.66455597  0.32783045  0.16104902  1
  O2-  O337  1  0.67012440  0.31923507  0.50344963  1
  O2-  O338  1  0.66431454  0.32299296  0.82712133  1
  O2-  O339  1  0.66454569  0.81854843  0.16182708  1
  O2-  O340  1  0.66508504  0.81189171  0.49697013  1
  O2-  O341  1  0.66831967  0.81427696  0.84194590  1
  O2-  O342  1  0.16874689  0.32881046  0.16350498  1
  O2-  O343  1  0.16140102  0.31499758  0.50034973  1
  O2-  O344  1  0.16761402  0.30908719  0.83574850  1
  O2-  O345  1  0.16458554  0.81315678  0.16721690  1
  O2-  O346  1  0.17252218  0.83267588  0.49276888  1
  O2-  O347  1  0.15683767  0.83191503  0.84868658  1
  O2-  O348  1  0.49978019  0.30959496  0.16098003  1
  O2-  O349  1  0.49734501  0.32541963  0.50285464  1
  O2-  O350  1  0.50296916  0.32606567  0.82874502  1
  O2-  O351  1  0.50511386  0.81243954  0.16554189  1
  O2-  O352  1  0.49515278  0.81886529  0.50706307  1
  O2-  O353  1  0.49928717  0.81506103  0.83751619  1
  O2-  O354  1  0.83412795  0.32872704  0.16995440  1
  O2-  O355  1  0.83717996  0.32036381  0.49508632  1
  O2-  O356  1  0.83029197  0.32743578  0.83686114  1
  O2-  O357  1  0.83859936  0.82137597  0.16218823  1
  O2-  O358  1  0.83696412  0.80652434  0.49550213  1
  O2-  O359  1  0.83719495  0.82870315  0.82805596  1
  O2-  O360  1  0.08900763  0.07749354  0.11964741  1
  O2-  O361  1  0.07706983  0.07128117  0.43932926  1
  O2-  O362  1  0.06969505  0.07250768  0.77823025  1
  O2-  O363  1  0.07454944  0.57836239  0.11845797  1
  O2-  O364  1  0.09219945  0.58072895  0.46335502  1
  O2-  O365  1  0.08408573  0.57880253  0.77749647  1
  O2-  O366  1  0.42197101  0.08587353  0.10452269  1
  O2-  O367  1  0.43847630  0.08272381  0.43678897  1
  O2-  O368  1  0.41472629  0.07806224  0.78878016  1
  O2-  O369  1  0.41056461  0.58387931  0.11467594  1
  O2-  O370  1  0.43832388  0.58608774  0.44070093  1
  O2-  O371  1  0.41974843  0.57983480  0.79333689  1
  O2-  O372  1  0.73390227  0.07869737  0.12579177  1
  O2-  O373  1  0.73160637  0.08828833  0.44371510  1
  O2-  O374  1  0.75175691  0.08742845  0.78678013  1
  O2-  O375  1  0.75364932  0.56151095  0.10694239  1
  O2-  O376  1  0.75812507  0.57528576  0.44722345  1
  O2-  O377  1  0.75895554  0.58599003  0.80119354  1
  O2-  O378  1  0.26260915  0.08364676  0.23056263  1
  O2-  O379  1  0.25478604  0.07267884  0.54831663  1
  O2-  O380  1  0.25959181  0.08624655  0.89522151  1
  O2-  O381  1  0.22744996  0.57484984  0.20982887  1
  O2-  O382  1  0.26406216  0.57265466  0.53522695  1
  O2-  O383  1  0.24643044  0.57577808  0.87754002  1
  O2-  O384  1  0.56708617  0.08260775  0.20605635  1
  O2-  O385  1  0.58979575  0.08151834  0.55011233  1
  O2-  O386  1  0.56803495  0.08521660  0.92232392  1
  O2-  O387  1  0.58493240  0.57643175  0.23502517  1
  O2-  O388  1  0.59440641  0.58345937  0.53159564  1
  O2-  O389  1  0.59850242  0.57723212  0.87801318  1
  O2-  O390  1  0.91667476  0.08746607  0.23534223  1
  O2-  O391  1  0.91130505  0.07791197  0.56684300  1
  O2-  O392  1  0.91775223  0.08406482  0.86854575  1
  O2-  O393  1  0.92253979  0.58312248  0.24890075  1
  O2-  O394  1  0.91241190  0.57639595  0.53399523  1
  O2-  O395  1  0.91348713  0.58243036  0.88318840  1
  O2-  O396  1  0.09254444  0.41860386  0.08029515  1
  O2-  O397  1  0.07380508  0.41973378  0.44623417  1
  O2-  O398  1  0.08324209  0.41158766  0.78200750  1
  O2-  O399  1  0.08981979  0.91590911  0.11197435  1
  O2-  O400  1  0.10114956  0.92992536  0.45299103  1
  O2-  O401  1  0.07056403  0.92510047  0.78757987  1
  O2-  O402  1  0.41479359  0.42548884  0.12484525  1
  O2-  O403  1  0.41133849  0.41886911  0.42710008  1
  O2-  O404  1  0.41139692  0.41616406  0.77980340  1
  O2-  O405  1  0.42701665  0.91708819  0.12252071  1
  O2-  O406  1  0.40701586  0.91874508  0.44923990  1
  O2-  O407  1  0.42610334  0.91686222  0.78356050  1
  O2-  O408  1  0.74215553  0.42718456  0.11514614  1
  O2-  O409  1  0.76245654  0.41723381  0.45120504  1
  O2-  O410  1  0.74250064  0.41919251  0.77212788  1
  O2-  O411  1  0.73252763  0.91379629  0.10849950  1
  O2-  O412  1  0.72575741  0.91833245  0.44715052  1
  O2-  O413  1  0.73412929  0.91923036  0.78359339  1
  O2-  O414  1  0.26988444  0.42099997  0.22930157  1
  O2-  O415  1  0.22582061  0.40889781  0.56833802  1
  O2-  O416  1  0.22565474  0.41567732  0.90236504  1
  O2-  O417  1  0.26168255  0.92387360  0.20729181  1
  O2-  O418  1  0.26218578  0.92414548  0.54557165  1
  O2-  O419  1  0.27175147  0.92075996  0.88909853  1
  O2-  O420  1  0.55740353  0.41963183  0.21475318  1
  O2-  O421  1  0.57379145  0.41855094  0.59124927  1
  O2-  O422  1  0.58662054  0.41819039  0.87556599  1
  O2-  O423  1  0.57737055  0.91725994  0.22253203  1
  O2-  O424  1  0.56907419  0.92403885  0.53125965  1
  O2-  O425  1  0.57066736  0.91884078  0.88772553  1
  O2-  O426  1  0.93079763  0.41768751  0.25907331  1
  O2-  O427  1  0.93797889  0.41541909  0.56370115  1
  O2-  O428  1  0.93796873  0.41347511  0.88467773  1
  O2-  O429  1  0.91806869  0.91795238  0.22634296  1
  O2-  O430  1  0.93600336  0.91821851  0.56158394  1
  O2-  O431  1  0.90639962  0.93097077  0.86847204  1
  O2-  O432  1  0.00055577  -0.02110639  -0.00860600  1
  O2-  O433  1  0.01219828  0.00239985  0.31531769  1
  O2-  O434  1  -0.01062165  -0.01116863  0.67705220  1
  O2-  O435  1  0.02611158  0.49738695  -0.03599237  1
  O2-  O436  1  -0.00187523  0.52131670  0.35764736  1
  O2-  O437  1  -0.00725832  0.51865722  0.67662104  1
  O2-  O438  1  0.33299532  -0.00570200  -0.00360320  1
  O2-  O439  1  0.33290628  -0.01481533  0.32972391  1
  O2-  O440  1  0.36248433  -0.00123981  0.62379023  1
  O2-  O441  1  0.32362969  0.49423308  0.01785062  1
  O2-  O442  1  0.36106993  0.51539184  0.27809768  1
  O2-  O443  1  0.33394839  0.50518852  0.65117146  1
  O2-  O444  1  0.64008039  -0.00078815  0.03969069  1
  O2-  O445  1  0.65236682  0.01035132  0.34998449  1
  O2-  O446  1  0.66882161  -0.00308276  0.67638395  1
  O2-  O447  1  0.67275447  0.49303019  -0.00127717  1
  O2-  O448  1  0.66663328  0.51137683  0.33807931  1
  O2-  O449  1  0.65526413  0.52168180  0.69192775  1
  O2-  O450  1  0.16094353  -0.00759324  -0.03243591  1
  O2-  O451  1  0.17122180  -0.01038581  0.33904835  1
  O2-  O452  1  0.14686115  -0.01833145  0.63907862  1
  O2-  O453  1  0.17046254  0.50783072  0.02566615  1
  O2-  O454  1  0.14784027  0.50275635  0.31246549  1
  O2-  O455  1  0.16784198  0.51477238  0.65736065  1
  O2-  O456  1  0.48924068  -0.01526457  -0.00173316  1
  O2-  O457  1  0.50109230  -0.01611589  0.34045479  1
  O2-  O458  1  0.50722237  -0.02524555  0.67023168  1
  O2-  O459  1  0.50508858  0.47606199  -0.00764134  1
  O2-  O460  1  0.50637768  0.50253964  0.32527733  1
  O2-  O461  1  0.49510438  0.51304231  0.68175712  1
  O2-  O462  1  0.82954108  -0.01370931  0.00808772  1
  O2-  O463  1  0.84156208  0.02915904  0.35194000  1
  O2-  O464  1  0.83380326  -0.01214151  0.67584857  1
  O2-  O465  1  0.82549489  0.49314495  -0.01423421  1
  O2-  O466  1  0.84200913  0.49376574  0.36169498  1
  O2-  O467  1  0.82522395  0.51369485  0.66206632  1
  O2-  O468  1  0.76260055  0.74578351  0.72374451  1
  O2-  O469  1  0.25928947  0.25097842  0.27014449  1
  O2-  O470  1  0.91525907  0.25010415  0.95440080  1
  O2-  O471  1  0.58882602  0.24917872  0.27608692  1
  O2-  O472  1  0.42433438  0.25079793  0.39619328  1
  O2-  O473  1  0.75716595  0.25605302  0.06322397  1
  O2-  O474  1  0.40953479  0.75160481  0.39245350  1
  O2-  O475  1  0.09435577  0.74712989  0.38495779  1
  O2-  O476  1  0.24213738  0.74439514  0.94280785  1
  O2-  O477  1  0.57333084  0.25058876  0.60553554  1
  O2-  O478  1  0.74929255  0.25022827  0.72174532  1
  O2-  O479  1  0.75440740  0.75223781  0.06343002  1
  O2-  O480  1  0.58409454  0.25252366  0.93744590  1
  O2-  O481  1  0.90797541  0.25268328  0.25813428  1
  O2-  O482  1  0.25903635  0.24675937  0.59340905  1
  O2-  O483  1  0.08334920  0.74969358  0.04694890  1
  O2-  O484  1  0.92361428  0.74922755  0.93839495  1
  O2-  O485  1  0.74248334  0.25175720  0.39250762  1
  O2-  O486  1  0.07330864  0.24390885  0.06413254  1
  O2-  O487  1  0.41409752  0.75316589  0.73074386  1
  O2-  O488  1  0.92174246  0.74944427  0.26846069  1
  O2-  O489  1  0.43015117  0.24760165  0.72396309  1
  O2-  O490  1  0.24668045  0.75733564  0.60206341  1
  O2-  O491  1  0.09409318  0.75719506  0.74456133  1
  O2-  O492  1  0.91162479  0.25086509  0.59309509  1
