# generated using pymatgen
data_Ca108Mn108O277
_symmetry_space_group_name_H-M   'P 1'
_cell_length_a   16.04013258
_cell_length_b   22.32398072
_cell_length_c   16.39857648
_cell_angle_alpha   90.00179999
_cell_angle_beta   90.00481463
_cell_angle_gamma   89.99967995
_symmetry_Int_Tables_number   1
_chemical_formula_structural   Ca108Mn108O277
_chemical_formula_sum   'Ca108 Mn108 O277'
_cell_volume   5871.99585512
_cell_formula_units_Z   1
loop_
 _symmetry_equiv_pos_site_id
 _symmetry_equiv_pos_as_xyz
  1  'x, y, z'
loop_
 _atom_type_symbol
 _atom_type_oxidation_number
  Ca2+  2.0
  Mn3.34+  3.34
  O2-  -2.0
loop_
 _atom_site_type_symbol
 _atom_site_label
 _atom_site_symmetry_multiplicity
 _atom_site_fract_x
 _atom_site_fract_y
 _atom_site_fract_z
 _atom_site_occupancy
  Ca2+  Ca0  1  0.07677816  0.25641046  0.21941316  1
  Ca2+  Ca1  1  0.09626180  0.25760190  0.59057217  1
  Ca2+  Ca2  1  0.07593875  0.25965274  0.93443031  1
  Ca2+  Ca3  1  0.08248534  0.75161676  0.25543610  1
  Ca2+  Ca4  1  0.10678332  0.74089486  0.58721992  1
  Ca2+  Ca5  1  0.08953327  0.74563973  0.90951470  1
  Ca2+  Ca6  1  0.42050043  0.25898179  0.22510556  1
  Ca2+  Ca7  1  0.41903319  0.25819347  0.58783145  1
  Ca2+  Ca8  1  0.41553399  0.26008862  0.92271989  1
  Ca2+  Ca9  1  0.42033542  0.74029950  0.24224744  1
  Ca2+  Ca10  1  0.40525043  0.74952454  0.59164863  1
  Ca2+  Ca11  1  0.42125823  0.74138382  0.90854241  1
  Ca2+  Ca12  1  0.75697316  0.25449498  0.24092896  1
  Ca2+  Ca13  1  0.74186713  0.26012626  0.58616745  1
  Ca2+  Ca14  1  0.75468285  0.25591413  0.92541094  1
  Ca2+  Ca15  1  0.74768725  0.75199764  0.24220473  1
  Ca2+  Ca16  1  0.74702929  0.72377344  0.58834772  1
  Ca2+  Ca17  1  0.74776882  0.74277037  0.91207599  1
  Ca2+  Ca18  1  0.24239850  0.25662407  0.07535768  1
  Ca2+  Ca19  1  0.24794685  0.26907789  0.41873623  1
  Ca2+  Ca20  1  0.26131442  0.25658742  0.74908786  1
  Ca2+  Ca21  1  0.26344263  0.75473027  0.08382489  1
  Ca2+  Ca22  1  0.25783658  0.74148519  0.42170193  1
  Ca2+  Ca23  1  0.26108459  0.71393948  0.73878186  1
  Ca2+  Ca24  1  0.59074561  0.26042303  0.08571445  1
  Ca2+  Ca25  1  0.60027510  0.26036432  0.40974894  1
  Ca2+  Ca26  1  0.58161465  0.25266115  0.75334424  1
  Ca2+  Ca27  1  0.58388303  0.74321638  0.08556390  1
  Ca2+  Ca28  1  0.57978731  0.74639492  0.41710803  1
  Ca2+  Ca29  1  0.56484941  0.73759778  0.74639622  1
  Ca2+  Ca30  1  0.92280152  0.25378390  0.07911182  1
  Ca2+  Ca31  1  0.90284207  0.26463089  0.40712030  1
  Ca2+  Ca32  1  0.91482921  0.25400617  0.76179049  1
  Ca2+  Ca33  1  0.90520985  0.74611713  0.08814214  1
  Ca2+  Ca34  1  0.91192929  0.74732622  0.41438045  1
  Ca2+  Ca35  1  0.91088467  0.73480294  0.74689897  1
  Ca2+  Ca36  1  0.23491072  0.08171592  0.43624387  1
  Ca2+  Ca37  1  0.06040709  0.11629355  0.93526257  1
  Ca2+  Ca38  1  0.22488004  0.10122530  0.07301143  1
  Ca2+  Ca39  1  0.06990544  0.60883972  0.58148175  1
  Ca2+  Ca40  1  0.92136798  0.60839016  0.43165878  1
  Ca2+  Ca41  1  0.42801840  0.59617761  0.90192351  1
  Ca2+  Ca42  1  0.41212579  0.60747955  0.58797172  1
  Ca2+  Ca43  1  0.74265548  0.09646665  0.91634411  1
  Ca2+  Ca44  1  0.75264110  0.10015803  0.92175291  1
  Ca2+  Ca45  1  0.58036477  0.60158291  0.75107180  1
  Ca2+  Ca46  1  0.90831737  0.11594240  0.76798431  1
  Ca2+  Ca47  1  0.24556430  0.09128891  0.72916632  1
  Ca2+  Ca48  1  0.75355160  0.58933243  0.23589246  1
  Ca2+  Ca49  1  0.90538439  0.08024759  0.39522630  1
  Ca2+  Ca50  1  0.89308379  0.57090419  0.06535250  1
  Ca2+  Ca51  1  0.93451320  0.11346218  0.09098942  1
  Ca2+  Ca52  1  0.26653661  0.59071041  0.07953543  1
  Ca2+  Ca53  1  0.89362997  0.08031956  0.39620952  1
  Ca2+  Ca54  1  0.76385733  0.58882525  0.23733986  1
  Ca2+  Ca55  1  0.60014989  0.57251940  0.05639679  1
  Ca2+  Ca56  1  0.61520460  0.08334250  0.40212816  1
  Ca2+  Ca57  1  0.58202366  0.60715192  0.43739273  1
  Ca2+  Ca58  1  0.24738984  0.08244597  0.43950017  1
  Ca2+  Ca59  1  0.23403060  0.09031114  0.72895202  1
  Ca2+  Ca60  1  0.75036675  0.58347480  0.91171872  1
  Ca2+  Ca61  1  0.40655695  0.60284889  0.58238138  1
  Ca2+  Ca62  1  0.60309649  0.08428311  0.40325217  1
  Ca2+  Ca63  1  0.58447674  0.09126569  0.07662685  1
  Ca2+  Ca64  1  0.75820917  0.09240976  0.24176541  1
  Ca2+  Ca65  1  0.05225781  0.12067534  0.93789784  1
  Ca2+  Ca66  1  0.07524777  0.58903110  0.91617275  1
  Ca2+  Ca67  1  0.88883421  0.58529144  0.73838623  1
  Ca2+  Ca68  1  0.24315528  0.60072988  0.44033130  1
  Ca2+  Ca69  1  0.42447124  0.09282696  0.93821013  1
  Ca2+  Ca70  1  0.42714685  0.08544433  0.24058090  1
  Ca2+  Ca71  1  0.40795311  0.08447514  0.59896365  1
  Ca2+  Ca72  1  0.56774868  0.41603614  0.40418378  1
  Ca2+  Ca73  1  0.06805144  0.42010621  0.93590852  1
  Ca2+  Ca74  1  0.39599263  0.42355989  0.58735339  1
  Ca2+  Ca75  1  0.60048832  0.41618733  0.75989787  1
  Ca2+  Ca76  1  0.23679993  0.41392661  0.41412560  1
  Ca2+  Ca77  1  0.25273347  0.90656948  0.73867425  1
  Ca2+  Ca78  1  0.59706672  0.89837250  0.75071553  1
  Ca2+  Ca79  1  0.90019994  0.89918354  0.74698792  1
  Ca2+  Ca80  1  0.90860502  0.41729271  0.07726603  1
  Ca2+  Ca81  1  0.07395074  0.90054624  0.92505444  1
  Ca2+  Ca82  1  0.08735594  0.89981721  0.92581918  1
  Ca2+  Ca83  1  0.42913454  0.89903587  0.91760788  1
  Ca2+  Ca84  1  0.40584668  0.42091849  0.58970251  1
  Ca2+  Ca85  1  0.76364270  0.41396852  0.23366552  1
  Ca2+  Ca86  1  0.75605988  0.90482934  0.24938356  1
  Ca2+  Ca87  1  0.24064540  0.89792009  0.42200722  1
  Ca2+  Ca88  1  0.41501385  0.89495417  0.23920752  1
  Ca2+  Ca89  1  0.74337265  0.91013078  0.59743870  1
  Ca2+  Ca90  1  0.75187253  0.91236395  0.60264263  1
  Ca2+  Ca91  1  0.58970131  0.90126842  0.41415591  1
  Ca2+  Ca92  1  0.74101931  0.90452734  0.90853926  1
  Ca2+  Ca93  1  0.92815628  0.90305014  0.40646694  1
  Ca2+  Ca94  1  0.57911529  0.41574750  0.40417338  1
  Ca2+  Ca95  1  0.25237045  0.40550466  0.07653082  1
  Ca2+  Ca96  1  0.41521657  0.40612268  0.24201644  1
  Ca2+  Ca97  1  0.76527205  0.41501100  0.61205012  1
  Ca2+  Ca98  1  0.59046943  0.41780896  0.76234495  1
  Ca2+  Ca99  1  0.58490598  0.90327905  0.08555060  1
  Ca2+  Ca100  1  0.09309839  0.41092033  0.58042233  1
  Ca2+  Ca101  1  0.24915220  0.41449688  0.74093557  1
  Ca2+  Ca102  1  0.26418133  0.90711736  0.73979251  1
  Ca2+  Ca103  1  0.74852453  0.42891834  0.93924491  1
  Ca2+  Ca104  1  0.92980774  0.41373830  0.40055673  1
  Ca2+  Ca105  1  0.22940047  0.89720377  0.42246977  1
  Ca2+  Ca106  1  0.07795111  0.90119777  0.57949454  1
  Ca2+  Ca107  1  0.91683039  0.89588500  0.09515906  1
  Mn3.34+  Mn108  1  0.08375174  0.33754605  0.08379101  1
  Mn3.34+  Mn109  1  0.07852084  0.33782058  0.41596531  1
  Mn3.34+  Mn110  1  0.07953771  0.33360609  0.75832738  1
  Mn3.34+  Mn111  1  0.08675986  0.83180812  0.09322566  1
  Mn3.34+  Mn112  1  0.07908149  0.82198229  0.41927165  1
  Mn3.34+  Mn113  1  0.07901740  0.82834177  0.75088004  1
  Mn3.34+  Mn114  1  0.41958061  0.33754108  0.07565439  1
  Mn3.34+  Mn115  1  0.41396592  0.33561368  0.41554271  1
  Mn3.34+  Mn116  1  0.41918339  0.33819167  0.75972231  1
  Mn3.34+  Mn117  1  0.41867909  0.82990476  0.08128346  1
  Mn3.34+  Mn118  1  0.41995258  0.82971774  0.41803690  1
  Mn3.34+  Mn119  1  0.42147939  0.82965428  0.74808057  1
  Mn3.34+  Mn120  1  0.75278468  0.33648694  0.08252280  1
  Mn3.34+  Mn121  1  0.75428138  0.34008404  0.42093239  1
  Mn3.34+  Mn122  1  0.75505157  0.33679409  0.76148698  1
  Mn3.34+  Mn123  1  0.74855036  0.83270939  0.07984797  1
  Mn3.34+  Mn124  1  0.75139659  0.82709138  0.41883512  1
  Mn3.34+  Mn125  1  0.74937757  0.82594574  0.75346942  1
  Mn3.34+  Mn126  1  0.24567794  0.33654355  0.24853905  1
  Mn3.34+  Mn127  1  0.25004246  0.33526994  0.58270299  1
  Mn3.34+  Mn128  1  0.24752434  0.34022571  0.90874028  1
  Mn3.34+  Mn129  1  0.25097776  0.83082536  0.24643795  1
  Mn3.34+  Mn130  1  0.25340655  0.83358624  0.58346008  1
  Mn3.34+  Mn131  1  0.25477441  0.82780617  0.91856184  1
  Mn3.34+  Mn132  1  0.58570693  0.33710575  0.24219269  1
  Mn3.34+  Mn133  1  0.58293751  0.33981697  0.58036207  1
  Mn3.34+  Mn134  1  0.58639061  0.34480681  0.92247439  1
  Mn3.34+  Mn135  1  0.58467870  0.82939859  0.24946482  1
  Mn3.34+  Mn136  1  0.57968166  0.83173910  0.57842835  1
  Mn3.34+  Mn137  1  0.58374607  0.82799725  0.91827464  1
  Mn3.34+  Mn138  1  0.91881862  0.34079919  0.24432826  1
  Mn3.34+  Mn139  1  0.91927740  0.33322156  0.58573337  1
  Mn3.34+  Mn140  1  0.91520197  0.34346467  0.91201441  1
  Mn3.34+  Mn141  1  0.91657431  0.82872500  0.25087251  1
  Mn3.34+  Mn142  1  0.91764631  0.82888928  0.57894053  1
  Mn3.34+  Mn143  1  0.91205239  0.82426168  0.91962719  1
  Mn3.34+  Mn144  1  0.42449657  0.17198751  0.75899834  1
  Mn3.34+  Mn145  1  0.41320106  0.17579095  0.40903734  1
  Mn3.34+  Mn146  1  0.74399843  0.66214627  0.74834212  1
  Mn3.34+  Mn147  1  0.75005484  0.66596679  0.07870313  1
  Mn3.34+  Mn148  1  0.58183070  0.16939281  0.91291962  1
  Mn3.34+  Mn149  1  0.42226481  0.66095420  0.08483170  1
  Mn3.34+  Mn150  1  0.74972939  0.16794638  0.08625154  1
  Mn3.34+  Mn151  1  0.91766245  0.17048915  0.24642225  1
  Mn3.34+  Mn152  1  0.42117040  0.16959300  0.41214405  1
  Mn3.34+  Mn153  1  0.23956099  0.15795670  0.24544232  1
  Mn3.34+  Mn154  1  0.08851342  0.66017551  0.09158699  1
  Mn3.34+  Mn155  1  0.08176155  0.66423939  0.75194417  1
  Mn3.34+  Mn156  1  0.91609962  0.66340172  0.24794434  1
  Mn3.34+  Mn157  1  0.59240224  0.16048790  0.58917331  1
  Mn3.34+  Mn158  1  0.25406905  0.16298747  0.24819364  1
  Mn3.34+  Mn159  1  0.91179071  0.16169696  0.58205728  1
  Mn3.34+  Mn160  1  0.91788231  0.16879293  0.58379735  1
  Mn3.34+  Mn161  1  0.41904159  0.16862727  0.08223991  1
  Mn3.34+  Mn162  1  0.58478379  0.66214952  0.24678129  1
  Mn3.34+  Mn163  1  0.25386454  0.66913612  0.25098924  1
  Mn3.34+  Mn164  1  0.25204812  0.17357227  0.58333483  1
  Mn3.34+  Mn165  1  0.75141844  0.17384871  0.41450303  1
  Mn3.34+  Mn166  1  0.74864140  0.16367507  0.75717764  1
  Mn3.34+  Mn167  1  0.58623104  0.16953379  0.24146320  1
  Mn3.34+  Mn168  1  0.25600627  0.17127179  0.90902348  1
  Mn3.34+  Mn169  1  0.58066216  0.16516304  0.58985449  1
  Mn3.34+  Mn170  1  0.08448239  0.66508182  0.41329746  1
  Mn3.34+  Mn171  1  0.58621578  0.66308209  0.91599799  1
  Mn3.34+  Mn172  1  0.75025859  0.66824189  0.42034168  1
  Mn3.34+  Mn173  1  0.08444709  0.17784737  0.75280047  1
  Mn3.34+  Mn174  1  0.07775506  0.66431791  0.08870755  1
  Mn3.34+  Mn175  1  0.25387377  0.66168443  0.91465274  1
  Mn3.34+  Mn176  1  0.07485248  0.17688014  0.41408857  1
  Mn3.34+  Mn177  1  0.91467317  0.65986310  0.91265355  1
  Mn3.34+  Mn178  1  0.41736255  0.66861247  0.40946958  1
  Mn3.34+  Mn179  1  0.08255142  0.17075635  0.41696176  1
  Mn3.34+  Mn180  1  0.24960950  0.50101574  0.92172194  1
  Mn3.34+  Mn181  1  0.09124647  0.50130116  0.74620068  1
  Mn3.34+  Mn182  1  0.93264909  -0.00257787  0.24891194  1
  Mn3.34+  Mn183  1  0.57015443  0.50565767  0.25408496  1
  Mn3.34+  Mn184  1  0.07320108  0.00583712  0.75135884  1
  Mn3.34+  Mn185  1  0.59579462  0.50275148  0.59827547  1
  Mn3.34+  Mn186  1  0.24938024  0.50964598  0.25790549  1
  Mn3.34+  Mn187  1  0.41853665  0.50113966  0.06714479  1
  Mn3.34+  Mn188  1  0.59090406  0.00078143  0.59272479  1
  Mn3.34+  Mn189  1  0.58553856  -0.00024191  0.91031418  1
  Mn3.34+  Mn190  1  0.91490502  -0.00082461  0.58026801  1
  Mn3.34+  Mn191  1  0.24486629  0.00712404  0.92211934  1
  Mn3.34+  Mn192  1  0.40432334  0.50913499  0.41901337  1
  Mn3.34+  Mn193  1  0.75012503  0.00016044  0.08035030  1
  Mn3.34+  Mn194  1  0.07667778  0.00043605  0.08157098  1
  Mn3.34+  Mn195  1  0.44605538  0.00432522  0.75702512  1
  Mn3.34+  Mn196  1  0.58803390  -0.00228601  0.24775808  1
  Mn3.34+  Mn197  1  0.76067693  0.50637647  0.41796822  1
  Mn3.34+  Mn198  1  0.91652409  0.00176082  0.90214604  1
  Mn3.34+  Mn199  1  0.43429870  0.00853036  0.75900963  1
  Mn3.34+  Mn200  1  0.41911898  -0.00120847  0.07815561  1
  Mn3.34+  Mn201  1  0.05765065  0.00159818  0.75040151  1
  Mn3.34+  Mn202  1  0.41600466  0.49692045  0.75165162  1
  Mn3.34+  Mn203  1  0.08258558  0.50111691  0.08176648  1
  Mn3.34+  Mn204  1  0.75691749  -0.00818772  0.41948421  1
  Mn3.34+  Mn205  1  0.25872749  0.00072415  0.92295704  1
  Mn3.34+  Mn206  1  0.07894823  -0.00126167  0.43041475  1
  Mn3.34+  Mn207  1  0.08087502  0.49620847  0.74866051  1
  Mn3.34+  Mn208  1  0.77240668  0.50256418  0.41445262  1
  Mn3.34+  Mn209  1  0.42435657  0.00082217  0.42083000  1
  Mn3.34+  Mn210  1  0.23235118  -0.00304881  0.26022373  1
  Mn3.34+  Mn211  1  0.41210591  -0.00655960  0.41696263  1
  Mn3.34+  Mn212  1  0.90511915  -0.00236741  0.90055852  1
  Mn3.34+  Mn213  1  0.91492859  0.49735705  0.59006114  1
  Mn3.34+  Mn214  1  0.23892953  0.50458577  0.25785316  1
  Mn3.34+  Mn215  1  0.06677750  0.50650777  0.40375268  1
  O2-  O216  1  -0.01463882  0.18185572  -0.00270518  1
  O2-  O217  1  -0.01281856  0.15210959  0.34342829  1
  O2-  O218  1  -0.00337551  0.17450673  0.67419173  1
  O2-  O219  1  -0.00210732  0.64217176  0.00732804  1
  O2-  O220  1  -0.00312213  0.66740015  0.33299357  1
  O2-  O221  1  -0.00482337  0.66018569  0.67923900  1
  O2-  O222  1  0.32985744  0.15582390  0.00066559  1
  O2-  O223  1  0.32794665  0.13777658  0.33478143  1
  O2-  O224  1  0.33756563  0.15267883  0.67587771  1
  O2-  O225  1  0.34049527  0.64843449  -0.00145599  1
  O2-  O226  1  0.32489222  0.64468924  0.33473673  1
  O2-  O227  1  0.34504109  0.66647302  0.65987277  1
  O2-  O228  1  0.66660221  0.15961268  -0.00066931  1
  O2-  O229  1  0.66942593  0.15105665  0.32548841  1
  O2-  O230  1  0.67312809  0.18004883  0.67262427  1
  O2-  O231  1  0.67033164  0.65400637  -0.00043207  1
  O2-  O232  1  0.67237022  0.64120120  0.32789570  1
  O2-  O233  1  0.65806844  0.66660840  0.67518652  1
  O2-  O234  1  0.16878130  0.16929132  -0.01728183  1
  O2-  O235  1  0.16792024  0.14376703  0.33734652  1
  O2-  O236  1  0.16202008  0.16307039  0.66668654  1
  O2-  O237  1  0.16680513  0.64224990  0.00553447  1
  O2-  O238  1  0.16552490  0.67798693  0.33054019  1
  O2-  O239  1  0.15779755  0.65260599  0.67113370  1
  O2-  O240  1  0.50446270  0.16235099  0.00104708  1
  O2-  O241  1  0.50418590  0.14522925  0.33302478  1
  O2-  O242  1  0.50132624  0.14321125  0.67366393  1
  O2-  O243  1  0.50591770  0.64668707  0.00483171  1
  O2-  O244  1  0.50773776  0.65492812  0.33218492  1
  O2-  O245  1  0.49824715  0.66702198  0.65647945  1
  O2-  O246  1  0.82703338  0.14781753  0.00817462  1
  O2-  O247  1  0.83183054  0.15293932  0.33229711  1
  O2-  O248  1  0.83390175  0.17970806  0.67407779  1
  O2-  O249  1  0.83318953  0.65030079  -0.00130302  1
  O2-  O250  1  0.83357384  0.64473386  0.33044976  1
  O2-  O251  1  0.82990472  0.66266992  0.67336630  1
  O2-  O252  1  -0.00308232  0.34219352  -0.00137133  1
  O2-  O253  1  -0.00284121  0.33267383  0.33471413  1
  O2-  O254  1  0.00211119  0.31167434  0.66882932  1
  O2-  O255  1  -0.00390919  0.84493375  0.00049233  1
  O2-  O256  1  -0.00252279  0.82514213  0.33907449  1
  O2-  O257  1  -0.00541024  0.84110390  0.67064026  1
  O2-  O258  1  0.32434931  0.33425146  -0.00177614  1
  O2-  O259  1  0.32825597  0.34652324  0.33781359  1
  O2-  O260  1  0.33673695  0.35146564  0.66979305  1
  O2-  O261  1  0.34020968  0.84374483  -0.00623170  1
  O2-  O262  1  0.33519408  0.85535204  0.34035315  1
  O2-  O263  1  0.34166091  0.85321693  0.66050766  1
  O2-  O264  1  0.67074196  0.33181167  -0.00233453  1
  O2-  O265  1  0.66434296  0.35491675  0.33754885  1
  O2-  O266  1  0.66836832  0.34472489  0.67657087  1
  O2-  O267  1  0.66686847  0.85072062  -0.00232960  1
  O2-  O268  1  0.67161823  0.84863305  0.33136359  1
  O2-  O269  1  0.66961886  0.83916686  0.66023733  1
  O2-  O270  1  0.16317603  0.34316711  -0.00823176  1
  O2-  O271  1  0.16620863  0.33407882  0.33911309  1
  O2-  O272  1  0.16159954  0.34314264  0.67049427  1
  O2-  O273  1  0.16604010  0.84498850  -0.00019126  1
  O2-  O274  1  0.16869591  0.82808491  0.34050787  1
  O2-  O275  1  0.16361193  0.85344812  0.66999485  1
  O2-  O276  1  0.50659510  0.31704745  -0.00580839  1
  O2-  O277  1  0.49598979  0.34291814  0.33126497  1
  O2-  O278  1  0.49680848  0.36136513  0.66101934  1
  O2-  O279  1  0.50611781  0.84621593  0.00371759  1
  O2-  O280  1  0.50157817  0.84714333  0.33378878  1
  O2-  O281  1  0.51316652  0.83013820  0.67548950  1
  O2-  O282  1  0.83914383  0.33285715  -0.00258428  1
  O2-  O283  1  0.83429869  0.35385077  0.33517672  1
  O2-  O284  1  0.82979240  0.32186567  0.66924057  1
  O2-  O285  1  0.83030999  0.85299354  -0.00310004  1
  O2-  O286  1  0.83356901  0.84931431  0.33710890  1
  O2-  O287  1  0.83141929  0.83962349  0.65916441  1
  O2-  O288  1  -0.00625873  0.18412412  0.17087587  1
  O2-  O289  1  0.00305065  0.19893622  0.50481214  1
  O2-  O290  1  0.00969330  0.18612818  0.83692951  1
  O2-  O291  1  -0.00137185  0.68617657  0.16828500  1
  O2-  O292  1  0.00829300  0.68442690  0.49140985  1
  O2-  O293  1  0.00082272  0.68418007  0.84138403  1
  O2-  O294  1  0.34246641  0.17138770  0.17401725  1
  O2-  O295  1  0.32939811  0.19173884  0.48869214  1
  O2-  O296  1  0.33806122  0.19012480  0.83346137  1
  O2-  O297  1  0.33163594  0.67856785  0.15914309  1
  O2-  O298  1  0.33867463  0.67469841  0.49297495  1
  O2-  O299  1  0.33552253  0.67511764  0.84598950  1
  O2-  O300  1  0.66630369  0.18664763  0.16515305  1
  O2-  O301  1  0.65726190  0.17816531  0.48852147  1
  O2-  O302  1  0.67034950  0.18551899  0.84121700  1
  O2-  O303  1  0.67235496  0.68166813  0.16701328  1
  O2-  O304  1  0.66430969  0.68332271  0.48747171  1
  O2-  O305  1  0.66524064  0.68228570  0.83558266  1
  O2-  O306  1  0.17644079  0.18340034  0.15990522  1
  O2-  O307  1  0.17191756  0.19205167  0.48855111  1
  O2-  O308  1  0.17886820  0.18118223  0.82098206  1
  O2-  O309  1  0.16956914  0.68973245  0.16427809  1
  O2-  O310  1  0.16489954  0.67912010  0.49077422  1
  O2-  O311  1  0.16288954  0.67340354  0.84332583  1
  O2-  O312  1  0.50131767  0.18353552  0.16623943  1
  O2-  O313  1  0.49465669  0.18505688  0.50233995  1
  O2-  O314  1  0.49985415  0.19665659  0.84210275  1
  O2-  O315  1  0.50423635  0.67872391  0.16511224  1
  O2-  O316  1  0.49406306  0.68200840  0.49212797  1
  O2-  O317  1  0.50496031  0.67438100  0.84123664  1
  O2-  O318  1  0.82930931  0.17473543  0.16928560  1
  O2-  O319  1  0.83412901  0.19096219  0.49775713  1
  O2-  O320  1  0.82617797  0.18428799  0.83717349  1
  O2-  O321  1  0.82815611  0.68047493  0.16817649  1
  O2-  O322  1  0.83435654  0.68350747  0.48950554  1
  O2-  O323  1  0.83268112  0.67730837  0.83707363  1
  O2-  O324  1  -0.00450302  0.32599824  0.15974203  1
  O2-  O325  1  -0.00100092  0.31688668  0.50020442  1
  O2-  O326  1  -0.00124152  0.31361014  0.84070805  1
  O2-  O327  1  -0.00511582  0.81446186  0.16535055  1
  O2-  O328  1  0.00531154  0.80858152  0.50785495  1
  O2-  O329  1  0.00715607  0.81957748  0.84552562  1
  O2-  O330  1  0.33404930  0.32796311  0.16979427  1
  O2-  O331  1  0.34083288  0.31639341  0.50198282  1
  O2-  O332  1  0.33381559  0.31712777  0.83444529  1
  O2-  O333  1  0.34101372  0.82032774  0.16908304  1
  O2-  O334  1  0.32482845  0.82451113  0.48914127  1
  O2-  O335  1  0.32818965  0.83685099  0.82221126  1
  O2-  O336  1  0.67471984  0.32549243  0.17125507  1
  O2-  O337  1  0.66631776  0.32267931  0.50008328  1
  O2-  O338  1  0.67016156  0.31016796  0.83224840  1
  O2-  O339  1  0.66493614  0.82042136  0.16146090  1
  O2-  O340  1  0.66391224  0.81385748  0.49724909  1
  O2-  O341  1  0.66424857  0.81885817  0.83417845  1
  O2-  O342  1  0.17175908  0.32158015  0.16074950  1
  O2-  O343  1  0.16156155  0.32311835  0.50116345  1
  O2-  O344  1  0.16696088  0.30588596  0.83235356  1
  O2-  O345  1  0.16948590  0.81220098  0.16987838  1
  O2-  O346  1  0.16689997  0.81803271  0.49912763  1
  O2-  O347  1  0.16303160  0.83692561  0.83425646  1
  O2-  O348  1  0.50285080  0.32365319  0.16271441  1
  O2-  O349  1  0.50217705  0.31706558  0.48685585  1
  O2-  O350  1  0.51447663  0.32910397  0.82642421  1
  O2-  O351  1  0.50061726  0.81592135  0.16766853  1
  O2-  O352  1  0.49788356  0.80956168  0.50072983  1
  O2-  O353  1  0.49453680  0.81935536  0.84205317  1
  O2-  O354  1  0.83439015  0.32182145  0.16618140  1
  O2-  O355  1  0.83237100  0.31673635  0.50603182  1
  O2-  O356  1  0.83488527  0.31351938  0.83878053  1
  O2-  O357  1  0.83047761  0.82296930  0.16415624  1
  O2-  O358  1  0.83501993  0.81174823  0.49980476  1
  O2-  O359  1  0.83824881  0.81560806  0.83126886  1
  O2-  O360  1  0.07965484  0.08309809  0.07128538  1
  O2-  O361  1  0.09674310  0.08339302  0.45456069  1
  O2-  O362  1  0.08375262  0.08397164  0.79425475  1
  O2-  O363  1  0.08842693  0.57959164  0.12392085  1
  O2-  O364  1  0.08960284  0.58283309  0.44469525  1
  O2-  O365  1  0.07259455  0.58014532  0.78098883  1
  O2-  O366  1  0.43684496  0.08124938  0.10740828  1
  O2-  O367  1  0.39031837  0.07959197  0.46364921  1
  O2-  O368  1  0.42709771  0.08627400  0.80245900  1
  O2-  O369  1  0.41292871  0.57274420  0.11612274  1
  O2-  O370  1  0.43100699  0.58789600  0.43851358  1
  O2-  O371  1  0.43925723  0.57153574  0.76563685  1
  O2-  O372  1  0.73335646  0.08198547  0.10939414  1
  O2-  O373  1  0.75225054  0.08223130  0.44112600  1
  O2-  O374  1  0.78061077  0.07605971  0.79294913  1
  O2-  O375  1  0.74962684  0.58423457  0.10327419  1
  O2-  O376  1  0.75158378  0.58413944  0.45936216  1
  O2-  O377  1  0.74494909  0.58347872  0.77170199  1
  O2-  O378  1  0.24678445  0.07687951  0.20628828  1
  O2-  O379  1  0.25785011  0.08677813  0.56924082  1
  O2-  O380  1  0.25733213  0.07964409  0.86383179  1
  O2-  O381  1  0.23888727  0.58668047  0.21517116  1
  O2-  O382  1  0.31610137  0.54439854  0.52658557  1
  O2-  O383  1  0.25840956  0.57787051  0.89006071  1
  O2-  O384  1  0.58790253  0.08299700  0.21689425  1
  O2-  O385  1  0.56824828  0.07492534  0.53126806  1
  O2-  O386  1  0.60345942  0.08111100  0.88759729  1
  O2-  O387  1  0.61349264  0.57762345  0.20869415  1
  O2-  O388  1  0.54029774  0.56456686  0.55528850  1
  O2-  O389  1  0.59098546  0.58291185  0.89053009  1
  O2-  O390  1  0.91594557  0.08326902  0.22581276  1
  O2-  O391  1  0.91921008  0.08011592  0.53147933  1
  O2-  O392  1  0.92833510  0.08474683  0.89277684  1
  O2-  O393  1  0.89902621  0.58560318  0.21050082  1
  O2-  O394  1  0.94137182  0.56649901  0.55397436  1
  O2-  O395  1  0.92236180  0.58218534  0.88280980  1
  O2-  O396  1  0.09843107  0.42197284  0.09709784  1
  O2-  O397  1  0.07837263  0.42624906  0.44392714  1
  O2-  O398  1  0.08547617  0.42008123  0.79870783  1
  O2-  O399  1  0.06247505  0.92029221  0.09824008  1
  O2-  O400  1  0.08549176  0.91436675  0.44070611  1
  O2-  O401  1  0.05687958  0.92193239  0.78974198  1
  O2-  O402  1  0.41221676  0.42533439  0.10501425  1
  O2-  O403  1  0.42417624  0.42536953  0.45447669  1
  O2-  O404  1  0.41880099  0.42180345  0.79573457  1
  O2-  O405  1  0.43005800  0.91776181  0.10540147  1
  O2-  O406  1  0.43405525  0.91575759  0.45065802  1
  O2-  O407  1  0.43348527  0.92044781  0.77558511  1
  O2-  O408  1  0.76408587  0.41645741  0.09305597  1
  O2-  O409  1  0.76009395  0.42485394  0.46766293  1
  O2-  O410  1  0.74107605  0.41376756  0.78824050  1
  O2-  O411  1  0.74912759  0.91916661  0.11141396  1
  O2-  O412  1  0.75497874  0.91158676  0.45956123  1
  O2-  O413  1  0.75198439  0.90868056  0.77141217  1
  O2-  O414  1  0.24621429  0.42794594  0.20998548  1
  O2-  O415  1  0.26379245  0.41375898  0.54833010  1
  O2-  O416  1  0.23890792  0.42572335  0.87892368  1
  O2-  O417  1  0.25551247  0.91563894  0.23877596  1
  O2-  O418  1  0.23363505  0.92070261  0.55427912  1
  O2-  O419  1  0.24431023  0.92401306  0.87916555  1
  O2-  O420  1  0.56942428  0.42124976  0.23482707  1
  O2-  O421  1  0.57810010  0.42804939  0.53859877  1
  O2-  O422  1  0.60732539  0.42323105  0.89389458  1
  O2-  O423  1  0.58015311  0.91502956  0.22246622  1
  O2-  O424  1  0.60384098  0.92270133  0.54769722  1
  O2-  O425  1  0.58226400  0.91744043  0.88646192  1
  O2-  O426  1  0.91210978  0.41896642  0.22397664  1
  O2-  O427  1  0.91933618  0.42292922  0.54984223  1
  O2-  O428  1  0.91614839  0.41970962  0.90241027  1
  O2-  O429  1  0.91202130  0.91435643  0.22971371  1
  O2-  O430  1  0.92730025  0.91966123  0.54181242  1
  O2-  O431  1  0.91772330  0.91434094  0.88637541  1
  O2-  O432  1  0.01168971  -0.00149045  -0.02482259  1
  O2-  O433  1  -0.02311605  0.00043107  0.36893929  1
  O2-  O434  1  0.01679261  0.00146047  0.64310211  1
  O2-  O435  1  -0.01414703  0.49693352  0.02976112  1
  O2-  O436  1  -0.04893312  0.51043553  0.39764483  1
  O2-  O437  1  -0.00543507  0.48977090  0.66821343  1
  O2-  O438  1  0.32735012  0.02511054  0.00989364  1
  O2-  O439  1  0.33861700  0.01917085  0.32981244  1
  O2-  O440  1  0.32643114  0.01156830  0.70539052  1
  O2-  O441  1  0.31170490  0.49830932  0.02416538  1
  O2-  O442  1  0.33958487  0.48114829  0.32476766  1
  O2-  O443  1  0.33722289  0.48539003  0.67799690  1
  O2-  O444  1  0.66787910  0.00380187  -0.00584363  1
  O2-  O445  1  0.65345031  -0.00357747  0.35476187  1
  O2-  O446  1  0.66323549  -0.02079861  0.67032477  1
  O2-  O447  1  0.68500171  0.51198208  -0.01570690  1
  O2-  O448  1  0.65735007  0.48881942  0.35770417  1
  O2-  O449  1  0.66809751  0.47416274  0.67227698  1
  O2-  O450  1  0.16872252  -0.00989629  0.00619259  1
  O2-  O451  1  0.19642263  -0.00205073  0.38739773  1
  O2-  O452  1  0.17971687  -0.00542028  0.70345204  1
  O2-  O453  1  0.14409674  0.50552166  -0.02225856  1
  O2-  O454  1  0.17838494  0.50268605  0.36027600  1
  O2-  O455  1  0.16341723  0.47634922  0.66275936  1
  O2-  O456  1  0.49217737  0.00557390  -0.01717307  1
  O2-  O457  1  0.50283945  0.02192082  0.33714566  1
  O2-  O458  1  0.48605178  0.00719597  0.64601161  1
  O2-  O459  1  0.49084875  0.51390005  -0.00524385  1
  O2-  O460  1  0.50230496  0.49641667  0.35213604  1
  O2-  O461  1  0.50441243  0.47965586  0.67825599  1
  O2-  O462  1  0.82899120  0.00978730  -0.01127480  1
  O2-  O463  1  0.82235991  0.01101715  0.31846610  1
  O2-  O464  1  0.84010726  -0.02623812  0.65892386  1
  O2-  O465  1  0.82261355  0.50482554  -0.01178113  1
  O2-  O466  1  0.80319614  0.50411837  0.30140287  1
  O2-  O467  1  0.82949727  0.50433346  0.64884081  1
  O2-  O468  1  0.89818791  0.74821037  0.27188754  1
  O2-  O469  1  0.75544129  0.74786900  0.72920073  1
  O2-  O470  1  0.41036304  0.75134873  0.38167787  1
  O2-  O471  1  0.75579146  0.24846063  0.06487784  1
  O2-  O472  1  0.08581825  0.25861102  0.07161436  1
  O2-  O473  1  0.40962878  0.75307587  0.73899025  1
  O2-  O474  1  0.24328420  0.74553326  0.94313278  1
  O2-  O475  1  0.90758763  0.25094898  0.27168850  1
  O2-  O476  1  0.27337382  0.74991227  0.27472330  1
  O2-  O477  1  0.75351812  0.75136040  0.05295649  1
  O2-  O478  1  0.91227966  0.74646204  0.94958566  1
  O2-  O479  1  0.09488441  0.74914719  0.73166611  1
  O2-  O480  1  0.42573806  0.25506750  0.72249213  1
  O2-  O481  1  0.40179613  0.24884236  0.06961297  1
  O2-  O482  1  0.75119371  0.74860598  0.38051345  1
  O2-  O483  1  0.59009350  0.74761199  0.27579769  1
  O2-  O484  1  0.74743443  0.25527251  0.38331054  1
  O2-  O485  1  0.41908544  0.74703103  0.05470755  1
  O2-  O486  1  0.25910255  0.24172357  0.28315407  1
  O2-  O487  1  0.58498171  0.74937526  0.94735340  1
  O2-  O488  1  0.07947096  0.74345424  0.04995930  1
  O2-  O489  1  0.57214690  0.25383743  0.60964748  1
  O2-  O490  1  0.57980353  0.25039348  0.27433232  1
  O2-  O491  1  0.25324905  0.75664534  0.60888494  1
  O2-  O492  1  0.25404616  0.25323010  0.61161194  1
