# generated using pymatgen
data_Ca108Mn108O277
_symmetry_space_group_name_H-M   'P 1'
_cell_length_a   16.02856295
_cell_length_b   22.30735032
_cell_length_c   16.39005080
_cell_angle_alpha   90.00434898
_cell_angle_beta   90.00367930
_cell_angle_gamma   89.99902163
_symmetry_Int_Tables_number   1
_chemical_formula_structural   Ca108Mn108O277
_chemical_formula_sum   'Ca108 Mn108 O277'
_cell_volume   5860.34079481
_cell_formula_units_Z   1
loop_
 _symmetry_equiv_pos_site_id
 _symmetry_equiv_pos_as_xyz
  1  'x, y, z'
loop_
 _atom_type_symbol
 _atom_type_oxidation_number
  Ca2+  2.0
  Mn3.34+  3.34
  O2-  -2.0
loop_
 _atom_site_type_symbol
 _atom_site_label
 _atom_site_symmetry_multiplicity
 _atom_site_fract_x
 _atom_site_fract_y
 _atom_site_fract_z
 _atom_site_occupancy
  Ca2+  Ca0  1  0.09771606  0.24876860  0.22187943  1
  Ca2+  Ca1  1  0.07951468  0.24829963  0.59819069  1
  Ca2+  Ca2  1  0.07820351  0.23966495  0.93456357  1
  Ca2+  Ca3  1  0.07684700  0.75584108  0.23988768  1
  Ca2+  Ca4  1  0.09193499  0.75349061  0.59197533  1
  Ca2+  Ca5  1  0.08181263  0.74716826  0.91432245  1
  Ca2+  Ca6  1  0.38751264  0.24076127  0.22055528  1
  Ca2+  Ca7  1  0.40806919  0.24818184  0.58865010  1
  Ca2+  Ca8  1  0.39335046  0.24647740  0.93526004  1
  Ca2+  Ca9  1  0.41789973  0.76197140  0.23632673  1
  Ca2+  Ca10  1  0.41839446  0.75246258  0.59028088  1
  Ca2+  Ca11  1  0.42112582  0.75144020  0.91664735  1
  Ca2+  Ca12  1  0.75478700  0.25756344  0.25006218  1
  Ca2+  Ca13  1  0.76022369  0.25409899  0.58009797  1
  Ca2+  Ca14  1  0.78622460  0.23455311  0.92783183  1
  Ca2+  Ca15  1  0.75732388  0.75588548  0.23967537  1
  Ca2+  Ca16  1  0.74276505  0.74455380  0.59662970  1
  Ca2+  Ca17  1  0.75283511  0.73929025  0.90399440  1
  Ca2+  Ca18  1  0.23931092  0.25041145  0.08847320  1
  Ca2+  Ca19  1  0.25488102  0.25078572  0.39930513  1
  Ca2+  Ca20  1  0.24904156  0.23681471  0.75343695  1
  Ca2+  Ca21  1  0.25209235  0.75199849  0.07960388  1
  Ca2+  Ca22  1  0.25333348  0.76443971  0.41725898  1
  Ca2+  Ca23  1  0.25489538  0.74761000  0.75397617  1
  Ca2+  Ca24  1  0.56909449  0.24734612  0.08914422  1
  Ca2+  Ca25  1  0.59751040  0.25949894  0.41944692  1
  Ca2+  Ca26  1  0.58467802  0.25797483  0.74898703  1
  Ca2+  Ca27  1  0.58877446  0.75864955  0.07822433  1
  Ca2+  Ca28  1  0.59569407  0.74431480  0.42496349  1
  Ca2+  Ca29  1  0.59355059  0.74895550  0.75525773  1
  Ca2+  Ca30  1  0.93604417  0.24402668  0.07441214  1
  Ca2+  Ca31  1  0.90217509  0.25427651  0.41988016  1
  Ca2+  Ca32  1  0.92459203  0.23728515  0.77020879  1
  Ca2+  Ca33  1  0.91877692  0.74379438  0.08823538  1
  Ca2+  Ca34  1  0.90248602  0.75302660  0.40328746  1
  Ca2+  Ca35  1  0.90797232  0.75297277  0.75757984  1
  Ca2+  Ca36  1  0.09958052  0.10405497  0.23715506  1
  Ca2+  Ca37  1  0.26711678  0.07698156  0.37211265  1
  Ca2+  Ca38  1  0.39485324  0.10041483  0.23057530  1
  Ca2+  Ca39  1  0.11357022  0.10572002  0.60117435  1
  Ca2+  Ca40  1  0.25224975  0.59846289  0.75352610  1
  Ca2+  Ca41  1  0.38791515  0.09150068  0.60047752  1
  Ca2+  Ca42  1  0.40311570  0.59736947  0.91517169  1
  Ca2+  Ca43  1  0.06860205  0.59863181  0.22855617  1
  Ca2+  Ca44  1  0.89874446  0.59687200  0.76447316  1
  Ca2+  Ca45  1  0.06574183  0.10212862  0.91569979  1
  Ca2+  Ca46  1  0.90111570  0.58802767  0.41006658  1
  Ca2+  Ca47  1  0.24612875  0.10541490  0.09606023  1
  Ca2+  Ca48  1  0.59251051  0.58852385  0.08160477  1
  Ca2+  Ca49  1  0.61364926  0.60709766  0.75313492  1
  Ca2+  Ca50  1  0.57069429  0.07717073  0.74742657  1
  Ca2+  Ca51  1  0.42275707  0.59872115  0.59058433  1
  Ca2+  Ca52  1  0.90530457  0.09573116  0.40786904  1
  Ca2+  Ca53  1  0.56650003  0.07623216  0.40545927  1
  Ca2+  Ca54  1  0.73761424  0.60453935  0.56965117  1
  Ca2+  Ca55  1  0.23577263  0.10660592  0.09686360  1
  Ca2+  Ca56  1  0.41017620  0.57826147  0.25059683  1
  Ca2+  Ca57  1  0.60188648  0.08281572  0.07398906  1
  Ca2+  Ca58  1  0.55537469  0.07321301  0.40942521  1
  Ca2+  Ca59  1  0.27163202  0.08376226  0.37333367  1
  Ca2+  Ca60  1  0.88650018  0.59781922  0.76685874  1
  Ca2+  Ca61  1  0.25461689  0.58068755  0.40107951  1
  Ca2+  Ca62  1  0.75948364  0.09242914  0.58554775  1
  Ca2+  Ca63  1  0.92703317  0.09890194  0.06790240  1
  Ca2+  Ca64  1  0.40405144  0.09001510  0.92473837  1
  Ca2+  Ca65  1  0.58074044  0.07449113  0.74831687  1
  Ca2+  Ca66  1  0.76823081  0.59356860  0.25833530  1
  Ca2+  Ca67  1  0.75885293  0.59053698  0.26281127  1
  Ca2+  Ca68  1  0.26587809  0.57938649  0.40023642  1
  Ca2+  Ca69  1  0.06849538  0.57616923  0.60507247  1
  Ca2+  Ca70  1  0.57975879  0.58813948  0.08092863  1
  Ca2+  Ca71  1  0.39548941  0.08723484  0.59334899  1
  Ca2+  Ca72  1  0.58291267  0.91199875  0.40861312  1
  Ca2+  Ca73  1  0.40336999  0.40339314  0.91437215  1
  Ca2+  Ca74  1  0.57056807  0.90972703  0.41034313  1
  Ca2+  Ca75  1  0.57936036  0.90626725  0.75251213  1
  Ca2+  Ca76  1  0.39631245  0.40972058  0.25351509  1
  Ca2+  Ca77  1  0.74718363  0.90211507  0.58250535  1
  Ca2+  Ca78  1  0.93162743  0.41428258  0.74774294  1
  Ca2+  Ca79  1  0.92140419  0.41185096  0.74437011  1
  Ca2+  Ca80  1  0.41691474  0.91066662  0.91697799  1
  Ca2+  Ca81  1  0.92230381  0.90388090  0.75616333  1
  Ca2+  Ca82  1  0.08154616  0.90573594  0.93294283  1
  Ca2+  Ca83  1  0.91633624  0.40780068  0.40558604  1
  Ca2+  Ca84  1  0.76103236  0.41085953  0.58125910  1
  Ca2+  Ca85  1  0.75864249  0.90234779  0.58093838  1
  Ca2+  Ca86  1  0.24949861  0.39487964  0.75405011  1
  Ca2+  Ca87  1  0.57763312  0.40303552  0.74979561  1
  Ca2+  Ca88  1  0.38554710  0.93137942  0.27118901  1
  Ca2+  Ca89  1  0.58152767  0.40490894  0.41201342  1
  Ca2+  Ca90  1  0.75212651  0.91744461  0.94133088  1
  Ca2+  Ca91  1  0.23688349  0.40805691  0.09356666  1
  Ca2+  Ca92  1  0.41172393  0.39595320  0.58351246  1
  Ca2+  Ca93  1  0.39772510  0.92968417  0.27394104  1
  Ca2+  Ca94  1  0.24332971  0.90493369  0.08943254  1
  Ca2+  Ca95  1  0.24752482  0.90920084  0.75507266  1
  Ca2+  Ca96  1  0.76502157  0.91739605  0.94171962  1
  Ca2+  Ca97  1  0.07986083  0.40823279  0.57967937  1
  Ca2+  Ca98  1  0.75336881  0.39886110  0.91878846  1
  Ca2+  Ca99  1  0.40505123  0.40793085  0.25866906  1
  Ca2+  Ca100  1  0.59864709  0.91016566  0.08767581  1
  Ca2+  Ca101  1  0.58232173  0.40536178  0.08776383  1
  Ca2+  Ca102  1  0.08416015  0.89845156  0.58300917  1
  Ca2+  Ca103  1  0.59478280  0.40353968  0.08904039  1
  Ca2+  Ca104  1  0.26031775  0.90862517  0.75462585  1
  Ca2+  Ca105  1  0.06744594  0.40869126  0.58083859  1
  Ca2+  Ca106  1  0.41094850  0.91159840  0.58153270  1
  Ca2+  Ca107  1  0.76484260  0.39947813  0.91771896  1
  Mn3.34+  Mn108  1  0.07889892  0.33794969  0.08445108  1
  Mn3.34+  Mn109  1  0.08229571  0.33226233  0.41171016  1
  Mn3.34+  Mn110  1  0.08645070  0.33068136  0.75696500  1
  Mn3.34+  Mn111  1  0.07916461  0.83177677  0.08610763  1
  Mn3.34+  Mn112  1  0.07954045  0.83937414  0.41372756  1
  Mn3.34+  Mn113  1  0.08262773  0.83240618  0.75446226  1
  Mn3.34+  Mn114  1  0.41335817  0.33367731  0.08435280  1
  Mn3.34+  Mn115  1  0.41321715  0.33211424  0.42066119  1
  Mn3.34+  Mn116  1  0.41508182  0.32914923  0.75330128  1
  Mn3.34+  Mn117  1  0.41831329  0.83646572  0.08500900  1
  Mn3.34+  Mn118  1  0.41388289  0.83646897  0.42024399  1
  Mn3.34+  Mn119  1  0.41781701  0.83522028  0.75190909  1
  Mn3.34+  Mn120  1  0.75941927  0.32867004  0.08976456  1
  Mn3.34+  Mn121  1  0.75138352  0.33539972  0.41239149  1
  Mn3.34+  Mn122  1  0.74890452  0.33024771  0.74825869  1
  Mn3.34+  Mn123  1  0.75698350  0.83474176  0.08915577  1
  Mn3.34+  Mn124  1  0.75206454  0.83391221  0.41513469  1
  Mn3.34+  Mn125  1  0.75139672  0.83473818  0.75779585  1
  Mn3.34+  Mn126  1  0.24104433  0.33560346  0.25160780  1
  Mn3.34+  Mn127  1  0.24642387  0.32498552  0.57689908  1
  Mn3.34+  Mn128  1  0.24062028  0.33359057  0.92029486  1
  Mn3.34+  Mn129  1  0.24152018  0.83616149  0.25007960  1
  Mn3.34+  Mn130  1  0.24954254  0.82920205  0.57913297  1
  Mn3.34+  Mn131  1  0.24994773  0.83031113  0.91928035  1
  Mn3.34+  Mn132  1  0.58553782  0.33314583  0.25151630  1
  Mn3.34+  Mn133  1  0.58471824  0.33489196  0.58216958  1
  Mn3.34+  Mn134  1  0.58173177  0.32758121  0.91577331  1
  Mn3.34+  Mn135  1  0.58498439  0.83651114  0.24559233  1
  Mn3.34+  Mn136  1  0.57998276  0.83232559  0.58289144  1
  Mn3.34+  Mn137  1  0.58222295  0.83492097  0.91722174  1
  Mn3.34+  Mn138  1  0.92287154  0.33516356  0.24524415  1
  Mn3.34+  Mn139  1  0.91587322  0.33357763  0.57940761  1
  Mn3.34+  Mn140  1  0.92809959  0.33364176  0.91981607  1
  Mn3.34+  Mn141  1  0.91825069  0.83070611  0.24811100  1
  Mn3.34+  Mn142  1  0.92083470  0.83002826  0.57817516  1
  Mn3.34+  Mn143  1  0.91875593  0.83237964  0.92044345  1
  Mn3.34+  Mn144  1  0.75550042  0.66650154  0.07731743  1
  Mn3.34+  Mn145  1  0.08521726  0.16732789  0.75395944  1
  Mn3.34+  Mn146  1  0.91692059  0.16954933  0.58995416  1
  Mn3.34+  Mn147  1  0.75545974  0.16542585  0.75409003  1
  Mn3.34+  Mn148  1  0.75356703  0.16720962  0.41519547  1
  Mn3.34+  Mn149  1  0.07836290  0.67064577  0.41810351  1
  Mn3.34+  Mn150  1  0.41681466  0.17041410  0.42187905  1
  Mn3.34+  Mn151  1  0.57900535  0.16744936  0.24952904  1
  Mn3.34+  Mn152  1  0.58378715  0.17412117  0.91581794  1
  Mn3.34+  Mn153  1  0.92466245  0.66265659  0.92605566  1
  Mn3.34+  Mn154  1  0.08481152  0.66632574  0.75608745  1
  Mn3.34+  Mn155  1  0.24557958  0.16452129  0.91451055  1
  Mn3.34+  Mn156  1  0.24926863  0.66914123  0.58366320  1
  Mn3.34+  Mn157  1  0.91974024  0.66819515  0.58143490  1
  Mn3.34+  Mn158  1  0.91865942  0.66699173  0.24237864  1
  Mn3.34+  Mn159  1  0.41767583  0.66678259  0.07787105  1
  Mn3.34+  Mn160  1  0.08766167  0.17343015  0.42035716  1
  Mn3.34+  Mn161  1  0.07685950  0.16491881  0.42273958  1
  Mn3.34+  Mn162  1  0.59052949  0.16432656  0.57937284  1
  Mn3.34+  Mn163  1  0.58334311  0.67312331  0.58245332  1
  Mn3.34+  Mn164  1  0.58676641  0.67018079  0.25563068  1
  Mn3.34+  Mn165  1  0.59306995  0.16847898  0.91425218  1
  Mn3.34+  Mn166  1  0.59277704  0.16134729  0.24697738  1
  Mn3.34+  Mn167  1  0.25598072  0.66797609  0.23931407  1
  Mn3.34+  Mn168  1  0.58020305  0.16979492  0.58110475  1
  Mn3.34+  Mn169  1  0.24110520  0.66130208  0.92155564  1
  Mn3.34+  Mn170  1  0.41323647  0.16702766  0.75862806  1
  Mn3.34+  Mn171  1  0.57667376  0.66482973  0.25497429  1
  Mn3.34+  Mn172  1  0.41903968  0.66830574  0.75334641  1
  Mn3.34+  Mn173  1  0.90961489  0.66302150  0.57927093  1
  Mn3.34+  Mn174  1  0.41759074  0.66772706  0.42507303  1
  Mn3.34+  Mn175  1  0.58470882  0.67022611  0.91369210  1
  Mn3.34+  Mn176  1  0.24633012  0.66325792  0.23566237  1
  Mn3.34+  Mn177  1  0.91454430  0.16481902  0.24385240  1
  Mn3.34+  Mn178  1  0.08677836  0.66480296  0.42021220  1
  Mn3.34+  Mn179  1  0.75887693  0.16366727  0.08907510  1
  Mn3.34+  Mn180  1  0.90994110  -0.00091284  0.24640176  1
  Mn3.34+  Mn181  1  0.24174795  -0.00295932  0.56795987  1
  Mn3.34+  Mn182  1  0.91501872  0.50004080  0.93828680  1
  Mn3.34+  Mn183  1  0.76276383  0.00461076  0.75253128  1
  Mn3.34+  Mn184  1  0.08618492  0.50064693  0.75763275  1
  Mn3.34+  Mn185  1  0.92245792  0.00247022  0.57659252  1
  Mn3.34+  Mn186  1  0.92031366  -0.00547041  0.24797117  1
  Mn3.34+  Mn187  1  0.93281260  -0.00260248  0.57433901  1
  Mn3.34+  Mn188  1  0.75708689  0.00101831  0.41584543  1
  Mn3.34+  Mn189  1  0.08140983  0.00223340  0.75515844  1
  Mn3.34+  Mn190  1  0.25007181  0.50170615  0.57755328  1
  Mn3.34+  Mn191  1  0.58051511  -0.00385949  0.58940559  1
  Mn3.34+  Mn192  1  0.77452028  0.49979662  0.07750347  1
  Mn3.34+  Mn193  1  0.60381578  -0.00043403  0.24933902  1
  Mn3.34+  Mn194  1  0.08078311  0.00013369  0.40967143  1
  Mn3.34+  Mn195  1  0.24463943  0.49820737  0.91994175  1
  Mn3.34+  Mn196  1  0.58732064  0.00016472  0.92336129  1
  Mn3.34+  Mn197  1  0.42484891  0.50039105  0.41549084  1
  Mn3.34+  Mn198  1  0.41842972  0.50092473  0.75527842  1
  Mn3.34+  Mn199  1  0.57518519  0.50240265  0.57417269  1
  Mn3.34+  Mn200  1  0.75074665  0.49922289  0.40809257  1
  Mn3.34+  Mn201  1  0.41530853  -0.00224896  0.07536838  1
  Mn3.34+  Mn202  1  0.26091573  0.49678784  0.57731305  1
  Mn3.34+  Mn203  1  0.91579987  0.00383823  0.92733372  1
  Mn3.34+  Mn204  1  0.24455482  0.00447171  0.91893138  1
  Mn3.34+  Mn205  1  0.58593617  0.50683954  0.57501036  1
  Mn3.34+  Mn206  1  0.08668032  0.49359485  0.06687881  1
  Mn3.34+  Mn207  1  0.58865054  0.49796809  0.25630873  1
  Mn3.34+  Mn208  1  0.23096342  -0.00753122  0.56766493  1
  Mn3.34+  Mn209  1  0.08274498  -0.00434657  0.08176989  1
  Mn3.34+  Mn210  1  0.39449864  0.50277337  0.07120431  1
  Mn3.34+  Mn211  1  0.57898440  0.49956573  0.91494233  1
  Mn3.34+  Mn212  1  0.59344774  0.50566783  0.91596018  1
  Mn3.34+  Mn213  1  0.08519366  0.49969497  0.40253815  1
  Mn3.34+  Mn214  1  0.74508797  0.49909742  0.75093453  1
  Mn3.34+  Mn215  1  0.92556575  0.49773250  0.24800990  1
  O2-  O216  1  0.00178580  0.16450183  0.00204853  1
  O2-  O217  1  0.00214734  0.16076045  0.33477431  1
  O2-  O218  1  0.00732355  0.15772061  0.66071212  1
  O2-  O219  1  -0.00392974  0.69531864  -0.00513475  1
  O2-  O220  1  -0.00143009  0.65672972  0.33419860  1
  O2-  O221  1  -0.00833937  0.64919437  0.67044597  1
  O2-  O222  1  0.32446061  0.15277953  -0.00526666  1
  O2-  O223  1  0.33814425  0.16552225  0.33987160  1
  O2-  O224  1  0.33707665  0.16049482  0.67470789  1
  O2-  O225  1  0.33527542  0.67033321  -0.00586852  1
  O2-  O226  1  0.33286337  0.65479082  0.33384174  1
  O2-  O227  1  0.33500644  0.65370256  0.66607384  1
  O2-  O228  1  0.66815915  0.16136989  -0.00093554  1
  O2-  O229  1  0.65623659  0.14199763  0.33949148  1
  O2-  O230  1  0.65994009  0.14409191  0.67169064  1
  O2-  O231  1  0.66252419  0.65251800  0.00316151  1
  O2-  O232  1  0.67158981  0.66109679  0.33098717  1
  O2-  O233  1  0.66499710  0.66218877  0.65728807  1
  O2-  O234  1  0.16573836  0.15175514  -0.00862439  1
  O2-  O235  1  0.17075070  0.15490297  0.34546769  1
  O2-  O236  1  0.16722324  0.17780245  0.66986983  1
  O2-  O237  1  0.17655919  0.70201005  -0.00978675  1
  O2-  O238  1  0.16953048  0.65526415  0.33371095  1
  O2-  O239  1  0.16099653  0.64773204  0.66165422  1
  O2-  O240  1  0.50553520  0.15985068  -0.00411127  1
  O2-  O241  1  0.49907564  0.14839718  0.33481662  1
  O2-  O242  1  0.49911531  0.14808330  0.66516548  1
  O2-  O243  1  0.50138232  0.64819101  -0.00094472  1
  O2-  O244  1  0.49464313  0.66513722  0.33651255  1
  O2-  O245  1  0.50437980  0.65148856  0.67335703  1
  O2-  O246  1  0.83949366  0.16473235  0.01513917  1
  O2-  O247  1  0.84051307  0.17084907  0.33722609  1
  O2-  O248  1  0.82882457  0.15275217  0.66568162  1
  O2-  O249  1  0.83477805  0.67633114  -0.00286220  1
  O2-  O250  1  0.83670109  0.65792921  0.32941697  1
  O2-  O251  1  0.82884657  0.64891479  0.66198562  1
  O2-  O252  1  0.00215655  0.34232534  0.00062345  1
  O2-  O253  1  -0.00473462  0.31087486  0.33857792  1
  O2-  O254  1  0.00123843  0.34838896  0.66375631  1
  O2-  O255  1  0.00492606  0.82403275  -0.00379004  1
  O2-  O256  1  -0.00057548  0.81793221  0.33571798  1
  O2-  O257  1  0.00140648  0.84676306  0.66642989  1
  O2-  O258  1  0.33175132  0.34841302  0.00414708  1
  O2-  O259  1  0.33444051  0.33538124  0.33360232  1
  O2-  O260  1  0.32939526  0.33380785  0.66427554  1
  O2-  O261  1  0.33473003  0.84123667  -0.00042786  1
  O2-  O262  1  0.33350290  0.84056007  0.33360969  1
  O2-  O263  1  0.33059685  0.84875824  0.66850542  1
  O2-  O264  1  0.66438242  0.34434005  -0.00297780  1
  O2-  O265  1  0.66261363  0.34632552  0.33774376  1
  O2-  O266  1  0.66816030  0.35405664  0.66584045  1
  O2-  O267  1  0.66615299  0.84449227  -0.00373364  1
  O2-  O268  1  0.65406785  0.83756923  0.34620686  1
  O2-  O269  1  0.66846947  0.85376743  0.66994060  1
  O2-  O270  1  0.16800878  0.34692855  0.00515618  1
  O2-  O271  1  0.16341998  0.32135098  0.33473495  1
  O2-  O272  1  0.16069261  0.34152614  0.65938734  1
  O2-  O273  1  0.16665434  0.82991847  0.00043877  1
  O2-  O274  1  0.16134648  0.81744009  0.33483931  1
  O2-  O275  1  0.16927455  0.85123782  0.67232798  1
  O2-  O276  1  0.50248364  0.34708714  0.00317592  1
  O2-  O277  1  0.49332463  0.34917663  0.33092757  1
  O2-  O278  1  0.49942906  0.34570673  0.66605661  1
  O2-  O279  1  0.50256504  0.85599657  0.00259751  1
  O2-  O280  1  0.49092914  0.84725841  0.32717311  1
  O2-  O281  1  0.49576493  0.85550413  0.66203614  1
  O2-  O282  1  0.83384581  0.33892035  -0.00363026  1
  O2-  O283  1  0.83832555  0.32946003  0.33428730  1
  O2-  O284  1  0.83654512  0.35543088  0.66831213  1
  O2-  O285  1  0.82857729  0.83260173  -0.00687037  1
  O2-  O286  1  0.82591908  0.82277350  0.33129012  1
  O2-  O287  1  0.83432290  0.85210961  0.66980374  1
  O2-  O288  1  -0.00361311  0.18129511  0.17511231  1
  O2-  O289  1  -0.00411098  0.19076863  0.49582069  1
  O2-  O290  1  0.01012463  0.17480988  0.83636726  1
  O2-  O291  1  0.00180365  0.67867469  0.17158956  1
  O2-  O292  1  0.00572802  0.69014836  0.50677521  1
  O2-  O293  1  -0.00122007  0.68073866  0.83040852  1
  O2-  O294  1  0.32579643  0.16986217  0.15664168  1
  O2-  O295  1  0.34428532  0.18003991  0.50475288  1
  O2-  O296  1  0.33885896  0.18201783  0.84025767  1
  O2-  O297  1  0.34722517  0.67759149  0.16852129  1
  O2-  O298  1  0.32986312  0.68697961  0.49530667  1
  O2-  O299  1  0.33364181  0.68103341  0.83230390  1
  O2-  O300  1  0.66072772  0.18333194  0.16093214  1
  O2-  O301  1  0.66992587  0.18216963  0.49741669  1
  O2-  O302  1  0.66748506  0.19144544  0.83337768  1
  O2-  O303  1  0.66321410  0.67260382  0.16656340  1
  O2-  O304  1  0.66605250  0.68727982  0.50856815  1
  O2-  O305  1  0.66027900  0.68208371  0.83571998  1
  O2-  O306  1  0.16731898  0.17475541  0.16217656  1
  O2-  O307  1  0.16064396  0.18991696  0.50208744  1
  O2-  O308  1  0.16499202  0.18333263  0.83539232  1
  O2-  O309  1  0.16168934  0.68041904  0.16614144  1
  O2-  O310  1  0.16983031  0.69018448  0.49529423  1
  O2-  O311  1  0.17264055  0.67972341  0.82730642  1
  O2-  O312  1  0.49811426  0.17815673  0.17323934  1
  O2-  O313  1  0.50805004  0.18929519  0.49190637  1
  O2-  O314  1  0.50850575  0.18694996  0.83053855  1
  O2-  O315  1  0.50694057  0.67824405  0.16511000  1
  O2-  O316  1  0.49269238  0.68914443  0.50651824  1
  O2-  O317  1  0.49736342  0.68305817  0.83707420  1
  O2-  O318  1  0.83086828  0.18916701  0.17261636  1
  O2-  O319  1  0.83316689  0.17952998  0.50555537  1
  O2-  O320  1  0.83124680  0.17642781  0.82754807  1
  O2-  O321  1  0.82388660  0.67189933  0.17208255  1
  O2-  O322  1  0.83519919  0.68310513  0.49737520  1
  O2-  O323  1  0.84912498  0.67892882  0.83621724  1
  O2-  O324  1  0.00105449  0.31571227  0.16815652  1
  O2-  O325  1  0.00123712  0.31931868  0.50298150  1
  O2-  O326  1  -0.00990067  0.33348512  0.82063567  1
  O2-  O327  1  -0.00160476  0.81347079  0.16250186  1
  O2-  O328  1  0.00217020  0.81160444  0.50067709  1
  O2-  O329  1  -0.00261724  0.82253383  0.83312731  1
  O2-  O330  1  0.33788446  0.33130090  0.17045188  1
  O2-  O331  1  0.33326536  0.30671981  0.50031818  1
  O2-  O332  1  0.33486556  0.32111785  0.83664040  1
  O2-  O333  1  0.33231645  0.82306444  0.16291091  1
  O2-  O334  1  0.34208046  0.81453656  0.50561998  1
  O2-  O335  1  0.33131470  0.81799791  0.83398165  1
  O2-  O336  1  0.66071969  0.32173304  0.16022102  1
  O2-  O337  1  0.66927674  0.32767059  0.50117454  1
  O2-  O338  1  0.66863290  0.31798809  0.83655718  1
  O2-  O339  1  0.66515188  0.82540218  0.16513910  1
  O2-  O340  1  0.67294233  0.81835450  0.50829793  1
  O2-  O341  1  0.66333009  0.82456968  0.83350781  1
  O2-  O342  1  0.17097549  0.33103029  0.16243812  1
  O2-  O343  1  0.15776323  0.31460629  0.50334311  1
  O2-  O344  1  0.17445633  0.31816363  0.82537774  1
  O2-  O345  1  0.16763885  0.81592723  0.16119254  1
  O2-  O346  1  0.16110367  0.81663505  0.50251355  1
  O2-  O347  1  0.17266353  0.81930772  0.83111210  1
  O2-  O348  1  0.50242280  0.32328783  0.16636008  1
  O2-  O349  1  0.49927115  0.31446103  0.49832014  1
  O2-  O350  1  0.50156417  0.31762892  0.83519741  1
  O2-  O351  1  0.50321716  0.82581940  0.16440938  1
  O2-  O352  1  0.50844553  0.81701176  0.48768171  1
  O2-  O353  1  0.49973278  0.82688178  0.83345162  1
  O2-  O354  1  0.83854986  0.31370488  0.16831299  1
  O2-  O355  1  0.83212893  0.32522697  0.50125216  1
  O2-  O356  1  0.83107113  0.32941438  0.83358377  1
  O2-  O357  1  0.83643519  0.81829530  0.16430278  1
  O2-  O358  1  0.82622343  0.81672682  0.50672327  1
  O2-  O359  1  0.83593118  0.81938085  0.83684884  1
  O2-  O360  1  0.09444929  0.07229483  0.11046975  1
  O2-  O361  1  0.07721176  0.08069368  0.46216993  1
  O2-  O362  1  0.09112535  0.08306285  0.76921345  1
  O2-  O363  1  0.08570846  0.55944892  0.11384782  1
  O2-  O364  1  0.09398813  0.57794862  0.46188676  1
  O2-  O365  1  0.07261741  0.58209351  0.77265516  1
  O2-  O366  1  0.40983266  0.07261461  0.10265951  1
  O2-  O367  1  0.42949424  0.07836794  0.46276300  1
  O2-  O368  1  0.43577197  0.08599643  0.78519024  1
  O2-  O369  1  0.43920940  0.57942602  0.11565355  1
  O2-  O370  1  0.40159027  0.57916915  0.45413203  1
  O2-  O371  1  0.41130474  0.58336221  0.78006934  1
  O2-  O372  1  0.74296339  0.08708891  0.10644310  1
  O2-  O373  1  0.75585532  0.08179680  0.44770399  1
  O2-  O374  1  0.72223610  0.08389793  0.77886107  1
  O2-  O375  1  0.73043716  0.57646904  0.12534278  1
  O2-  O376  1  0.76392785  0.57192506  0.44707597  1
  O2-  O377  1  0.75274239  0.57772160  0.77374187  1
  O2-  O378  1  0.24623590  0.07545541  0.22968319  1
  O2-  O379  1  0.24789765  0.07760323  0.53146439  1
  O2-  O380  1  0.25486228  0.08104014  0.88481638  1
  O2-  O381  1  0.25607866  0.58206550  0.23315843  1
  O2-  O382  1  0.25534733  0.58242219  0.54165169  1
  O2-  O383  1  0.25392108  0.57789576  0.88747482  1
  O2-  O384  1  0.57792602  0.08035957  0.21307839  1
  O2-  O385  1  0.59936983  0.07716357  0.53901308  1
  O2-  O386  1  0.57980105  0.08107825  0.88697525  1
  O2-  O387  1  0.57481191  0.57927368  0.21822340  1
  O2-  O388  1  0.57882675  0.58860154  0.54804343  1
  O2-  O389  1  0.57597348  0.58464936  0.88475356  1
  O2-  O390  1  0.91914336  0.07815672  0.20579160  1
  O2-  O391  1  0.91991081  0.08416194  0.54833404  1
  O2-  O392  1  0.92773110  0.07069508  0.88544077  1
  O2-  O393  1  0.91143616  0.58023140  0.22112081  1
  O2-  O394  1  0.92354195  0.58167547  0.55021933  1
  O2-  O395  1  0.92017976  0.57763669  0.89572349  1
  O2-  O396  1  0.08516975  0.42695870  0.11802767  1
  O2-  O397  1  0.06755167  0.42277783  0.44483357  1
  O2-  O398  1  0.09094928  0.41738148  0.76727605  1
  O2-  O399  1  0.09488547  0.91516340  0.09186994  1
  O2-  O400  1  0.07725733  0.92588265  0.45437615  1
  O2-  O401  1  0.09133446  0.92059939  0.79171032  1
  O2-  O402  1  0.43383021  0.42408035  0.12018209  1
  O2-  O403  1  0.42845067  0.42068745  0.44991998  1
  O2-  O404  1  0.42039289  0.41659375  0.77652643  1
  O2-  O405  1  0.41090470  0.92370251  0.12582808  1
  O2-  O406  1  0.43691617  0.92201438  0.44534572  1
  O2-  O407  1  0.39800738  0.91911383  0.77841763  1
  O2-  O408  1  0.73578999  0.41594580  0.09407551  1
  O2-  O409  1  0.75586254  0.42060596  0.44139593  1
  O2-  O410  1  0.73607496  0.41898967  0.78430116  1
  O2-  O411  1  0.74915147  0.91504063  0.08298426  1
  O2-  O412  1  0.73598288  0.92110758  0.44994134  1
  O2-  O413  1  0.76186865  0.92236827  0.79555737  1
  O2-  O414  1  0.27140701  0.42135289  0.22795700  1
  O2-  O415  1  0.24949337  0.41490920  0.55657956  1
  O2-  O416  1  0.25220366  0.41827078  0.88653763  1
  O2-  O417  1  0.25869083  0.91776582  0.22743366  1
  O2-  O418  1  0.24823583  0.91105068  0.54722787  1
  O2-  O419  1  0.24595376  0.92247441  0.88820228  1
  O2-  O420  1  0.58108781  0.41780792  0.22176123  1
  O2-  O421  1  0.57482182  0.42003028  0.54899010  1
  O2-  O422  1  0.59323159  0.41926868  0.88706809  1
  O2-  O423  1  0.58174812  0.91813032  0.22914392  1
  O2-  O424  1  0.59394764  0.91612623  0.54421197  1
  O2-  O425  1  0.58381154  0.92172168  0.88789050  1
  O2-  O426  1  0.92676856  0.41766086  0.26179293  1
  O2-  O427  1  0.92924055  0.41696041  0.55440833  1
  O2-  O428  1  0.90440381  0.42269554  0.88427636  1
  O2-  O429  1  0.92111169  0.91282842  0.23463877  1
  O2-  O430  1  0.90542026  0.91649077  0.54612742  1
  O2-  O431  1  0.90795238  0.92589288  0.89181597  1
  O2-  O432  1  0.00603459  -0.00030518  -0.00944442  1
  O2-  O433  1  0.00568172  0.02122452  0.32522540  1
  O2-  O434  1  -0.00006440  -0.01634390  0.66955608  1
  O2-  O435  1  0.01823646  0.49547928  -0.01285602  1
  O2-  O436  1  -0.01021410  0.51623300  0.34733234  1
  O2-  O437  1  0.00477339  0.48725315  0.67262156  1
  O2-  O438  1  0.34279563  -0.00490572  -0.01411015  1
  O2-  O439  1  0.35130533  0.01563169  0.31734038  1
  O2-  O440  1  0.34309118  -0.00118165  0.63211155  1
  O2-  O441  1  0.35581720  0.49830284  -0.04449172  1
  O2-  O442  1  0.33648186  0.51006439  0.34160440  1
  O2-  O443  1  0.33108168  0.50276938  0.67153772  1
  O2-  O444  1  0.66340826  -0.00822023  -0.00043960  1
  O2-  O445  1  0.64744940  -0.00031559  0.37113612  1
  O2-  O446  1  0.64865838  -0.00763163  0.69336575  1
  O2-  O447  1  0.65239822  0.50506993  0.02137927  1
  O2-  O448  1  0.67377419  0.52113012  0.32768010  1
  O2-  O449  1  0.68219845  0.50019480  0.64547159  1
  O2-  O450  1  0.17522170  -0.00346691  0.00847085  1
  O2-  O451  1  0.17296726  0.01424683  0.35551239  1
  O2-  O452  1  0.17354961  -0.01061278  0.67406471  1
  O2-  O453  1  0.18753695  0.49140787  0.02300198  1
  O2-  O454  1  0.17390508  0.51508891  0.34554138  1
  O2-  O455  1  0.16118981  0.50532183  0.65586078  1
  O2-  O456  1  0.50284803  0.00493945  0.00186445  1
  O2-  O457  1  0.50529771  -0.00278529  0.33066507  1
  O2-  O458  1  0.49357529  0.02754318  0.65670071  1
  O2-  O459  1  0.50549496  0.50004317  0.00777079  1
  O2-  O460  1  0.48352682  0.49025026  0.31024131  1
  O2-  O461  1  0.50099923  0.50101406  0.66563012  1
  O2-  O462  1  0.82886245  0.00257852  -0.01357349  1
  O2-  O463  1  0.83942220  0.01347944  0.33727559  1
  O2-  O464  1  0.81333318  -0.00260172  0.63488382  1
  O2-  O465  1  0.79997770  0.49340093  -0.04414584  1
  O2-  O466  1  0.83099268  0.51183296  0.32459073  1
  O2-  O467  1  0.85100770  0.49503741  0.70690904  1
  O2-  O468  1  0.08326524  0.74911049  0.72720679  1
  O2-  O469  1  0.08977781  0.25801834  0.07130555  1
  O2-  O470  1  0.24608343  0.75066175  0.61624448  1
  O2-  O471  1  0.74094965  0.25107073  0.06236522  1
  O2-  O472  1  0.42067946  0.75147011  0.72655056  1
  O2-  O473  1  0.24812278  0.25046219  0.94343245  1
  O2-  O474  1  0.43061633  0.75252130  0.06486258  1
  O2-  O475  1  0.92657170  0.25455895  0.92454949  1
  O2-  O476  1  0.91341182  0.74736626  0.61851271  1
  O2-  O477  1  0.24973626  0.25477954  0.25276420  1
  O2-  O478  1  0.57535435  0.75414796  0.61683475  1
  O2-  O479  1  0.74805276  0.24958953  0.71854127  1
  O2-  O480  1  0.59215128  0.24838285  0.28013672  1
  O2-  O481  1  0.90988859  0.25272617  0.61358102  1
  O2-  O482  1  0.59563974  0.25211051  0.61325380  1
  O2-  O483  1  0.73711577  0.74857977  0.07315003  1
  O2-  O484  1  0.74085013  0.25127754  0.39674990  1
  O2-  O485  1  0.26219617  0.74730947  0.26509035  1
  O2-  O486  1  0.57806580  0.75444218  0.26867990  1
  O2-  O487  1  0.90920018  0.74712545  0.26197505  1
  O2-  O488  1  0.06923367  0.25209928  0.73513697  1
  O2-  O489  1  0.75014640  0.75723410  0.73305932  1
  O2-  O490  1  0.41533144  0.25548301  0.07051796  1
  O2-  O491  1  0.42583853  0.24818849  0.72508870  1
  O2-  O492  1  0.57456560  0.75204164  0.94155542  1
