# generated using pymatgen
data_Ca108Mn108O277
_symmetry_space_group_name_H-M   'P 1'
_cell_length_a   16.03095878
_cell_length_b   22.31033468
_cell_length_c   16.39161454
_cell_angle_alpha   90.00002668
_cell_angle_beta   89.99955891
_cell_angle_gamma   90.00314311
_symmetry_Int_Tables_number   1
_chemical_formula_structural   Ca108Mn108O277
_chemical_formula_sum   'Ca108 Mn108 O277'
_cell_volume   5862.56019379
_cell_formula_units_Z   1
loop_
 _symmetry_equiv_pos_site_id
 _symmetry_equiv_pos_as_xyz
  1  'x, y, z'
loop_
 _atom_type_symbol
 _atom_type_oxidation_number
  Ca2+  2.0
  Mn3.34+  3.34
  O2-  -2.0
loop_
 _atom_site_type_symbol
 _atom_site_label
 _atom_site_symmetry_multiplicity
 _atom_site_fract_x
 _atom_site_fract_y
 _atom_site_fract_z
 _atom_site_occupancy
  Ca2+  Ca0  1  0.07452973  0.25550341  0.25158148  1
  Ca2+  Ca1  1  0.09632909  0.26111319  0.59636147  1
  Ca2+  Ca2  1  0.08848801  0.24134876  0.89983084  1
  Ca2+  Ca3  1  0.07800255  0.75388612  0.24930515  1
  Ca2+  Ca4  1  0.08810668  0.75088070  0.59494077  1
  Ca2+  Ca5  1  0.10273040  0.74924720  0.91165083  1
  Ca2+  Ca6  1  0.44346724  0.24741448  0.25414622  1
  Ca2+  Ca7  1  0.41399896  0.25844035  0.59939533  1
  Ca2+  Ca8  1  0.40785085  0.25244837  0.90208820  1
  Ca2+  Ca9  1  0.42716403  0.74786227  0.24887626  1
  Ca2+  Ca10  1  0.41898573  0.74319111  0.58705339  1
  Ca2+  Ca11  1  0.39493954  0.72811890  0.91833477  1
  Ca2+  Ca12  1  0.73967397  0.26180239  0.25364555  1
  Ca2+  Ca13  1  0.73726037  0.26165540  0.58189988  1
  Ca2+  Ca14  1  0.75785974  0.25738205  0.90556428  1
  Ca2+  Ca15  1  0.74369916  0.74465959  0.24607249  1
  Ca2+  Ca16  1  0.74244470  0.73789153  0.59666703  1
  Ca2+  Ca17  1  0.74310471  0.74726825  0.89743466  1
  Ca2+  Ca18  1  0.24659155  0.23202958  0.07772467  1
  Ca2+  Ca19  1  0.24954106  0.25149263  0.42292392  1
  Ca2+  Ca20  1  0.24929168  0.23737956  0.75613745  1
  Ca2+  Ca21  1  0.25289689  0.75227051  0.06969165  1
  Ca2+  Ca22  1  0.25768902  0.74743112  0.43021987  1
  Ca2+  Ca23  1  0.24487375  0.74129904  0.75727379  1
  Ca2+  Ca24  1  0.57479504  0.25787483  0.10469109  1
  Ca2+  Ca25  1  0.58427394  0.26417310  0.40367089  1
  Ca2+  Ca26  1  0.56853191  0.26107179  0.74380432  1
  Ca2+  Ca27  1  0.57719144  0.74712191  0.08469494  1
  Ca2+  Ca28  1  0.57489645  0.74597598  0.42028565  1
  Ca2+  Ca29  1  0.59665533  0.73572171  0.74589381  1
  Ca2+  Ca30  1  0.92567541  0.24051907  0.08489521  1
  Ca2+  Ca31  1  0.91317723  0.25552060  0.40930771  1
  Ca2+  Ca32  1  0.93285094  0.25665457  0.75607518  1
  Ca2+  Ca33  1  0.92373566  0.76612794  0.08354804  1
  Ca2+  Ca34  1  0.91912143  0.75676640  0.41436761  1
  Ca2+  Ca35  1  0.91172768  0.75928844  0.74977626  1
  Ca2+  Ca36  1  0.09763738  0.09756657  0.94771803  1
  Ca2+  Ca37  1  0.26661281  0.59410890  0.06582938  1
  Ca2+  Ca38  1  0.56340883  0.09108595  0.74022645  1
  Ca2+  Ca39  1  0.59037666  0.58728028  0.75230137  1
  Ca2+  Ca40  1  0.87010975  0.58958756  0.74462684  1
  Ca2+  Ca41  1  0.38990577  0.10021001  0.90760261  1
  Ca2+  Ca42  1  0.75447783  0.09623246  0.24291134  1
  Ca2+  Ca43  1  0.10039887  0.10682755  0.22000770  1
  Ca2+  Ca44  1  0.57888365  0.10181636  0.10655024  1
  Ca2+  Ca45  1  0.94954436  0.09670682  0.08453602  1
  Ca2+  Ca46  1  0.57690514  0.58039653  0.40830756  1
  Ca2+  Ca47  1  0.71744846  0.56916589  0.24096226  1
  Ca2+  Ca48  1  0.10832924  0.60389098  0.91226962  1
  Ca2+  Ca49  1  0.25451407  0.59703508  0.06495322  1
  Ca2+  Ca50  1  0.57873243  0.08869017  0.40494324  1
  Ca2+  Ca51  1  0.58366017  0.57828665  0.41565442  1
  Ca2+  Ca52  1  0.39766876  0.59236978  0.58953775  1
  Ca2+  Ca53  1  0.56766905  0.08736605  0.40418377  1
  Ca2+  Ca54  1  0.71920251  0.57352509  0.61148863  1
  Ca2+  Ca55  1  0.89173275  0.58188706  0.07846761  1
  Ca2+  Ca56  1  0.38944646  0.58880859  0.58533716  1
  Ca2+  Ca57  1  0.13790891  0.59459960  0.58985079  1
  Ca2+  Ca58  1  0.08194605  0.09549479  0.58823679  1
  Ca2+  Ca59  1  0.72893171  0.57030320  0.24408207  1
  Ca2+  Ca60  1  0.41017186  0.10132181  0.25016228  1
  Ca2+  Ca61  1  0.75031319  0.09135156  0.59214300  1
  Ca2+  Ca62  1  0.72508442  0.59032667  0.90261876  1
  Ca2+  Ca63  1  0.58804041  0.09854945  0.10394005  1
  Ca2+  Ca64  1  0.24568701  0.09371150  0.40363257  1
  Ca2+  Ca65  1  0.25305965  0.60081646  0.75167095  1
  Ca2+  Ca66  1  0.92757318  0.08911659  0.40686936  1
  Ca2+  Ca67  1  0.74535580  0.09829930  0.24722491  1
  Ca2+  Ca68  1  0.75983094  0.10178843  0.91601006  1
  Ca2+  Ca69  1  0.92165959  0.11635406  0.75860154  1
  Ca2+  Ca70  1  0.25074629  0.59880711  0.43151711  1
  Ca2+  Ca71  1  0.75288878  0.10124943  0.90764815  1
  Ca2+  Ca72  1  0.26036505  0.39380706  0.09098483  1
  Ca2+  Ca73  1  0.08502704  0.91071191  0.93511206  1
  Ca2+  Ca74  1  0.07409756  0.91190665  0.93520822  1
  Ca2+  Ca75  1  0.71972717  0.42049994  0.92450398  1
  Ca2+  Ca76  1  0.59295618  0.91268906  0.07622698  1
  Ca2+  Ca77  1  0.25789957  0.40546719  0.42229013  1
  Ca2+  Ca78  1  0.74843354  0.90677638  0.93749708  1
  Ca2+  Ca79  1  0.91352369  0.40034709  0.41263237  1
  Ca2+  Ca80  1  0.24872109  0.39265720  0.09005459  1
  Ca2+  Ca81  1  0.58800339  0.90942175  0.74635616  1
  Ca2+  Ca82  1  0.74372705  0.90795701  0.57914352  1
  Ca2+  Ca83  1  0.42496849  0.41461707  0.58680460  1
  Ca2+  Ca84  1  0.24671593  0.40537057  0.42210942  1
  Ca2+  Ca85  1  0.59817532  0.42371025  0.72893441  1
  Ca2+  Ca86  1  0.08552971  0.39152325  0.90995792  1
  Ca2+  Ca87  1  0.89613865  0.39965299  0.08640012  1
  Ca2+  Ca88  1  0.24349228  0.90505225  0.74068472  1
  Ca2+  Ca89  1  0.23703488  0.91613864  0.08155882  1
  Ca2+  Ca90  1  0.40763666  0.90597333  0.58229089  1
  Ca2+  Ca91  1  0.76430097  0.91102081  0.23680873  1
  Ca2+  Ca92  1  0.25612581  0.90557487  0.73994060  1
  Ca2+  Ca93  1  0.41637661  0.91054263  0.91968840  1
  Ca2+  Ca94  1  0.57672155  0.91026291  0.74697123  1
  Ca2+  Ca95  1  0.58629927  0.91568912  0.41949216  1
  Ca2+  Ca96  1  0.75193709  0.91316685  0.23786701  1
  Ca2+  Ca97  1  0.75622995  0.90671950  0.57725193  1
  Ca2+  Ca98  1  0.08337141  0.91203585  0.24793635  1
  Ca2+  Ca99  1  0.90821592  0.39976550  0.08414011  1
  Ca2+  Ca100  1  0.42878361  0.91122465  0.91807615  1
  Ca2+  Ca101  1  0.39282235  0.90519803  0.25010970  1
  Ca2+  Ca102  1  0.72869581  0.41809184  0.92020606  1
  Ca2+  Ca103  1  0.44237625  0.40790724  0.90963432  1
  Ca2+  Ca104  1  0.40515611  0.90697864  0.25138454  1
  Ca2+  Ca105  1  0.57579134  0.91258636  0.41982437  1
  Ca2+  Ca106  1  0.43368873  0.40995567  0.25838957  1
  Ca2+  Ca107  1  0.93455049  0.90492690  0.41065641  1
  Mn3.34+  Mn108  1  0.08280773  0.32698072  0.08655929  1
  Mn3.34+  Mn109  1  0.08019462  0.32971834  0.42225323  1
  Mn3.34+  Mn110  1  0.08704237  0.33566738  0.74652289  1
  Mn3.34+  Mn111  1  0.08369622  0.83518775  0.08961975  1
  Mn3.34+  Mn112  1  0.09147757  0.83397641  0.42285588  1
  Mn3.34+  Mn113  1  0.07665458  0.83233966  0.74992903  1
  Mn3.34+  Mn114  1  0.42524846  0.33176153  0.08179007  1
  Mn3.34+  Mn115  1  0.42301649  0.33323655  0.42090328  1
  Mn3.34+  Mn116  1  0.41394627  0.33788039  0.74870059  1
  Mn3.34+  Mn117  1  0.41390131  0.83418631  0.08524454  1
  Mn3.34+  Mn118  1  0.41118429  0.83184022  0.42140337  1
  Mn3.34+  Mn119  1  0.41865955  0.82685251  0.74854132  1
  Mn3.34+  Mn120  1  0.73893616  0.33941394  0.08670951  1
  Mn3.34+  Mn121  1  0.74741531  0.33733970  0.41908668  1
  Mn3.34+  Mn122  1  0.76006665  0.34433943  0.74236893  1
  Mn3.34+  Mn123  1  0.74915575  0.83148960  0.08277431  1
  Mn3.34+  Mn124  1  0.75134691  0.82814299  0.41890350  1
  Mn3.34+  Mn125  1  0.75404785  0.83143218  0.75387437  1
  Mn3.34+  Mn126  1  0.25129757  0.32977047  0.25058629  1
  Mn3.34+  Mn127  1  0.25033459  0.34349886  0.58956159  1
  Mn3.34+  Mn128  1  0.25400677  0.33185550  0.91003056  1
  Mn3.34+  Mn129  1  0.24333692  0.82810653  0.25187369  1
  Mn3.34+  Mn130  1  0.24601134  0.83134327  0.57804850  1
  Mn3.34+  Mn131  1  0.25190655  0.83313597  0.91390776  1
  Mn3.34+  Mn132  1  0.58966349  0.34560122  0.25211020  1
  Mn3.34+  Mn133  1  0.58678812  0.34371032  0.57967220  1
  Mn3.34+  Mn134  1  0.58160162  0.33134295  0.91274023  1
  Mn3.34+  Mn135  1  0.58632837  0.83009328  0.24716313  1
  Mn3.34+  Mn136  1  0.58259171  0.83018268  0.58111641  1
  Mn3.34+  Mn137  1  0.58119430  0.82525058  0.91632052  1
  Mn3.34+  Mn138  1  0.91515682  0.33177916  0.25155165  1
  Mn3.34+  Mn139  1  0.91406824  0.33210774  0.58552801  1
  Mn3.34+  Mn140  1  0.91596025  0.32951361  0.91093638  1
  Mn3.34+  Mn141  1  0.91894759  0.83373312  0.24854878  1
  Mn3.34+  Mn142  1  0.92204075  0.83543050  0.58363507  1
  Mn3.34+  Mn143  1  0.91572879  0.83298308  0.91952699  1
  Mn3.34+  Mn144  1  0.90952901  0.17555536  0.57701879  1
  Mn3.34+  Mn145  1  0.41581250  0.16886993  0.41410572  1
  Mn3.34+  Mn146  1  0.92070780  0.17444385  0.58259620  1
  Mn3.34+  Mn147  1  0.42399756  0.66880373  0.08428246  1
  Mn3.34+  Mn148  1  0.90902573  0.66969249  0.91728155  1
  Mn3.34+  Mn149  1  0.08134996  0.67114843  0.08476464  1
  Mn3.34+  Mn150  1  0.73358409  0.65580362  0.07841543  1
  Mn3.34+  Mn151  1  0.25187317  0.16576867  0.58528808  1
  Mn3.34+  Mn152  1  0.92357939  0.66515708  0.57625344  1
  Mn3.34+  Mn153  1  0.58460504  0.17271186  0.91394363  1
  Mn3.34+  Mn154  1  0.92079727  0.66164357  0.91491180  1
  Mn3.34+  Mn155  1  0.57368919  0.16548676  0.91130089  1
  Mn3.34+  Mn156  1  0.58243523  0.66316099  0.58146857  1
  Mn3.34+  Mn157  1  0.08635985  0.66904008  0.42284456  1
  Mn3.34+  Mn158  1  0.92577978  0.66005140  0.25106245  1
  Mn3.34+  Mn159  1  0.91111037  0.66597907  0.24922117  1
  Mn3.34+  Mn160  1  0.92097794  0.16806846  0.24708821  1
  Mn3.34+  Mn161  1  0.91189208  0.65978211  0.57301919  1
  Mn3.34+  Mn162  1  0.25464729  0.66600728  0.25017444  1
  Mn3.34+  Mn163  1  0.75302943  0.16876739  0.08691215  1
  Mn3.34+  Mn164  1  0.57640596  0.66048819  0.91649802  1
  Mn3.34+  Mn165  1  0.75116699  0.16805384  0.41838496  1
  Mn3.34+  Mn166  1  0.58455593  0.16681418  0.58230463  1
  Mn3.34+  Mn167  1  0.92133086  0.17302513  0.91811109  1
  Mn3.34+  Mn168  1  0.57792555  0.66291165  0.24532444  1
  Mn3.34+  Mn169  1  0.75034495  0.65688091  0.42328499  1
  Mn3.34+  Mn170  1  0.24634538  0.17000055  0.91733529  1
  Mn3.34+  Mn171  1  0.41198507  0.16837088  0.08475715  1
  Mn3.34+  Mn172  1  0.57455355  0.16157858  0.58121236  1
  Mn3.34+  Mn173  1  0.08429206  0.16673670  0.41329370  1
  Mn3.34+  Mn174  1  0.08240055  0.66355044  0.74970840  1
  Mn3.34+  Mn175  1  0.26108389  0.15994214  0.58535096  1
  Mn3.34+  Mn176  1  0.41827195  0.66797179  0.41755210  1
  Mn3.34+  Mn177  1  0.24359964  0.66184832  0.25003086  1
  Mn3.34+  Mn178  1  0.41746408  0.66486689  0.75476355  1
  Mn3.34+  Mn179  1  0.25202243  0.17209105  0.24775735  1
  Mn3.34+  Mn180  1  0.08063185  0.50411908  0.41611302  1
  Mn3.34+  Mn181  1  0.91337469  0.49671523  0.25481467  1
  Mn3.34+  Mn182  1  0.41456325  0.00503892  0.73494147  1
  Mn3.34+  Mn183  1  0.09148256  0.49944575  0.73677763  1
  Mn3.34+  Mn184  1  0.90790787  -0.00180806  0.91533537  1
  Mn3.34+  Mn185  1  0.75687213  -0.00088839  0.74649906  1
  Mn3.34+  Mn186  1  0.57579061  -0.00473648  0.25398458  1
  Mn3.34+  Mn187  1  0.07845587  0.50641875  0.09762347  1
  Mn3.34+  Mn188  1  0.24771180  0.00436486  0.24730301  1
  Mn3.34+  Mn189  1  0.08334499  0.00788124  0.74721115  1
  Mn3.34+  Mn190  1  0.40384813  0.00482882  0.07618652  1
  Mn3.34+  Mn191  1  0.92063147  0.00441037  0.91228135  1
  Mn3.34+  Mn192  1  0.92719220  0.00365306  0.24458138  1
  Mn3.34+  Mn193  1  0.08499467  0.00062979  0.41008179  1
  Mn3.34+  Mn194  1  0.07174253  0.00017008  0.74563589  1
  Mn3.34+  Mn195  1  0.91586359  0.49964893  0.91035157  1
  Mn3.34+  Mn196  1  0.26300174  0.50123493  0.90713122  1
  Mn3.34+  Mn197  1  0.92476598  -0.00067600  0.57197226  1
  Mn3.34+  Mn198  1  0.24832830  0.00355838  0.91410684  1
  Mn3.34+  Mn199  1  0.44980784  0.50044707  0.08567977  1
  Mn3.34+  Mn200  1  0.44594813  0.50539563  0.07487549  1
  Mn3.34+  Mn201  1  0.76604817  0.00249204  0.41109290  1
  Mn3.34+  Mn202  1  0.74707970  0.49373789  0.41190433  1
  Mn3.34+  Mn203  1  0.39690717  -0.00008423  0.41527533  1
  Mn3.34+  Mn204  1  0.41753487  0.49828759  0.41151338  1
  Mn3.34+  Mn205  1  0.41957689  0.50296094  0.74044959  1
  Mn3.34+  Mn206  1  0.24950338  -0.00271803  0.57936861  1
  Mn3.34+  Mn207  1  0.06824253  0.49802849  0.42103325  1
  Mn3.34+  Mn208  1  0.93052400  0.49436042  0.90871072  1
  Mn3.34+  Mn209  1  0.25132664  0.50227711  0.25577232  1
  Mn3.34+  Mn210  1  0.09273253  0.50056345  0.09684496  1
  Mn3.34+  Mn211  1  0.91732421  0.49370566  0.58974392  1
  Mn3.34+  Mn212  1  0.57992121  0.00634147  0.92284227  1
  Mn3.34+  Mn213  1  0.77126519  -0.00728983  0.74593076  1
  Mn3.34+  Mn214  1  0.90765953  0.49871840  0.58645098  1
  Mn3.34+  Mn215  1  0.24878670  0.49596116  0.90745128  1
  O2-  O216  1  0.00026458  0.16560806  -0.00213470  1
  O2-  O217  1  0.00408421  0.14777299  0.32578056  1
  O2-  O218  1  -0.00005267  0.16692434  0.66004518  1
  O2-  O219  1  -0.00645095  0.64139181  -0.00108286  1
  O2-  O220  1  0.00211912  0.67316646  0.33843244  1
  O2-  O221  1  -0.00206927  0.64335170  0.66214382  1
  O2-  O222  1  0.33022662  0.15729098  0.00702874  1
  O2-  O223  1  0.33106522  0.16234335  0.33636684  1
  O2-  O224  1  0.33657085  0.16404069  0.66559148  1
  O2-  O225  1  0.33819665  0.66133190  0.00935169  1
  O2-  O226  1  0.33019743  0.65752106  0.33841642  1
  O2-  O227  1  0.33912350  0.66086575  0.66833710  1
  O2-  O228  1  0.66528254  0.15400234  -0.00173959  1
  O2-  O229  1  0.67233024  0.14478030  0.34108767  1
  O2-  O230  1  0.66224973  0.15182805  0.66488663  1
  O2-  O231  1  0.66272809  0.69024093  -0.00199162  1
  O2-  O232  1  0.66974591  0.65027993  0.33211067  1
  O2-  O233  1  0.65855796  0.65937707  0.66135017  1
  O2-  O234  1  0.16293584  0.17735301  -0.00314472  1
  O2-  O235  1  0.17185745  0.16053364  0.33637546  1
  O2-  O236  1  0.16784928  0.15572174  0.65966111  1
  O2-  O237  1  0.16768331  0.65976156  0.01030609  1
  O2-  O238  1  0.16883899  0.67990508  0.33653267  1
  O2-  O239  1  0.16668349  0.66974231  0.67431629  1
  O2-  O240  1  0.50242811  0.13773856  -0.00600986  1
  O2-  O241  1  0.49641906  0.15555986  0.33433274  1
  O2-  O242  1  0.49885761  0.16117109  0.66307461  1
  O2-  O243  1  0.50293237  0.67630822  -0.00003901  1
  O2-  O244  1  0.50661480  0.65018283  0.33962858  1
  O2-  O245  1  0.49545424  0.64329770  0.66059855  1
  O2-  O246  1  0.83512296  0.15331303  0.00653747  1
  O2-  O247  1  0.83492398  0.14969593  0.33607136  1
  O2-  O248  1  0.83146437  0.16735787  0.66186217  1
  O2-  O249  1  0.82445386  0.65287489  -0.00438027  1
  O2-  O250  1  0.82891472  0.65826007  0.33082515  1
  O2-  O251  1  0.82640075  0.64972253  0.64626302  1
  O2-  O252  1  -0.00395145  0.34401244  0.00605774  1
  O2-  O253  1  0.00008137  0.34124654  0.33682606  1
  O2-  O254  1  -0.00292672  0.32498813  0.66633322  1
  O2-  O255  1  -0.00287826  0.85178660  0.00971208  1
  O2-  O256  1  0.00752370  0.83749298  0.33247898  1
  O2-  O257  1  -0.00288035  0.84254901  0.67017971  1
  O2-  O258  1  0.33827147  0.35174674  -0.00068474  1
  O2-  O259  1  0.33510509  0.34599905  0.33245809  1
  O2-  O260  1  0.34375125  0.34809277  0.65696429  1
  O2-  O261  1  0.33067682  0.85550494  -0.00140500  1
  O2-  O262  1  0.33271031  0.83752752  0.33091198  1
  O2-  O263  1  0.33111340  0.83843329  0.66897751  1
  O2-  O264  1  0.67003598  0.33509318  -0.00622290  1
  O2-  O265  1  0.67088840  0.34342806  0.33314896  1
  O2-  O266  1  0.66914630  0.33513270  0.66844654  1
  O2-  O267  1  0.66475598  0.82896356  -0.00151149  1
  O2-  O268  1  0.66836740  0.84526445  0.33424884  1
  O2-  O269  1  0.66649141  0.84939944  0.66843090  1
  O2-  O270  1  0.16796783  0.33703308  0.00506835  1
  O2-  O271  1  0.17652368  0.33683973  0.34015611  1
  O2-  O272  1  0.16747603  0.34109520  0.66591735  1
  O2-  O273  1  0.16662607  0.84590288  -0.00270888  1
  O2-  O274  1  0.16656253  0.80950303  0.33506107  1
  O2-  O275  1  0.17157247  0.83216500  0.67126411  1
  O2-  O276  1  0.50390510  0.34894790  0.00189652  1
  O2-  O277  1  0.50133244  0.34259496  0.33678492  1
  O2-  O278  1  0.50378300  0.34493993  0.67237371  1
  O2-  O279  1  0.50145649  0.84955724  0.00140876  1
  O2-  O280  1  0.50095481  0.85886439  0.32839457  1
  O2-  O281  1  0.49842817  0.85485450  0.66394402  1
  O2-  O282  1  0.82709273  0.34024263  -0.00535093  1
  O2-  O283  1  0.83526155  0.33795863  0.33484976  1
  O2-  O284  1  0.83413055  0.30161806  0.66624770  1
  O2-  O285  1  0.82711549  0.82537331  -0.00136275  1
  O2-  O286  1  0.83286174  0.84194337  0.33489840  1
  O2-  O287  1  0.82741062  0.85214767  0.66528918  1
  O2-  O288  1  -0.00114801  0.17835612  0.16879944  1
  O2-  O289  1  -0.00172718  0.18311294  0.49599584  1
  O2-  O290  1  -0.00896664  0.18373184  0.83596972  1
  O2-  O291  1  -0.00260368  0.68180999  0.16441939  1
  O2-  O292  1  0.00148240  0.69019046  0.50115335  1
  O2-  O293  1  -0.00237626  0.67544536  0.83205956  1
  O2-  O294  1  0.34238082  0.18743492  0.17668697  1
  O2-  O295  1  0.33036527  0.17645712  0.49571443  1
  O2-  O296  1  0.33314568  0.17718259  0.84422757  1
  O2-  O297  1  0.33235179  0.68748565  0.16802901  1
  O2-  O298  1  0.34122998  0.67656678  0.49959054  1
  O2-  O299  1  0.33153912  0.67894720  0.82006402  1
  O2-  O300  1  0.66910992  0.18169804  0.15972829  1
  O2-  O301  1  0.66507269  0.18032373  0.50080377  1
  O2-  O302  1  0.66991723  0.18326160  0.84079872  1
  O2-  O303  1  0.66700725  0.67956853  0.16914720  1
  O2-  O304  1  0.66359162  0.68430642  0.49529393  1
  O2-  O305  1  0.65668897  0.68005628  0.84378852  1
  O2-  O306  1  0.16834253  0.19427430  0.18223816  1
  O2-  O307  1  0.16955819  0.17863745  0.50226197  1
  O2-  O308  1  0.17120613  0.17641006  0.83990416  1
  O2-  O309  1  0.16940911  0.69233631  0.17057396  1
  O2-  O310  1  0.16602419  0.68329371  0.49822258  1
  O2-  O311  1  0.15918127  0.67682003  0.82982149  1
  O2-  O312  1  0.50461151  0.17547688  0.15445532  1
  O2-  O313  1  0.50737817  0.17437885  0.48924351  1
  O2-  O314  1  0.50103179  0.17837576  0.83007155  1
  O2-  O315  1  0.49995891  0.68507517  0.16826352  1
  O2-  O316  1  0.49936617  0.67863163  0.49851233  1
  O2-  O317  1  0.50033931  0.68346997  0.83647149  1
  O2-  O318  1  0.82823871  0.18440125  0.17338594  1
  O2-  O319  1  0.83043768  0.19051026  0.50071167  1
  O2-  O320  1  0.82873750  0.17753018  0.84736378  1
  O2-  O321  1  0.83359702  0.68463039  0.16184668  1
  O2-  O322  1  0.83514633  0.69008734  0.49298843  1
  O2-  O323  1  0.83411926  0.67762478  0.83266574  1
  O2-  O324  1  -0.00645544  0.31561285  0.15894230  1
  O2-  O325  1  -0.00161361  0.31041741  0.50045053  1
  O2-  O326  1  0.00629601  0.32088257  0.84147406  1
  O2-  O327  1  0.00580416  0.82338871  0.17251548  1
  O2-  O328  1  -0.00042853  0.81813135  0.49459168  1
  O2-  O329  1  0.01421105  0.83458739  0.85122801  1
  O2-  O330  1  0.32794729  0.31841865  0.15912376  1
  O2-  O331  1  0.32799403  0.32406064  0.49142953  1
  O2-  O332  1  0.33903812  0.33287996  0.83786632  1
  O2-  O333  1  0.33422514  0.81898945  0.17437632  1
  O2-  O334  1  0.33843550  0.81002351  0.51294158  1
  O2-  O335  1  0.33487449  0.82782061  0.83208772  1
  O2-  O336  1  0.66523749  0.32166479  0.16515124  1
  O2-  O337  1  0.66271431  0.32233980  0.49669355  1
  O2-  O338  1  0.66549553  0.31129593  0.83359094  1
  O2-  O339  1  0.66683725  0.80966479  0.16405155  1
  O2-  O340  1  0.67068481  0.81277728  0.50276755  1
  O2-  O341  1  0.65743892  0.81849592  0.82653165  1
  O2-  O342  1  0.17036388  0.31425874  0.16324870  1
  O2-  O343  1  0.17216517  0.32387983  0.49689488  1
  O2-  O344  1  0.16636605  0.32154788  0.83861474  1
  O2-  O345  1  0.16989513  0.81383950  0.16395357  1
  O2-  O346  1  0.16648851  0.80524039  0.50352285  1
  O2-  O347  1  0.17278216  0.82574675  0.82898081  1
  O2-  O348  1  0.49254931  0.32519069  0.17320750  1
  O2-  O349  1  0.49303139  0.32455069  0.50949575  1
  O2-  O350  1  0.49698023  0.32121607  0.83695423  1
  O2-  O351  1  0.49760580  0.82864102  0.17171269  1
  O2-  O352  1  0.50938745  0.82677997  0.49040227  1
  O2-  O353  1  0.49724056  0.83078565  0.83446311  1
  O2-  O354  1  0.83281431  0.31730832  0.15399491  1
  O2-  O355  1  0.83503612  0.31413342  0.49980025  1
  O2-  O356  1  0.83645953  0.31902121  0.82856078  1
  O2-  O357  1  0.82523076  0.82062421  0.17162383  1
  O2-  O358  1  0.83049204  0.81735294  0.50150083  1
  O2-  O359  1  0.83252584  0.81888069  0.83754750  1
  O2-  O360  1  0.07315001  0.06623608  0.10483936  1
  O2-  O361  1  0.08446761  0.08105306  0.44939951  1
  O2-  O362  1  0.05741958  0.07572164  0.80311809  1
  O2-  O363  1  0.09623317  0.58716149  0.11679017  1
  O2-  O364  1  0.09776316  0.58150163  0.45505994  1
  O2-  O365  1  0.08660919  0.57564102  0.78373161  1
  O2-  O366  1  0.43853870  0.08056703  0.11937650  1
  O2-  O367  1  0.41987925  0.08402421  0.43174365  1
  O2-  O368  1  0.43966168  0.06763225  0.79344838  1
  O2-  O369  1  0.40241054  0.58201439  0.11200543  1
  O2-  O370  1  0.42176929  0.57915368  0.44780505  1
  O2-  O371  1  0.41046033  0.57779969  0.78026274  1
  O2-  O372  1  0.72245927  0.07829320  0.11469484  1
  O2-  O373  1  0.75868081  0.08389610  0.45436819  1
  O2-  O374  1  0.77056879  0.07847568  0.77868109  1
  O2-  O375  1  0.75867590  0.57650640  0.11547878  1
  O2-  O376  1  0.72982334  0.57039747  0.46352540  1
  O2-  O377  1  0.73522164  0.57170469  0.77165784  1
  O2-  O378  1  0.25299197  0.08504672  0.22920863  1
  O2-  O379  1  0.24203512  0.07921634  0.54555539  1
  O2-  O380  1  0.24218267  0.08355595  0.90706839  1
  O2-  O381  1  0.24554198  0.58081844  0.19958635  1
  O2-  O382  1  0.26742738  0.57151235  0.55214120  1
  O2-  O383  1  0.24956884  0.58167629  0.89116692  1
  O2-  O384  1  0.60067431  0.07813460  0.23596353  1
  O2-  O385  1  0.59292723  0.07930743  0.54707019  1
  O2-  O386  1  0.60637878  0.08407846  0.87690267  1
  O2-  O387  1  0.58717685  0.58279747  0.22564547  1
  O2-  O388  1  0.58156387  0.58252785  0.54907509  1
  O2-  O389  1  0.58037514  0.58572852  0.89577616  1
  O2-  O390  1  0.89609872  0.08568599  0.21450512  1
  O2-  O391  1  0.91586331  0.08580796  0.54622417  1
  O2-  O392  1  0.90880961  0.08551459  0.89254922  1
  O2-  O393  1  0.91363168  0.57989380  0.21407705  1
  O2-  O394  1  0.92189698  0.57741679  0.53381609  1
  O2-  O395  1  0.91490592  0.57881372  0.87479633  1
  O2-  O396  1  0.09430571  0.41794748  0.10649099  1
  O2-  O397  1  0.09065060  0.41672455  0.44685837  1
  O2-  O398  1  0.08118526  0.42572004  0.78036383  1
  O2-  O399  1  0.09939374  0.91489942  0.11180998  1
  O2-  O400  1  0.07976069  0.92043844  0.43106639  1
  O2-  O401  1  0.10640263  0.92371130  0.78489221  1
  O2-  O402  1  0.39775764  0.42488872  0.11875733  1
  O2-  O403  1  0.40364908  0.41893852  0.44298103  1
  O2-  O404  1  0.42626945  0.42767185  0.77528334  1
  O2-  O405  1  0.40460311  0.92143148  0.11802980  1
  O2-  O406  1  0.42320552  0.91798079  0.44874136  1
  O2-  O407  1  0.41003133  0.92504320  0.78554550  1
  O2-  O408  1  0.76255241  0.41826297  0.08554972  1
  O2-  O409  1  0.77397909  0.41880884  0.44522218  1
  O2-  O410  1  0.73977279  0.41899952  0.78514468  1
  O2-  O411  1  0.73570897  0.91921572  0.10430998  1
  O2-  O412  1  0.73343882  0.91981339  0.44566027  1
  O2-  O413  1  0.73953078  0.91859308  0.79853703  1
  O2-  O414  1  0.25186742  0.41992648  0.21874399  1
  O2-  O415  1  0.26074836  0.42119000  0.55385074  1
  O2-  O416  1  0.23639917  0.41564782  0.90580482  1
  O2-  O417  1  0.25343800  0.91986088  0.22400890  1
  O2-  O418  1  0.25691449  0.91590292  0.56123651  1
  O2-  O419  1  0.25651176  0.92345915  0.87369124  1
  O2-  O420  1  0.56884850  0.42114922  0.22218708  1
  O2-  O421  1  0.57588976  0.42154258  0.57852275  1
  O2-  O422  1  0.59076407  0.41021806  0.88165279  1
  O2-  O423  1  0.61003059  0.91578635  0.21947223  1
  O2-  O424  1  0.60095679  0.91559389  0.55241211  1
  O2-  O425  1  0.57466723  0.92438089  0.88371834  1
  O2-  O426  1  0.91824957  0.41510053  0.21572586  1
  O2-  O427  1  0.92566758  0.41671433  0.54865040  1
  O2-  O428  1  0.92134757  0.41288859  0.89921152  1
  O2-  O429  1  0.90701404  0.91731802  0.23057492  1
  O2-  O430  1  0.89162379  0.92029442  0.53903974  1
  O2-  O431  1  0.90788287  0.91772910  0.89888993  1
  O2-  O432  1  0.00941530  -0.00284283  -0.01847172  1
  O2-  O433  1  -0.02649965  -0.00034154  0.35865412  1
  O2-  O434  1  0.00061629  0.01744866  0.65853277  1
  O2-  O435  1  0.00933540  0.50448989  -0.00064586  1
  O2-  O436  1  -0.02043605  0.49228357  0.35041962  1
  O2-  O437  1  -0.00136187  0.50975569  0.67083216  1
  O2-  O438  1  0.35068145  -0.00701642  -0.03294412  1
  O2-  O439  1  0.36031037  -0.00256989  0.29333968  1
  O2-  O440  1  0.33146204  -0.02077650  0.66695067  1
  O2-  O441  1  0.32823307  0.50370554  0.01291716  1
  O2-  O442  1  0.31780395  0.49771583  0.35906224  1
  O2-  O443  1  0.34673791  0.50781977  0.66318654  1
  O2-  O444  1  0.66053679  0.00470180  -0.01119202  1
  O2-  O445  1  0.65365197  -0.00040125  0.35810223  1
  O2-  O446  1  0.67040095  -0.02240681  0.67086639  1
  O2-  O447  1  0.69860728  0.50641125  -0.04887645  1
  O2-  O448  1  0.66145317  0.51594101  0.34219516  1
  O2-  O449  1  0.65710105  0.51079465  0.69604342  1
  O2-  O450  1  0.16650565  -0.01781289  -0.01786038  1
  O2-  O451  1  0.15089019  0.00523275  0.31198932  1
  O2-  O452  1  0.16996661  -0.00025753  0.66897752  1
  O2-  O453  1  0.16932391  0.51560061  0.00142873  1
  O2-  O454  1  0.16596528  0.49535585  0.34138212  1
  O2-  O455  1  0.17715309  0.52007241  0.68146889  1
  O2-  O456  1  0.50444757  -0.01701242  0.00647305  1
  O2-  O457  1  0.51144275  -0.00416321  0.36297773  1
  O2-  O458  1  0.51773659  -0.00752572  0.69486532  1
  O2-  O459  1  0.49479052  0.48589593  -0.02050773  1
  O2-  O460  1  0.50586841  0.50184616  0.35170118  1
  O2-  O461  1  0.50446433  0.50966072  0.67818614  1
  O2-  O462  1  0.80893831  0.01252701  -0.03213620  1
  O2-  O463  1  0.79914234  0.00262174  0.28627228  1
  O2-  O464  1  0.82120116  0.00262128  0.63922486  1
  O2-  O465  1  0.85545956  0.49635685  0.00875371  1
  O2-  O466  1  0.81408386  0.51450281  0.31891960  1
  O2-  O467  1  0.82550080  0.51673564  0.65916825  1
  O2-  O468  1  0.41398473  0.75477901  0.05970917  1
  O2-  O469  1  0.07265837  0.75216348  0.05321497  1
  O2-  O470  1  0.90907155  0.25214210  0.94543659  1
  O2-  O471  1  0.58556327  0.25927040  0.26481313  1
  O2-  O472  1  0.41156927  0.25906295  0.73730022  1
  O2-  O473  1  0.57866989  0.74970635  0.27933859  1
  O2-  O474  1  0.75470596  0.75422486  0.73104480  1
  O2-  O475  1  0.91417325  0.74630264  0.61355958  1
  O2-  O476  1  0.42667998  0.25057787  0.05280114  1
  O2-  O477  1  0.42586446  0.74979977  0.38960811  1
  O2-  O478  1  0.43405268  0.74737096  0.72521091  1
  O2-  O479  1  0.57120071  0.74965543  0.60788046  1
  O2-  O480  1  0.57971935  0.25000165  0.60091905  1
  O2-  O481  1  0.09134310  0.25556448  0.74016482  1
  O2-  O482  1  0.92067267  0.24831411  0.27451321  1
  O2-  O483  1  0.25160330  0.75495799  0.93192308  1
  O2-  O484  1  0.91514144  0.74985073  0.26931410  1
  O2-  O485  1  0.25353328  0.25108538  0.59996357  1
  O2-  O486  1  0.26397536  0.25397435  0.93614563  1
  O2-  O487  1  0.74267812  0.24832464  0.39129707  1
  O2-  O488  1  0.06479265  0.74812805  0.73688342  1
  O2-  O489  1  0.56913190  0.24871274  0.95202633  1
  O2-  O490  1  0.08621292  0.24881508  0.39148254  1
  O2-  O491  1  0.93651951  0.74969246  0.93997538  1
  O2-  O492  1  0.41942883  0.25105026  0.39631507  1
