# generated using pymatgen
data_Ca108Mn108O277
_symmetry_space_group_name_H-M   'P 1'
_cell_length_a   16.00747491
_cell_length_b   22.27846183
_cell_length_c   16.37296745
_cell_angle_alpha   90.00184748
_cell_angle_beta   90.00026431
_cell_angle_gamma   90.00035831
_symmetry_Int_Tables_number   1
_chemical_formula_structural   Ca108Mn108O277
_chemical_formula_sum   'Ca108 Mn108 O277'
_cell_volume   5838.95906501
_cell_formula_units_Z   1
loop_
 _symmetry_equiv_pos_site_id
 _symmetry_equiv_pos_as_xyz
  1  'x, y, z'
loop_
 _atom_type_symbol
 _atom_type_oxidation_number
  Ca2+  2.0
  Mn3.34+  3.34
  O2-  -2.0
loop_
 _atom_site_type_symbol
 _atom_site_label
 _atom_site_symmetry_multiplicity
 _atom_site_fract_x
 _atom_site_fract_y
 _atom_site_fract_z
 _atom_site_occupancy
  Ca2+  Ca0  1  0.09746222  0.24422090  0.26180624  1
  Ca2+  Ca1  1  0.07618271  0.24834093  0.56896905  1
  Ca2+  Ca2  1  0.08761457  0.24542871  0.91848199  1
  Ca2+  Ca3  1  0.10334454  0.74612740  0.24511756  1
  Ca2+  Ca4  1  0.07788703  0.74662056  0.57946451  1
  Ca2+  Ca5  1  0.08272468  0.74417867  0.92583530  1
  Ca2+  Ca6  1  0.38987477  0.25166008  0.24488404  1
  Ca2+  Ca7  1  0.42586623  0.25133344  0.59473092  1
  Ca2+  Ca8  1  0.40313747  0.24350515  0.90873635  1
  Ca2+  Ca9  1  0.40877329  0.74635518  0.25161056  1
  Ca2+  Ca10  1  0.42955940  0.75473376  0.57758613  1
  Ca2+  Ca11  1  0.41986951  0.74969759  0.91557133  1
  Ca2+  Ca12  1  0.75505020  0.26251679  0.26326836  1
  Ca2+  Ca13  1  0.75253874  0.25545878  0.57676494  1
  Ca2+  Ca14  1  0.75889506  0.26243912  0.90872710  1
  Ca2+  Ca15  1  0.73964195  0.74902318  0.25184647  1
  Ca2+  Ca16  1  0.73901698  0.75322619  0.57909369  1
  Ca2+  Ca17  1  0.74854149  0.74618316  0.91794053  1
  Ca2+  Ca18  1  0.23759483  0.24448771  0.09194447  1
  Ca2+  Ca19  1  0.22232106  0.23910946  0.40382523  1
  Ca2+  Ca20  1  0.25423087  0.24693683  0.75421167  1
  Ca2+  Ca21  1  0.25321236  0.75029709  0.09509742  1
  Ca2+  Ca22  1  0.25982907  0.74330888  0.39716714  1
  Ca2+  Ca23  1  0.26257061  0.75504598  0.75511145  1
  Ca2+  Ca24  1  0.58708476  0.26677351  0.07527501  1
  Ca2+  Ca25  1  0.60191927  0.25695795  0.43099016  1
  Ca2+  Ca26  1  0.58794487  0.24950330  0.73639705  1
  Ca2+  Ca27  1  0.58470526  0.74632202  0.08336107  1
  Ca2+  Ca28  1  0.58334780  0.74114811  0.41820351  1
  Ca2+  Ca29  1  0.58326880  0.75149321  0.74358169  1
  Ca2+  Ca30  1  0.92069467  0.25386230  0.07651945  1
  Ca2+  Ca31  1  0.92308461  0.25046560  0.42601830  1
  Ca2+  Ca32  1  0.91665152  0.25661850  0.74431817  1
  Ca2+  Ca33  1  0.91070060  0.74444508  0.07593548  1
  Ca2+  Ca34  1  0.90610763  0.75008626  0.42236293  1
  Ca2+  Ca35  1  0.90376064  0.74412969  0.75295533  1
  Ca2+  Ca36  1  0.74200542  0.59954485  0.25072728  1
  Ca2+  Ca37  1  0.93408916  0.09207310  0.08631248  1
  Ca2+  Ca38  1  0.59127060  0.60536168  0.09473012  1
  Ca2+  Ca39  1  0.76774866  0.08753341  0.91622212  1
  Ca2+  Ca40  1  0.41927748  0.60201382  0.91483800  1
  Ca2+  Ca41  1  0.89849566  0.58922735  0.07693614  1
  Ca2+  Ca42  1  0.40599653  0.60690366  0.25123547  1
  Ca2+  Ca43  1  0.58255883  0.59421919  0.73703865  1
  Ca2+  Ca44  1  0.74885777  0.09084812  0.57239719  1
  Ca2+  Ca45  1  0.23650053  0.10675799  0.08675820  1
  Ca2+  Ca46  1  0.91589431  0.58945240  0.75936517  1
  Ca2+  Ca47  1  0.25808203  0.60189415  0.10055423  1
  Ca2+  Ca48  1  0.93515714  0.09653304  0.41973198  1
  Ca2+  Ca49  1  0.42026731  0.09443991  0.60079539  1
  Ca2+  Ca50  1  0.76242650  0.59101852  0.92362108  1
  Ca2+  Ca51  1  0.58151393  0.08926812  0.08192678  1
  Ca2+  Ca52  1  0.08743766  0.09235449  0.56382985  1
  Ca2+  Ca53  1  0.09686996  0.10645112  0.26101787  1
  Ca2+  Ca54  1  0.92173397  0.09034427  0.74521793  1
  Ca2+  Ca55  1  0.75503196  0.08705523  0.91616455  1
  Ca2+  Ca56  1  0.91717622  0.60219650  0.42476720  1
  Ca2+  Ca57  1  0.76482888  0.08311153  0.27215377  1
  Ca2+  Ca58  1  0.24962838  0.60383016  0.10632046  1
  Ca2+  Ca59  1  0.74576070  0.59920396  0.57225322  1
  Ca2+  Ca60  1  0.25372970  0.59026696  0.74791362  1
  Ca2+  Ca61  1  0.57451043  0.09579729  0.73061138  1
  Ca2+  Ca62  1  0.22575417  0.10819539  0.08541035  1
  Ca2+  Ca63  1  0.94170493  0.09731450  0.08356552  1
  Ca2+  Ca64  1  0.09247244  0.10045702  0.25670553  1
  Ca2+  Ca65  1  0.40712551  0.09390515  0.60086074  1
  Ca2+  Ca66  1  0.10655996  0.59885745  0.25835180  1
  Ca2+  Ca67  1  0.21755310  0.09469608  0.41779567  1
  Ca2+  Ca68  1  0.38868303  0.10035482  0.24615098  1
  Ca2+  Ca69  1  0.60749229  0.08581492  0.43078610  1
  Ca2+  Ca70  1  0.90649234  0.60202665  0.42444441  1
  Ca2+  Ca71  1  0.73657414  0.59690750  0.57614950  1
  Ca2+  Ca72  1  0.89581362  0.90861727  0.09298527  1
  Ca2+  Ca73  1  0.09527923  0.90958492  0.91175764  1
  Ca2+  Ca74  1  0.59111809  0.89554995  0.08836987  1
  Ca2+  Ca75  1  0.09720334  0.91730693  0.58135814  1
  Ca2+  Ca76  1  0.08605807  0.90821101  0.26010293  1
  Ca2+  Ca77  1  0.60996340  0.41516505  0.43709070  1
  Ca2+  Ca78  1  0.91537357  0.90626575  0.74768040  1
  Ca2+  Ca79  1  0.08387303  0.90998791  0.91233751  1
  Ca2+  Ca80  1  0.08767073  0.91860664  0.57741209  1
  Ca2+  Ca81  1  0.58342208  0.41349886  0.72947024  1
  Ca2+  Ca82  1  0.76570940  0.41499163  0.92629029  1
  Ca2+  Ca83  1  0.74946881  0.90136121  0.92590853  1
  Ca2+  Ca84  1  0.40882087  0.40517492  0.24820192  1
  Ca2+  Ca85  1  0.06964034  0.40835411  0.89916366  1
  Ca2+  Ca86  1  0.24704138  0.40497808  0.09558110  1
  Ca2+  Ca87  1  0.90563492  0.41450763  0.07773836  1
  Ca2+  Ca88  1  0.92567588  0.40891341  0.75703669  1
  Ca2+  Ca89  1  0.24784213  0.41041778  0.41212035  1
  Ca2+  Ca90  1  0.24321247  0.90263637  0.42114319  1
  Ca2+  Ca91  1  0.24765746  0.91139867  0.73787105  1
  Ca2+  Ca92  1  0.08264496  0.40950695  0.26031407  1
  Ca2+  Ca93  1  0.25979383  0.40375133  0.09506307  1
  Ca2+  Ca94  1  0.23648781  0.41061904  0.41217454  1
  Ca2+  Ca95  1  0.40936669  0.40124932  0.91143382  1
  Ca2+  Ca96  1  0.92770297  0.90864018  0.74629392  1
  Ca2+  Ca97  1  0.42207650  0.40793244  0.58683242  1
  Ca2+  Ca98  1  0.90223869  0.90983584  0.41990833  1
  Ca2+  Ca99  1  0.89410092  0.41730315  0.08026242  1
  Ca2+  Ca100  1  0.59637209  0.90466995  0.43187552  1
  Ca2+  Ca101  1  0.60785788  0.90499777  0.43424832  1
  Ca2+  Ca102  1  0.59463862  0.41379583  0.72981799  1
  Ca2+  Ca103  1  0.24811305  0.90110316  0.09022811  1
  Ca2+  Ca104  1  0.08441258  0.40579569  0.59328711  1
  Ca2+  Ca105  1  0.42224441  0.40112407  0.91227610  1
  Ca2+  Ca106  1  0.41641248  0.89601517  0.91475702  1
  Ca2+  Ca107  1  0.90810787  0.91002115  0.09037728  1
  Mn3.34+  Mn108  1  0.08063870  0.32760404  0.08575583  1
  Mn3.34+  Mn109  1  0.07633145  0.33112765  0.41920640  1
  Mn3.34+  Mn110  1  0.08596264  0.33657513  0.74806561  1
  Mn3.34+  Mn111  1  0.08269244  0.83252366  0.08796486  1
  Mn3.34+  Mn112  1  0.08125220  0.83488411  0.41796208  1
  Mn3.34+  Mn113  1  0.08588319  0.83319269  0.74959563  1
  Mn3.34+  Mn114  1  0.42158702  0.32975319  0.08555322  1
  Mn3.34+  Mn115  1  0.41819454  0.32854101  0.41808038  1
  Mn3.34+  Mn116  1  0.41310780  0.33101786  0.74841847  1
  Mn3.34+  Mn117  1  0.41910681  0.82948807  0.08782902  1
  Mn3.34+  Mn118  1  0.41744334  0.83085032  0.41682451  1
  Mn3.34+  Mn119  1  0.42066008  0.83319875  0.74573636  1
  Mn3.34+  Mn120  1  0.74514691  0.33768990  0.09061980  1
  Mn3.34+  Mn121  1  0.75819227  0.33895801  0.41696423  1
  Mn3.34+  Mn122  1  0.75307457  0.33537808  0.74805099  1
  Mn3.34+  Mn123  1  0.74705785  0.83104673  0.08883800  1
  Mn3.34+  Mn124  1  0.75187951  0.83171771  0.41674163  1
  Mn3.34+  Mn125  1  0.74360447  0.83123257  0.74835277  1
  Mn3.34+  Mn126  1  0.24763675  0.33080144  0.25094082  1
  Mn3.34+  Mn127  1  0.25050200  0.33175402  0.58384468  1
  Mn3.34+  Mn128  1  0.24424892  0.32932919  0.91327563  1
  Mn3.34+  Mn129  1  0.25469191  0.83153019  0.25179864  1
  Mn3.34+  Mn130  1  0.25604095  0.83621574  0.58004384  1
  Mn3.34+  Mn131  1  0.25319558  0.83358935  0.91614323  1
  Mn3.34+  Mn132  1  0.58310418  0.33100353  0.25169992  1
  Mn3.34+  Mn133  1  0.58560315  0.33416937  0.57883508  1
  Mn3.34+  Mn134  1  0.58879677  0.33487855  0.91565574  1
  Mn3.34+  Mn135  1  0.58099666  0.82954361  0.25194795  1
  Mn3.34+  Mn136  1  0.58223683  0.83815340  0.58807604  1
  Mn3.34+  Mn137  1  0.58352481  0.82982363  0.91357071  1
  Mn3.34+  Mn138  1  0.91623670  0.33748011  0.25239826  1
  Mn3.34+  Mn139  1  0.91327997  0.33231104  0.58082267  1
  Mn3.34+  Mn140  1  0.91834770  0.33482986  0.91368072  1
  Mn3.34+  Mn141  1  0.91547788  0.83044385  0.25315971  1
  Mn3.34+  Mn142  1  0.91355908  0.83108420  0.58069715  1
  Mn3.34+  Mn143  1  0.91618482  0.82999541  0.91584347  1
  Mn3.34+  Mn144  1  0.07608188  0.65899568  0.74893262  1
  Mn3.34+  Mn145  1  0.91756445  0.17241466  0.25344590  1
  Mn3.34+  Mn146  1  0.91735159  0.16640998  0.58022955  1
  Mn3.34+  Mn147  1  0.75332118  0.16819891  0.74669968  1
  Mn3.34+  Mn148  1  0.74840859  0.66617270  0.08826085  1
  Mn3.34+  Mn149  1  0.42243517  0.66890650  0.08629645  1
  Mn3.34+  Mn150  1  0.24975342  0.66855428  0.91732650  1
  Mn3.34+  Mn151  1  0.74324446  0.66696873  0.41341750  1
  Mn3.34+  Mn152  1  0.40880062  0.17871992  0.41765674  1
  Mn3.34+  Mn153  1  0.58454258  0.16621405  0.58183713  1
  Mn3.34+  Mn154  1  0.25882147  0.66674897  0.57654356  1
  Mn3.34+  Mn155  1  0.41510631  0.17177089  0.08323063  1
  Mn3.34+  Mn156  1  0.75148165  0.66646174  0.75040689  1
  Mn3.34+  Mn157  1  0.58500686  0.17443208  0.25212430  1
  Mn3.34+  Mn158  1  0.42259434  0.66881076  0.41001232  1
  Mn3.34+  Mn159  1  0.74554273  0.16319968  0.08616774  1
  Mn3.34+  Mn160  1  0.57910520  0.17068267  0.90977707  1
  Mn3.34+  Mn161  1  0.08835515  0.66403119  0.75130527  1
  Mn3.34+  Mn162  1  0.08383395  0.66599543  0.41807928  1
  Mn3.34+  Mn163  1  0.24918041  0.66139248  0.57530467  1
  Mn3.34+  Mn164  1  0.41745197  0.17225088  0.41890093  1
  Mn3.34+  Mn165  1  0.91675834  0.65987839  0.91824693  1
  Mn3.34+  Mn166  1  0.75384543  0.16663497  0.42021098  1
  Mn3.34+  Mn167  1  0.92286215  0.16951691  0.91461797  1
  Mn3.34+  Mn168  1  0.57432059  0.66316665  0.57823694  1
  Mn3.34+  Mn169  1  0.56510426  0.16499825  0.90915213  1
  Mn3.34+  Mn170  1  0.58620567  0.66807601  0.91408737  1
  Mn3.34+  Mn171  1  0.08391761  0.16280754  0.75103058  1
  Mn3.34+  Mn172  1  0.25503073  0.16673596  0.91246344  1
  Mn3.34+  Mn173  1  0.25024526  0.16065538  0.58381841  1
  Mn3.34+  Mn174  1  0.75586678  0.16834501  0.08534969  1
  Mn3.34+  Mn175  1  0.57737529  0.18120539  0.25259569  1
  Mn3.34+  Mn176  1  0.07935428  0.66981379  0.08325255  1
  Mn3.34+  Mn177  1  0.41870070  0.66702155  0.74979919  1
  Mn3.34+  Mn178  1  0.09333155  0.15735533  0.75223787  1
  Mn3.34+  Mn179  1  0.91841456  0.66583558  0.24639183  1
  Mn3.34+  Mn180  1  0.24277988  0.49960956  0.59963017  1
  Mn3.34+  Mn181  1  0.40817264  -0.00514103  0.08763133  1
  Mn3.34+  Mn182  1  0.42225871  0.50204021  0.41834098  1
  Mn3.34+  Mn183  1  0.91469324  0.49471212  0.58544718  1
  Mn3.34+  Mn184  1  0.42489630  -0.00304473  0.74498224  1
  Mn3.34+  Mn185  1  0.73899366  -0.00671595  0.73962398  1
  Mn3.34+  Mn186  1  0.07166911  0.50430431  0.08474114  1
  Mn3.34+  Mn187  1  0.25279419  0.50265860  0.90720963  1
  Mn3.34+  Mn188  1  0.59594071  0.49581491  0.25681112  1
  Mn3.34+  Mn189  1  0.72787858  -0.00209200  0.74246683  1
  Mn3.34+  Mn190  1  0.08436966  0.50147355  0.40886957  1
  Mn3.34+  Mn191  1  0.40874148  0.00031058  0.42409574  1
  Mn3.34+  Mn192  1  0.92735140  0.50155058  0.58662675  1
  Mn3.34+  Mn193  1  0.58331860  0.49956687  0.92745895  1
  Mn3.34+  Mn194  1  0.59604191  0.50375166  0.92134697  1
  Mn3.34+  Mn195  1  0.91543851  -0.00016227  0.26894132  1
  Mn3.34+  Mn196  1  0.24623925  -0.00295201  0.25726974  1
  Mn3.34+  Mn197  1  0.25019315  0.00586336  0.91606109  1
  Mn3.34+  Mn198  1  0.41161956  0.00297403  0.74648075  1
  Mn3.34+  Mn199  1  0.41971135  -0.00443910  0.42238831  1
  Mn3.34+  Mn200  1  0.58353883  0.50202185  0.25529632  1
  Mn3.34+  Mn201  1  0.59430792  0.00139048  0.25063176  1
  Mn3.34+  Mn202  1  0.92040511  0.00101991  0.58654087  1
  Mn3.34+  Mn203  1  0.57986813  -0.00434033  0.24965032  1
  Mn3.34+  Mn204  1  0.42222773  0.00031733  0.09047001  1
  Mn3.34+  Mn205  1  0.58986398  -0.00058720  0.91129197  1
  Mn3.34+  Mn206  1  0.91915484  0.00163145  0.91856629  1
  Mn3.34+  Mn207  1  0.08777808  -0.00285512  0.08515242  1
  Mn3.34+  Mn208  1  0.42223683  0.50165737  0.09060125  1
  Mn3.34+  Mn209  1  0.40957975  0.50836784  0.41639045  1
  Mn3.34+  Mn210  1  0.90770520  0.49967388  0.26809525  1
  Mn3.34+  Mn211  1  0.24197902  0.49769086  0.90679963  1
  Mn3.34+  Mn212  1  0.57493848  -0.00584956  0.91085183  1
  Mn3.34+  Mn213  1  0.74654810  0.50239363  0.74538159  1
  Mn3.34+  Mn214  1  0.41802635  0.50271685  0.74040822  1
  Mn3.34+  Mn215  1  0.08266973  0.50081809  0.08806819  1
  O2-  O216  1  -0.00921554  0.16857240  0.00599460  1
  O2-  O217  1  -0.00093138  0.16431680  0.32799281  1
  O2-  O218  1  0.00004467  0.16087211  0.66708930  1
  O2-  O219  1  -0.00545156  0.66664529  0.00452144  1
  O2-  O220  1  -0.00346014  0.66985833  0.33294692  1
  O2-  O221  1  -0.00451312  0.67207762  0.67222224  1
  O2-  O222  1  0.33256457  0.17100096  0.00374532  1
  O2-  O223  1  0.33355852  0.16851812  0.33303082  1
  O2-  O224  1  0.33759540  0.17799638  0.65284801  1
  O2-  O225  1  0.33263916  0.65834072  0.00047808  1
  O2-  O226  1  0.34137758  0.66941282  0.33360162  1
  O2-  O227  1  0.32737187  0.66233439  0.67183277  1
  O2-  O228  1  0.66343849  0.15245487  -0.00631316  1
  O2-  O229  1  0.66620001  0.16463821  0.33600427  1
  O2-  O230  1  0.66544398  0.15966509  0.66682915  1
  O2-  O231  1  0.66803152  0.66154709  -0.00205448  1
  O2-  O232  1  0.67260843  0.67135150  0.32915499  1
  O2-  O233  1  0.66955188  0.66225252  0.66569665  1
  O2-  O234  1  0.17372498  0.17282498  0.00336552  1
  O2-  O235  1  0.16503244  0.16051758  0.33171156  1
  O2-  O236  1  0.16899644  0.17040444  0.66396963  1
  O2-  O237  1  0.17137562  0.66315303  0.00576572  1
  O2-  O238  1  0.15605063  0.67771761  0.33640383  1
  O2-  O239  1  0.16958264  0.66316969  0.66516540  1
  O2-  O240  1  0.50512783  0.17129285  0.00953786  1
  O2-  O241  1  0.49694336  0.16579077  0.33467856  1
  O2-  O242  1  0.49945642  0.16624750  0.65834178  1
  O2-  O243  1  0.50179515  0.66081571  -0.00195125  1
  O2-  O244  1  0.49669523  0.67429483  0.32983283  1
  O2-  O245  1  0.50417867  0.66634024  0.67238199  1
  O2-  O246  1  0.83261531  0.15619482  -0.00597967  1
  O2-  O247  1  0.83185212  0.16543942  0.33281659  1
  O2-  O248  1  0.83551341  0.15798737  0.66736193  1
  O2-  O249  1  0.83310330  0.66407102  -0.00029091  1
  O2-  O250  1  0.83742394  0.66457004  0.33538572  1
  O2-  O251  1  0.82724560  0.66135190  0.66835868  1
  O2-  O252  1  -0.00053927  0.33326252  0.00224135  1
  O2-  O253  1  0.00627494  0.32986577  0.32550901  1
  O2-  O254  1  -0.00036092  0.33563136  0.66898713  1
  O2-  O255  1  0.00058502  0.84562981  -0.00149918  1
  O2-  O256  1  0.00153568  0.82399400  0.33317385  1
  O2-  O257  1  -0.00065921  0.83700708  0.66667694  1
  O2-  O258  1  0.33391154  0.33825884  0.00154105  1
  O2-  O259  1  0.33294284  0.33876259  0.33467723  1
  O2-  O260  1  0.33668880  0.31804369  0.66305300  1
  O2-  O261  1  0.33234105  0.84039498  0.00029648  1
  O2-  O262  1  0.32890707  0.83469709  0.33844485  1
  O2-  O263  1  0.32658881  0.83593315  0.67335874  1
  O2-  O264  1  0.67267571  0.33516470  -0.00305160  1
  O2-  O265  1  0.66213399  0.32482049  0.33594045  1
  O2-  O266  1  0.66122655  0.33667936  0.67155595  1
  O2-  O267  1  0.66773879  0.83787771  0.00142032  1
  O2-  O268  1  0.66245034  0.82765408  0.33778093  1
  O2-  O269  1  0.66751987  0.82781966  0.66600506  1
  O2-  O270  1  0.16991941  0.33565163  0.00779357  1
  O2-  O271  1  0.16745231  0.34238475  0.33614256  1
  O2-  O272  1  0.16395970  0.32490132  0.66032326  1
  O2-  O273  1  0.16260589  0.84381140  -0.00343467  1
  O2-  O274  1  0.16436643  0.83433812  0.33417349  1
  O2-  O275  1  0.16289399  0.84224395  0.66293798  1
  O2-  O276  1  0.49385545  0.33209016  -0.00774534  1
  O2-  O277  1  0.49559832  0.31736589  0.33107277  1
  O2-  O278  1  0.50160600  0.33321657  0.67021220  1
  O2-  O279  1  0.50074669  0.83738326  0.00074348  1
  O2-  O280  1  0.50528853  0.82903717  0.33894300  1
  O2-  O281  1  0.49985621  0.82677782  0.66636277  1
  O2-  O282  1  0.83763845  0.33779074  0.00162680  1
  O2-  O283  1  0.83884193  0.32096328  0.33427885  1
  O2-  O284  1  0.83784329  0.33342277  0.67159013  1
  O2-  O285  1  0.83756623  0.83965858  0.00178397  1
  O2-  O286  1  0.83734152  0.82721115  0.33678039  1
  O2-  O287  1  0.84235048  0.83237168  0.67421422  1
  O2-  O288  1  -0.00584111  0.17298085  0.16904680  1
  O2-  O289  1  -0.00288695  0.16951229  0.50491463  1
  O2-  O290  1  -0.00161372  0.17074542  0.83066151  1
  O2-  O291  1  0.00054576  0.67805751  0.16780661  1
  O2-  O292  1  -0.00440300  0.68344338  0.48654607  1
  O2-  O293  1  -0.00208231  0.67114148  0.83386645  1
  O2-  O294  1  0.33218638  0.17444781  0.15892669  1
  O2-  O295  1  0.32981239  0.18267712  0.50138303  1
  O2-  O296  1  0.33083446  0.18368463  0.83475430  1
  O2-  O297  1  0.33573219  0.67297579  0.16085500  1
  O2-  O298  1  0.33590540  0.67499764  0.49657752  1
  O2-  O299  1  0.33350239  0.67082828  0.83426869  1
  O2-  O300  1  0.66122788  0.17350585  0.16569783  1
  O2-  O301  1  0.66648076  0.16944907  0.50023176  1
  O2-  O302  1  0.66914667  0.16452992  0.83531903  1
  O2-  O303  1  0.66806216  0.67611960  0.16392919  1
  O2-  O304  1  0.66888499  0.67130720  0.50288454  1
  O2-  O305  1  0.66733994  0.66990797  0.83394865  1
  O2-  O306  1  0.16137042  0.16790812  0.16522031  1
  O2-  O307  1  0.17263923  0.17631003  0.50865586  1
  O2-  O308  1  0.16770280  0.17445682  0.83641559  1
  O2-  O309  1  0.16385676  0.67125011  0.16125213  1
  O2-  O310  1  0.16352008  0.68024474  0.50065118  1
  O2-  O311  1  0.16976182  0.67181904  0.82910313  1
  O2-  O312  1  0.49531939  0.18205892  0.16826772  1
  O2-  O313  1  0.49903435  0.18038524  0.49893623  1
  O2-  O314  1  0.49996560  0.18195352  0.82066195  1
  O2-  O315  1  0.50011825  0.67387641  0.16272689  1
  O2-  O316  1  0.49879749  0.67712907  0.50125187  1
  O2-  O317  1  0.49992127  0.67108085  0.83509141  1
  O2-  O318  1  0.83754227  0.17476510  0.17014240  1
  O2-  O319  1  0.83332068  0.17175971  0.50210216  1
  O2-  O320  1  0.83090001  0.16770874  0.83816966  1
  O2-  O321  1  0.83417964  0.67809978  0.16906401  1
  O2-  O322  1  0.82884530  0.66927496  0.49975554  1
  O2-  O323  1  0.83474211  0.67154404  0.83284305  1
  O2-  O324  1  -0.00150126  0.31739037  0.16573770  1
  O2-  O325  1  0.00344854  0.32764339  0.50630477  1
  O2-  O326  1  -0.00078829  0.32725249  0.83338406  1
  O2-  O327  1  -0.00504273  0.82885035  0.16448755  1
  O2-  O328  1  0.00068605  0.81709211  0.50238651  1
  O2-  O329  1  0.00116253  0.83356323  0.83455761  1
  O2-  O330  1  0.33037547  0.32423792  0.16284958  1
  O2-  O331  1  0.33214187  0.32042511  0.49752314  1
  O2-  O332  1  0.34026945  0.32567320  0.83970492  1
  O2-  O333  1  0.32866883  0.82850688  0.16098461  1
  O2-  O334  1  0.32942804  0.82887678  0.49558325  1
  O2-  O335  1  0.33251486  0.83178841  0.83419804  1
  O2-  O336  1  0.66468894  0.31397318  0.17135495  1
  O2-  O337  1  0.66638919  0.33034457  0.49972344  1
  O2-  O338  1  0.66372790  0.33484049  0.82879152  1
  O2-  O339  1  0.66276077  0.81895386  0.16630429  1
  O2-  O340  1  0.66419496  0.82641209  0.49637938  1
  O2-  O341  1  0.67390281  0.82826652  0.84090674  1
  O2-  O342  1  0.16690387  0.32540692  0.16431526  1
  O2-  O343  1  0.17099070  0.32961369  0.49612020  1
  O2-  O344  1  0.15982032  0.32617941  0.83851938  1
  O2-  O345  1  0.16569750  0.83026074  0.16687304  1
  O2-  O346  1  0.16155798  0.82547597  0.50070332  1
  O2-  O347  1  0.16368090  0.83401638  0.83610952  1
  O2-  O348  1  0.49720416  0.31047543  0.17002190  1
  O2-  O349  1  0.49846021  0.32207447  0.50153298  1
  O2-  O350  1  0.49744709  0.32793706  0.83101713  1
  O2-  O351  1  0.50425129  0.81782127  0.16397011  1
  O2-  O352  1  0.50742745  0.82925675  0.49377880  1
  O2-  O353  1  0.49484542  0.82643998  0.83882664  1
  O2-  O354  1  0.83881390  0.32333756  0.16467656  1
  O2-  O355  1  0.83426449  0.32129706  0.50049765  1
  O2-  O356  1  0.83257493  0.33181030  0.83441503  1
  O2-  O357  1  0.83977341  0.82411204  0.16315766  1
  O2-  O358  1  0.83570355  0.82274141  0.49850689  1
  O2-  O359  1  0.83873452  0.83353204  0.83211534  1
  O2-  O360  1  0.07677821  0.07721940  0.11456604  1
  O2-  O361  1  0.08176972  0.07547592  0.43306463  1
  O2-  O362  1  0.07437707  0.07776778  0.75613451  1
  O2-  O363  1  0.08436507  0.58618715  0.10167719  1
  O2-  O364  1  0.06082414  0.58111508  0.42761280  1
  O2-  O365  1  0.08473233  0.57882095  0.76453291  1
  O2-  O366  1  0.42166642  0.08210044  0.10741676  1
  O2-  O367  1  0.41846970  0.08359003  0.44422467  1
  O2-  O368  1  0.42266223  0.08197875  0.75544742  1
  O2-  O369  1  0.40913470  0.58447945  0.10102096  1
  O2-  O370  1  0.42027456  0.58687752  0.42666503  1
  O2-  O371  1  0.41405577  0.58156549  0.77087178  1
  O2-  O372  1  0.75505391  0.08038375  0.10648280  1
  O2-  O373  1  0.74845430  0.08458146  0.43258005  1
  O2-  O374  1  0.75343682  0.07832726  0.77908655  1
  O2-  O375  1  0.75173442  0.58568239  0.10383937  1
  O2-  O376  1  0.76674217  0.58316596  0.43950736  1
  O2-  O377  1  0.75157342  0.58152346  0.77076809  1
  O2-  O378  1  0.25126060  0.07465946  0.21746307  1
  O2-  O379  1  0.27022475  0.08252516  0.55877121  1
  O2-  O380  1  0.25218990  0.08532290  0.91822249  1
  O2-  O381  1  0.24420743  0.56885496  0.21943442  1
  O2-  O382  1  0.24985552  0.57894829  0.57034488  1
  O2-  O383  1  0.25172500  0.58416751  0.89512352  1
  O2-  O384  1  0.58043193  0.08335565  0.22472816  1
  O2-  O385  1  0.56339437  0.08543753  0.56154534  1
  O2-  O386  1  0.58335198  0.08055737  0.89276105  1
  O2-  O387  1  0.58569207  0.57714720  0.22769036  1
  O2-  O388  1  0.60200367  0.58270377  0.57946617  1
  O2-  O389  1  0.58120795  0.58264800  0.89586026  1
  O2-  O390  1  0.91192940  0.07362038  0.21943246  1
  O2-  O391  1  0.91289694  0.08116153  0.56509035  1
  O2-  O392  1  0.90843643  0.08332154  0.89719317  1
  O2-  O393  1  0.91808917  0.57556203  0.22473177  1
  O2-  O394  1  0.90717933  0.57948252  0.55947385  1
  O2-  O395  1  0.90543116  0.58112696  0.90130174  1
  O2-  O396  1  0.09139877  0.41799233  0.10447629  1
  O2-  O397  1  0.09535652  0.41995893  0.43864385  1
  O2-  O398  1  0.07452045  0.41629994  0.76416313  1
  O2-  O399  1  0.07798842  0.91634845  0.10210976  1
  O2-  O400  1  0.07928183  0.92012203  0.44065336  1
  O2-  O401  1  0.07017724  0.92015150  0.77394855  1
  O2-  O402  1  0.39904798  0.41871795  0.10529274  1
  O2-  O403  1  0.41410931  0.42015038  0.43944094  1
  O2-  O404  1  0.42550065  0.42251570  0.77765762  1
  O2-  O405  1  0.42106060  0.91399627  0.09459939  1
  O2-  O406  1  0.41880087  0.91406749  0.42502597  1
  O2-  O407  1  0.40964999  0.91896904  0.76924953  1
  O2-  O408  1  0.76220978  0.41756348  0.09083645  1
  O2-  O409  1  0.74390531  0.41568460  0.42292407  1
  O2-  O410  1  0.73996766  0.42150505  0.77131811  1
  O2-  O411  1  0.76051187  0.91564832  0.09082804  1
  O2-  O412  1  0.74351437  0.91340412  0.42655838  1
  O2-  O413  1  0.76642682  0.91542355  0.76874940  1
  O2-  O414  1  0.25114673  0.41621059  0.22730444  1
  O2-  O415  1  0.25587983  0.42428352  0.55105715  1
  O2-  O416  1  0.25863633  0.41464066  0.90574265  1
  O2-  O417  1  0.23866494  0.91770586  0.23459246  1
  O2-  O418  1  0.23547835  0.91804031  0.56439992  1
  O2-  O419  1  0.23858160  0.92289161  0.89256481  1
  O2-  O420  1  0.56797469  0.41803636  0.23877346  1
  O2-  O421  1  0.56980812  0.41577996  0.57761388  1
  O2-  O422  1  0.56949442  0.42048146  0.89603476  1
  O2-  O423  1  0.58458214  0.91584663  0.23092989  1
  O2-  O424  1  0.58278350  0.91854863  0.56190119  1
  O2-  O425  1  0.58230048  0.91331557  0.90875373  1
  O2-  O426  1  0.92835679  0.42657323  0.21404919  1
  O2-  O427  1  0.92469772  0.41551102  0.57531104  1
  O2-  O428  1  0.91818782  0.41637824  0.90426906  1
  O2-  O429  1  0.92390077  0.92492154  0.22640758  1
  O2-  O430  1  0.92975802  0.92003845  0.56142916  1
  O2-  O431  1  0.92377591  0.91921128  0.89586296  1
  O2-  O432  1  -0.00606431  0.00064240  0.01201763  1
  O2-  O433  1  0.00388753  0.00576623  0.32360377  1
  O2-  O434  1  -0.00098246  -0.00839853  0.66286088  1
  O2-  O435  1  -0.01054788  0.49208094  0.00992674  1
  O2-  O436  1  0.00424773  0.50018480  0.32510188  1
  O2-  O437  1  -0.00290665  0.49864155  0.67239193  1
  O2-  O438  1  0.33120493  -0.00305531  0.00313613  1
  O2-  O439  1  0.33050891  0.00906813  0.33664024  1
  O2-  O440  1  0.33290185  0.00465971  0.66994520  1
  O2-  O441  1  0.32849848  0.49821052  0.00126718  1
  O2-  O442  1  0.33260934  0.48669761  0.33868008  1
  O2-  O443  1  0.33329050  0.49842432  0.66478733  1
  O2-  O444  1  0.67209763  0.01157030  -0.00865046  1
  O2-  O445  1  0.66259183  0.00649888  0.34155053  1
  O2-  O446  1  0.66204683  0.01972683  0.65775641  1
  O2-  O447  1  0.68287820  0.50401656  -0.00918402  1
  O2-  O448  1  0.66860721  0.50207119  0.33322123  1
  O2-  O449  1  0.65880254  0.50035838  0.68266517  1
  O2-  O450  1  0.16455461  -0.00625237  -0.00184841  1
  O2-  O451  1  0.16119037  0.00636986  0.32047534  1
  O2-  O452  1  0.15245098  -0.00770549  0.64778784  1
  O2-  O453  1  0.16626476  0.49854892  -0.00047508  1
  O2-  O454  1  0.16798974  0.48965974  0.34212256  1
  O2-  O455  1  0.16297155  0.49731579  0.66325835  1
  O2-  O456  1  0.50318212  0.00497436  0.00443673  1
  O2-  O457  1  0.49913269  0.00869268  0.33591724  1
  O2-  O458  1  0.49689105  0.01082791  0.66500829  1
  O2-  O459  1  0.48819149  0.49806573  -0.01352577  1
  O2-  O460  1  0.50152384  0.50210323  0.32970510  1
  O2-  O461  1  0.51037050  0.49403597  0.68582429  1
  O2-  O462  1  0.83493131  0.00895529  -0.00524627  1
  O2-  O463  1  0.83693237  0.00658371  0.33785160  1
  O2-  O464  1  0.83995907  0.00242176  0.67538418  1
  O2-  O465  1  0.83948287  0.49813124  0.00934765  1
  O2-  O466  1  0.83540253  0.51713606  0.33905210  1
  O2-  O467  1  0.83238801  0.50426712  0.66786843  1
  O2-  O468  1  0.41347726  0.75101718  0.41793584  1
  O2-  O469  1  0.24813061  0.25074650  0.92492064  1
  O2-  O470  1  0.59047950  0.25161457  0.92268782  1
  O2-  O471  1  0.58907155  0.25013689  0.59047782  1
  O2-  O472  1  0.08228634  0.25277298  0.41204726  1
  O2-  O473  1  0.91888693  0.74952151  0.92149377  1
  O2-  O474  1  0.74931884  0.25048188  0.06878294  1
  O2-  O475  1  0.41169885  0.74984358  0.06738231  1
  O2-  O476  1  0.74664637  0.24952535  0.41654312  1
  O2-  O477  1  0.25201464  0.75286915  0.25085905  1
  O2-  O478  1  0.75298227  0.75025017  0.06907829  1
  O2-  O479  1  0.08475978  0.75189154  0.07157660  1
  O2-  O480  1  0.75146521  0.74949128  0.74972789  1
  O2-  O481  1  0.08103741  0.24556296  0.74918075  1
  O2-  O482  1  0.58367050  0.74898790  0.92559611  1
  O2-  O483  1  0.91689986  0.24921532  0.59217572  1
  O2-  O484  1  0.75116249  0.74885566  0.41564359  1
  O2-  O485  1  0.08713707  0.74861828  0.74706012  1
  O2-  O486  1  0.58523467  0.74908161  0.58831398  1
  O2-  O487  1  0.41255235  0.74975069  0.74848789  1
  O2-  O488  1  0.74558362  0.25146311  0.75069548  1
  O2-  O489  1  0.91157340  0.25040335  0.92311540  1
  O2-  O490  1  0.24629119  0.75096362  0.92119539  1
  O2-  O491  1  0.24633832  0.25261592  0.25838124  1
  O2-  O492  1  0.24857564  0.74926537  0.59453331  1
