# generated using pymatgen
data_Ca108Mn108O277
_symmetry_space_group_name_H-M   'P 1'
_cell_length_a   16.03101048
_cell_length_b   22.31157690
_cell_length_c   16.39402147
_cell_angle_alpha   89.99952457
_cell_angle_beta   90.00365237
_cell_angle_gamma   90.00472043
_symmetry_Int_Tables_number   1
_chemical_formula_structural   Ca108Mn108O277
_chemical_formula_sum   'Ca108 Mn108 O277'
_cell_volume   5863.76640434
_cell_formula_units_Z   1
loop_
 _symmetry_equiv_pos_site_id
 _symmetry_equiv_pos_as_xyz
  1  'x, y, z'
loop_
 _atom_type_symbol
 _atom_type_oxidation_number
  Ca2+  2.0
  Mn3.34+  3.34
  O2-  -2.0
loop_
 _atom_site_type_symbol
 _atom_site_label
 _atom_site_symmetry_multiplicity
 _atom_site_fract_x
 _atom_site_fract_y
 _atom_site_fract_z
 _atom_site_occupancy
  Ca2+  Ca0  1  0.08111090  0.25586082  0.25034597  1
  Ca2+  Ca1  1  0.10270837  0.25045490  0.57245625  1
  Ca2+  Ca2  1  0.08363527  0.25936924  0.92441178  1
  Ca2+  Ca3  1  0.10155753  0.74360754  0.23641105  1
  Ca2+  Ca4  1  0.08357601  0.74702358  0.60305228  1
  Ca2+  Ca5  1  0.09036901  0.75725985  0.91346121  1
  Ca2+  Ca6  1  0.42904771  0.24572869  0.25346484  1
  Ca2+  Ca7  1  0.39644736  0.25010594  0.59375015  1
  Ca2+  Ca8  1  0.42656896  0.23600911  0.90095821  1
  Ca2+  Ca9  1  0.41821392  0.74240338  0.23302303  1
  Ca2+  Ca10  1  0.43357236  0.75130776  0.58778623  1
  Ca2+  Ca11  1  0.42158340  0.74621226  0.94441067  1
  Ca2+  Ca12  1  0.73675024  0.26324212  0.23825829  1
  Ca2+  Ca13  1  0.74735100  0.26680513  0.59025788  1
  Ca2+  Ca14  1  0.73005799  0.24813185  0.91841131  1
  Ca2+  Ca15  1  0.73280677  0.73893352  0.26096876  1
  Ca2+  Ca16  1  0.73279530  0.74749419  0.56802488  1
  Ca2+  Ca17  1  0.74790507  0.75761726  0.91483492  1
  Ca2+  Ca18  1  0.24410419  0.23411879  0.08884404  1
  Ca2+  Ca19  1  0.25318673  0.25040031  0.42358811  1
  Ca2+  Ca20  1  0.27728548  0.25394958  0.74403090  1
  Ca2+  Ca21  1  0.27046295  0.75010208  0.10443941  1
  Ca2+  Ca22  1  0.25554846  0.74590625  0.39155017  1
  Ca2+  Ca23  1  0.23303648  0.74668765  0.76274138  1
  Ca2+  Ca24  1  0.58098053  0.23329679  0.08527310  1
  Ca2+  Ca25  1  0.56895781  0.25352052  0.39720447  1
  Ca2+  Ca26  1  0.57457823  0.26192793  0.76192119  1
  Ca2+  Ca27  1  0.55962631  0.75341925  0.10444767  1
  Ca2+  Ca28  1  0.58945797  0.73626941  0.40638382  1
  Ca2+  Ca29  1  0.57326926  0.75373841  0.74477194  1
  Ca2+  Ca30  1  0.91736894  0.24267912  0.08955462  1
  Ca2+  Ca31  1  0.93135692  0.26692390  0.41228077  1
  Ca2+  Ca32  1  0.90516702  0.26270324  0.75863323  1
  Ca2+  Ca33  1  0.93309331  0.75623613  0.09018975  1
  Ca2+  Ca34  1  0.91873313  0.75103693  0.40871688  1
  Ca2+  Ca35  1  0.94124920  0.75607957  0.75754234  1
  Ca2+  Ca36  1  0.28290700  0.10710206  0.75773571  1
  Ca2+  Ca37  1  0.56478635  0.07787978  0.37031719  1
  Ca2+  Ca38  1  0.25256972  0.10805305  0.41588843  1
  Ca2+  Ca39  1  0.94739121  0.57527320  0.71988634  1
  Ca2+  Ca40  1  0.71984767  0.61253719  0.56057681  1
  Ca2+  Ca41  1  0.91145460  0.58129783  0.41321029  1
  Ca2+  Ca42  1  0.72942354  0.58799435  0.26342417  1
  Ca2+  Ca43  1  0.08047950  0.57988310  0.91614160  1
  Ca2+  Ca44  1  0.71192809  0.10450496  0.23758239  1
  Ca2+  Ca45  1  0.11407450  0.10351730  0.24728960  1
  Ca2+  Ca46  1  0.55492116  0.60960788  0.09716773  1
  Ca2+  Ca47  1  0.28928444  0.11030321  0.75086571  1
  Ca2+  Ca48  1  0.11748734  0.09398905  0.56241680  1
  Ca2+  Ca49  1  0.56773571  0.11034615  0.76439913  1
  Ca2+  Ca50  1  0.09333218  0.57995352  0.91560465  1
  Ca2+  Ca51  1  0.72843022  0.06625510  0.59727742  1
  Ca2+  Ca52  1  0.40608661  0.60367547  0.24477766  1
  Ca2+  Ca53  1  0.94720917  0.07470257  0.39642600  1
  Ca2+  Ca54  1  0.25996672  0.60868060  0.10409130  1
  Ca2+  Ca55  1  0.25781543  0.58782310  0.74430826  1
  Ca2+  Ca56  1  0.60337372  0.60057065  0.41457747  1
  Ca2+  Ca57  1  0.92490742  0.58128000  0.08773523  1
  Ca2+  Ca58  1  0.57032614  0.58761367  0.75237395  1
  Ca2+  Ca59  1  0.73883456  0.06873306  0.60036587  1
  Ca2+  Ca60  1  0.09465770  0.08832727  0.93966715  1
  Ca2+  Ca61  1  0.90390396  0.58709320  0.41291137  1
  Ca2+  Ca62  1  0.38693369  0.11006991  0.57171129  1
  Ca2+  Ca63  1  0.89736764  0.09451672  0.75536584  1
  Ca2+  Ca64  1  0.41048532  0.10729325  0.24180844  1
  Ca2+  Ca65  1  0.72234944  0.58441495  0.25761272  1
  Ca2+  Ca66  1  0.43426036  0.59197820  0.60028584  1
  Ca2+  Ca67  1  0.10379339  0.10219532  0.24834992  1
  Ca2+  Ca68  1  0.71911051  0.10680516  0.91677445  1
  Ca2+  Ca69  1  0.55808048  0.58988031  0.75468837  1
  Ca2+  Ca70  1  0.56113876  0.60514665  0.10278192  1
  Ca2+  Ca71  1  0.72093322  0.10733925  0.23411961  1
  Ca2+  Ca72  1  0.44330338  0.92212679  0.24744990  1
  Ca2+  Ca73  1  0.60200768  0.91182871  0.72857740  1
  Ca2+  Ca74  1  0.89435110  0.40679963  0.09204891  1
  Ca2+  Ca75  1  0.60520837  0.41430941  0.09581739  1
  Ca2+  Ca76  1  0.74983332  0.91038498  0.25613928  1
  Ca2+  Ca77  1  0.58437219  0.41518698  0.39061332  1
  Ca2+  Ca78  1  0.06145509  0.41152605  0.57562296  1
  Ca2+  Ca79  1  0.73741849  0.90797422  0.25518110  1
  Ca2+  Ca80  1  0.77040114  0.41744208  0.58851715  1
  Ca2+  Ca81  1  0.73825142  0.41212521  0.92086977  1
  Ca2+  Ca82  1  0.44100438  0.91035442  0.59123233  1
  Ca2+  Ca83  1  0.92024410  0.90224086  0.08592869  1
  Ca2+  Ca84  1  0.24298523  0.91680892  0.40330615  1
  Ca2+  Ca85  1  0.58872197  0.91562694  0.41199044  1
  Ca2+  Ca86  1  0.26642572  0.91154537  0.08183920  1
  Ca2+  Ca87  1  0.42433414  0.40597396  0.26265378  1
  Ca2+  Ca88  1  0.08958731  0.90953813  0.92433797  1
  Ca2+  Ca89  1  0.24034958  0.39701109  0.08309258  1
  Ca2+  Ca90  1  0.41615217  0.39943011  0.90628072  1
  Ca2+  Ca91  1  0.43992005  0.92076058  0.23801452  1
  Ca2+  Ca92  1  0.74901414  0.41167087  0.92108587  1
  Ca2+  Ca93  1  0.07027180  0.41055963  0.58116404  1
  Ca2+  Ca94  1  0.07101562  0.90303686  0.57423114  1
  Ca2+  Ca95  1  0.90443136  0.40967097  0.08965248  1
  Ca2+  Ca96  1  0.59832272  0.91915686  0.41385214  1
  Ca2+  Ca97  1  0.92471058  0.91365144  0.40191947  1
  Ca2+  Ca98  1  0.26219019  0.90427583  0.75266596  1
  Ca2+  Ca99  1  0.25098272  0.39585857  0.08244742  1
  Ca2+  Ca100  1  0.23103884  0.92005341  0.40590819  1
  Ca2+  Ca101  1  0.08356331  0.90429250  0.57560749  1
  Ca2+  Ca102  1  0.74658170  0.89323131  0.90420047  1
  Ca2+  Ca103  1  0.24935805  0.90404219  0.75263296  1
  Ca2+  Ca104  1  0.25771752  0.40280270  0.75524916  1
  Ca2+  Ca105  1  0.91538900  0.41695320  0.74080469  1
  Ca2+  Ca106  1  0.08456584  0.40584271  0.25519887  1
  Ca2+  Ca107  1  0.08387332  0.91049935  0.25729073  1
  Mn3.34+  Mn108  1  0.07804222  0.33402452  0.08212798  1
  Mn3.34+  Mn109  1  0.08778193  0.33714295  0.41441738  1
  Mn3.34+  Mn110  1  0.08479437  0.33459432  0.75169243  1
  Mn3.34+  Mn111  1  0.08886284  0.83466736  0.08440288  1
  Mn3.34+  Mn112  1  0.08328199  0.82500293  0.41790066  1
  Mn3.34+  Mn113  1  0.08102948  0.83460542  0.75500359  1
  Mn3.34+  Mn114  1  0.41926315  0.32528746  0.08342800  1
  Mn3.34+  Mn115  1  0.41485773  0.33446175  0.42400003  1
  Mn3.34+  Mn116  1  0.42357596  0.34246330  0.74356349  1
  Mn3.34+  Mn117  1  0.42170495  0.83963791  0.08134966  1
  Mn3.34+  Mn118  1  0.41621798  0.83262704  0.42084720  1
  Mn3.34+  Mn119  1  0.42034386  0.82827649  0.75544190  1
  Mn3.34+  Mn120  1  0.74617664  0.33291359  0.08554201  1
  Mn3.34+  Mn121  1  0.74768071  0.33647606  0.41691582  1
  Mn3.34+  Mn122  1  0.74290845  0.33692290  0.74935860  1
  Mn3.34+  Mn123  1  0.74572794  0.82765490  0.08455553  1
  Mn3.34+  Mn124  1  0.75287744  0.82977825  0.42362508  1
  Mn3.34+  Mn125  1  0.75790080  0.82897039  0.74176142  1
  Mn3.34+  Mn126  1  0.25433176  0.33329918  0.25172902  1
  Mn3.34+  Mn127  1  0.25164648  0.33484709  0.58094705  1
  Mn3.34+  Mn128  1  0.24952931  0.32783785  0.91150629  1
  Mn3.34+  Mn129  1  0.25614432  0.83534491  0.24559539  1
  Mn3.34+  Mn130  1  0.25402550  0.82970846  0.57660004  1
  Mn3.34+  Mn131  1  0.25759503  0.83881518  0.92154031  1
  Mn3.34+  Mn132  1  0.58090263  0.33416583  0.24592691  1
  Mn3.34+  Mn133  1  0.58023776  0.33280017  0.57867146  1
  Mn3.34+  Mn134  1  0.57715508  0.33364567  0.91903222  1
  Mn3.34+  Mn135  1  0.58342297  0.82968652  0.25121001  1
  Mn3.34+  Mn136  1  0.59007067  0.83688681  0.57811125  1
  Mn3.34+  Mn137  1  0.57901893  0.83487040  0.91543455  1
  Mn3.34+  Mn138  1  0.91251899  0.33284925  0.25727400  1
  Mn3.34+  Mn139  1  0.91407026  0.33471819  0.58265538  1
  Mn3.34+  Mn140  1  0.91913582  0.33585835  0.91315030  1
  Mn3.34+  Mn141  1  0.91750836  0.82883015  0.24828905  1
  Mn3.34+  Mn142  1  0.90581389  0.83180399  0.58428103  1
  Mn3.34+  Mn143  1  0.91603727  0.83377176  0.91619754  1
  Mn3.34+  Mn144  1  0.25208485  0.66891330  0.57829808  1
  Mn3.34+  Mn145  1  0.41643178  0.66998201  0.75509283  1
  Mn3.34+  Mn146  1  0.41591693  0.15651354  0.08475223  1
  Mn3.34+  Mn147  1  0.91083083  0.16727905  0.57999676  1
  Mn3.34+  Mn148  1  0.41908105  0.66391869  0.42121898  1
  Mn3.34+  Mn149  1  0.74806770  0.16936667  0.75390297  1
  Mn3.34+  Mn150  1  0.91118891  0.67373088  0.57891417  1
  Mn3.34+  Mn151  1  0.91058761  0.65984566  0.91065868  1
  Mn3.34+  Mn152  1  0.07304353  0.16534850  0.75420556  1
  Mn3.34+  Mn153  1  0.91565109  0.17097175  0.92235194  1
  Mn3.34+  Mn154  1  0.24155571  0.66431621  0.57834764  1
  Mn3.34+  Mn155  1  0.24981001  0.66564176  0.92016486  1
  Mn3.34+  Mn156  1  0.75096797  0.17250064  0.07744942  1
  Mn3.34+  Mn157  1  0.25992284  0.66069485  0.91805431  1
  Mn3.34+  Mn158  1  0.74912443  0.66652797  0.07896898  1
  Mn3.34+  Mn159  1  0.92409708  0.66583926  0.91260929  1
  Mn3.34+  Mn160  1  0.08585261  0.66571470  0.08892915  1
  Mn3.34+  Mn161  1  0.74422003  0.67492420  0.74838543  1
  Mn3.34+  Mn162  1  0.40856690  0.65958162  0.42113862  1
  Mn3.34+  Mn163  1  0.08750956  0.17110121  0.75399678  1
  Mn3.34+  Mn164  1  0.92152985  0.66552246  0.24854454  1
  Mn3.34+  Mn165  1  0.75193516  0.66795531  0.74956815  1
  Mn3.34+  Mn166  1  0.08751158  0.65713195  0.41776460  1
  Mn3.34+  Mn167  1  0.75783329  0.17664572  0.41753310  1
  Mn3.34+  Mn168  1  0.25352380  0.16814852  0.92665028  1
  Mn3.34+  Mn169  1  0.91644236  0.16541522  0.24601711  1
  Mn3.34+  Mn170  1  0.08226835  0.16778012  0.08317965  1
  Mn3.34+  Mn171  1  0.74713914  0.16850753  0.42116250  1
  Mn3.34+  Mn172  1  0.41371368  0.17030085  0.40982315  1
  Mn3.34+  Mn173  1  0.08617854  0.16936856  0.41487031  1
  Mn3.34+  Mn174  1  0.58765104  0.16897185  0.57857855  1
  Mn3.34+  Mn175  1  0.57558048  0.16142725  0.57539597  1
  Mn3.34+  Mn176  1  0.92333952  0.66588765  0.57766176  1
  Mn3.34+  Mn177  1  0.92124445  0.16167501  0.57830157  1
  Mn3.34+  Mn178  1  0.58480275  0.66977966  0.91462778  1
  Mn3.34+  Mn179  1  0.75854065  0.66106424  0.08177851  1
  Mn3.34+  Mn180  1  0.25319263  0.00081857  0.24755666  1
  Mn3.34+  Mn181  1  0.73778792  -0.00124804  0.08326802  1
  Mn3.34+  Mn182  1  0.43581346  -0.00460736  0.76066368  1
  Mn3.34+  Mn183  1  0.75011374  0.50353611  0.74516016  1
  Mn3.34+  Mn184  1  0.57120077  0.48697455  0.58493300  1
  Mn3.34+  Mn185  1  0.27407224  0.49767804  0.57694697  1
  Mn3.34+  Mn186  1  0.91621829  -0.00010545  0.24621402  1
  Mn3.34+  Mn187  1  0.58665204  0.50113980  0.92755643  1
  Mn3.34+  Mn188  1  0.25474705  0.49438657  0.91497079  1
  Mn3.34+  Mn189  1  0.74866919  0.00378778  0.08359622  1
  Mn3.34+  Mn190  1  0.75703725  0.00097243  0.42350514  1
  Mn3.34+  Mn191  1  0.91262241  0.49880105  0.92405126  1
  Mn3.34+  Mn192  1  0.55276250  0.00059421  0.93775797  1
  Mn3.34+  Mn193  1  0.90674125  -0.00422413  0.58106647  1
  Mn3.34+  Mn194  1  0.41820322  0.49969266  0.40935107  1
  Mn3.34+  Mn195  1  0.25833738  0.50111189  0.57576718  1
  Mn3.34+  Mn196  1  0.08686893  0.00009458  0.08024171  1
  Mn3.34+  Mn197  1  0.41178780  -0.00032577  0.42388505  1
  Mn3.34+  Mn198  1  0.58327001  0.49353554  0.58044250  1
  Mn3.34+  Mn199  1  0.09042729  0.50356598  0.08430328  1
  Mn3.34+  Mn200  1  0.92487056  0.50188601  0.25541913  1
  Mn3.34+  Mn201  1  0.74921654  -0.00115051  0.75921623  1
  Mn3.34+  Mn202  1  0.09038157  0.49262664  0.74285657  1
  Mn3.34+  Mn203  1  0.08269381  0.00657404  0.74510569  1
  Mn3.34+  Mn204  1  0.56394189  -0.00762474  0.93831355  1
  Mn3.34+  Mn205  1  0.25282821  0.49729028  0.27195428  1
  Mn3.34+  Mn206  1  0.90752799  0.00431301  0.91403119  1
  Mn3.34+  Mn207  1  0.40695165  0.49843695  0.09224650  1
  Mn3.34+  Mn208  1  0.75227601  0.49219865  0.40569131  1
  Mn3.34+  Mn209  1  0.42570941  -0.00046157  0.76534414  1
  Mn3.34+  Mn210  1  0.26223549  0.00558526  0.93702424  1
  Mn3.34+  Mn211  1  0.41987655  0.49165076  0.09468784  1
  Mn3.34+  Mn212  1  0.06921699  -0.00046350  0.74531859  1
  Mn3.34+  Mn213  1  0.26283384  -0.00449442  0.58537415  1
  Mn3.34+  Mn214  1  0.91948148  -0.00274183  0.91231520  1
  Mn3.34+  Mn215  1  0.09066127  0.50673388  0.40761441  1
  O2-  O216  1  0.00507277  0.15483882  -0.00545958  1
  O2-  O217  1  0.00515107  0.14940768  0.32436442  1
  O2-  O218  1  -0.00044087  0.13548221  0.66854545  1
  O2-  O219  1  0.00168201  0.64150373  -0.00093388  1
  O2-  O220  1  -0.01106257  0.65541157  0.34796783  1
  O2-  O221  1  -0.00957911  0.67203157  0.66847554  1
  O2-  O222  1  0.33444628  0.17821779  0.00264099  1
  O2-  O223  1  0.33444280  0.16526352  0.33273660  1
  O2-  O224  1  0.33316486  0.16724119  0.66734628  1
  O2-  O225  1  0.33636254  0.66097715  -0.00039266  1
  O2-  O226  1  0.32996470  0.65268320  0.34432961  1
  O2-  O227  1  0.33573755  0.65472356  0.65876060  1
  O2-  O228  1  0.66892067  0.16959165  0.00456361  1
  O2-  O229  1  0.66541254  0.15987661  0.34149754  1
  O2-  O230  1  0.66707309  0.14499579  0.66194409  1
  O2-  O231  1  0.67845599  0.67915588  -0.01032278  1
  O2-  O232  1  0.67605599  0.66212886  0.32806924  1
  O2-  O233  1  0.66059016  0.67347773  0.66796884  1
  O2-  O234  1  0.16949188  0.15502556  0.00785285  1
  O2-  O235  1  0.16648165  0.16900071  0.33515702  1
  O2-  O236  1  0.16478003  0.13850842  0.68090045  1
  O2-  O237  1  0.16551140  0.64256533  -0.00119024  1
  O2-  O238  1  0.14722675  0.69590766  0.34353406  1
  O2-  O239  1  0.17576441  0.66875229  0.67066661  1
  O2-  O240  1  0.48331609  0.18017438  0.01013599  1
  O2-  O241  1  0.49414644  0.15879896  0.33149463  1
  O2-  O242  1  0.49862535  0.14302032  0.65109886  1
  O2-  O243  1  0.51718905  0.67489837  0.00359168  1
  O2-  O244  1  0.49946907  0.64431316  0.34503430  1
  O2-  O245  1  0.50282315  0.66335299  0.67852525  1
  O2-  O246  1  0.83042493  0.15196214  -0.00688390  1
  O2-  O247  1  0.83463578  0.15102394  0.33693000  1
  O2-  O248  1  0.82337051  0.14445929  0.65694227  1
  O2-  O249  1  0.84059054  0.65488997  0.00045229  1
  O2-  O250  1  0.83256174  0.64619956  0.31992915  1
  O2-  O251  1  0.82632654  0.65773094  0.65610892  1
  O2-  O252  1  -0.00848143  0.35700100  0.00631274  1
  O2-  O253  1  0.00028263  0.34655527  0.33479775  1
  O2-  O254  1  -0.00182552  0.35086160  0.67040473  1
  O2-  O255  1  0.00111117  0.85022060  0.00245411  1
  O2-  O256  1  -0.00074327  0.84306435  0.33609415  1
  O2-  O257  1  0.00099561  0.84059948  0.66417225  1
  O2-  O258  1  0.33233712  0.33948375  0.00109892  1
  O2-  O259  1  0.34018824  0.33326577  0.32634303  1
  O2-  O260  1  0.32799891  0.34046130  0.67113913  1
  O2-  O261  1  0.33595365  0.84118456  0.00474697  1
  O2-  O262  1  0.33681331  0.86013492  0.33289192  1
  O2-  O263  1  0.33680300  0.85145940  0.65909609  1
  O2-  O264  1  0.66959399  0.34475215  -0.00235036  1
  O2-  O265  1  0.66584605  0.33692818  0.33257707  1
  O2-  O266  1  0.67407142  0.34930718  0.65450400  1
  O2-  O267  1  0.66874154  0.81976905  -0.00444563  1
  O2-  O268  1  0.66916805  0.83754086  0.33709879  1
  O2-  O269  1  0.66843658  0.81691427  0.66321177  1
  O2-  O270  1  0.16339028  0.34382864  -0.00165967  1
  O2-  O271  1  0.16606016  0.33175244  0.32700530  1
  O2-  O272  1  0.15895170  0.35776151  0.65960803  1
  O2-  O273  1  0.17027220  0.85289338  0.00103592  1
  O2-  O274  1  0.17325369  0.84270055  0.33747544  1
  O2-  O275  1  0.16873707  0.84668349  0.66543194  1
  O2-  O276  1  0.50196651  0.35108111  0.00630290  1
  O2-  O277  1  0.50356567  0.34144135  0.33459422  1
  O2-  O278  1  0.50270904  0.34350632  0.66205243  1
  O2-  O279  1  0.50447244  0.82589151  0.00190821  1
  O2-  O280  1  0.50289668  0.85656354  0.34029494  1
  O2-  O281  1  0.50906916  0.83718744  0.66885155  1
  O2-  O282  1  0.83069801  0.35094775  -0.00361134  1
  O2-  O283  1  0.82625832  0.31364838  0.33578262  1
  O2-  O284  1  0.83461687  0.34676917  0.67008970  1
  O2-  O285  1  0.82965073  0.83824318  0.00015164  1
  O2-  O286  1  0.82914831  0.84237460  0.33308818  1
  O2-  O287  1  0.83688242  0.78908822  0.66649041  1
  O2-  O288  1  0.00019090  0.17235540  0.16865024  1
  O2-  O289  1  -0.00324572  0.17953242  0.49325883  1
  O2-  O290  1  -0.00349684  0.18923615  0.83146412  1
  O2-  O291  1  0.00060066  0.68310063  0.16396562  1
  O2-  O292  1  0.00253485  0.69685824  0.50505764  1
  O2-  O293  1  0.00580122  0.67421284  0.83832078  1
  O2-  O294  1  0.34624814  0.18898028  0.15710705  1
  O2-  O295  1  0.33477753  0.18040997  0.49087376  1
  O2-  O296  1  0.32302928  0.18030709  0.83808033  1
  O2-  O297  1  0.33498307  0.67434674  0.17284748  1
  O2-  O298  1  0.33161716  0.69195255  0.49977053  1
  O2-  O299  1  0.32315324  0.67911035  0.82402494  1
  O2-  O300  1  0.67612622  0.18330361  0.16370484  1
  O2-  O301  1  0.66845989  0.19154069  0.50126803  1
  O2-  O302  1  0.66737054  0.17957906  0.82616118  1
  O2-  O303  1  0.66417771  0.68266962  0.15460999  1
  O2-  O304  1  0.66554995  0.68406698  0.49189428  1
  O2-  O305  1  0.66368437  0.69539455  0.83091809  1
  O2-  O306  1  0.15393993  0.18241231  0.17185863  1
  O2-  O307  1  0.16270464  0.17753360  0.49516220  1
  O2-  O308  1  0.16333640  0.17035312  0.84007001  1
  O2-  O309  1  0.17221884  0.68116481  0.15287520  1
  O2-  O310  1  0.16291486  0.68857810  0.50230919  1
  O2-  O311  1  0.16436259  0.67144392  0.84595445  1
  O2-  O312  1  0.48985750  0.17625030  0.16107212  1
  O2-  O313  1  0.49996506  0.18029454  0.49550891  1
  O2-  O314  1  0.50970345  0.18612966  0.82112549  1
  O2-  O315  1  0.49831093  0.67084559  0.17324587  1
  O2-  O316  1  0.49000168  0.67949637  0.50464978  1
  O2-  O317  1  0.49857317  0.68681301  0.83682200  1
  O2-  O318  1  0.82562597  0.17809327  0.17786756  1
  O2-  O319  1  0.83158309  0.20004896  0.49751167  1
  O2-  O320  1  0.83732250  0.18104805  0.82818518  1
  O2-  O321  1  0.83529576  0.68858240  0.16214253  1
  O2-  O322  1  0.84161383  0.68184078  0.48987020  1
  O2-  O323  1  0.83663213  0.68966947  0.82522343  1
  O2-  O324  1  -0.00296682  0.33209770  0.16386453  1
  O2-  O325  1  0.00693509  0.32509037  0.51192039  1
  O2-  O326  1  0.00118965  0.31929812  0.83248390  1
  O2-  O327  1  0.00296853  0.82508932  0.16894298  1
  O2-  O328  1  0.00433602  0.81561170  0.50440783  1
  O2-  O329  1  0.00779065  0.82699796  0.84309906  1
  O2-  O330  1  0.32300161  0.31289622  0.15703352  1
  O2-  O331  1  0.33295772  0.31721270  0.50163501  1
  O2-  O332  1  0.33629921  0.31774963  0.83948660  1
  O2-  O333  1  0.34155139  0.83254364  0.17116667  1
  O2-  O334  1  0.32996059  0.81088151  0.49433540  1
  O2-  O335  1  0.32387357  0.82382948  0.82182918  1
  O2-  O336  1  0.65869945  0.32335016  0.15625661  1
  O2-  O337  1  0.66583586  0.30893297  0.49282429  1
  O2-  O338  1  0.66942347  0.32722176  0.84012475  1
  O2-  O339  1  0.67323493  0.81586599  0.17677669  1
  O2-  O340  1  0.65972201  0.81428155  0.49051502  1
  O2-  O341  1  0.66535740  0.81872422  0.83233141  1
  O2-  O342  1  0.16702187  0.32193241  0.16347248  1
  O2-  O343  1  0.16317134  0.32521139  0.50196938  1
  O2-  O344  1  0.17584441  0.31624442  0.81971785  1
  O2-  O345  1  0.17124463  0.82144180  0.16604686  1
  O2-  O346  1  0.16195551  0.80923307  0.50802603  1
  O2-  O347  1  0.17223296  0.83152407  0.83246305  1
  O2-  O348  1  0.49391876  0.31425621  0.16792550  1
  O2-  O349  1  0.50226570  0.31505054  0.49721946  1
  O2-  O350  1  0.49658547  0.32999264  0.83871368  1
  O2-  O351  1  0.49733016  0.83464057  0.17591405  1
  O2-  O352  1  0.49892050  0.81631254  0.50379985  1
  O2-  O353  1  0.49726241  0.81087232  0.83659801  1
  O2-  O354  1  0.83707836  0.32475200  0.16041353  1
  O2-  O355  1  0.83266045  0.32030170  0.50283659  1
  O2-  O356  1  0.82689662  0.32321812  0.84011268  1
  O2-  O357  1  0.83498930  0.81705195  0.16284648  1
  O2-  O358  1  0.83380914  0.80544155  0.49716060  1
  O2-  O359  1  0.83161424  0.81401709  0.83119364  1
  O2-  O360  1  0.08912489  0.08106655  0.11237009  1
  O2-  O361  1  0.08740397  0.08469966  0.42816747  1
  O2-  O362  1  0.06714811  0.07972870  0.80023773  1
  O2-  O363  1  0.08088665  0.58264754  0.11664762  1
  O2-  O364  1  0.05621211  0.57975814  0.45908320  1
  O2-  O365  1  0.08373434  0.56896013  0.78216561  1
  O2-  O366  1  0.40832973  0.08392334  0.10139253  1
  O2-  O367  1  0.41601329  0.08244724  0.43471908  1
  O2-  O368  1  0.42126478  0.08130684  0.77995172  1
  O2-  O369  1  0.42205859  0.57926246  0.10987467  1
  O2-  O370  1  0.40714106  0.57782998  0.46272602  1
  O2-  O371  1  0.42329980  0.58999060  0.77563826  1
  O2-  O372  1  0.74741027  0.08568620  0.10380949  1
  O2-  O373  1  0.75352478  0.08348579  0.45805947  1
  O2-  O374  1  0.75646859  0.08225577  0.78551807  1
  O2-  O375  1  0.76187341  0.58066742  0.12261187  1
  O2-  O376  1  0.77128678  0.56433143  0.45473052  1
  O2-  O377  1  0.71512580  0.58319019  0.77008636  1
  O2-  O378  1  0.24690806  0.08007700  0.24079246  1
  O2-  O379  1  0.25434627  0.07440951  0.54894673  1
  O2-  O380  1  0.24783735  0.07858910  0.88482692  1
  O2-  O381  1  0.26821644  0.56352579  0.21835152  1
  O2-  O382  1  0.25095726  0.58067249  0.54127198  1
  O2-  O383  1  0.24060092  0.57670809  0.88047645  1
  O2-  O384  1  0.59953041  0.06823035  0.23661795  1
  O2-  O385  1  0.60160513  0.08309624  0.53838888  1
  O2-  O386  1  0.58786022  0.06756029  0.88163087  1
  O2-  O387  1  0.61003503  0.56171178  0.20127669  1
  O2-  O388  1  0.58292173  0.57192622  0.54364116  1
  O2-  O389  1  0.58305255  0.57989117  0.88780980  1
  O2-  O390  1  0.90691424  0.07975082  0.22924476  1
  O2-  O391  1  0.90147033  0.08002162  0.53412163  1
  O2-  O392  1  0.92449650  0.08377501  0.88715354  1
  O2-  O393  1  0.92051002  0.58206291  0.22056055  1
  O2-  O394  1  0.90861461  0.58218934  0.55466279  1
  O2-  O395  1  0.92444296  0.57724420  0.87057933  1
  O2-  O396  1  0.10324772  0.42079235  0.11187507  1
  O2-  O397  1  0.08870539  0.42415989  0.44315582  1
  O2-  O398  1  0.08947510  0.41743984  0.78085098  1
  O2-  O399  1  0.07847170  0.92130964  0.11719492  1
  O2-  O400  1  0.09530957  0.91788409  0.44467242  1
  O2-  O401  1  0.09692834  0.92087145  0.78003149  1
  O2-  O402  1  0.39267369  0.41322941  0.12060215  1
  O2-  O403  1  0.42478379  0.41948442  0.43126857  1
  O2-  O404  1  0.39741583  0.41949851  0.77548786  1
  O2-  O405  1  0.40962466  0.92272363  0.11688255  1
  O2-  O406  1  0.39818127  0.92072213  0.46289925  1
  O2-  O407  1  0.41055922  0.91294095  0.77582748  1
  O2-  O408  1  0.75347263  0.41457067  0.10017263  1
  O2-  O409  1  0.73368056  0.42218480  0.45336042  1
  O2-  O410  1  0.75475545  0.42479972  0.78247009  1
  O2-  O411  1  0.75022179  0.91842958  0.11970095  1
  O2-  O412  1  0.74170821  0.91836098  0.44199593  1
  O2-  O413  1  0.74101780  0.91578724  0.76839046  1
  O2-  O414  1  0.25130527  0.42349174  0.21609614  1
  O2-  O415  1  0.24444563  0.41962015  0.55236167  1
  O2-  O416  1  0.26061250  0.41293056  0.89567940  1
  O2-  O417  1  0.24607149  0.92085671  0.21708088  1
  O2-  O418  1  0.22961809  0.91723359  0.54182206  1
  O2-  O419  1  0.25198692  0.93347916  0.87976825  1
  O2-  O420  1  0.56410785  0.41721374  0.22737719  1
  O2-  O421  1  0.58730692  0.41287073  0.53726741  1
  O2-  O422  1  0.59337888  0.42213958  0.89580373  1
  O2-  O423  1  0.59886756  0.91611881  0.24008448  1
  O2-  O424  1  0.57585566  0.92116418  0.54528231  1
  O2-  O425  1  0.58963335  0.92535821  0.87469953  1
  O2-  O426  1  0.92162805  0.42127781  0.22574599  1
  O2-  O427  1  0.92009700  0.41600520  0.56500873  1
  O2-  O428  1  0.90096954  0.42108078  0.87982676  1
  O2-  O429  1  0.89666704  0.91747540  0.22242046  1
  O2-  O430  1  0.93550249  0.91757864  0.53932158  1
  O2-  O431  1  0.89617564  0.91846924  0.88618722  1
  O2-  O432  1  0.00106049  -0.00481100  -0.00374297  1
  O2-  O433  1  0.00346947  -0.00646919  0.31409901  1
  O2-  O434  1  0.01010653  0.00068057  0.64433987  1
  O2-  O435  1  0.00189633  0.51568762  0.00096448  1
  O2-  O436  1  -0.01868056  0.50675887  0.35688431  1
  O2-  O437  1  0.00664722  0.48775366  0.66946005  1
  O2-  O438  1  0.32003163  -0.00668473  0.01947170  1
  O2-  O439  1  0.33918203  -0.01348092  0.32752769  1
  O2-  O440  1  0.32005037  -0.00132154  0.69854505  1
  O2-  O441  1  0.33009434  0.49196862  0.00598221  1
  O2-  O442  1  0.36441224  0.49667551  0.30598130  1
  O2-  O443  1  0.33556373  0.52137270  0.66357778  1
  O2-  O444  1  0.67161991  0.00089129  -0.01348009  1
  O2-  O445  1  0.66739804  -0.00534199  0.35039594  1
  O2-  O446  1  0.66270451  0.00954834  0.68414056  1
  O2-  O447  1  0.67650843  0.49227939  -0.01432329  1
  O2-  O448  1  0.66468184  0.51539893  0.35006104  1
  O2-  O449  1  0.68172058  0.49618515  0.64945210  1
  O2-  O450  1  0.15760491  -0.00321826  -0.01722141  1
  O2-  O451  1  0.17206010  -0.01298894  0.32514414  1
  O2-  O452  1  0.16459751  -0.01196509  0.66334219  1
  O2-  O453  1  0.16215628  0.50911945  -0.01124928  1
  O2-  O454  1  0.14453805  0.49275261  0.30704451  1
  O2-  O455  1  0.17185860  0.50123322  0.65757391  1
  O2-  O456  1  0.48834457  -0.00077275  0.02334021  1
  O2-  O457  1  0.50114503  -0.02013246  0.34908411  1
  O2-  O458  1  0.49942708  -0.01371654  0.66980031  1
  O2-  O459  1  0.51040200  0.50020830  0.01761389  1
  O2-  O460  1  0.51657968  0.50890210  0.37183174  1
  O2-  O461  1  0.51037124  0.51779465  0.67426220  1
  O2-  O462  1  0.83446671  -0.00974232  0.00534723  1
  O2-  O463  1  0.83677041  -0.01057984  0.33674652  1
  O2-  O464  1  0.83413379  0.01634402  0.67259008  1
  O2-  O465  1  0.84440479  0.48331544  0.01139391  1
  O2-  O466  1  0.82178388  0.51603967  0.31933312  1
  O2-  O467  1  0.84713426  0.50470345  0.69791842  1
  O2-  O468  1  0.57906360  0.25535802  0.93179569  1
  O2-  O469  1  0.58656792  0.25337253  0.26151042  1
  O2-  O470  1  0.41497651  0.75744274  0.08350964  1
  O2-  O471  1  0.76814016  0.25262484  0.05842930  1
  O2-  O472  1  0.07875350  0.74899738  0.05298433  1
  O2-  O473  1  0.75233516  0.25024795  0.72481565  1
  O2-  O474  1  0.58482177  0.24692029  0.61748851  1
  O2-  O475  1  0.24332653  0.74973692  0.93669820  1
  O2-  O476  1  0.92214204  0.24775591  0.61874363  1
  O2-  O477  1  0.42226286  0.25287204  0.39501222  1
  O2-  O478  1  0.41922818  0.74678461  0.38258247  1
  O2-  O479  1  0.22949407  0.24906288  0.94153983  1
  O2-  O480  1  0.06862641  0.25159744  0.06227494  1
  O2-  O481  1  0.92015018  0.74790927  0.27409559  1
  O2-  O482  1  0.07348910  0.25322275  0.39746477  1
  O2-  O483  1  0.26453131  0.75676888  0.25832922  1
  O2-  O484  1  0.24159078  0.25768756  0.60562839  1
  O2-  O485  1  0.08780685  0.75640967  0.74293171  1
  O2-  O486  1  0.07972809  0.25068481  0.71262886  1
  O2-  O487  1  0.92559727  0.74721592  0.94310490  1
  O2-  O488  1  0.57023909  0.75289856  0.26850514  1
  O2-  O489  1  0.92183086  0.25348055  0.94710534  1
  O2-  O490  1  0.93269019  0.24756680  0.26684338  1
  O2-  O491  1  0.40381050  0.75125240  0.72202117  1
  O2-  O492  1  0.42592613  0.25745184  0.73651707  1
