# generated using pymatgen
data_Ca108Mn108O277
_symmetry_space_group_name_H-M   'P 1'
_cell_length_a   16.02926511
_cell_length_b   22.30961714
_cell_length_c   16.39288236
_cell_angle_alpha   89.99735996
_cell_angle_beta   89.99899686
_cell_angle_gamma   90.00835835
_symmetry_Int_Tables_number   1
_chemical_formula_structural   Ca108Mn108O277
_chemical_formula_sum   'Ca108 Mn108 O277'
_cell_volume   5862.20560676
_cell_formula_units_Z   1
loop_
 _symmetry_equiv_pos_site_id
 _symmetry_equiv_pos_as_xyz
  1  'x, y, z'
loop_
 _atom_type_symbol
 _atom_type_oxidation_number
  Ca2+  2.0
  Mn3.34+  3.34
  O2-  -2.0
loop_
 _atom_site_type_symbol
 _atom_site_label
 _atom_site_symmetry_multiplicity
 _atom_site_fract_x
 _atom_site_fract_y
 _atom_site_fract_z
 _atom_site_occupancy
  Ca2+  Ca0  1  0.08469658  0.25378419  0.25459895  1
  Ca2+  Ca1  1  0.07780545  0.24241669  0.58254092  1
  Ca2+  Ca2  1  0.07823090  0.24809243  0.92101090  1
  Ca2+  Ca3  1  0.10232297  0.75516700  0.27083975  1
  Ca2+  Ca4  1  0.08271779  0.73872956  0.57038917  1
  Ca2+  Ca5  1  0.07818612  0.76277411  0.90730801  1
  Ca2+  Ca6  1  0.42506702  0.25150290  0.25709031  1
  Ca2+  Ca7  1  0.42469680  0.25486769  0.57674407  1
  Ca2+  Ca8  1  0.41842559  0.25590502  0.91888567  1
  Ca2+  Ca9  1  0.40963618  0.74796197  0.24780927  1
  Ca2+  Ca10  1  0.41090316  0.75327078  0.57234287  1
  Ca2+  Ca11  1  0.43568324  0.75094830  0.92716658  1
  Ca2+  Ca12  1  0.74350658  0.26340344  0.26724127  1
  Ca2+  Ca13  1  0.74744759  0.24885474  0.55839551  1
  Ca2+  Ca14  1  0.74799569  0.26015231  0.91459135  1
  Ca2+  Ca15  1  0.73900553  0.75914695  0.24634451  1
  Ca2+  Ca16  1  0.74075559  0.74809916  0.58170301  1
  Ca2+  Ca17  1  0.72107122  0.74206565  0.92148709  1
  Ca2+  Ca18  1  0.24384868  0.23984044  0.11526164  1
  Ca2+  Ca19  1  0.24709926  0.22935507  0.40787158  1
  Ca2+  Ca20  1  0.25790140  0.23872226  0.73564787  1
  Ca2+  Ca21  1  0.26828184  0.75785868  0.09038139  1
  Ca2+  Ca22  1  0.24264740  0.75066669  0.42901218  1
  Ca2+  Ca23  1  0.23299764  0.74232923  0.73902471  1
  Ca2+  Ca24  1  0.57777975  0.25539019  0.10954592  1
  Ca2+  Ca25  1  0.59327905  0.25259040  0.40174510  1
  Ca2+  Ca26  1  0.58139438  0.26419278  0.74022255  1
  Ca2+  Ca27  1  0.57928302  0.73259365  0.06342602  1
  Ca2+  Ca28  1  0.57259192  0.74702214  0.42787516  1
  Ca2+  Ca29  1  0.58876459  0.75077769  0.76140241  1
  Ca2+  Ca30  1  0.92667876  0.24408925  0.10675778  1
  Ca2+  Ca31  1  0.90764580  0.23610991  0.40391094  1
  Ca2+  Ca32  1  0.92276227  0.26227300  0.73844743  1
  Ca2+  Ca33  1  0.89763242  0.75768395  0.07787257  1
  Ca2+  Ca34  1  0.93654697  0.74288741  0.43405069  1
  Ca2+  Ca35  1  0.92608470  0.74287190  0.73286975  1
  Ca2+  Ca36  1  0.11003360  0.60465336  0.88379889  1
  Ca2+  Ca37  1  0.24311368  0.59739989  0.43266838  1
  Ca2+  Ca38  1  0.92217237  0.10489390  0.73913779  1
  Ca2+  Ca39  1  0.89976235  0.57263770  0.07708970  1
  Ca2+  Ca40  1  0.37384666  0.11532357  0.59163787  1
  Ca2+  Ca41  1  0.40455821  0.56469368  0.60596511  1
  Ca2+  Ca42  1  0.92869243  0.60874152  0.44120606  1
  Ca2+  Ca43  1  0.09824717  0.60650661  0.87943453  1
  Ca2+  Ca44  1  0.09272289  0.59147850  0.25976260  1
  Ca2+  Ca45  1  0.57890880  0.56855528  0.74592542  1
  Ca2+  Ca46  1  0.26853077  0.58023087  0.06157771  1
  Ca2+  Ca47  1  0.57341652  0.10165291  0.11299721  1
  Ca2+  Ca48  1  0.76478254  0.11538080  0.26373932  1
  Ca2+  Ca49  1  0.71047398  0.58203536  0.93045283  1
  Ca2+  Ca50  1  0.25458476  0.59715468  0.43279557  1
  Ca2+  Ca51  1  0.06874766  0.60975443  0.58815435  1
  Ca2+  Ca52  1  0.57701843  0.09227746  0.72941169  1
  Ca2+  Ca53  1  0.75450745  0.11497878  0.26465524  1
  Ca2+  Ca54  1  0.28016739  0.57764130  0.06487735  1
  Ca2+  Ca55  1  0.59614644  0.11487276  0.41646889  1
  Ca2+  Ca56  1  0.39351941  0.56391494  0.60584044  1
  Ca2+  Ca57  1  0.43894549  0.57526839  0.24599684  1
  Ca2+  Ca58  1  0.40854528  0.11496190  0.25290740  1
  Ca2+  Ca59  1  0.76151956  0.57268825  0.59501888  1
  Ca2+  Ca60  1  0.36632055  0.11223605  0.58610360  1
  Ca2+  Ca61  1  0.91131267  0.10654192  0.73883043  1
  Ca2+  Ca62  1  0.08354243  0.11310659  0.24487561  1
  Ca2+  Ca63  1  0.93543600  0.59734272  0.71145385  1
  Ca2+  Ca64  1  0.40535798  0.09085667  0.90247652  1
  Ca2+  Ca65  1  0.70533115  0.54575275  0.24860028  1
  Ca2+  Ca66  1  0.44645282  0.58280385  0.92980825  1
  Ca2+  Ca67  1  0.88748244  0.57085214  0.07951881  1
  Ca2+  Ca68  1  0.08084057  0.58958485  0.26500375  1
  Ca2+  Ca69  1  0.07310543  0.11197476  0.24358455  1
  Ca2+  Ca70  1  0.13682076  0.10182542  0.58443642  1
  Ca2+  Ca71  1  0.56622153  0.09359799  0.73080727  1
  Ca2+  Ca72  1  0.42815334  0.90891298  0.24690004  1
  Ca2+  Ca73  1  0.75526045  0.90796952  0.25746781  1
  Ca2+  Ca74  1  0.59739322  0.41512404  0.40626387  1
  Ca2+  Ca75  1  0.26234590  0.42228897  0.72229057  1
  Ca2+  Ca76  1  0.91101227  0.39156779  0.08017738  1
  Ca2+  Ca77  1  0.09087877  0.39828562  0.58531475  1
  Ca2+  Ca78  1  0.41537449  0.90924931  0.24720269  1
  Ca2+  Ca79  1  0.73651517  0.91096776  0.91734139  1
  Ca2+  Ca80  1  0.74613900  0.41140369  0.92452848  1
  Ca2+  Ca81  1  0.91518130  0.89903187  0.41571735  1
  Ca2+  Ca82  1  0.25168141  0.91400853  0.03341005  1
  Ca2+  Ca83  1  0.08494960  0.39338280  0.23631290  1
  Ca2+  Ca84  1  0.08042324  0.39893049  0.58439014  1
  Ca2+  Ca85  1  0.40013139  0.91494945  0.59521140  1
  Ca2+  Ca86  1  0.92935017  0.90946524  0.74184752  1
  Ca2+  Ca87  1  0.59711535  0.41600749  0.09204208  1
  Ca2+  Ca88  1  0.58252627  0.90835375  0.07629187  1
  Ca2+  Ca89  1  0.58131568  0.90735137  0.42296130  1
  Ca2+  Ca90  1  0.27145220  0.42490565  0.72595660  1
  Ca2+  Ca91  1  0.92608277  0.90921238  0.08601038  1
  Ca2+  Ca92  1  0.07639503  0.90460756  0.25133601  1
  Ca2+  Ca93  1  0.74875287  0.90818865  0.59715218  1
  Ca2+  Ca94  1  0.25293130  0.91709832  0.75218000  1
  Ca2+  Ca95  1  0.91332993  0.91008248  0.08642152  1
  Ca2+  Ca96  1  0.09471749  0.91493793  0.59471995  1
  Ca2+  Ca97  1  0.10731344  0.91582054  0.59505254  1
  Ca2+  Ca98  1  0.56959640  0.90761839  0.42347439  1
  Ca2+  Ca99  1  0.41702644  0.41661144  0.92766818  1
  Ca2+  Ca100  1  0.43869303  0.40804148  0.24462150  1
  Ca2+  Ca101  1  0.91647222  0.90987371  0.74233097  1
  Ca2+  Ca102  1  0.42872228  0.40752766  0.58715497  1
  Ca2+  Ca103  1  0.74246890  0.90430191  0.91298869  1
  Ca2+  Ca104  1  0.08318603  0.39379449  0.91811059  1
  Ca2+  Ca105  1  0.25803047  0.90914190  0.42608137  1
  Ca2+  Ca106  1  0.25884494  0.39325400  0.08319117  1
  Ca2+  Ca107  1  0.56828241  0.91005679  0.74136755  1
  Mn3.34+  Mn108  1  0.08574817  0.33007193  0.08098959  1
  Mn3.34+  Mn109  1  0.08163601  0.32874052  0.41493011  1
  Mn3.34+  Mn110  1  0.08475647  0.33119525  0.75695617  1
  Mn3.34+  Mn111  1  0.08944092  0.83161074  0.08485199  1
  Mn3.34+  Mn112  1  0.08557486  0.83146600  0.41993033  1
  Mn3.34+  Mn113  1  0.08697589  0.83216283  0.75360079  1
  Mn3.34+  Mn114  1  0.41918083  0.33710913  0.08505096  1
  Mn3.34+  Mn115  1  0.41946818  0.33621038  0.41728267  1
  Mn3.34+  Mn116  1  0.41956187  0.33905386  0.75655612  1
  Mn3.34+  Mn117  1  0.41698293  0.83321695  0.07952082  1
  Mn3.34+  Mn118  1  0.41306542  0.83224787  0.41856634  1
  Mn3.34+  Mn119  1  0.41070863  0.83342385  0.75567506  1
  Mn3.34+  Mn120  1  0.74950634  0.33831283  0.08599387  1
  Mn3.34+  Mn121  1  0.75665639  0.34536854  0.41779551  1
  Mn3.34+  Mn122  1  0.75237333  0.34845415  0.74706031  1
  Mn3.34+  Mn123  1  0.74703205  0.83383264  0.08615377  1
  Mn3.34+  Mn124  1  0.75133114  0.82774810  0.41908343  1
  Mn3.34+  Mn125  1  0.74809268  0.83157345  0.75060204  1
  Mn3.34+  Mn126  1  0.25478603  0.32891359  0.25671373  1
  Mn3.34+  Mn127  1  0.25570587  0.33501070  0.57263432  1
  Mn3.34+  Mn128  1  0.25471147  0.33231836  0.90851864  1
  Mn3.34+  Mn129  1  0.24874503  0.83564682  0.25055662  1
  Mn3.34+  Mn130  1  0.25207175  0.83260031  0.58492954  1
  Mn3.34+  Mn131  1  0.25123851  0.82993376  0.90729941  1
  Mn3.34+  Mn132  1  0.58964818  0.34095364  0.25200150  1
  Mn3.34+  Mn133  1  0.59079238  0.33658113  0.58060630  1
  Mn3.34+  Mn134  1  0.58370430  0.33589418  0.91506876  1
  Mn3.34+  Mn135  1  0.58380786  0.83273159  0.24856121  1
  Mn3.34+  Mn136  1  0.58025340  0.82977083  0.58878211  1
  Mn3.34+  Mn137  1  0.57558319  0.83495640  0.91292318  1
  Mn3.34+  Mn138  1  0.91477795  0.33058763  0.25396936  1
  Mn3.34+  Mn139  1  0.90959511  0.33428918  0.57893136  1
  Mn3.34+  Mn140  1  0.91216027  0.32784610  0.91069183  1
  Mn3.34+  Mn141  1  0.91969581  0.82725458  0.25129856  1
  Mn3.34+  Mn142  1  0.91675611  0.83186534  0.57831477  1
  Mn3.34+  Mn143  1  0.92237161  0.83613624  0.91310491  1
  Mn3.34+  Mn144  1  0.74458274  0.66453571  0.08653323  1
  Mn3.34+  Mn145  1  0.74596787  0.16954720  0.07580002  1
  Mn3.34+  Mn146  1  0.91207385  0.17029132  0.57287058  1
  Mn3.34+  Mn147  1  0.91686186  0.17199958  0.91059216  1
  Mn3.34+  Mn148  1  0.41648444  0.17059690  0.41657512  1
  Mn3.34+  Mn149  1  0.91683868  0.67663707  0.24935608  1
  Mn3.34+  Mn150  1  0.24945482  0.15278242  0.91446008  1
  Mn3.34+  Mn151  1  0.74921574  0.65551427  0.75013629  1
  Mn3.34+  Mn152  1  0.57560441  0.65991384  0.58135236  1
  Mn3.34+  Mn153  1  0.73917008  0.65535424  0.42226334  1
  Mn3.34+  Mn154  1  0.57776233  0.16971141  0.91571270  1
  Mn3.34+  Mn155  1  0.08096999  0.16770722  0.42294508  1
  Mn3.34+  Mn156  1  0.40845617  0.65929237  0.75881350  1
  Mn3.34+  Mn157  1  0.42016298  0.66190945  0.41955769  1
  Mn3.34+  Mn158  1  0.73886698  0.66023568  0.74876646  1
  Mn3.34+  Mn159  1  0.75983357  0.16305905  0.07499849  1
  Mn3.34+  Mn160  1  0.91738785  0.66361360  0.91020311  1
  Mn3.34+  Mn161  1  0.42054453  0.66401447  0.08502939  1
  Mn3.34+  Mn162  1  0.58221028  0.17167427  0.57834177  1
  Mn3.34+  Mn163  1  0.08772675  0.16995174  0.74932087  1
  Mn3.34+  Mn164  1  0.90763122  0.67058289  0.24784283  1
  Mn3.34+  Mn165  1  0.41988069  0.66727511  0.75609067  1
  Mn3.34+  Mn166  1  0.08890915  0.67342474  0.08701666  1
  Mn3.34+  Mn167  1  0.24568387  0.66629760  0.58777228  1
  Mn3.34+  Mn168  1  0.23936813  0.15733560  0.91573317  1
  Mn3.34+  Mn169  1  0.08081130  0.67973244  0.08413614  1
  Mn3.34+  Mn170  1  0.25787683  0.67886210  0.91476219  1
  Mn3.34+  Mn171  1  0.07784683  0.16714148  0.07886239  1
  Mn3.34+  Mn172  1  0.74997136  0.17519557  0.74864028  1
  Mn3.34+  Mn173  1  0.57954235  0.65841078  0.25047516  1
  Mn3.34+  Mn174  1  0.25818355  0.66738836  0.25218165  1
  Mn3.34+  Mn175  1  0.90616358  0.66800697  0.91239191  1
  Mn3.34+  Mn176  1  0.41481302  0.17233930  0.08701712  1
  Mn3.34+  Mn177  1  0.59161334  0.16347368  0.91380269  1
  Mn3.34+  Mn178  1  0.59028969  0.66300004  0.25106864  1
  Mn3.34+  Mn179  1  0.74885685  0.66076952  0.42039035  1
  Mn3.34+  Mn180  1  0.75345735  0.00565913  0.74885503  1
  Mn3.34+  Mn181  1  0.58901086  0.49813901  0.59359163  1
  Mn3.34+  Mn182  1  0.90618745  0.50177449  0.89121077  1
  Mn3.34+  Mn183  1  0.40787479  0.00017862  0.73949601  1
  Mn3.34+  Mn184  1  0.92046907  0.01190297  0.92580596  1
  Mn3.34+  Mn185  1  0.40775280  0.00555594  0.41659644  1
  Mn3.34+  Mn186  1  0.74511415  0.00042564  0.08097265  1
  Mn3.34+  Mn187  1  0.58618787  0.00066550  0.26209139  1
  Mn3.34+  Mn188  1  0.42644001  0.49941243  0.40972412  1
  Mn3.34+  Mn189  1  0.90910085  0.49055281  0.60134465  1
  Mn3.34+  Mn190  1  0.76413316  0.00716853  0.42642951  1
  Mn3.34+  Mn191  1  0.26766374  0.49725027  0.25224141  1
  Mn3.34+  Mn192  1  0.25510609  0.49304131  0.25397426  1
  Mn3.34+  Mn193  1  0.39823549  0.01090853  0.06677323  1
  Mn3.34+  Mn194  1  0.08384972  0.49209373  0.42298615  1
  Mn3.34+  Mn195  1  0.58144305  0.49018771  0.93070884  1
  Mn3.34+  Mn196  1  0.91329489  0.00140536  0.24925710  1
  Mn3.34+  Mn197  1  0.93435040  0.00649124  0.92534365  1
  Mn3.34+  Mn198  1  0.09191919  0.00431741  0.75339198  1
  Mn3.34+  Mn199  1  0.91533459  0.00278269  0.58204260  1
  Mn3.34+  Mn200  1  0.58631173  0.00339243  0.58623166  1
  Mn3.34+  Mn201  1  0.07027158  0.49806115  0.42578258  1
  Mn3.34+  Mn202  1  0.07614692  0.00939557  0.41268216  1
  Mn3.34+  Mn203  1  0.88697788  0.48677674  0.27491173  1
  Mn3.34+  Mn204  1  0.25238329  0.50308092  0.90593717  1
  Mn3.34+  Mn205  1  0.40973571  0.00337969  0.07053412  1
  Mn3.34+  Mn206  1  0.07857711  0.49249535  0.73972994  1
  Mn3.34+  Mn207  1  0.23893940  0.00032133  0.23808736  1
  Mn3.34+  Mn208  1  0.75389105  0.00181456  0.43069524  1
  Mn3.34+  Mn209  1  0.89813404  0.48749260  0.26820213  1
  Mn3.34+  Mn210  1  0.08242458  0.50077997  0.07739453  1
  Mn3.34+  Mn211  1  0.25269428  0.00716625  0.23883397  1
  Mn3.34+  Mn212  1  0.91752679  0.49662074  0.89374014  1
  Mn3.34+  Mn213  1  0.08992762  0.00213934  0.08004814  1
  Mn3.34+  Mn214  1  0.57846183  0.00111982  0.91879429  1
  Mn3.34+  Mn215  1  0.08759161  0.00219108  0.41646686  1
  O2-  O216  1  -0.00625167  0.18016819  -0.00562539  1
  O2-  O217  1  0.00067016  0.15410514  0.34055235  1
  O2-  O218  1  0.00651662  0.16097538  0.66643551  1
  O2-  O219  1  0.00234039  0.64392596  0.00194638  1
  O2-  O220  1  0.00602920  0.65960385  0.32233601  1
  O2-  O221  1  -0.00076575  0.68203629  0.66378784  1
  O2-  O222  1  0.32923967  0.16048418  -0.00145636  1
  O2-  O223  1  0.34017692  0.16942240  0.33863789  1
  O2-  O224  1  0.34368390  0.19461701  0.65844289  1
  O2-  O225  1  0.33303654  0.65782790  0.00061202  1
  O2-  O226  1  0.33908837  0.63947091  0.33217244  1
  O2-  O227  1  0.33624048  0.66032166  0.66755859  1
  O2-  O228  1  0.66164075  0.14126370  0.00205175  1
  O2-  O229  1  0.66663934  0.17687372  0.32735655  1
  O2-  O230  1  0.65587724  0.16659179  0.67749145  1
  O2-  O231  1  0.67033612  0.65786238  0.00612959  1
  O2-  O232  1  0.67930596  0.63643463  0.32493654  1
  O2-  O233  1  0.66105405  0.64064246  0.66367158  1
  O2-  O234  1  0.16605600  0.16647479  -0.00222637  1
  O2-  O235  1  0.15566672  0.15972241  0.33939209  1
  O2-  O236  1  0.17181860  0.16740809  0.67781709  1
  O2-  O237  1  0.17429140  0.66260835  0.00393053  1
  O2-  O238  1  0.17698943  0.64407227  0.33053745  1
  O2-  O239  1  0.16407310  0.66916548  0.66141537  1
  O2-  O240  1  0.49629550  0.14308673  -0.00814787  1
  O2-  O241  1  0.49949398  0.15644665  0.33891220  1
  O2-  O242  1  0.49315101  0.15007531  0.65750405  1
  O2-  O243  1  0.49490531  0.65826927  0.00478499  1
  O2-  O244  1  0.50301050  0.64737979  0.33723034  1
  O2-  O245  1  0.49500756  0.65000682  0.66983158  1
  O2-  O246  1  0.82865371  0.17609560  -0.01214376  1
  O2-  O247  1  0.82197837  0.18708779  0.32438981  1
  O2-  O248  1  0.83587212  0.17516843  0.66944404  1
  O2-  O249  1  0.83696119  0.64567553  0.00541439  1
  O2-  O250  1  0.84217323  0.66227686  0.34158210  1
  O2-  O251  1  0.82533489  0.65469553  0.66514938  1
  O2-  O252  1  -0.00194071  0.33256693  -0.00106346  1
  O2-  O253  1  0.00363305  0.34739568  0.32949365  1
  O2-  O254  1  0.00510881  0.34775702  0.67218987  1
  O2-  O255  1  -0.00204859  0.83983752  0.00845982  1
  O2-  O256  1  0.00147574  0.83786007  0.33564401  1
  O2-  O257  1  0.00489947  0.83940464  0.66214640  1
  O2-  O258  1  0.33960412  0.34002131  -0.01006923  1
  O2-  O259  1  0.34584456  0.34450155  0.32312683  1
  O2-  O260  1  0.33297401  0.33804813  0.66682829  1
  O2-  O261  1  0.32705297  0.82849930  -0.00264212  1
  O2-  O262  1  0.33482140  0.85685904  0.33278367  1
  O2-  O263  1  0.32882723  0.84055852  0.67030160  1
  O2-  O264  1  0.66546510  0.35123489  -0.00223644  1
  O2-  O265  1  0.66636695  0.33934954  0.33593099  1
  O2-  O266  1  0.67087637  0.32818530  0.66957435  1
  O2-  O267  1  0.66520763  0.84813355  -0.00363462  1
  O2-  O268  1  0.66481017  0.85276406  0.33554766  1
  O2-  O269  1  0.66357483  0.84926581  0.67148537  1
  O2-  O270  1  0.17112144  0.34060363  -0.00314016  1
  O2-  O271  1  0.16336832  0.34182023  0.33004257  1
  O2-  O272  1  0.17278874  0.34678162  0.67584120  1
  O2-  O273  1  0.16825035  0.80917240  -0.00093593  1
  O2-  O274  1  0.16624143  0.85496164  0.33696971  1
  O2-  O275  1  0.16755413  0.84184997  0.66966436  1
  O2-  O276  1  0.50361065  0.35498113  0.00269878  1
  O2-  O277  1  0.50563840  0.35006059  0.33834719  1
  O2-  O278  1  0.49503475  0.33758875  0.67028243  1
  O2-  O279  1  0.50145258  0.84574488  0.00150405  1
  O2-  O280  1  0.50040721  0.85008356  0.33559405  1
  O2-  O281  1  0.48945076  0.84075975  0.66355693  1
  O2-  O282  1  0.82912627  0.33036228  -0.00740279  1
  O2-  O283  1  0.83294681  0.33940687  0.32854370  1
  O2-  O284  1  0.83057402  0.32937330  0.66786755  1
  O2-  O285  1  0.83342310  0.85582537  0.00150114  1
  O2-  O286  1  0.83257988  0.83483146  0.33130335  1
  O2-  O287  1  0.83856089  0.84072468  0.66886566  1
  O2-  O288  1  0.00218224  0.17251326  0.16126478  1
  O2-  O289  1  -0.00109090  0.17700715  0.50499732  1
  O2-  O290  1  -0.00711256  0.18421117  0.82463723  1
  O2-  O291  1  -0.00905542  0.69342208  0.16162910  1
  O2-  O292  1  -0.00393038  0.67696454  0.50691539  1
  O2-  O293  1  0.01105990  0.68274678  0.84162527  1
  O2-  O294  1  0.34486195  0.18451937  0.16880857  1
  O2-  O295  1  0.33751769  0.18608328  0.49859222  1
  O2-  O296  1  0.33078334  0.18301663  0.84689203  1
  O2-  O297  1  0.32592664  0.67823964  0.16188858  1
  O2-  O298  1  0.32764148  0.67637290  0.49160895  1
  O2-  O299  1  0.33350885  0.69542799  0.82991275  1
  O2-  O300  1  0.67013030  0.17369927  0.15975056  1
  O2-  O301  1  0.65558989  0.18348581  0.49915694  1
  O2-  O302  1  0.66947304  0.18889676  0.83564519  1
  O2-  O303  1  0.66563098  0.68788093  0.16823373  1
  O2-  O304  1  0.65749368  0.67888164  0.50255310  1
  O2-  O305  1  0.66475576  0.67226701  0.83163981  1
  O2-  O306  1  0.15068790  0.17732390  0.16660071  1
  O2-  O307  1  0.15993645  0.18456680  0.50285082  1
  O2-  O308  1  0.16387110  0.18471777  0.83903463  1
  O2-  O309  1  0.15789482  0.68542879  0.18167797  1
  O2-  O310  1  0.17444786  0.67045484  0.50196090  1
  O2-  O311  1  0.16649836  0.69088347  0.84737896  1
  O2-  O312  1  0.49963682  0.17613026  0.16056696  1
  O2-  O313  1  0.49482829  0.17315520  0.50676033  1
  O2-  O314  1  0.50580176  0.18234178  0.82906351  1
  O2-  O315  1  0.49368081  0.68004579  0.17412633  1
  O2-  O316  1  0.49181020  0.68384826  0.50768854  1
  O2-  O317  1  0.49754246  0.68432060  0.83208382  1
  O2-  O318  1  0.82735642  0.18078140  0.16199995  1
  O2-  O319  1  0.83549999  0.17691946  0.50238153  1
  O2-  O320  1  0.83790645  0.19144797  0.82363809  1
  O2-  O321  1  0.83079538  0.68893399  0.16590036  1
  O2-  O322  1  0.82734954  0.68472792  0.49815011  1
  O2-  O323  1  0.83421871  0.69079719  0.82087516  1
  O2-  O324  1  0.00522463  0.32198827  0.16415539  1
  O2-  O325  1  0.01018639  0.32626748  0.51202205  1
  O2-  O326  1  0.00426937  0.31632304  0.83998393  1
  O2-  O327  1  0.00197512  0.81110142  0.16927702  1
  O2-  O328  1  0.00110179  0.81753626  0.50140970  1
  O2-  O329  1  -0.00570275  0.81254960  0.81748301  1
  O2-  O330  1  0.33139050  0.31822685  0.16117717  1
  O2-  O331  1  0.33473602  0.31727222  0.49840953  1
  O2-  O332  1  0.33383120  0.30679878  0.82707576  1
  O2-  O333  1  0.33841996  0.82483914  0.17382024  1
  O2-  O334  1  0.32988200  0.82297795  0.49881356  1
  O2-  O335  1  0.33222509  0.80686750  0.83342795  1
  O2-  O336  1  0.66384183  0.33012154  0.16134279  1
  O2-  O337  1  0.66385960  0.32596033  0.49617260  1
  O2-  O338  1  0.66893454  0.32023905  0.83323196  1
  O2-  O339  1  0.66560724  0.82584908  0.16720396  1
  O2-  O340  1  0.66405436  0.82838210  0.49870677  1
  O2-  O341  1  0.67180041  0.82341397  0.83912054  1
  O2-  O342  1  0.16668434  0.32440752  0.16376171  1
  O2-  O343  1  0.16043854  0.31738974  0.51306993  1
  O2-  O344  1  0.16449942  0.31414587  0.83938684  1
  O2-  O345  1  0.16670821  0.81418231  0.16910301  1
  O2-  O346  1  0.16361934  0.82798633  0.50675463  1
  O2-  O347  1  0.16966983  0.80950411  0.82756007  1
  O2-  O348  1  0.49696458  0.32934720  0.16963066  1
  O2-  O349  1  0.49684557  0.33121019  0.50615299  1
  O2-  O350  1  0.49727412  0.31628677  0.83680136  1
  O2-  O351  1  0.49333524  0.82410487  0.17705117  1
  O2-  O352  1  0.50354510  0.82258923  0.49559530  1
  O2-  O353  1  0.50183947  0.81787436  0.82536031  1
  O2-  O354  1  0.83802446  0.31984582  0.16000261  1
  O2-  O355  1  0.83689187  0.32171396  0.49701527  1
  O2-  O356  1  0.83121792  0.31350057  0.82785859  1
  O2-  O357  1  0.83755006  0.81793971  0.16895882  1
  O2-  O358  1  0.83458124  0.80958476  0.50259138  1
  O2-  O359  1  0.83192171  0.83426878  0.83427616  1
  O2-  O360  1  0.08094964  0.08103089  0.10744169  1
  O2-  O361  1  0.08452826  0.08395585  0.45609601  1
  O2-  O362  1  0.06028415  0.08361460  0.77006816  1
  O2-  O363  1  0.07542435  0.58507683  0.12698115  1
  O2-  O364  1  0.08904969  0.57891304  0.44810279  1
  O2-  O365  1  0.06794567  0.57304223  0.76548094  1
  O2-  O366  1  0.41575401  0.08385840  0.11977688  1
  O2-  O367  1  0.41669490  0.08546097  0.45031914  1
  O2-  O368  1  0.43903333  0.07149630  0.77781140  1
  O2-  O369  1  0.40244096  0.58091975  0.11345369  1
  O2-  O370  1  0.40064322  0.57053998  0.46858158  1
  O2-  O371  1  0.42687433  0.57617740  0.78136441  1
  O2-  O372  1  0.75340857  0.08284834  0.11215773  1
  O2-  O373  1  0.74209449  0.08554692  0.40105937  1
  O2-  O374  1  0.77175352  0.08608814  0.76436527  1
  O2-  O375  1  0.76584225  0.58236099  0.12687778  1
  O2-  O376  1  0.75747629  0.58054857  0.46210380  1
  O2-  O377  1  0.74933753  0.57832769  0.79283966  1
  O2-  O378  1  0.22858733  0.08606415  0.23322697  1
  O2-  O379  1  0.25871107  0.07071163  0.55350193  1
  O2-  O380  1  0.26446893  0.07667294  0.87811078  1
  O2-  O381  1  0.22714828  0.57095938  0.19545753  1
  O2-  O382  1  0.26073009  0.58133204  0.56661821  1
  O2-  O383  1  0.24324189  0.58725570  0.88637845  1
  O2-  O384  1  0.62700962  0.07469610  0.23770024  1
  O2-  O385  1  0.59254886  0.08423529  0.56832628  1
  O2-  O386  1  0.58384198  0.08271624  0.86997371  1
  O2-  O387  1  0.57830818  0.57995109  0.21478303  1
  O2-  O388  1  0.56039530  0.57413254  0.55598592  1
  O2-  O389  1  0.57988238  0.55982708  0.88031076  1
  O2-  O390  1  0.89328448  0.07934461  0.24083829  1
  O2-  O391  1  0.91102249  0.08438674  0.59773607  1
  O2-  O392  1  0.90881882  0.08474470  0.87586612  1
  O2-  O393  1  0.93322656  0.57578013  0.21096112  1
  O2-  O394  1  0.91226499  0.56169992  0.55373931  1
  O2-  O395  1  0.92269442  0.58172723  0.85853366  1
  O2-  O396  1  0.08171833  0.41617973  0.09421672  1
  O2-  O397  1  0.08960529  0.41259130  0.44425581  1
  O2-  O398  1  0.09096384  0.41720052  0.78527988  1
  O2-  O399  1  0.06858444  0.92072772  0.11601262  1
  O2-  O400  1  0.06915421  0.92296993  0.45749732  1
  O2-  O401  1  0.07038308  0.92050460  0.77354967  1
  O2-  O402  1  0.40015358  0.41705683  0.10790373  1
  O2-  O403  1  0.41722065  0.42285541  0.44624615  1
  O2-  O404  1  0.39477196  0.41704043  0.78515683  1
  O2-  O405  1  0.41257924  0.92396976  0.11311962  1
  O2-  O406  1  0.41930853  0.92138036  0.45815636  1
  O2-  O407  1  0.40030833  0.92300000  0.77121841  1
  O2-  O408  1  0.76573343  0.41719719  0.09110733  1
  O2-  O409  1  0.74427632  0.42464479  0.42701789  1
  O2-  O410  1  0.76161191  0.42021647  0.78562235  1
  O2-  O411  1  0.77050683  0.92032814  0.12438404  1
  O2-  O412  1  0.77193112  0.92268481  0.46290238  1
  O2-  O413  1  0.75892452  0.92523627  0.78245276  1
  O2-  O414  1  0.23996217  0.41541220  0.22024433  1
  O2-  O415  1  0.23241053  0.41362200  0.57154562  1
  O2-  O416  1  0.24917521  0.42234817  0.87758736  1
  O2-  O417  1  0.25027855  0.92178549  0.20009824  1
  O2-  O418  1  0.24326090  0.91530943  0.56208793  1
  O2-  O419  1  0.23829638  0.90751888  0.89171027  1
  O2-  O420  1  0.58062321  0.42305393  0.22778610  1
  O2-  O421  1  0.58116793  0.42389010  0.55499811  1
  O2-  O422  1  0.58157731  0.42224546  0.88003649  1
  O2-  O423  1  0.56381199  0.92587456  0.21010176  1
  O2-  O424  1  0.58741128  0.92198894  0.55614189  1
  O2-  O425  1  0.59203507  0.91969184  0.87500408  1
  O2-  O426  1  0.93644565  0.42043942  0.21231823  1
  O2-  O427  1  0.93825242  0.42024383  0.55829924  1
  O2-  O428  1  0.91415625  0.41572838  0.90753293  1
  O2-  O429  1  0.92227156  0.91889689  0.21970981  1
  O2-  O430  1  0.92004167  0.92135990  0.55095956  1
  O2-  O431  1  0.92975242  0.92914476  0.87359087  1
  O2-  O432  1  -0.01528968  -0.00550150  0.02883054  1
  O2-  O433  1  0.00969377  -0.01121109  0.31918155  1
  O2-  O434  1  0.00184067  -0.01635824  0.66329833  1
  O2-  O435  1  -0.01156440  0.51709850  -0.00587963  1
  O2-  O436  1  -0.00198932  0.51331440  0.33040003  1
  O2-  O437  1  0.01291946  0.50542920  0.64494542  1
  O2-  O438  1  0.33937403  -0.00964447  -0.02312788  1
  O2-  O439  1  0.34048941  -0.01389629  0.31477027  1
  O2-  O440  1  0.34335751  0.00217925  0.65575142  1
  O2-  O441  1  0.33475962  0.51045047  -0.01317541  1
  O2-  O442  1  0.32344908  0.52151928  0.34694589  1
  O2-  O443  1  0.34379800  0.48351516  0.64777188  1
  O2-  O444  1  0.66927622  -0.02507903  -0.00574288  1
  O2-  O445  1  0.66486021  -0.02304277  0.35358707  1
  O2-  O446  1  0.65486776  0.00045925  0.68735848  1
  O2-  O447  1  0.66642105  0.49204175  -0.00787423  1
  O2-  O448  1  0.65585907  0.48815189  0.33946370  1
  O2-  O449  1  0.66690519  0.51443313  0.66015920  1
  O2-  O450  1  0.18427901  -0.00278457  0.03186184  1
  O2-  O451  1  0.17569811  -0.01148290  0.33906316  1
  O2-  O452  1  0.16504176  -0.01547317  0.67177078  1
  O2-  O453  1  0.16708143  0.52369817  -0.00439975  1
  O2-  O454  1  0.15774457  0.51106640  0.32593292  1
  O2-  O455  1  0.16628694  0.48706331  0.67705362  1
  O2-  O456  1  0.51516256  0.01059084  0.02095510  1
  O2-  O457  1  0.50223440  -0.02117253  0.34094972  1
  O2-  O458  1  0.50304052  -0.00753926  0.67523583  1
  O2-  O459  1  0.49634932  0.49400263  -0.00923218  1
  O2-  O460  1  0.48344196  0.49422036  0.31737460  1
  O2-  O461  1  0.50054643  0.49995366  0.65810684  1
  O2-  O462  1  0.83201669  -0.02259582  -0.00823709  1
  O2-  O463  1  0.83287416  -0.01942301  0.33351645  1
  O2-  O464  1  0.83981738  -0.01902072  0.67297396  1
  O2-  O465  1  0.82809721  0.51890084  -0.01896969  1
  O2-  O466  1  0.82182743  0.53765461  0.33084183  1
  O2-  O467  1  0.84540825  0.51339581  0.68001175  1
  O2-  O468  1  0.75136822  0.75004264  0.05582453  1
  O2-  O469  1  0.90874345  0.74982386  0.94548804  1
  O2-  O470  1  0.43593525  0.25480070  0.39876452  1
  O2-  O471  1  0.09228676  0.25006309  0.06301723  1
  O2-  O472  1  0.92773780  0.25302800  0.26118230  1
  O2-  O473  1  0.72570219  0.73995077  0.38688100  1
  O2-  O474  1  0.42014384  0.74801996  0.06860992  1
  O2-  O475  1  0.73688458  0.74387025  0.72232220  1
  O2-  O476  1  0.58237202  0.75593120  0.93205962  1
  O2-  O477  1  0.07166479  0.25019295  0.39494667  1
  O2-  O478  1  0.24471612  0.25199908  0.26617162  1
  O2-  O479  1  0.08130258  0.25257783  0.72465428  1
  O2-  O480  1  0.92641190  0.25264530  0.59846709  1
  O2-  O481  1  0.43219360  0.25138485  0.05618772  1
  O2-  O482  1  0.25680344  0.75026198  0.59683280  1
  O2-  O483  1  0.72923477  0.25016989  0.05817968  1
  O2-  O484  1  0.25562407  0.75314072  0.28595538  1
  O2-  O485  1  0.58569970  0.24884610  0.95216171  1
  O2-  O486  1  0.58630551  0.74340552  0.28376091  1
  O2-  O487  1  0.74879014  0.25874457  0.41104531  1
  O2-  O488  1  0.41650410  0.75105243  0.38961423  1
  O2-  O489  1  0.57271727  0.25296727  0.60153964  1
  O2-  O490  1  0.09589794  0.75323494  0.40426344  1
  O2-  O491  1  0.58855370  0.74524398  0.61112285  1
  O2-  O492  1  0.58074898  0.25902488  0.25772527  1
