# generated using pymatgen
data_Ca108Mn108O277
_symmetry_space_group_name_H-M   'P 1'
_cell_length_a   16.03931945
_cell_length_b   22.31935034
_cell_length_c   16.39549379
_cell_angle_alpha   89.99928625
_cell_angle_beta   90.00208995
_cell_angle_gamma   89.99517378
_symmetry_Int_Tables_number   1
_chemical_formula_structural   Ca108Mn108O277
_chemical_formula_sum   'Ca108 Mn108 O277'
_cell_volume   5869.37672486
_cell_formula_units_Z   1
loop_
 _symmetry_equiv_pos_site_id
 _symmetry_equiv_pos_as_xyz
  1  'x, y, z'
loop_
 _atom_type_symbol
 _atom_type_oxidation_number
  Ca2+  2.0
  Mn3.34+  3.34
  O2-  -2.0
loop_
 _atom_site_type_symbol
 _atom_site_label
 _atom_site_symmetry_multiplicity
 _atom_site_fract_x
 _atom_site_fract_y
 _atom_site_fract_z
 _atom_site_occupancy
  Ca2+  Ca0  1  0.09467124  0.26987159  0.24733762  1
  Ca2+  Ca1  1  0.08635055  0.25565864  0.58963298  1
  Ca2+  Ca2  1  0.09234313  0.26186999  0.92096391  1
  Ca2+  Ca3  1  0.06385248  0.74295988  0.24450900  1
  Ca2+  Ca4  1  0.08968425  0.75165459  0.59247960  1
  Ca2+  Ca5  1  0.09204817  0.73836721  0.90942842  1
  Ca2+  Ca6  1  0.39905842  0.25920189  0.25554247  1
  Ca2+  Ca7  1  0.41531280  0.26098312  0.58027148  1
  Ca2+  Ca8  1  0.40149292  0.26059142  0.90974416  1
  Ca2+  Ca9  1  0.42516704  0.74487175  0.23920284  1
  Ca2+  Ca10  1  0.42614392  0.75104720  0.58964411  1
  Ca2+  Ca11  1  0.41577738  0.74435531  0.92536437  1
  Ca2+  Ca12  1  0.74678637  0.24243505  0.26438985  1
  Ca2+  Ca13  1  0.74856371  0.25865042  0.58661807  1
  Ca2+  Ca14  1  0.75420746  0.27694326  0.91884237  1
  Ca2+  Ca15  1  0.75149246  0.74432769  0.24929383  1
  Ca2+  Ca16  1  0.73406473  0.74616554  0.57107796  1
  Ca2+  Ca17  1  0.74521808  0.75380705  0.92677154  1
  Ca2+  Ca18  1  0.23500525  0.23797239  0.09591305  1
  Ca2+  Ca19  1  0.25614926  0.23432079  0.39936601  1
  Ca2+  Ca20  1  0.22978617  0.23761615  0.75569893  1
  Ca2+  Ca21  1  0.26018227  0.75257088  0.09431739  1
  Ca2+  Ca22  1  0.25058685  0.75862721  0.41140361  1
  Ca2+  Ca23  1  0.25854761  0.74394392  0.74774244  1
  Ca2+  Ca24  1  0.58697265  0.26616470  0.08951998  1
  Ca2+  Ca25  1  0.56381782  0.24909215  0.40592612  1
  Ca2+  Ca26  1  0.58264083  0.27264703  0.75444669  1
  Ca2+  Ca27  1  0.58067481  0.74061298  0.10833878  1
  Ca2+  Ca28  1  0.59360738  0.74876177  0.40228512  1
  Ca2+  Ca29  1  0.57530351  0.75194384  0.75296282  1
  Ca2+  Ca30  1  0.94453466  0.24640521  0.10140269  1
  Ca2+  Ca31  1  0.92723370  0.25570780  0.40447841  1
  Ca2+  Ca32  1  0.92736282  0.25520540  0.75280526  1
  Ca2+  Ca33  1  0.90784050  0.74777614  0.10680726  1
  Ca2+  Ca34  1  0.89723845  0.74625951  0.39902889  1
  Ca2+  Ca35  1  0.92139447  0.75012447  0.75156642  1
  Ca2+  Ca36  1  0.09374499  0.57204401  0.60884240  1
  Ca2+  Ca37  1  0.75525667  0.08173268  0.59881421  1
  Ca2+  Ca38  1  0.40148691  0.09961367  0.90757113  1
  Ca2+  Ca39  1  0.40372556  0.11000645  0.25993553  1
  Ca2+  Ca40  1  0.75375673  0.06851289  0.91530573  1
  Ca2+  Ca41  1  0.56786113  0.07424891  0.74181672  1
  Ca2+  Ca42  1  0.91750435  0.60906864  0.08990511  1
  Ca2+  Ca43  1  0.88702143  0.60278312  0.39668257  1
  Ca2+  Ca44  1  0.09826755  0.10784488  0.91700494  1
  Ca2+  Ca45  1  0.95255316  0.08539239  0.09101281  1
  Ca2+  Ca46  1  0.23400050  0.59616716  0.76983703  1
  Ca2+  Ca47  1  0.08529862  0.59141182  0.24008028  1
  Ca2+  Ca48  1  0.92214688  0.09236637  0.74874549  1
  Ca2+  Ca49  1  0.40309938  0.11630068  0.54305166  1
  Ca2+  Ca50  1  0.39668883  0.11438364  0.26377984  1
  Ca2+  Ca51  1  0.40680859  0.58132774  0.60552370  1
  Ca2+  Ca52  1  0.73083668  0.61109052  0.24199728  1
  Ca2+  Ca53  1  0.25101189  0.58302400  0.06550612  1
  Ca2+  Ca54  1  0.41000599  0.09524841  0.90346103  1
  Ca2+  Ca55  1  0.62214202  0.60667654  0.40774554  1
  Ca2+  Ca56  1  0.11063528  0.12110400  0.23082592  1
  Ca2+  Ca57  1  0.26197795  0.58299616  0.06582721  1
  Ca2+  Ca58  1  0.10533721  0.11486018  0.23174782  1
  Ca2+  Ca59  1  0.24680116  0.56883301  0.40779794  1
  Ca2+  Ca60  1  0.08238386  0.57145448  0.60854936  1
  Ca2+  Ca61  1  0.57663963  0.57789909  0.74258642  1
  Ca2+  Ca62  1  0.25232423  0.56239616  0.40450240  1
  Ca2+  Ca63  1  0.10863808  0.10718085  0.59052273  1
  Ca2+  Ca64  1  0.24009991  0.59159669  0.76426255  1
  Ca2+  Ca65  1  0.59918630  0.09992537  0.39976045  1
  Ca2+  Ca66  1  0.73839002  0.58047090  0.93281474  1
  Ca2+  Ca67  1  0.45053699  0.59164127  0.23896504  1
  Ca2+  Ca68  1  0.74630707  0.58634240  0.93269059  1
  Ca2+  Ca69  1  0.76341826  0.07988237  0.59257507  1
  Ca2+  Ca70  1  0.75882830  0.57976367  0.59503918  1
  Ca2+  Ca71  1  0.58429985  0.08341968  0.09307164  1
  Ca2+  Ca72  1  0.89471167  0.91569444  0.73973159  1
  Ca2+  Ca73  1  0.74212283  0.90528462  0.24439548  1
  Ca2+  Ca74  1  0.91558695  0.39825787  0.08914321  1
  Ca2+  Ca75  1  0.07950218  0.89571956  0.58165597  1
  Ca2+  Ca76  1  0.24087769  0.41223910  0.74276170  1
  Ca2+  Ca77  1  0.43384147  0.90284734  0.24363998  1
  Ca2+  Ca78  1  0.24681777  0.91152040  0.41071453  1
  Ca2+  Ca79  1  0.58163118  0.91146015  0.74937697  1
  Ca2+  Ca80  1  0.74482634  0.42295537  0.60769768  1
  Ca2+  Ca81  1  0.59551934  0.90927142  0.07983524  1
  Ca2+  Ca82  1  0.88323167  0.91873266  0.74337960  1
  Ca2+  Ca83  1  0.42252751  0.90301951  0.24417128  1
  Ca2+  Ca84  1  0.25156640  0.41163155  0.08692140  1
  Ca2+  Ca85  1  0.40765719  0.41128250  0.58769537  1
  Ca2+  Ca86  1  0.24322036  0.40729731  0.08392165  1
  Ca2+  Ca87  1  0.90669286  0.42935231  0.72537239  1
  Ca2+  Ca88  1  0.42744982  0.90451151  0.92448698  1
  Ca2+  Ca89  1  0.74504731  0.91547626  0.59714874  1
  Ca2+  Ca90  1  0.25177288  0.41216631  0.74244895  1
  Ca2+  Ca91  1  0.74557902  0.39054375  0.24602857  1
  Ca2+  Ca92  1  0.91741786  0.90747436  0.41827417  1
  Ca2+  Ca93  1  0.08507327  0.41033488  0.58704343  1
  Ca2+  Ca94  1  0.57777659  0.40240934  0.41441290  1
  Ca2+  Ca95  1  0.42431638  0.90407066  0.59439223  1
  Ca2+  Ca96  1  0.75543685  0.42215306  0.60674740  1
  Ca2+  Ca97  1  0.41468556  0.41094835  0.91014545  1
  Ca2+  Ca98  1  0.89371809  0.91486441  0.07244383  1
  Ca2+  Ca99  1  0.06446828  0.91067722  0.94994129  1
  Ca2+  Ca100  1  0.27661852  0.90310254  0.75029813  1
  Ca2+  Ca101  1  0.91320893  0.42345903  0.72606286  1
  Ca2+  Ca102  1  0.73951329  0.91285900  0.92724426  1
  Ca2+  Ca103  1  0.26424295  0.90237105  0.75037650  1
  Ca2+  Ca104  1  0.07508605  0.91105201  0.95146260  1
  Ca2+  Ca105  1  0.40462393  0.41945032  0.25676570  1
  Ca2+  Ca106  1  0.08574787  0.90850560  0.23112993  1
  Ca2+  Ca107  1  0.07295131  0.90850454  0.23089099  1
  Mn3.34+  Mn108  1  0.08234977  0.33735284  0.08024683  1
  Mn3.34+  Mn109  1  0.08516234  0.33476689  0.41511005  1
  Mn3.34+  Mn110  1  0.08030668  0.33301491  0.75367162  1
  Mn3.34+  Mn111  1  0.08220195  0.82356888  0.08569201  1
  Mn3.34+  Mn112  1  0.08174280  0.83523937  0.41670453  1
  Mn3.34+  Mn113  1  0.08488793  0.82700876  0.75718533  1
  Mn3.34+  Mn114  1  0.42045259  0.34025075  0.08589791  1
  Mn3.34+  Mn115  1  0.41154872  0.33642599  0.41579281  1
  Mn3.34+  Mn116  1  0.41792160  0.33171244  0.74773574  1
  Mn3.34+  Mn117  1  0.41634685  0.83322675  0.08204800  1
  Mn3.34+  Mn118  1  0.42045071  0.83540394  0.42139658  1
  Mn3.34+  Mn119  1  0.42343118  0.82785566  0.75774300  1
  Mn3.34+  Mn120  1  0.75224051  0.33609700  0.08271067  1
  Mn3.34+  Mn121  1  0.74989980  0.32805441  0.42093240  1
  Mn3.34+  Mn122  1  0.74937775  0.33521910  0.75444889  1
  Mn3.34+  Mn123  1  0.74872699  0.83388277  0.08501331  1
  Mn3.34+  Mn124  1  0.74766407  0.84130988  0.42249295  1
  Mn3.34+  Mn125  1  0.74390271  0.83062250  0.75262843  1
  Mn3.34+  Mn126  1  0.24679879  0.34184108  0.25472181  1
  Mn3.34+  Mn127  1  0.24823937  0.34267452  0.57298791  1
  Mn3.34+  Mn128  1  0.24850225  0.34140831  0.91176350  1
  Mn3.34+  Mn129  1  0.24924677  0.82925800  0.24883630  1
  Mn3.34+  Mn130  1  0.25145023  0.82914318  0.57744155  1
  Mn3.34+  Mn131  1  0.24919473  0.82614348  0.91756205  1
  Mn3.34+  Mn132  1  0.57968886  0.33463837  0.24670839  1
  Mn3.34+  Mn133  1  0.58168238  0.33671262  0.58209067  1
  Mn3.34+  Mn134  1  0.58459988  0.33958526  0.92147260  1
  Mn3.34+  Mn135  1  0.58817948  0.83017449  0.25324251  1
  Mn3.34+  Mn136  1  0.58480044  0.82926543  0.58032283  1
  Mn3.34+  Mn137  1  0.58379666  0.82993138  0.91938013  1
  Mn3.34+  Mn138  1  0.92024929  0.33033954  0.25366382  1
  Mn3.34+  Mn139  1  0.91644622  0.33480705  0.57251004  1
  Mn3.34+  Mn140  1  0.91910144  0.34075365  0.91526583  1
  Mn3.34+  Mn141  1  0.91244623  0.83352116  0.25029911  1
  Mn3.34+  Mn142  1  0.91387236  0.82755694  0.57668057  1
  Mn3.34+  Mn143  1  0.91475422  0.82553189  0.91476352  1
  Mn3.34+  Mn144  1  0.91881391  0.65963901  0.58013153  1
  Mn3.34+  Mn145  1  0.59409036  0.16404436  0.91367929  1
  Mn3.34+  Mn146  1  0.74201089  0.66824238  0.75417511  1
  Mn3.34+  Mn147  1  0.92203675  0.16473922  0.57431971  1
  Mn3.34+  Mn148  1  0.42033354  0.66061552  0.42172075  1
  Mn3.34+  Mn149  1  0.58156208  0.17042611  0.91808859  1
  Mn3.34+  Mn150  1  0.41091935  0.16726275  0.74451702  1
  Mn3.34+  Mn151  1  0.24582476  0.17627304  0.92376986  1
  Mn3.34+  Mn152  1  0.58598336  0.17200750  0.58562603  1
  Mn3.34+  Mn153  1  0.75937566  0.16228199  0.08828695  1
  Mn3.34+  Mn154  1  0.90891612  0.17052772  0.92084686  1
  Mn3.34+  Mn155  1  0.74779051  0.16634409  0.75393942  1
  Mn3.34+  Mn156  1  0.57580553  0.16729124  0.58282198  1
  Mn3.34+  Mn157  1  0.91351673  0.17072869  0.57736848  1
  Mn3.34+  Mn158  1  0.91593774  0.16834900  0.25862072  1
  Mn3.34+  Mn159  1  0.09051549  0.66985769  0.41796376  1
  Mn3.34+  Mn160  1  0.25048077  0.17522724  0.57923727  1
  Mn3.34+  Mn161  1  0.92325801  0.66852217  0.91252247  1
  Mn3.34+  Mn162  1  0.25058662  0.66241271  0.24166440  1
  Mn3.34+  Mn163  1  0.08411298  0.67150146  0.08001337  1
  Mn3.34+  Mn164  1  0.24947584  0.66219773  0.58035310  1
  Mn3.34+  Mn165  1  0.08772833  0.16491078  0.41689780  1
  Mn3.34+  Mn166  1  0.40899655  0.66638794  0.41814727  1
  Mn3.34+  Mn167  1  0.74883151  0.15795804  0.09086920  1
  Mn3.34+  Mn168  1  0.58517169  0.17117020  0.24985155  1
  Mn3.34+  Mn169  1  0.42272411  0.66435878  0.75805995  1
  Mn3.34+  Mn170  1  0.91953696  0.67190241  0.58106206  1
  Mn3.34+  Mn171  1  0.42007852  0.16626590  0.08625499  1
  Mn3.34+  Mn172  1  0.58196004  0.66350226  0.58176285  1
  Mn3.34+  Mn173  1  0.74772694  0.66826577  0.08607845  1
  Mn3.34+  Mn174  1  0.42290673  0.66655053  0.08327011  1
  Mn3.34+  Mn175  1  0.25355956  0.66597797  0.91679986  1
  Mn3.34+  Mn176  1  0.57478743  0.65787799  0.91884246  1
  Mn3.34+  Mn177  1  0.07914597  0.66148569  0.42268998  1
  Mn3.34+  Mn178  1  0.91906985  0.16611694  0.91754659  1
  Mn3.34+  Mn179  1  0.75530204  0.66218857  0.75766018  1
  Mn3.34+  Mn180  1  0.74999194  -0.00524820  0.40496183  1
  Mn3.34+  Mn181  1  0.41095621  0.00276226  0.08112952  1
  Mn3.34+  Mn182  1  0.92271137  0.50072665  0.92278499  1
  Mn3.34+  Mn183  1  0.24328024  0.00410953  0.92669850  1
  Mn3.34+  Mn184  1  0.25433858  -0.00529081  0.23253792  1
  Mn3.34+  Mn185  1  0.56787070  -0.00008463  0.56923494  1
  Mn3.34+  Mn186  1  0.42377433  0.49983236  0.40837951  1
  Mn3.34+  Mn187  1  0.73813025  0.49742199  0.08530647  1
  Mn3.34+  Mn188  1  0.42003170  -0.00568646  0.40565667  1
  Mn3.34+  Mn189  1  0.25062417  0.00439349  0.57476754  1
  Mn3.34+  Mn190  1  0.57865714  -0.00421655  0.56625227  1
  Mn3.34+  Mn191  1  0.24132399  0.00179867  0.23361481  1
  Mn3.34+  Mn192  1  0.91758263  0.00024491  0.91813898  1
  Mn3.34+  Mn193  1  0.08356519  0.48817488  0.40053129  1
  Mn3.34+  Mn194  1  0.42924377  0.50081477  0.06660811  1
  Mn3.34+  Mn195  1  0.93219817  0.50658538  0.92465354  1
  Mn3.34+  Mn196  1  0.91746148  0.49828273  0.24968258  1
  Mn3.34+  Mn197  1  0.08299376  0.00479736  0.41314925  1
  Mn3.34+  Mn198  1  0.76100624  0.49053802  0.41899959  1
  Mn3.34+  Mn199  1  0.58466767  0.00267737  0.25266754  1
  Mn3.34+  Mn200  1  0.92744024  -0.00190376  0.57687455  1
  Mn3.34+  Mn201  1  0.08578065  -0.00295054  0.75756979  1
  Mn3.34+  Mn202  1  0.09860040  0.00469112  0.75518072  1
  Mn3.34+  Mn203  1  0.91422460  0.00872691  0.25118359  1
  Mn3.34+  Mn204  1  0.57832528  0.49613882  0.92230066  1
  Mn3.34+  Mn205  1  0.92888581  0.49095479  0.25348033  1
  Mn3.34+  Mn206  1  0.92505570  0.00571482  0.24759540  1
  Mn3.34+  Mn207  1  0.08281390  0.49948744  0.76199773  1
  Mn3.34+  Mn208  1  0.25163116  -0.00151737  0.92227372  1
  Mn3.34+  Mn209  1  0.59003992  0.49620506  0.24876566  1
  Mn3.34+  Mn210  1  0.57542428  0.50201023  0.58018946  1
  Mn3.34+  Mn211  1  0.41844697  0.50131091  0.75884523  1
  Mn3.34+  Mn212  1  0.08182950  0.49987947  0.08285854  1
  Mn3.34+  Mn213  1  0.26003256  -0.00083137  0.57699817  1
  Mn3.34+  Mn214  1  0.57959925  -0.00057718  0.92199005  1
  Mn3.34+  Mn215  1  0.75056451  0.49614829  0.42041102  1
  O2-  O216  1  -0.00123349  0.14900348  -0.00401030  1
  O2-  O217  1  0.00716769  0.14293615  0.32907340  1
  O2-  O218  1  -0.00289663  0.14247704  0.65344120  1
  O2-  O219  1  -0.00477833  0.69253636  0.00262438  1
  O2-  O220  1  0.00153746  0.64957795  0.34023856  1
  O2-  O221  1  0.00181191  0.68473510  0.65944591  1
  O2-  O222  1  0.35017205  0.16601334  -0.00861327  1
  O2-  O223  1  0.33702596  0.17210850  0.33043371  1
  O2-  O224  1  0.33468012  0.17216003  0.66237787  1
  O2-  O225  1  0.33207627  0.66169160  0.00172566  1
  O2-  O226  1  0.33599945  0.63711424  0.33384580  1
  O2-  O227  1  0.32599037  0.65105651  0.67554095  1
  O2-  O228  1  0.67093606  0.13876140  -0.00436416  1
  O2-  O229  1  0.66515463  0.17002793  0.32855436  1
  O2-  O230  1  0.66257257  0.13673237  0.66058913  1
  O2-  O231  1  0.66957537  0.65876760  -0.00868669  1
  O2-  O232  1  0.68228118  0.67924357  0.33756685  1
  O2-  O233  1  0.66904898  0.64123746  0.66934098  1
  O2-  O234  1  0.17954896  0.15779073  0.00576629  1
  O2-  O235  1  0.16872494  0.15310160  0.34503326  1
  O2-  O236  1  0.17069441  0.18150151  0.65696729  1
  O2-  O237  1  0.17560486  0.68225045  0.00332081  1
  O2-  O238  1  0.17407821  0.64316663  0.33658316  1
  O2-  O239  1  0.16707811  0.66472827  0.65828007  1
  O2-  O240  1  0.50506311  0.14199297  -0.00058174  1
  O2-  O241  1  0.50528466  0.15954251  0.32681824  1
  O2-  O242  1  0.49785719  0.14375326  0.66229366  1
  O2-  O243  1  0.50544645  0.68357951  0.00186961  1
  O2-  O244  1  0.50410328  0.64617972  0.34794036  1
  O2-  O245  1  0.49861067  0.64743339  0.66938652  1
  O2-  O246  1  0.83606742  0.13600147  0.00205524  1
  O2-  O247  1  0.84208289  0.18531803  0.33724180  1
  O2-  O248  1  0.83660060  0.15182919  0.66817395  1
  O2-  O249  1  0.83271698  0.65291748  -0.00878860  1
  O2-  O250  1  0.81625234  0.67169317  0.33292629  1
  O2-  O251  1  0.83812987  0.65320189  0.66613752  1
  O2-  O252  1  -0.00136438  0.35213030  -0.00068538  1
  O2-  O253  1  -0.00680481  0.34728403  0.34118962  1
  O2-  O254  1  -0.00396672  0.35598594  0.66996141  1
  O2-  O255  1  -0.00935494  0.83377441  0.00497184  1
  O2-  O256  1  0.00105427  0.85380025  0.32550192  1
  O2-  O257  1  -0.00204714  0.82753992  0.67320865  1
  O2-  O258  1  0.33572735  0.35468153  -0.00372656  1
  O2-  O259  1  0.33622356  0.34909420  0.32848847  1
  O2-  O260  1  0.32696767  0.33489929  0.66530278  1
  O2-  O261  1  0.33675692  0.83682153  -0.00712896  1
  O2-  O262  1  0.33496954  0.85620067  0.33239037  1
  O2-  O263  1  0.33400432  0.83927947  0.66401149  1
  O2-  O264  1  0.66339500  0.34181633  0.00666988  1
  O2-  O265  1  0.66258007  0.34004034  0.33955030  1
  O2-  O266  1  0.67058110  0.34716821  0.66175819  1
  O2-  O267  1  0.66791260  0.83968701  -0.00146296  1
  O2-  O268  1  0.67676051  0.83202184  0.32806819  1
  O2-  O269  1  0.66494102  0.85054761  0.66808728  1
  O2-  O270  1  0.16969791  0.35368875  -0.00362447  1
  O2-  O271  1  0.16258068  0.34363283  0.33132433  1
  O2-  O272  1  0.16564805  0.34315062  0.66451035  1
  O2-  O273  1  0.15571518  0.82553597  -0.00816732  1
  O2-  O274  1  0.16537016  0.85243692  0.33004158  1
  O2-  O275  1  0.17072532  0.82966879  0.67016288  1
  O2-  O276  1  0.49269176  0.32381637  -0.00090330  1
  O2-  O277  1  0.49615363  0.35159049  0.32877937  1
  O2-  O278  1  0.49514610  0.35149653  0.66126233  1
  O2-  O279  1  0.50553191  0.84168259  0.00582556  1
  O2-  O280  1  0.50396046  0.85205273  0.33542416  1
  O2-  O281  1  0.50463821  0.84517588  0.67431749  1
  O2-  O282  1  0.83118082  0.35195760  -0.00637956  1
  O2-  O283  1  0.82432831  0.32377222  0.32766447  1
  O2-  O284  1  0.83217547  0.34131336  0.66180138  1
  O2-  O285  1  0.82896447  0.84351544  -0.00835299  1
  O2-  O286  1  0.83513849  0.84501072  0.33839985  1
  O2-  O287  1  0.83312906  0.84478447  0.66405963  1
  O2-  O288  1  -0.00358277  0.16048669  0.16838252  1
  O2-  O289  1  -0.00015775  0.18469744  0.49544707  1
  O2-  O290  1  -0.00952606  0.17846335  0.83274428  1
  O2-  O291  1  0.00474021  0.67848785  0.15696660  1
  O2-  O292  1  -0.00433888  0.69727583  0.49853646  1
  O2-  O293  1  -0.00763688  0.69971978  0.83840775  1
  O2-  O294  1  0.34701579  0.18608664  0.16396296  1
  O2-  O295  1  0.33044429  0.19749905  0.51005300  1
  O2-  O296  1  0.33613567  0.17942673  0.83398211  1
  O2-  O297  1  0.33218133  0.67749158  0.16416430  1
  O2-  O298  1  0.33091493  0.68527699  0.49881193  1
  O2-  O299  1  0.33615098  0.68246709  0.83594997  1
  O2-  O300  1  0.66140431  0.18141679  0.15891754  1
  O2-  O301  1  0.66688841  0.17959494  0.50759052  1
  O2-  O302  1  0.65260060  0.18149377  0.82152822  1
  O2-  O303  1  0.67260939  0.68068861  0.16308098  1
  O2-  O304  1  0.65592182  0.67962079  0.50221360  1
  O2-  O305  1  0.66127811  0.68907088  0.83901253  1
  O2-  O306  1  0.15445049  0.19446483  0.17974386  1
  O2-  O307  1  0.16162121  0.18779932  0.50296509  1
  O2-  O308  1  0.16249848  0.18435320  0.85290025  1
  O2-  O309  1  0.16454248  0.68677127  0.17008404  1
  O2-  O310  1  0.16644838  0.69210218  0.49952545  1
  O2-  O311  1  0.18302468  0.68001440  0.83015024  1
  O2-  O312  1  0.50534375  0.18454651  0.15851226  1
  O2-  O313  1  0.49900961  0.18809912  0.50396395  1
  O2-  O314  1  0.49194052  0.17874411  0.84345472  1
  O2-  O315  1  0.49278976  0.67271109  0.16687992  1
  O2-  O316  1  0.49039095  0.68416430  0.50594676  1
  O2-  O317  1  0.50272719  0.68421597  0.83528113  1
  O2-  O318  1  0.83548700  0.18749589  0.16974365  1
  O2-  O319  1  0.82255486  0.17937690  0.51396956  1
  O2-  O320  1  0.82935230  0.18723803  0.84274650  1
  O2-  O321  1  0.83008527  0.67375834  0.16014342  1
  O2-  O322  1  0.83477965  0.68060592  0.50457932  1
  O2-  O323  1  0.82765161  0.69283440  0.83810202  1
  O2-  O324  1  0.00020421  0.32974843  0.16321387  1
  O2-  O325  1  0.00804485  0.32183686  0.50786182  1
  O2-  O326  1  -0.00012109  0.32135191  0.83395774  1
  O2-  O327  1  0.00178801  0.81935757  0.16970949  1
  O2-  O328  1  0.00047205  0.81460017  0.49956686  1
  O2-  O329  1  0.01118828  0.81973984  0.84588705  1
  O2-  O330  1  0.33060526  0.32288518  0.15355869  1
  O2-  O331  1  0.33897236  0.32928076  0.50645333  1
  O2-  O332  1  0.32734003  0.31984900  0.82447623  1
  O2-  O333  1  0.34121249  0.82689152  0.17611553  1
  O2-  O334  1  0.33316315  0.81242007  0.49971452  1
  O2-  O335  1  0.32672379  0.81511922  0.82939544  1
  O2-  O336  1  0.67401380  0.31807356  0.17432656  1
  O2-  O337  1  0.66362599  0.31021481  0.49878371  1
  O2-  O338  1  0.66716223  0.32751167  0.83518588  1
  O2-  O339  1  0.66490380  0.82057942  0.16411030  1
  O2-  O340  1  0.66430286  0.81292347  0.49541141  1
  O2-  O341  1  0.66399920  0.81337489  0.83629068  1
  O2-  O342  1  0.17354228  0.33063282  0.15503525  1
  O2-  O343  1  0.16796490  0.31667676  0.50341459  1
  O2-  O344  1  0.17106337  0.32133856  0.82769120  1
  O2-  O345  1  0.15956478  0.81050499  0.17041482  1
  O2-  O346  1  0.16527374  0.81421711  0.50256564  1
  O2-  O347  1  0.17365392  0.80722961  0.82972101  1
  O2-  O348  1  0.49517385  0.31772912  0.16959008  1
  O2-  O349  1  0.50358070  0.32443966  0.49682034  1
  O2-  O350  1  0.49126029  0.32372906  0.83899000  1
  O2-  O351  1  0.49825025  0.82750278  0.17148281  1
  O2-  O352  1  0.49406864  0.81626591  0.50875951  1
  O2-  O353  1  0.49694939  0.81197716  0.84671394  1
  O2-  O354  1  0.83875419  0.31590014  0.16152818  1
  O2-  O355  1  0.83613940  0.30702317  0.49693795  1
  O2-  O356  1  0.83969913  0.32130159  0.82448428  1
  O2-  O357  1  0.82985813  0.82586815  0.16859564  1
  O2-  O358  1  0.83000995  0.80612526  0.49793381  1
  O2-  O359  1  0.84131120  0.81798779  0.82535131  1
  O2-  O360  1  0.04167869  0.03301436  0.17756729  1
  O2-  O361  1  0.08980492  0.08280726  0.45999227  1
  O2-  O362  1  0.07041586  0.08016269  0.78558434  1
  O2-  O363  1  0.09443315  0.58315279  0.09829013  1
  O2-  O364  1  0.09591132  0.58009079  0.46229433  1
  O2-  O365  1  0.09574773  0.58234707  0.75271383  1
  O2-  O366  1  0.42212035  0.08048839  0.12871899  1
  O2-  O367  1  0.44321925  0.07141941  0.42705449  1
  O2-  O368  1  0.42279330  0.08334578  0.77657809  1
  O2-  O369  1  0.40487741  0.58024604  0.10378582  1
  O2-  O370  1  0.39348841  0.57431246  0.46612898  1
  O2-  O371  1  0.42999642  0.58236380  0.78571224  1
  O2-  O372  1  0.74290132  0.07767513  0.11069491  1
  O2-  O373  1  0.71601650  0.05700296  0.47280158  1
  O2-  O374  1  0.75518893  0.08395943  0.77487951  1
  O2-  O375  1  0.75444059  0.58109733  0.10246174  1
  O2-  O376  1  0.76001227  0.57455768  0.45975183  1
  O2-  O377  1  0.74428911  0.58334183  0.79319426  1
  O2-  O378  1  0.25754887  0.08337176  0.22064215  1
  O2-  O379  1  0.26222869  0.08716012  0.55985495  1
  O2-  O380  1  0.25779240  0.08484044  0.89350701  1
  O2-  O381  1  0.23952508  0.58443542  0.20313329  1
  O2-  O382  1  0.22818490  0.57676323  0.54750881  1
  O2-  O383  1  0.24453572  0.58339536  0.90577132  1
  O2-  O384  1  0.57185708  0.08395484  0.22955598  1
  O2-  O385  1  0.56530656  0.08285390  0.54203148  1
  O2-  O386  1  0.57557584  0.07998323  0.87990760  1
  O2-  O387  1  0.59400955  0.57273866  0.22787156  1
  O2-  O388  1  0.57255735  0.58073012  0.54213118  1
  O2-  O389  1  0.60265274  0.57445135  0.87940297  1
  O2-  O390  1  0.88675016  0.08774169  0.23021795  1
  O2-  O391  1  0.89377430  0.07989356  0.55203878  1
  O2-  O392  1  0.90518149  0.07991415  0.88333166  1
  O2-  O393  1  0.93593522  0.57187476  0.20852635  1
  O2-  O394  1  0.95234667  0.58210783  0.54561644  1
  O2-  O395  1  0.91005866  0.58275615  0.87739496  1
  O2-  O396  1  0.08689301  0.42220201  0.11340614  1
  O2-  O397  1  0.08936647  0.41744722  0.45251096  1
  O2-  O398  1  0.10171109  0.41835194  0.77747444  1
  O2-  O399  1  0.07929148  0.91155885  0.09304059  1
  O2-  O400  1  0.08657952  0.92018596  0.45315899  1
  O2-  O401  1  0.11153827  0.91730526  0.78497198  1
  O2-  O402  1  0.42263728  0.42727052  0.11729127  1
  O2-  O403  1  0.43333388  0.42514416  0.45252686  1
  O2-  O404  1  0.39280134  0.41834352  0.76469235  1
  O2-  O405  1  0.42408644  0.91873221  0.10739453  1
  O2-  O406  1  0.39841076  0.92280266  0.46073053  1
  O2-  O407  1  0.40561547  0.91070251  0.78912367  1
  O2-  O408  1  0.76695775  0.42048884  0.11685826  1
  O2-  O409  1  0.74456952  0.41381084  0.46321277  1
  O2-  O410  1  0.76672801  0.41671892  0.75350079  1
  O2-  O411  1  0.74673403  0.91564459  0.10378227  1
  O2-  O412  1  0.77364173  0.92546308  0.46695282  1
  O2-  O413  1  0.75589116  0.91668894  0.78577099  1
  O2-  O414  1  0.26709934  0.42253384  0.21713067  1
  O2-  O415  1  0.25646252  0.42131082  0.58618942  1
  O2-  O416  1  0.26190176  0.42123087  0.87970887  1
  O2-  O417  1  0.22672951  0.91672534  0.20115098  1
  O2-  O418  1  0.23566584  0.91784305  0.54986973  1
  O2-  O419  1  0.24186158  0.91787274  0.88563468  1
  O2-  O420  1  0.59458877  0.41662737  0.22349409  1
  O2-  O421  1  0.59683353  0.42113668  0.55251274  1
  O2-  O422  1  0.56315183  0.41868978  0.89401320  1
  O2-  O423  1  0.58766751  0.92091230  0.21905408  1
  O2-  O424  1  0.58148975  0.91318160  0.54784279  1
  O2-  O425  1  0.57555080  0.92053426  0.88791324  1
  O2-  O426  1  0.89665556  0.41355944  0.23107092  1
  O2-  O427  1  0.89556710  0.41407241  0.56263024  1
  O2-  O428  1  0.92530363  0.42822540  0.86401523  1
  O2-  O429  1  0.92799011  0.92262937  0.20517743  1
  O2-  O430  1  0.93634176  0.91489840  0.55928863  1
  O2-  O431  1  0.94249848  0.92282811  0.87114242  1
  O2-  O432  1  -0.01518074  -0.01499530  0.00511524  1
  O2-  O433  1  -0.00033548  -0.02166601  0.33084152  1
  O2-  O434  1  -0.01104495  -0.00917353  0.68967076  1
  O2-  O435  1  -0.02346867  0.50186008  0.03462634  1
  O2-  O436  1  -0.00407225  0.51829107  0.34049934  1
  O2-  O437  1  0.00750756  0.49287740  0.66966947  1
  O2-  O438  1  0.36274627  0.00323926  -0.03716532  1
  O2-  O439  1  0.32627072  -0.01341036  0.32849492  1
  O2-  O440  1  0.32640475  -0.02810507  0.66730952  1
  O2-  O441  1  0.32737111  0.49412719  0.03034386  1
  O2-  O442  1  0.34090626  0.51022971  0.33591005  1
  O2-  O443  1  0.31159914  0.51785679  0.71578646  1
  O2-  O444  1  0.67184914  -0.00283392  -0.02416858  1
  O2-  O445  1  0.66854487  0.00440898  0.32778201  1
  O2-  O446  1  0.67721278  0.00589867  0.63327795  1
  O2-  O447  1  0.66881174  0.50526533  -0.00958683  1
  O2-  O448  1  0.66764553  0.49749273  0.33803355  1
  O2-  O449  1  0.67503983  0.50826613  0.63241549  1
  O2-  O450  1  0.13375118  0.00340473  -0.03861260  1
  O2-  O451  1  0.16041704  -0.01343452  0.31857087  1
  O2-  O452  1  0.15055951  0.00256055  0.64588846  1
  O2-  O453  1  0.18696075  0.49711678  0.04385133  1
  O2-  O454  1  0.16020655  0.51907914  0.32949740  1
  O2-  O455  1  0.16670808  0.49904509  0.67806211  1
  O2-  O456  1  0.51773342  0.00696658  0.01889448  1
  O2-  O457  1  0.47709863  -0.00876682  0.29767000  1
  O2-  O458  1  0.51736262  -0.01283671  0.67504590  1
  O2-  O459  1  0.47103928  0.50327588  -0.03859674  1
  O2-  O460  1  0.49947049  0.49792359  0.32405029  1
  O2-  O461  1  0.48164373  0.50275545  0.65344976  1
  O2-  O462  1  0.82738253  -0.01275877  -0.02909164  1
  O2-  O463  1  0.83193976  -0.02504158  0.32690816  1
  O2-  O464  1  0.83399533  -0.01189753  0.65751160  1
  O2-  O465  1  0.82359992  0.50987903  -0.01420411  1
  O2-  O466  1  0.83497420  0.51190756  0.33266749  1
  O2-  O467  1  0.83322271  0.49423086  0.65863060  1
  O2-  O468  1  0.75894060  0.75038479  0.06096843  1
  O2-  O469  1  0.41669807  0.25965881  0.39582965  1
  O2-  O470  1  0.92764891  0.25028899  0.61415823  1
  O2-  O471  1  0.58006458  0.25284974  0.61999526  1
  O2-  O472  1  0.58424870  0.74737993  0.61599895  1
  O2-  O473  1  0.08755929  0.74995828  0.37913498  1
  O2-  O474  1  0.59894242  0.25036372  0.94171228  1
  O2-  O475  1  0.43664502  0.24999139  0.72559310  1
  O2-  O476  1  0.24971377  0.26132513  0.26302817  1
  O2-  O477  1  0.74794849  0.74603316  0.71368842  1
  O2-  O478  1  0.41862718  0.74639390  0.72501315  1
  O2-  O479  1  0.91559557  0.75518120  0.26565781  1
  O2-  O480  1  0.25349728  0.25755382  0.94556438  1
  O2-  O481  1  0.74058159  0.24845333  0.72502507  1
  O2-  O482  1  0.74918256  0.24077207  0.05060920  1
  O2-  O483  1  0.94807974  0.24991079  0.26015832  1
  O2-  O484  1  0.07315814  0.25643683  0.72955380  1
  O2-  O485  1  0.57142516  0.75273408  0.26439647  1
  O2-  O486  1  0.91324365  0.25204903  0.95133062  1
  O2-  O487  1  0.07665492  0.24926496  0.38726741  1
  O2-  O488  1  0.41635627  0.74956761  0.38096898  1
  O2-  O489  1  0.40784233  0.75123613  0.07242998  1
  O2-  O490  1  0.08168370  0.25907219  0.05945675  1
  O2-  O491  1  0.57933763  0.25354412  0.26901182  1
  O2-  O492  1  0.26332853  0.74468886  0.27783045  1
