# generated using pymatgen
data_Ca108Mn108O277
_symmetry_space_group_name_H-M   'P 1'
_cell_length_a   16.01405860
_cell_length_b   22.28756511
_cell_length_c   16.37903741
_cell_angle_alpha   89.99698587
_cell_angle_beta   90.00301719
_cell_angle_gamma   89.99844415
_symmetry_Int_Tables_number   1
_chemical_formula_structural   Ca108Mn108O277
_chemical_formula_sum   'Ca108 Mn108 O277'
_cell_volume   5845.91385936
_cell_formula_units_Z   1
loop_
 _symmetry_equiv_pos_site_id
 _symmetry_equiv_pos_as_xyz
  1  'x, y, z'
loop_
 _atom_type_symbol
 _atom_type_oxidation_number
  Ca2+  2.0
  Mn3.34+  3.34
  O2-  -2.0
loop_
 _atom_site_type_symbol
 _atom_site_label
 _atom_site_symmetry_multiplicity
 _atom_site_fract_x
 _atom_site_fract_y
 _atom_site_fract_z
 _atom_site_occupancy
  Ca2+  Ca0  1  0.07636640  0.25237956  0.23933664  1
  Ca2+  Ca1  1  0.08378489  0.26080871  0.59369853  1
  Ca2+  Ca2  1  0.10746081  0.24724851  0.91880725  1
  Ca2+  Ca3  1  0.08261431  0.75960254  0.26137496  1
  Ca2+  Ca4  1  0.07456827  0.75849567  0.57542662  1
  Ca2+  Ca5  1  0.09334614  0.76973838  0.91275695  1
  Ca2+  Ca6  1  0.43490942  0.24156398  0.23554613  1
  Ca2+  Ca7  1  0.41659113  0.25292200  0.59456417  1
  Ca2+  Ca8  1  0.40908330  0.23878277  0.91886609  1
  Ca2+  Ca9  1  0.43024553  0.76234337  0.24966053  1
  Ca2+  Ca10  1  0.41636941  0.76848787  0.59235518  1
  Ca2+  Ca11  1  0.44100081  0.75272800  0.91422464  1
  Ca2+  Ca12  1  0.73344530  0.22542631  0.24151077  1
  Ca2+  Ca13  1  0.74872660  0.25832928  0.59177387  1
  Ca2+  Ca14  1  0.72813598  0.23625466  0.92959871  1
  Ca2+  Ca15  1  0.73864964  0.74499603  0.26477624  1
  Ca2+  Ca16  1  0.75495738  0.74824359  0.56296750  1
  Ca2+  Ca17  1  0.72365895  0.75549425  0.92298463  1
  Ca2+  Ca18  1  0.26357120  0.23333810  0.06423281  1
  Ca2+  Ca19  1  0.25996307  0.24292506  0.43138753  1
  Ca2+  Ca20  1  0.25738862  0.24138157  0.76249771  1
  Ca2+  Ca21  1  0.25655792  0.76495463  0.07941500  1
  Ca2+  Ca22  1  0.24555672  0.76347519  0.42253086  1
  Ca2+  Ca23  1  0.25816215  0.76813897  0.74731376  1
  Ca2+  Ca24  1  0.57396306  0.23525685  0.08885591  1
  Ca2+  Ca25  1  0.57401944  0.24204847  0.40855234  1
  Ca2+  Ca26  1  0.57272041  0.23796081  0.75151299  1
  Ca2+  Ca27  1  0.58729956  0.75679240  0.06900514  1
  Ca2+  Ca28  1  0.60145007  0.75237919  0.40954924  1
  Ca2+  Ca29  1  0.57862526  0.74730888  0.77577521  1
  Ca2+  Ca30  1  0.90806911  0.23554253  0.09684418  1
  Ca2+  Ca31  1  0.91750722  0.25143711  0.42263477  1
  Ca2+  Ca32  1  0.91873868  0.25252216  0.73815534  1
  Ca2+  Ca33  1  0.90301876  0.75944306  0.09055162  1
  Ca2+  Ca34  1  0.89714587  0.74218879  0.42712974  1
  Ca2+  Ca35  1  0.91203856  0.75136209  0.73320782  1
  Ca2+  Ca36  1  0.90107513  0.10250732  0.38649587  1
  Ca2+  Ca37  1  0.42910981  0.08908880  0.58671103  1
  Ca2+  Ca38  1  0.41831503  0.08946500  0.58595567  1
  Ca2+  Ca39  1  0.12215212  0.09799725  0.91350935  1
  Ca2+  Ca40  1  0.07072828  0.58705484  0.26865409  1
  Ca2+  Ca41  1  0.25490745  0.58627429  0.08600009  1
  Ca2+  Ca42  1  0.59120166  0.09875115  0.08295697  1
  Ca2+  Ca43  1  0.06316793  0.10357326  0.23734484  1
  Ca2+  Ca44  1  0.07360832  0.58107912  0.92456235  1
  Ca2+  Ca45  1  0.56635680  0.09478690  0.40171883  1
  Ca2+  Ca46  1  0.41401131  0.58071727  0.59749353  1
  Ca2+  Ca47  1  0.73257195  0.60254370  0.91010208  1
  Ca2+  Ca48  1  0.24508037  0.58645978  0.41263845  1
  Ca2+  Ca49  1  0.23309933  0.58930695  0.41515046  1
  Ca2+  Ca50  1  0.25902321  0.58547872  0.74535438  1
  Ca2+  Ca51  1  0.61070493  0.59050478  0.40284976  1
  Ca2+  Ca52  1  0.58874441  0.59571225  0.08071759  1
  Ca2+  Ca53  1  0.72894114  0.09433344  0.58704905  1
  Ca2+  Ca54  1  0.55592767  0.09348731  0.40104147  1
  Ca2+  Ca55  1  0.91027141  0.58395112  0.08347390  1
  Ca2+  Ca56  1  0.91611500  0.09567213  0.74685219  1
  Ca2+  Ca57  1  0.73993649  0.09373868  0.58793602  1
  Ca2+  Ca58  1  0.78960452  0.60346692  0.57854621  1
  Ca2+  Ca59  1  0.41946286  0.09766460  0.91030343  1
  Ca2+  Ca60  1  0.72009587  0.60385929  0.90977519  1
  Ca2+  Ca61  1  0.07980974  0.59188168  0.26272066  1
  Ca2+  Ca62  1  0.27331851  0.58392266  0.74627591  1
  Ca2+  Ca63  1  0.79760404  0.60125881  0.57259878  1
  Ca2+  Ca64  1  0.74953976  0.59386732  0.26741320  1
  Ca2+  Ca65  1  0.91319879  0.60543862  0.42574998  1
  Ca2+  Ca66  1  0.89762963  0.58388788  0.08252423  1
  Ca2+  Ca67  1  0.09301406  0.09299087  0.59749696  1
  Ca2+  Ca68  1  0.43630392  0.10195577  0.24469871  1
  Ca2+  Ca69  1  0.42614764  0.10207840  0.24357739  1
  Ca2+  Ca70  1  0.26440651  0.09590433  0.06512625  1
  Ca2+  Ca71  1  0.29440165  0.09522842  0.41604115  1
  Ca2+  Ca72  1  0.92091160  0.91460534  0.07803274  1
  Ca2+  Ca73  1  0.57793159  0.39691275  0.08359730  1
  Ca2+  Ca74  1  0.56288170  0.92445271  0.74817151  1
  Ca2+  Ca75  1  0.25169128  0.92122975  0.07368120  1
  Ca2+  Ca76  1  0.90802495  0.91435959  0.07805433  1
  Ca2+  Ca77  1  0.72508527  0.91787323  0.91518621  1
  Ca2+  Ca78  1  0.26772151  0.92099923  0.75579554  1
  Ca2+  Ca79  1  0.08690915  0.91191119  0.26261075  1
  Ca2+  Ca80  1  0.43354067  0.92511652  0.25606736  1
  Ca2+  Ca81  1  0.25170713  0.91096989  0.41964953  1
  Ca2+  Ca82  1  0.41868965  0.92111637  0.59058753  1
  Ca2+  Ca83  1  0.58254451  0.39579124  0.41611328  1
  Ca2+  Ca84  1  0.92676966  0.39876809  0.08436657  1
  Ca2+  Ca85  1  0.56898084  0.92351105  0.40865663  1
  Ca2+  Ca86  1  0.72845998  0.91836013  0.24754356  1
  Ca2+  Ca87  1  0.24209375  0.39686977  0.42679719  1
  Ca2+  Ca88  1  0.09592754  0.91719270  0.91658105  1
  Ca2+  Ca89  1  0.92030234  0.90339821  0.75449180  1
  Ca2+  Ca90  1  0.75188709  0.39243340  0.91492426  1
  Ca2+  Ca91  1  0.92071902  0.40004189  0.74060678  1
  Ca2+  Ca92  1  0.24730652  0.39362808  0.08493410  1
  Ca2+  Ca93  1  0.25875996  0.39406323  0.08585091  1
  Ca2+  Ca94  1  0.26171363  0.92028035  0.07073606  1
  Ca2+  Ca95  1  0.25484351  0.39554930  0.42665314  1
  Ca2+  Ca96  1  0.55936109  0.92629218  0.41200665  1
  Ca2+  Ca97  1  0.73137137  0.91192834  0.58750010  1
  Ca2+  Ca98  1  0.75275423  0.40241986  0.25898392  1
  Ca2+  Ca99  1  0.92169542  0.90305955  0.41246530  1
  Ca2+  Ca100  1  0.74067973  0.91842533  0.25143011  1
  Ca2+  Ca101  1  0.74388669  0.91192340  0.58696462  1
  Ca2+  Ca102  1  0.42472394  0.39762606  0.25286959  1
  Ca2+  Ca103  1  0.57648699  0.39086456  0.75359569  1
  Ca2+  Ca104  1  0.43324453  0.91995744  0.90984153  1
  Ca2+  Ca105  1  0.74397549  0.40427392  0.25222911  1
  Ca2+  Ca106  1  0.91530471  0.39931608  0.08342639  1
  Ca2+  Ca107  1  0.91429847  0.40397119  0.43628366  1
  Mn3.34+  Mn108  1  0.08361916  0.32788399  0.08245611  1
  Mn3.34+  Mn109  1  0.08130093  0.33337773  0.41951470  1
  Mn3.34+  Mn110  1  0.08766991  0.32940214  0.75415496  1
  Mn3.34+  Mn111  1  0.08325311  0.83715230  0.08747707  1
  Mn3.34+  Mn112  1  0.08107601  0.83270183  0.42044482  1
  Mn3.34+  Mn113  1  0.08446756  0.83769069  0.74854904  1
  Mn3.34+  Mn114  1  0.41888746  0.32517384  0.08141351  1
  Mn3.34+  Mn115  1  0.41881328  0.32778674  0.42025750  1
  Mn3.34+  Mn116  1  0.41425783  0.33147468  0.75253025  1
  Mn3.34+  Mn117  1  0.42382202  0.84094836  0.08374108  1
  Mn3.34+  Mn118  1  0.41490222  0.83764663  0.41990670  1
  Mn3.34+  Mn119  1  0.41842936  0.83825601  0.75210358  1
  Mn3.34+  Mn120  1  0.74774548  0.32455089  0.08437589  1
  Mn3.34+  Mn121  1  0.74958729  0.32788719  0.42141844  1
  Mn3.34+  Mn122  1  0.74853495  0.32772119  0.75077275  1
  Mn3.34+  Mn123  1  0.74369442  0.83740206  0.08278793  1
  Mn3.34+  Mn124  1  0.74986912  0.83283989  0.41830629  1
  Mn3.34+  Mn125  1  0.74863460  0.83216272  0.75332513  1
  Mn3.34+  Mn126  1  0.25001329  0.32193268  0.25151626  1
  Mn3.34+  Mn127  1  0.25031272  0.33186706  0.59590549  1
  Mn3.34+  Mn128  1  0.25358500  0.32691382  0.90895418  1
  Mn3.34+  Mn129  1  0.25297801  0.83686518  0.24887760  1
  Mn3.34+  Mn130  1  0.24560499  0.84176256  0.58455029  1
  Mn3.34+  Mn131  1  0.25460573  0.84291269  0.91229782  1
  Mn3.34+  Mn132  1  0.58348423  0.32718235  0.24839869  1
  Mn3.34+  Mn133  1  0.58223831  0.32776004  0.58404382  1
  Mn3.34+  Mn134  1  0.57816767  0.32856107  0.91560184  1
  Mn3.34+  Mn135  1  0.58226844  0.83598898  0.24703529  1
  Mn3.34+  Mn136  1  0.58022028  0.83839863  0.58142862  1
  Mn3.34+  Mn137  1  0.58216248  0.83937551  0.91427699  1
  Mn3.34+  Mn138  1  0.91796941  0.32752682  0.25318522  1
  Mn3.34+  Mn139  1  0.91659789  0.33802207  0.58449593  1
  Mn3.34+  Mn140  1  0.92019225  0.33031896  0.91203052  1
  Mn3.34+  Mn141  1  0.91442741  0.83479576  0.24975075  1
  Mn3.34+  Mn142  1  0.91734672  0.83085094  0.58232089  1
  Mn3.34+  Mn143  1  0.91275468  0.83181155  0.91251291  1
  Mn3.34+  Mn144  1  0.09202007  0.16742777  0.41877080  1
  Mn3.34+  Mn145  1  0.08016320  0.67247497  0.08558397  1
  Mn3.34+  Mn146  1  0.24922840  0.67099422  0.91455186  1
  Mn3.34+  Mn147  1  0.09059175  0.66712624  0.08707029  1
  Mn3.34+  Mn148  1  0.08424873  0.16811041  0.08677345  1
  Mn3.34+  Mn149  1  0.25197667  0.16687918  0.24572386  1
  Mn3.34+  Mn150  1  0.90967540  0.67997555  0.91487534  1
  Mn3.34+  Mn151  1  0.90833222  0.16216422  0.91845287  1
  Mn3.34+  Mn152  1  0.91479435  0.16943311  0.58402782  1
  Mn3.34+  Mn153  1  0.75013681  0.16961755  0.41641005  1
  Mn3.34+  Mn154  1  0.06814811  0.66256318  0.74356310  1
  Mn3.34+  Mn155  1  0.58113738  0.16760040  0.58028431  1
  Mn3.34+  Mn156  1  0.58996765  0.66908169  0.58690853  1
  Mn3.34+  Mn157  1  0.08934991  0.16674918  0.75188410  1
  Mn3.34+  Mn158  1  0.25209048  0.66939168  0.58376069  1
  Mn3.34+  Mn159  1  0.73929641  0.16709647  0.75895626  1
  Mn3.34+  Mn160  1  0.91744353  0.67333674  0.91372150  1
  Mn3.34+  Mn161  1  0.08208050  0.66801650  0.74309065  1
  Mn3.34+  Mn162  1  0.74716670  0.66997243  0.08997659  1
  Mn3.34+  Mn163  1  0.42589998  0.66687669  0.75730267  1
  Mn3.34+  Mn164  1  0.92098000  0.16906872  0.91799251  1
  Mn3.34+  Mn165  1  0.57664366  0.66298859  0.58786277  1
  Mn3.34+  Mn166  1  0.07586577  0.67175004  0.42289544  1
  Mn3.34+  Mn167  1  0.26044530  0.66651386  0.91341314  1
  Mn3.34+  Mn168  1  0.42598856  0.66179740  0.08780879  1
  Mn3.34+  Mn169  1  0.58708073  0.66644504  0.24861625  1
  Mn3.34+  Mn170  1  0.25420881  0.16664929  0.58580444  1
  Mn3.34+  Mn171  1  0.91178374  0.67250154  0.25184583  1
  Mn3.34+  Mn172  1  0.07844636  0.16083342  0.41818379  1
  Mn3.34+  Mn173  1  0.42675652  0.66071438  0.41258648  1
  Mn3.34+  Mn174  1  0.41306703  0.66907296  0.08776484  1
  Mn3.34+  Mn175  1  0.41469513  0.66802299  0.41173976  1
  Mn3.34+  Mn176  1  0.41758841  0.16097494  0.75753856  1
  Mn3.34+  Mn177  1  0.24141619  0.66427818  0.58220633  1
  Mn3.34+  Mn178  1  0.75007171  0.67426419  0.74853899  1
  Mn3.34+  Mn179  1  0.25231749  0.67819015  0.25250626  1
  Mn3.34+  Mn180  1  0.24727730  0.49577356  0.91283892  1
  Mn3.34+  Mn181  1  0.74112976  0.49936306  0.08463269  1
  Mn3.34+  Mn182  1  0.26201508  0.50244668  0.24826731  1
  Mn3.34+  Mn183  1  0.91634222  0.00709949  0.25083039  1
  Mn3.34+  Mn184  1  0.25875123  0.49092279  0.91530099  1
  Mn3.34+  Mn185  1  0.41703938  0.49832685  0.09043859  1
  Mn3.34+  Mn186  1  0.24734695  0.49290803  0.59289580  1
  Mn3.34+  Mn187  1  0.73909785  0.00332954  0.74868512  1
  Mn3.34+  Mn188  1  0.91528561  0.50022773  0.91649174  1
  Mn3.34+  Mn189  1  0.25213848  0.00324940  0.25882277  1
  Mn3.34+  Mn190  1  0.08176010  0.49572093  0.74598241  1
  Mn3.34+  Mn191  1  0.08713855  0.00303842  0.75169858  1
  Mn3.34+  Mn192  1  0.93089041  -0.00227078  0.58037733  1
  Mn3.34+  Mn193  1  0.57702907  0.49832402  0.91244778  1
  Mn3.34+  Mn194  1  0.57687101  0.49618025  0.58281262  1
  Mn3.34+  Mn195  1  0.08589009  0.49629053  0.08900956  1
  Mn3.34+  Mn196  1  0.75324093  0.00112533  0.41396519  1
  Mn3.34+  Mn197  1  0.06573507  0.49929780  0.43379390  1
  Mn3.34+  Mn198  1  0.91241048  0.00019975  0.91730646  1
  Mn3.34+  Mn199  1  0.56234152  0.50316042  0.91326060  1
  Mn3.34+  Mn200  1  0.24977222  0.00266404  0.59424813  1
  Mn3.34+  Mn201  1  0.08103994  0.00453488  0.07848196  1
  Mn3.34+  Mn202  1  0.58812528  0.49168411  0.58215523  1
  Mn3.34+  Mn203  1  0.74967069  0.50117195  0.74689516  1
  Mn3.34+  Mn204  1  0.08100628  -0.00262457  0.41621470  1
  Mn3.34+  Mn205  1  0.75301342  0.49768900  0.41748394  1
  Mn3.34+  Mn206  1  0.42594000  0.00123686  0.06384900  1
  Mn3.34+  Mn207  1  0.42013481  0.49535160  0.75304300  1
  Mn3.34+  Mn208  1  0.91694732  0.00421531  0.58020472  1
  Mn3.34+  Mn209  1  0.42183975  0.49725491  0.42079201  1
  Mn3.34+  Mn210  1  0.57877914  0.50209603  0.25276598  1
  Mn3.34+  Mn211  1  0.74279366  0.00633760  0.06498629  1
  Mn3.34+  Mn212  1  0.24772719  0.49596805  0.24903734  1
  Mn3.34+  Mn213  1  0.91840184  0.49806503  0.25409770  1
  Mn3.34+  Mn214  1  0.06851099  0.49459087  0.73732645  1
  Mn3.34+  Mn215  1  0.76280511  0.49491505  0.74355533  1
  O2-  O216  1  0.00161634  0.16648328  -0.00285601  1
  O2-  O217  1  0.00161874  0.16823539  0.33500033  1
  O2-  O218  1  -0.00344057  0.15588911  0.66652251  1
  O2-  O219  1  -0.00662558  0.65517219  0.00428313  1
  O2-  O220  1  0.00171879  0.66359885  0.32879385  1
  O2-  O221  1  -0.00372044  0.68263825  0.66075525  1
  O2-  O222  1  0.34098374  0.15908427  -0.00720745  1
  O2-  O223  1  0.32941151  0.17262195  0.32824948  1
  O2-  O224  1  0.33889700  0.15949307  0.65920092  1
  O2-  O225  1  0.32808871  0.65542068  0.00959952  1
  O2-  O226  1  0.32339029  0.65813180  0.34039115  1
  O2-  O227  1  0.33594171  0.65066668  0.66539625  1
  O2-  O228  1  0.64580140  0.17429117  0.00296483  1
  O2-  O229  1  0.66098474  0.16854122  0.34892555  1
  O2-  O230  1  0.66782073  0.16023142  0.66467443  1
  O2-  O231  1  0.67183493  0.65768980  0.00633532  1
  O2-  O232  1  0.66519076  0.66232030  0.32784583  1
  O2-  O233  1  0.66534466  0.66335679  0.67206420  1
  O2-  O234  1  0.16656488  0.16150525  0.00831042  1
  O2-  O235  1  0.16649199  0.16346245  0.33008708  1
  O2-  O236  1  0.16244500  0.16263358  0.66161334  1
  O2-  O237  1  0.16460089  0.64348304  -0.00455761  1
  O2-  O238  1  0.16381926  0.65632375  0.33021984  1
  O2-  O239  1  0.17119180  0.64599114  0.67502502  1
  O2-  O240  1  0.50729169  0.16514556  -0.00523443  1
  O2-  O241  1  0.48960691  0.16496683  0.33630968  1
  O2-  O242  1  0.49684615  0.16094441  0.65698791  1
  O2-  O243  1  0.50492998  0.66378796  0.00929354  1
  O2-  O244  1  0.50346254  0.65979370  0.32906950  1
  O2-  O245  1  0.49435516  0.65848563  0.66371589  1
  O2-  O246  1  0.83395120  0.18218023  -0.00401598  1
  O2-  O247  1  0.83163479  0.18778350  0.34335544  1
  O2-  O248  1  0.83041641  0.15485166  0.66158773  1
  O2-  O249  1  0.83138058  0.65890843  0.00322901  1
  O2-  O250  1  0.83345332  0.66898183  0.32866588  1
  O2-  O251  1  0.82238481  0.68512519  0.66272760  1
  O2-  O252  1  -0.00588741  0.33370332  0.00455778  1
  O2-  O253  1  -0.00434878  0.32412919  0.33660666  1
  O2-  O254  1  -0.00318307  0.33430050  0.66971353  1
  O2-  O255  1  -0.00427977  0.83928480  -0.00068049  1
  O2-  O256  1  -0.00151737  0.83418257  0.33012547  1
  O2-  O257  1  -0.00534390  0.82569013  0.66811234  1
  O2-  O258  1  0.32985680  0.33535143  0.00776904  1
  O2-  O259  1  0.33472268  0.32387951  0.33457815  1
  O2-  O260  1  0.33598511  0.33070052  0.66621272  1
  O2-  O261  1  0.33006250  0.84771629  0.00530805  1
  O2-  O262  1  0.33318707  0.83222229  0.33389804  1
  O2-  O263  1  0.33400721  0.84448464  0.66828436  1
  O2-  O264  1  0.66789403  0.33473378  -0.00020963  1
  O2-  O265  1  0.66744050  0.33808665  0.33099334  1
  O2-  O266  1  0.66497596  0.33786613  0.66966044  1
  O2-  O267  1  0.66875814  0.84193140  -0.00549775  1
  O2-  O268  1  0.66444009  0.84562651  0.33823398  1
  O2-  O269  1  0.66941473  0.84142428  0.66257178  1
  O2-  O270  1  0.16973754  0.33788765  0.00644953  1
  O2-  O271  1  0.17436345  0.33035209  0.33914481  1
  O2-  O272  1  0.16358841  0.33181558  0.66669987  1
  O2-  O273  1  0.17004007  0.85049550  0.00168169  1
  O2-  O274  1  0.16901558  0.83569925  0.33163741  1
  O2-  O275  1  0.17097184  0.83802073  0.67189642  1
  O2-  O276  1  0.50547363  0.33098962  0.00654669  1
  O2-  O277  1  0.50132201  0.33253758  0.33365499  1
  O2-  O278  1  0.50220299  0.33401366  0.66717071  1
  O2-  O279  1  0.49508543  0.84065112  -0.00825229  1
  O2-  O280  1  0.50043198  0.84473443  0.33435413  1
  O2-  O281  1  0.49912723  0.84542713  0.66447527  1
  O2-  O282  1  0.83662183  0.33613614  0.00523417  1
  O2-  O283  1  0.82799896  0.32925417  0.32938434  1
  O2-  O284  1  0.83553766  0.33541637  0.67225754  1
  O2-  O285  1  0.83736818  0.84097101  0.00428737  1
  O2-  O286  1  0.82808059  0.84426774  0.32975124  1
  O2-  O287  1  0.83028385  0.82850269  0.66501979  1
  O2-  O288  1  0.00454788  0.18136747  0.16788829  1
  O2-  O289  1  -0.00193481  0.17302044  0.50003736  1
  O2-  O290  1  -0.00416469  0.17863514  0.83269551  1
  O2-  O291  1  -0.00350505  0.68165719  0.17235782  1
  O2-  O292  1  -0.00276368  0.68334789  0.49478153  1
  O2-  O293  1  0.00607346  0.68064412  0.83970598  1
  O2-  O294  1  0.33467066  0.17304812  0.17282284  1
  O2-  O295  1  0.33470891  0.17095865  0.50523606  1
  O2-  O296  1  0.33763533  0.16996297  0.82930085  1
  O2-  O297  1  0.33142888  0.68168595  0.16618306  1
  O2-  O298  1  0.33609926  0.67157283  0.49816870  1
  O2-  O299  1  0.32357609  0.67477356  0.81534374  1
  O2-  O300  1  0.66108066  0.16868102  0.15685267  1
  O2-  O301  1  0.67303952  0.17438562  0.50673575  1
  O2-  O302  1  0.66446318  0.18157974  0.83262555  1
  O2-  O303  1  0.66639410  0.67647892  0.16656277  1
  O2-  O304  1  0.66366853  0.67032372  0.50223488  1
  O2-  O305  1  0.67905229  0.68016255  0.83726847  1
  O2-  O306  1  0.16573979  0.18127223  0.17063238  1
  O2-  O307  1  0.16943793  0.16785153  0.50052282  1
  O2-  O308  1  0.16183875  0.17511968  0.83205696  1
  O2-  O309  1  0.16567446  0.68326309  0.17533421  1
  O2-  O310  1  0.17499849  0.67473743  0.48628450  1
  O2-  O311  1  0.16071229  0.66413050  0.83034565  1
  O2-  O312  1  0.50447709  0.16551536  0.16654268  1
  O2-  O313  1  0.50654505  0.17130341  0.49828563  1
  O2-  O314  1  0.49469978  0.17532062  0.83378866  1
  O2-  O315  1  0.50369056  0.67811384  0.16912486  1
  O2-  O316  1  0.50037204  0.67166362  0.50111478  1
  O2-  O317  1  0.49653169  0.67957294  0.83442547  1
  O2-  O318  1  0.83474623  0.17708676  0.17601034  1
  O2-  O319  1  0.82945055  0.17587838  0.50489503  1
  O2-  O320  1  0.83586465  0.17805611  0.83103003  1
  O2-  O321  1  0.83816446  0.67740045  0.16221292  1
  O2-  O322  1  0.83620549  0.67822131  0.50578554  1
  O2-  O323  1  0.83239803  0.68617862  0.82904568  1
  O2-  O324  1  -0.00702786  0.32164989  0.16258666  1
  O2-  O325  1  -0.00309380  0.32760620  0.49676577  1
  O2-  O326  1  -0.00357635  0.31556540  0.83054360  1
  O2-  O327  1  -0.00460017  0.81920498  0.16803947  1
  O2-  O328  1  -0.00878937  0.81694862  0.49516868  1
  O2-  O329  1  -0.00247841  0.82041760  0.83454780  1
  O2-  O330  1  0.33250435  0.32286627  0.16737760  1
  O2-  O331  1  0.32973954  0.32002802  0.49328902  1
  O2-  O332  1  0.33724753  0.31919225  0.83479247  1
  O2-  O333  1  0.33175447  0.82396789  0.16586688  1
  O2-  O334  1  0.33254613  0.82847027  0.49961500  1
  O2-  O335  1  0.33623071  0.82653559  0.83401557  1
  O2-  O336  1  0.67028572  0.33618372  0.17089157  1
  O2-  O337  1  0.66255655  0.31514128  0.49249567  1
  O2-  O338  1  0.66730776  0.32065512  0.83714262  1
  O2-  O339  1  0.67447627  0.83040350  0.17783007  1
  O2-  O340  1  0.66857603  0.83080652  0.50226594  1
  O2-  O341  1  0.66594159  0.82196076  0.83071741  1
  O2-  O342  1  0.17088407  0.32408296  0.16387326  1
  O2-  O343  1  0.17118672  0.32692861  0.49487145  1
  O2-  O344  1  0.16750641  0.31844552  0.83377452  1
  O2-  O345  1  0.16787159  0.82072421  0.17115973  1
  O2-  O346  1  0.16797987  0.82791384  0.49786522  1
  O2-  O347  1  0.16905792  0.83239575  0.83528106  1
  O2-  O348  1  0.49902308  0.33144356  0.16871368  1
  O2-  O349  1  0.50262772  0.31532835  0.49524407  1
  O2-  O350  1  0.50431629  0.31525228  0.83044784  1
  O2-  O351  1  0.49973111  0.82854347  0.17027353  1
  O2-  O352  1  0.50258104  0.83222185  0.49696350  1
  O2-  O353  1  0.50083460  0.82733959  0.83071754  1
  O2-  O354  1  0.83509518  0.32699566  0.16728857  1
  O2-  O355  1  0.83593272  0.31877430  0.49623334  1
  O2-  O356  1  0.83174403  0.32039693  0.83733773  1
  O2-  O357  1  0.83477394  0.82826980  0.16558006  1
  O2-  O358  1  0.83130143  0.82352681  0.50224152  1
  O2-  O359  1  0.83231397  0.80862310  0.83210811  1
  O2-  O360  1  0.08919316  0.08311988  0.10419892  1
  O2-  O361  1  0.08106487  0.07851470  0.44468962  1
  O2-  O362  1  0.07389367  0.08308962  0.77628776  1
  O2-  O363  1  0.08060599  0.58087533  0.12589679  1
  O2-  O364  1  0.09036060  0.58634426  0.42975443  1
  O2-  O365  1  0.07950442  0.57708315  0.78559528  1
  O2-  O366  1  0.41296055  0.06793943  0.11603564  1
  O2-  O367  1  0.42815485  0.07073197  0.45364799  1
  O2-  O368  1  0.42090190  0.08101324  0.75944137  1
  O2-  O369  1  0.41060499  0.58106449  0.11313726  1
  O2-  O370  1  0.40729609  0.57919092  0.44936093  1
  O2-  O371  1  0.40738923  0.58007791  0.77547061  1
  O2-  O372  1  0.73967500  0.07303256  0.10770675  1
  O2-  O373  1  0.75806919  0.08046948  0.44259328  1
  O2-  O374  1  0.75736809  0.08356343  0.75736597  1
  O2-  O375  1  0.75939034  0.58348495  0.11398650  1
  O2-  O376  1  0.74676032  0.57653590  0.44645886  1
  O2-  O377  1  0.75480023  0.58108967  0.77914924  1
  O2-  O378  1  0.25052934  0.08095780  0.22948778  1
  O2-  O379  1  0.25072832  0.08021911  0.55749553  1
  O2-  O380  1  0.26124565  0.08202187  0.92322364  1
  O2-  O381  1  0.23850059  0.58258501  0.22279960  1
  O2-  O382  1  0.25596867  0.57522655  0.54587404  1
  O2-  O383  1  0.25072210  0.57638634  0.88115800  1
  O2-  O384  1  0.55921227  0.07421271  0.24163072  1
  O2-  O385  1  0.59448743  0.08297957  0.55179588  1
  O2-  O386  1  0.57609443  0.09149423  0.92546365  1
  O2-  O387  1  0.59390492  0.58216759  0.22298660  1
  O2-  O388  1  0.57795682  0.57776748  0.55160105  1
  O2-  O389  1  0.59045393  0.58309034  0.89511221  1
  O2-  O390  1  0.92388333  0.08406953  0.24881263  1
  O2-  O391  1  0.91594608  0.08392619  0.55602578  1
  O2-  O392  1  0.92357018  0.07987780  0.88926333  1
  O2-  O393  1  0.92696490  0.57965532  0.21605134  1
  O2-  O394  1  0.90601750  0.56567645  0.53968201  1
  O2-  O395  1  0.91637691  0.58485158  0.89779220  1
  O2-  O396  1  0.07247266  0.41248678  0.09869573  1
  O2-  O397  1  0.09846266  0.41680464  0.42662118  1
  O2-  O398  1  0.07275070  0.41345431  0.77143196  1
  O2-  O399  1  0.07285227  0.92238819  0.11567010  1
  O2-  O400  1  0.07780863  0.91555988  0.42550082  1
  O2-  O401  1  0.07321575  0.92172843  0.77793794  1
  O2-  O402  1  0.40145051  0.41616154  0.10939081  1
  O2-  O403  1  0.39806521  0.41583940  0.42158788  1
  O2-  O404  1  0.43396180  0.41555989  0.76957271  1
  O2-  O405  1  0.40433550  0.92912069  0.11592181  1
  O2-  O406  1  0.42057437  0.91966765  0.43404596  1
  O2-  O407  1  0.41646329  0.92028069  0.77037155  1
  O2-  O408  1  0.76122650  0.41661069  0.10698418  1
  O2-  O409  1  0.75609615  0.41560782  0.41296869  1
  O2-  O410  1  0.75147528  0.41552452  0.77433961  1
  O2-  O411  1  0.76307895  0.93169304  0.11761948  1
  O2-  O412  1  0.75656162  0.92090621  0.44799024  1
  O2-  O413  1  0.75599118  0.92178871  0.77313269  1
  O2-  O414  1  0.26117337  0.41460651  0.23160763  1
  O2-  O415  1  0.25435201  0.41370950  0.55822544  1
  O2-  O416  1  0.25137522  0.41028238  0.91646430  1
  O2-  O417  1  0.24362114  0.92589353  0.21485717  1
  O2-  O418  1  0.25689655  0.92431829  0.55803077  1
  O2-  O419  1  0.25215917  0.92300510  0.89646409  1
  O2-  O420  1  0.58959090  0.41931552  0.23184368  1
  O2-  O421  1  0.58374266  0.41109717  0.55491157  1
  O2-  O422  1  0.58718651  0.41835525  0.89526970  1
  O2-  O423  1  0.59028272  0.91904656  0.24625906  1
  O2-  O424  1  0.59441637  0.92173239  0.55338078  1
  O2-  O425  1  0.58444910  0.92016547  0.88507965  1
  O2-  O426  1  0.89990017  0.41862807  0.22212479  1
  O2-  O427  1  0.91322395  0.41511972  0.56832274  1
  O2-  O428  1  0.90550821  0.41851713  0.90331695  1
  O2-  O429  1  0.91562862  0.92606928  0.21287598  1
  O2-  O430  1  0.90410118  0.91764403  0.56022747  1
  O2-  O431  1  0.90909221  0.92002772  0.88827041  1
  O2-  O432  1  -0.00167781  -0.01603611  -0.00044953  1
  O2-  O433  1  -0.00178668  -0.00561759  0.33227008  1
  O2-  O434  1  -0.00225164  0.00556853  0.67431432  1
  O2-  O435  1  -0.00793375  0.51455243  0.01451891  1
  O2-  O436  1  0.00635345  0.51476767  0.32835308  1
  O2-  O437  1  -0.01381073  0.49572452  0.67250021  1
  O2-  O438  1  0.32897553  -0.00330687  0.01407692  1
  O2-  O439  1  0.34096754  0.00272997  0.31891373  1
  O2-  O440  1  0.34752576  0.00151381  0.64432392  1
  O2-  O441  1  0.32230453  0.50497720  0.01619909  1
  O2-  O442  1  0.32340658  0.50982031  0.35104554  1
  O2-  O443  1  0.33167910  0.51410084  0.67373506  1
  O2-  O444  1  0.66788120  -0.00328774  -0.00334958  1
  O2-  O445  1  0.66524927  -0.01151183  0.35051286  1
  O2-  O446  1  0.68176928  -0.00457624  0.64744939  1
  O2-  O447  1  0.67223958  0.50825110  -0.01338604  1
  O2-  O448  1  0.67208587  0.50415367  0.32753444  1
  O2-  O449  1  0.66287053  0.49980147  0.67013439  1
  O2-  O450  1  0.16971011  -0.00943741  0.01409876  1
  O2-  O451  1  0.17123873  -0.00684794  0.33757122  1
  O2-  O452  1  0.16723541  0.00317576  0.66831518  1
  O2-  O453  1  0.16461489  0.51373180  -0.00123355  1
  O2-  O454  1  0.16860971  0.51331651  0.33921234  1
  O2-  O455  1  0.17448696  0.51721632  0.68334469  1
  O2-  O456  1  0.49130876  0.00555937  -0.01649705  1
  O2-  O457  1  0.50957734  0.00309038  0.34886613  1
  O2-  O458  1  0.48623242  0.00395974  0.64712628  1
  O2-  O459  1  0.50881132  0.49875288  0.01708956  1
  O2-  O460  1  0.50551852  0.49540709  0.34212960  1
  O2-  O461  1  0.49337731  0.50773828  0.66086512  1
  O2-  O462  1  0.83578078  -0.01111586  0.00807661  1
  O2-  O463  1  0.82715142  -0.01242512  0.32441046  1
  O2-  O464  1  0.83532748  -0.00127207  0.66592239  1
  O2-  O465  1  0.83763832  0.51019541  0.01164564  1
  O2-  O466  1  0.82881300  0.50511723  0.32670678  1
  O2-  O467  1  0.82784241  0.51386703  0.65847699  1
  O2-  O468  1  0.74442169  0.75428680  0.40715379  1
  O2-  O469  1  0.57757164  0.75426471  0.58855820  1
  O2-  O470  1  0.24405952  0.75629572  0.93362041  1
  O2-  O471  1  0.08512887  0.24979823  0.41627872  1
  O2-  O472  1  0.42318274  0.75135901  0.40880175  1
  O2-  O473  1  0.25104706  0.75460888  0.59427579  1
  O2-  O474  1  0.58724251  0.24825464  0.60140068  1
  O2-  O475  1  0.25296305  0.24972991  0.92699916  1
  O2-  O476  1  0.24511120  0.24870026  0.58658116  1
  O2-  O477  1  0.08637169  0.24928111  0.06671455  1
  O2-  O478  1  0.58508125  0.24954874  0.24980871  1
  O2-  O479  1  0.41864640  0.24744416  0.07736673  1
  O2-  O480  1  0.75462112  0.24774411  0.73159099  1
  O2-  O481  1  0.09392408  0.75094458  0.40211183  1
  O2-  O482  1  0.09085351  0.75490826  0.05795116  1
  O2-  O483  1  0.74872726  0.75012642  0.06871943  1
  O2-  O484  1  0.58390998  0.75169853  0.26558641  1
  O2-  O485  1  0.09687873  0.75079504  0.74882530  1
  O2-  O486  1  0.91904678  0.24949415  0.59543639  1
  O2-  O487  1  0.41573764  0.24821879  0.73502012  1
  O2-  O488  1  0.41459662  0.75085164  0.73311895  1
  O2-  O489  1  0.74401074  0.24668384  0.08726607  1
  O2-  O490  1  0.07834693  0.24804060  0.73355472  1
  O2-  O491  1  0.41558274  0.75171340  0.06874387  1
  O2-  O492  1  0.58196040  0.75655494  0.92875795  1
