# generated using pymatgen
data_Ca108Mn108O277
_symmetry_space_group_name_H-M   'P 1'
_cell_length_a   16.03111941
_cell_length_b   22.31072380
_cell_length_c   16.39405037
_cell_angle_alpha   89.99456394
_cell_angle_beta   89.99807798
_cell_angle_gamma   89.99868505
_symmetry_Int_Tables_number   1
_chemical_formula_structural   Ca108Mn108O277
_chemical_formula_sum   'Ca108 Mn108 O277'
_cell_volume   5863.59237717
_cell_formula_units_Z   1
loop_
 _symmetry_equiv_pos_site_id
 _symmetry_equiv_pos_as_xyz
  1  'x, y, z'
loop_
 _atom_type_symbol
 _atom_type_oxidation_number
  Ca2+  2.0
  Mn3.34+  3.34
  O2-  -2.0
loop_
 _atom_site_type_symbol
 _atom_site_label
 _atom_site_symmetry_multiplicity
 _atom_site_fract_x
 _atom_site_fract_y
 _atom_site_fract_z
 _atom_site_occupancy
  Ca2+  Ca0  1  0.08067921  0.25298050  0.23759723  1
  Ca2+  Ca1  1  0.07234913  0.23787923  0.59386447  1
  Ca2+  Ca2  1  0.09388272  0.22489249  0.92119790  1
  Ca2+  Ca3  1  0.08661850  0.76404425  0.26053166  1
  Ca2+  Ca4  1  0.08242032  0.77243682  0.57634661  1
  Ca2+  Ca5  1  0.07302165  0.76404165  0.90886705  1
  Ca2+  Ca6  1  0.42348431  0.24667626  0.23293444  1
  Ca2+  Ca7  1  0.41937141  0.24487356  0.58601685  1
  Ca2+  Ca8  1  0.41932542  0.24621436  0.92344789  1
  Ca2+  Ca9  1  0.41070768  0.77540655  0.26341824  1
  Ca2+  Ca10  1  0.42833965  0.76035010  0.57616801  1
  Ca2+  Ca11  1  0.42889986  0.76364999  0.91664077  1
  Ca2+  Ca12  1  0.74426605  0.24552076  0.25368139  1
  Ca2+  Ca13  1  0.75302464  0.24233942  0.57406205  1
  Ca2+  Ca14  1  0.74377104  0.24410995  0.92295633  1
  Ca2+  Ca15  1  0.75273037  0.76150351  0.25626581  1
  Ca2+  Ca16  1  0.74271705  0.75937225  0.58244903  1
  Ca2+  Ca17  1  0.75385218  0.75072520  0.91939014  1
  Ca2+  Ca18  1  0.25842741  0.23345000  0.06369001  1
  Ca2+  Ca19  1  0.25762852  0.24781619  0.41476066  1
  Ca2+  Ca20  1  0.25610676  0.23193777  0.76957582  1
  Ca2+  Ca21  1  0.25822843  0.76758318  0.08753171  1
  Ca2+  Ca22  1  0.25522421  0.76044485  0.42526971  1
  Ca2+  Ca23  1  0.24883895  0.76813032  0.74298142  1
  Ca2+  Ca24  1  0.56574726  0.24725581  0.07466270  1
  Ca2+  Ca25  1  0.59601036  0.24464217  0.41443559  1
  Ca2+  Ca26  1  0.57581061  0.24451743  0.76385793  1
  Ca2+  Ca27  1  0.59956167  0.74746548  0.07462167  1
  Ca2+  Ca28  1  0.58807800  0.75293200  0.44525852  1
  Ca2+  Ca29  1  0.59414536  0.75656445  0.73911335  1
  Ca2+  Ca30  1  0.91549514  0.22889986  0.07612357  1
  Ca2+  Ca31  1  0.88595068  0.22597694  0.42091189  1
  Ca2+  Ca32  1  0.91147036  0.24541357  0.75442581  1
  Ca2+  Ca33  1  0.89903563  0.74811460  0.07389908  1
  Ca2+  Ca34  1  0.90836443  0.75640185  0.43119870  1
  Ca2+  Ca35  1  0.90293725  0.76735457  0.74306944  1
  Ca2+  Ca36  1  0.07669141  0.59449230  0.57175581  1
  Ca2+  Ca37  1  0.27217356  0.56864710  0.06368804  1
  Ca2+  Ca38  1  0.59905145  0.58983780  0.75953080  1
  Ca2+  Ca39  1  0.91451499  0.59105457  0.40947584  1
  Ca2+  Ca40  1  0.08042475  0.60077873  0.92068158  1
  Ca2+  Ca41  1  0.76060701  0.08813080  0.57628765  1
  Ca2+  Ca42  1  0.73941167  0.59985623  0.58192108  1
  Ca2+  Ca43  1  0.73080947  0.60498857  0.58550591  1
  Ca2+  Ca44  1  0.74489624  0.59114160  0.24185687  1
  Ca2+  Ca45  1  0.57103356  0.08523425  0.41746792  1
  Ca2+  Ca46  1  0.93607045  0.09907747  0.76346520  1
  Ca2+  Ca47  1  0.42083717  0.10040367  0.24121764  1
  Ca2+  Ca48  1  0.39963685  0.10437474  0.90328143  1
  Ca2+  Ca49  1  0.24555727  0.58825149  0.41480591  1
  Ca2+  Ca50  1  0.25750948  0.58184955  0.74480027  1
  Ca2+  Ca51  1  0.75769484  0.59128794  0.24103863  1
  Ca2+  Ca52  1  0.43386267  0.60379219  0.58219952  1
  Ca2+  Ca53  1  0.06142032  0.58377052  0.27279824  1
  Ca2+  Ca54  1  0.09791167  0.09541658  0.61881687  1
  Ca2+  Ca55  1  0.94624039  0.10042440  0.76224480  1
  Ca2+  Ca56  1  0.87899095  0.61424227  0.07534171  1
  Ca2+  Ca57  1  0.75600307  0.61343784  0.92741497  1
  Ca2+  Ca58  1  0.58148040  0.08571316  0.41845185  1
  Ca2+  Ca59  1  0.59435248  0.57480512  0.06206804  1
  Ca2+  Ca60  1  0.08963204  0.59497684  0.57148798  1
  Ca2+  Ca61  1  0.58777052  0.59934827  0.41688201  1
  Ca2+  Ca62  1  0.55157883  0.08728304  0.74199999  1
  Ca2+  Ca63  1  0.42555257  0.59880439  0.57823020  1
  Ca2+  Ca64  1  0.45351800  0.56440007  0.92911581  1
  Ca2+  Ca65  1  0.58154940  0.11351620  0.08500948  1
  Ca2+  Ca66  1  0.28552126  0.08090483  0.42656278  1
  Ca2+  Ca67  1  0.76624211  0.09663929  0.93269663  1
  Ca2+  Ca68  1  0.75600341  0.10909068  0.24718909  1
  Ca2+  Ca69  1  0.89999145  0.60854032  0.76467440  1
  Ca2+  Ca70  1  0.06743957  0.60080529  0.92094817  1
  Ca2+  Ca71  1  0.28343663  0.56533892  0.06654558  1
  Ca2+  Ca72  1  0.90690960  0.40819864  0.40351151  1
  Ca2+  Ca73  1  0.08041730  0.92112099  0.24988370  1
  Ca2+  Ca74  1  0.08028936  0.39596669  0.58574520  1
  Ca2+  Ca75  1  0.91553801  0.92022993  0.06142949  1
  Ca2+  Ca76  1  0.44220663  0.93868877  0.59376063  1
  Ca2+  Ca77  1  0.90684034  0.38762986  0.09524268  1
  Ca2+  Ca78  1  0.26392781  0.92501913  0.74897096  1
  Ca2+  Ca79  1  0.25660071  0.91487697  0.07772596  1
  Ca2+  Ca80  1  0.91229161  0.39104419  0.75325001  1
  Ca2+  Ca81  1  0.45223429  0.93795152  0.59552974  1
  Ca2+  Ca82  1  0.57132323  0.42001591  0.05931026  1
  Ca2+  Ca83  1  0.07155594  0.92535663  0.25206753  1
  Ca2+  Ca84  1  0.57831047  0.39842647  0.76766610  1
  Ca2+  Ca85  1  0.58251398  0.89468252  0.07842197  1
  Ca2+  Ca86  1  0.58694995  0.41147714  0.40039573  1
  Ca2+  Ca87  1  0.41219965  0.39079405  0.59181843  1
  Ca2+  Ca88  1  0.43503555  0.41242963  0.22865255  1
  Ca2+  Ca89  1  0.26024039  0.91827811  0.41299318  1
  Ca2+  Ca90  1  0.57646865  0.90743719  0.41725892  1
  Ca2+  Ca91  1  0.91597967  0.91296701  0.40593414  1
  Ca2+  Ca92  1  0.09196882  0.38587663  0.90440425  1
  Ca2+  Ca93  1  0.74273025  0.91898688  0.59197993  1
  Ca2+  Ca94  1  0.91818184  0.40907438  0.40407292  1
  Ca2+  Ca95  1  0.06670060  0.91832110  0.92201249  1
  Ca2+  Ca96  1  0.24929351  0.40392996  0.41133605  1
  Ca2+  Ca97  1  0.41433255  0.91283181  0.91923349  1
  Ca2+  Ca98  1  0.74763667  0.40298321  0.59232737  1
  Ca2+  Ca99  1  0.75803159  0.40606041  0.58688306  1
  Ca2+  Ca100  1  0.42200663  0.41797608  0.93649464  1
  Ca2+  Ca101  1  0.09313418  0.39561226  0.58601668  1
  Ca2+  Ca102  1  0.23882592  0.40657994  0.41753069  1
  Ca2+  Ca103  1  0.73169605  0.91932009  0.59239408  1
  Ca2+  Ca104  1  0.91891004  0.38712210  0.09545077  1
  Ca2+  Ca105  1  0.42248881  0.41186106  0.22862812  1
  Ca2+  Ca106  1  0.72912393  0.41254311  0.24677401  1
  Ca2+  Ca107  1  0.25539066  0.92309952  0.74357632  1
  Mn3.34+  Mn108  1  0.09110088  0.32543116  0.08001618  1
  Mn3.34+  Mn109  1  0.08297968  0.32686366  0.40989004  1
  Mn3.34+  Mn110  1  0.08751767  0.31838383  0.75269189  1
  Mn3.34+  Mn111  1  0.07813841  0.83311780  0.08475747  1
  Mn3.34+  Mn112  1  0.08367431  0.84128788  0.42103907  1
  Mn3.34+  Mn113  1  0.07761085  0.84428542  0.74624333  1
  Mn3.34+  Mn114  1  0.41030878  0.33185139  0.07720945  1
  Mn3.34+  Mn115  1  0.42021558  0.32807520  0.41475629  1
  Mn3.34+  Mn116  1  0.41093448  0.33295786  0.75725670  1
  Mn3.34+  Mn117  1  0.42012894  0.83699646  0.08719069  1
  Mn3.34+  Mn118  1  0.41745405  0.84190497  0.42151420  1
  Mn3.34+  Mn119  1  0.42032684  0.83895718  0.75331209  1
  Mn3.34+  Mn120  1  0.74188242  0.32860213  0.08325903  1
  Mn3.34+  Mn121  1  0.74647082  0.33052942  0.41488705  1
  Mn3.34+  Mn122  1  0.74603854  0.32671746  0.75507138  1
  Mn3.34+  Mn123  1  0.75217369  0.83189678  0.08626612  1
  Mn3.34+  Mn124  1  0.75085125  0.83829883  0.41299218  1
  Mn3.34+  Mn125  1  0.74787707  0.83999984  0.75802733  1
  Mn3.34+  Mn126  1  0.24897989  0.33336075  0.24075920  1
  Mn3.34+  Mn127  1  0.25178632  0.31771089  0.58659649  1
  Mn3.34+  Mn128  1  0.25285072  0.32765815  0.91476141  1
  Mn3.34+  Mn129  1  0.25104746  0.84225333  0.25020196  1
  Mn3.34+  Mn130  1  0.25171679  0.84231153  0.58081983  1
  Mn3.34+  Mn131  1  0.24638162  0.83798985  0.91490907  1
  Mn3.34+  Mn132  1  0.58338760  0.33271673  0.24322793  1
  Mn3.34+  Mn133  1  0.58134605  0.32847266  0.58520497  1
  Mn3.34+  Mn134  1  0.58091804  0.33337865  0.91699517  1
  Mn3.34+  Mn135  1  0.58444884  0.83308881  0.24823806  1
  Mn3.34+  Mn136  1  0.58256829  0.83731251  0.58632170  1
  Mn3.34+  Mn137  1  0.58867815  0.83041273  0.91187201  1
  Mn3.34+  Mn138  1  0.91262856  0.31989136  0.25014641  1
  Mn3.34+  Mn139  1  0.91702163  0.32511333  0.58025213  1
  Mn3.34+  Mn140  1  0.91519758  0.32598168  0.91487664  1
  Mn3.34+  Mn141  1  0.91444712  0.84104781  0.23868197  1
  Mn3.34+  Mn142  1  0.91499398  0.84133821  0.58277880  1
  Mn3.34+  Mn143  1  0.90965501  0.83762654  0.91258592  1
  Mn3.34+  Mn144  1  0.58772855  0.66628432  0.91748050  1
  Mn3.34+  Mn145  1  0.58487086  0.17073192  0.24859327  1
  Mn3.34+  Mn146  1  0.07530337  0.67821422  0.74856472  1
  Mn3.34+  Mn147  1  0.74952630  0.16220922  0.75482039  1
  Mn3.34+  Mn148  1  0.24723681  0.66740965  0.25237944  1
  Mn3.34+  Mn149  1  0.24084789  0.15750884  0.24305336  1
  Mn3.34+  Mn150  1  0.08169701  0.15771145  0.08220847  1
  Mn3.34+  Mn151  1  0.91949300  0.16285280  0.92202760  1
  Mn3.34+  Mn152  1  0.58179772  0.16586355  0.91250475  1
  Mn3.34+  Mn153  1  0.91344850  0.16044032  0.58256228  1
  Mn3.34+  Mn154  1  0.24995021  0.16325672  0.24600899  1
  Mn3.34+  Mn155  1  0.75061486  0.67233946  0.75486131  1
  Mn3.34+  Mn156  1  0.41683783  0.16669629  0.41879144  1
  Mn3.34+  Mn157  1  0.91683136  0.15516203  0.23893211  1
  Mn3.34+  Mn158  1  0.58629830  0.16291238  0.58742150  1
  Mn3.34+  Mn159  1  0.42650553  0.66348140  0.08678283  1
  Mn3.34+  Mn160  1  0.58365220  0.67021131  0.24870240  1
  Mn3.34+  Mn161  1  0.24822699  0.67189822  0.58318137  1
  Mn3.34+  Mn162  1  0.57561295  0.15873526  0.58657683  1
  Mn3.34+  Mn163  1  0.07494302  0.15771348  0.41560173  1
  Mn3.34+  Mn164  1  0.40963920  0.67280798  0.75644654  1
  Mn3.34+  Mn165  1  0.07717794  0.67605723  0.09223086  1
  Mn3.34+  Mn166  1  0.26096114  0.66044004  0.25014343  1
  Mn3.34+  Mn167  1  0.08599475  0.68201049  0.09010306  1
  Mn3.34+  Mn168  1  0.41776727  0.67292067  0.41839851  1
  Mn3.34+  Mn169  1  0.91263839  0.67318778  0.25176791  1
  Mn3.34+  Mn170  1  0.57491331  0.66407103  0.24570724  1
  Mn3.34+  Mn171  1  0.25191200  0.67165171  0.91706096  1
  Mn3.34+  Mn172  1  0.41353224  0.66950694  0.08312360  1
  Mn3.34+  Mn173  1  0.08583222  0.16260380  0.41466331  1
  Mn3.34+  Mn174  1  0.42161280  0.66533880  0.76063155  1
  Mn3.34+  Mn175  1  0.75036589  0.66904162  0.41923073  1
  Mn3.34+  Mn176  1  0.08173279  0.67518523  0.41492399  1
  Mn3.34+  Mn177  1  0.91699173  0.67062494  0.58480488  1
  Mn3.34+  Mn178  1  0.08930122  0.67127708  0.75123821  1
  Mn3.34+  Mn179  1  0.25687241  0.16527971  0.58786218  1
  Mn3.34+  Mn180  1  0.58559100  -0.00448992  0.90847142  1
  Mn3.34+  Mn181  1  0.41131929  0.50079757  0.74855100  1
  Mn3.34+  Mn182  1  0.07442302  0.49608196  0.09396482  1
  Mn3.34+  Mn183  1  0.91707162  0.49802180  0.91472845  1
  Mn3.34+  Mn184  1  0.57137363  -0.00465067  0.24442556  1
  Mn3.34+  Mn185  1  0.08008100  0.00720893  0.06894595  1
  Mn3.34+  Mn186  1  0.75170029  0.49624456  0.07742488  1
  Mn3.34+  Mn187  1  0.58439094  0.00147802  0.24202508  1
  Mn3.34+  Mn188  1  0.25284021  0.00399268  0.59066894  1
  Mn3.34+  Mn189  1  0.24392196  0.00777797  0.93122395  1
  Mn3.34+  Mn190  1  0.25865266  -0.00170072  0.26415479  1
  Mn3.34+  Mn191  1  0.91716034  0.49820145  0.24416344  1
  Mn3.34+  Mn192  1  0.41817696  0.00021340  0.07247656  1
  Mn3.34+  Mn193  1  0.25604530  0.49975361  0.58424774  1
  Mn3.34+  Mn194  1  0.41597619  0.49873310  0.41398206  1
  Mn3.34+  Mn195  1  0.43206047  0.49967277  0.40901543  1
  Mn3.34+  Mn196  1  0.24537859  0.49345132  0.90409922  1
  Mn3.34+  Mn197  1  0.92561500  -0.00038142  0.58922072  1
  Mn3.34+  Mn198  1  0.24070952  0.49924514  0.25131644  1
  Mn3.34+  Mn199  1  0.75762524  0.00531614  0.08960274  1
  Mn3.34+  Mn200  1  0.75501711  0.50059045  0.75609666  1
  Mn3.34+  Mn201  1  0.91450797  0.50260284  0.57896734  1
  Mn3.34+  Mn202  1  0.07549471  0.49967091  0.75311439  1
  Mn3.34+  Mn203  1  0.74574431  -0.00206910  0.09098875  1
  Mn3.34+  Mn204  1  0.74230276  0.50084074  0.41287469  1
  Mn3.34+  Mn205  1  0.08541401  0.00214676  0.75279427  1
  Mn3.34+  Mn206  1  0.59846227  0.00072951  0.90757585  1
  Mn3.34+  Mn207  1  0.08558603  0.50070311  0.09718920  1
  Mn3.34+  Mn208  1  0.57031390  0.49581249  0.58518740  1
  Mn3.34+  Mn209  1  0.58517693  0.50140028  0.58192042  1
  Mn3.34+  Mn210  1  0.07334827  0.00158305  0.41258388  1
  Mn3.34+  Mn211  1  0.75786081  -0.00016864  0.39551733  1
  Mn3.34+  Mn212  1  0.08069053  0.49996793  0.42103120  1
  Mn3.34+  Mn213  1  0.09076363  0.49462415  0.75408191  1
  Mn3.34+  Mn214  1  0.74461597  0.00343091  0.73964731  1
  Mn3.34+  Mn215  1  0.90418288  0.49445466  0.91609017  1
  O2-  O216  1  -0.00115169  0.15645060  0.00295877  1
  O2-  O217  1  -0.00208762  0.16577676  0.33086133  1
  O2-  O218  1  -0.00117679  0.16214740  0.66328107  1
  O2-  O219  1  0.00301433  0.66488486  0.00124575  1
  O2-  O220  1  -0.00541064  0.66361678  0.33522284  1
  O2-  O221  1  -0.00054727  0.64075152  0.66930176  1
  O2-  O222  1  0.33785166  0.17081099  -0.01254595  1
  O2-  O223  1  0.32988052  0.15205296  0.33261976  1
  O2-  O224  1  0.32796813  0.19762726  0.65810700  1
  O2-  O225  1  0.33521688  0.64269048  -0.00308898  1
  O2-  O226  1  0.32983817  0.65087959  0.34373065  1
  O2-  O227  1  0.33659346  0.64730512  0.66888978  1
  O2-  O228  1  0.66529862  0.16272194  -0.00813165  1
  O2-  O229  1  0.65690729  0.14641291  0.33515366  1
  O2-  O230  1  0.66807773  0.14075502  0.66805810  1
  O2-  O231  1  0.65916811  0.66152066  0.00166029  1
  O2-  O232  1  0.66862942  0.65435206  0.33139571  1
  O2-  O233  1  0.66727986  0.65098123  0.67616005  1
  O2-  O234  1  0.16469438  0.15895116  0.01208044  1
  O2-  O235  1  0.17180051  0.14087248  0.33374558  1
  O2-  O236  1  0.16887425  0.18172657  0.65617364  1
  O2-  O237  1  0.17010618  0.65121001  0.01217998  1
  O2-  O238  1  0.16214934  0.64110606  0.32585271  1
  O2-  O239  1  0.16777451  0.64447427  0.67078027  1
  O2-  O240  1  0.50045221  0.15526741  -0.01133184  1
  O2-  O241  1  0.50043735  0.15112394  0.33637125  1
  O2-  O242  1  0.50004785  0.17105357  0.66759484  1
  O2-  O243  1  0.50009531  0.64818772  0.00009374  1
  O2-  O244  1  0.50308906  0.66225192  0.33749577  1
  O2-  O245  1  0.50020277  0.64742064  0.67984168  1
  O2-  O246  1  0.83042626  0.17186312  -0.00793489  1
  O2-  O247  1  0.84099497  0.17536348  0.31797370  1
  O2-  O248  1  0.84041151  0.14243423  0.67588770  1
  O2-  O249  1  0.82799933  0.68199797  -0.00221049  1
  O2-  O250  1  0.82943823  0.65070547  0.33315715  1
  O2-  O251  1  0.82809955  0.64934834  0.66125101  1
  O2-  O252  1  -0.00167581  0.34902832  -0.00179596  1
  O2-  O253  1  -0.00964494  0.34020387  0.33708005  1
  O2-  O254  1  0.00087619  0.33616004  0.66450798  1
  O2-  O255  1  -0.00374738  0.82166400  -0.00201914  1
  O2-  O256  1  0.00299961  0.84588420  0.32117675  1
  O2-  O257  1  -0.00164708  0.84093100  0.66168872  1
  O2-  O258  1  0.33596014  0.34547986  -0.00782931  1
  O2-  O259  1  0.33351586  0.34802766  0.33969625  1
  O2-  O260  1  0.33723722  0.32491267  0.66351758  1
  O2-  O261  1  0.32786426  0.84336345  0.00057361  1
  O2-  O262  1  0.33025446  0.84803771  0.34242972  1
  O2-  O263  1  0.33253074  0.85265891  0.67023565  1
  O2-  O264  1  0.66083147  0.33041513  0.00480409  1
  O2-  O265  1  0.66383235  0.34845141  0.33398582  1
  O2-  O266  1  0.66572175  0.34821888  0.66717502  1
  O2-  O267  1  0.66529464  0.82870489  0.00638929  1
  O2-  O268  1  0.66160949  0.83129882  0.33695181  1
  O2-  O269  1  0.66592873  0.84722098  0.66585353  1
  O2-  O270  1  0.16642550  0.33867666  -0.00251676  1
  O2-  O271  1  0.16914916  0.34890344  0.33182215  1
  O2-  O272  1  0.15712566  0.32139852  0.65689359  1
  O2-  O273  1  0.16426839  0.81644321  0.00086654  1
  O2-  O274  1  0.16157853  0.85703255  0.32768518  1
  O2-  O275  1  0.17606198  0.85768392  0.67296475  1
  O2-  O276  1  0.49853508  0.34054372  -0.00022382  1
  O2-  O277  1  0.49623363  0.35553966  0.32706137  1
  O2-  O278  1  0.49791583  0.32886806  0.66987782  1
  O2-  O279  1  0.49531521  0.84528941  -0.00452154  1
  O2-  O280  1  0.50245630  0.83566871  0.33628308  1
  O2-  O281  1  0.49276312  0.85344908  0.66026430  1
  O2-  O282  1  0.83462364  0.33394935  0.00525542  1
  O2-  O283  1  0.82762453  0.34522999  0.33082634  1
  O2-  O284  1  0.83266304  0.34348447  0.66004402  1
  O2-  O285  1  0.83446433  0.82140572  0.00052750  1
  O2-  O286  1  0.84338400  0.83270036  0.33172212  1
  O2-  O287  1  0.82486499  0.84944868  0.66010392  1
  O2-  O288  1  -0.00096038  0.18324718  0.17325211  1
  O2-  O289  1  -0.00446157  0.18198916  0.49809826  1
  O2-  O290  1  -0.00666891  0.17975282  0.83114029  1
  O2-  O291  1  -0.00480635  0.69210647  0.17242399  1
  O2-  O292  1  0.00593956  0.68457169  0.51207755  1
  O2-  O293  1  0.00157220  0.68165483  0.83754712  1
  O2-  O294  1  0.33284812  0.17718056  0.17174154  1
  O2-  O295  1  0.33143344  0.18281796  0.49506339  1
  O2-  O296  1  0.35334461  0.18302829  0.83835479  1
  O2-  O297  1  0.33002734  0.68523293  0.16046175  1
  O2-  O298  1  0.34191323  0.67061443  0.50924564  1
  O2-  O299  1  0.32671337  0.69277851  0.82870492  1
  O2-  O300  1  0.66490871  0.18409490  0.17454013  1
  O2-  O301  1  0.65903755  0.16679906  0.50158628  1
  O2-  O302  1  0.66944714  0.18331702  0.83004183  1
  O2-  O303  1  0.66742609  0.69093956  0.17601472  1
  O2-  O304  1  0.67199920  0.67438112  0.50040011  1
  O2-  O305  1  0.66850225  0.68221910  0.83571250  1
  O2-  O306  1  0.16100523  0.18193676  0.16902403  1
  O2-  O307  1  0.16528090  0.18374456  0.49622527  1
  O2-  O308  1  0.15534323  0.17313042  0.82159235  1
  O2-  O309  1  0.16785483  0.69487128  0.17014532  1
  O2-  O310  1  0.16419510  0.67710696  0.49780196  1
  O2-  O311  1  0.15611452  0.68866975  0.84779040  1
  O2-  O312  1  0.50340911  0.17878353  0.17113286  1
  O2-  O313  1  0.50363176  0.18640710  0.49822150  1
  O2-  O314  1  0.50129111  0.17180237  0.82902881  1
  O2-  O315  1  0.49353201  0.69483189  0.17440402  1
  O2-  O316  1  0.49590306  0.67749299  0.49984152  1
  O2-  O317  1  0.50002174  0.68378414  0.83789271  1
  O2-  O318  1  0.83934757  0.18608488  0.17500552  1
  O2-  O319  1  0.82459131  0.16878757  0.51450779  1
  O2-  O320  1  0.83541641  0.17762942  0.82936875  1
  O2-  O321  1  0.82739619  0.68036836  0.17978593  1
  O2-  O322  1  0.83263054  0.67053723  0.49928672  1
  O2-  O323  1  0.83505773  0.68569814  0.82461224  1
  O2-  O324  1  -0.00875090  0.31520923  0.16166533  1
  O2-  O325  1  0.00520914  0.32656405  0.50226042  1
  O2-  O326  1  -0.00176925  0.31873102  0.82644918  1
  O2-  O327  1  -0.00119030  0.80767914  0.16537666  1
  O2-  O328  1  -0.00681105  0.82368364  0.49208163  1
  O2-  O329  1  -0.00655836  0.82107889  0.83172702  1
  O2-  O330  1  0.34544388  0.32570971  0.17741954  1
  O2-  O331  1  0.33002652  0.32020539  0.49912199  1
  O2-  O332  1  0.33409530  0.31289524  0.83358705  1
  O2-  O333  1  0.33323538  0.82599346  0.16749181  1
  O2-  O334  1  0.33767011  0.82290203  0.50546783  1
  O2-  O335  1  0.33415060  0.81736837  0.83529578  1
  O2-  O336  1  0.67068610  0.31592646  0.17320458  1
  O2-  O337  1  0.67608723  0.33335337  0.50775461  1
  O2-  O338  1  0.66070431  0.32107833  0.83025259  1
  O2-  O339  1  0.66715177  0.81253945  0.16548327  1
  O2-  O340  1  0.66836024  0.83241770  0.50601506  1
  O2-  O341  1  0.66770861  0.81266260  0.83398891  1
  O2-  O342  1  0.16795101  0.31600737  0.16300246  1
  O2-  O343  1  0.16858714  0.31951258  0.49814607  1
  O2-  O344  1  0.16272551  0.30877676  0.83609089  1
  O2-  O345  1  0.16273243  0.81950324  0.16558876  1
  O2-  O346  1  0.17290537  0.82696457  0.49640349  1
  O2-  O347  1  0.16662550  0.81936288  0.83515475  1
  O2-  O348  1  0.49920102  0.32099617  0.16585966  1
  O2-  O349  1  0.50208361  0.32451193  0.49762443  1
  O2-  O350  1  0.49845169  0.31652449  0.83148354  1
  O2-  O351  1  0.50613885  0.81239161  0.16262724  1
  O2-  O352  1  0.50500036  0.82549061  0.49790541  1
  O2-  O353  1  0.50279932  0.82089548  0.82949455  1
  O2-  O354  1  0.83225240  0.31064625  0.16360744  1
  O2-  O355  1  0.83657554  0.32723624  0.49413822  1
  O2-  O356  1  0.83533536  0.31696956  0.82824385  1
  O2-  O357  1  0.83468911  0.81010824  0.16575776  1
  O2-  O358  1  0.82951329  0.82612338  0.50000601  1
  O2-  O359  1  0.82988423  0.81808378  0.83714281  1
  O2-  O360  1  0.08295664  0.07667832  0.11733910  1
  O2-  O361  1  0.08721734  0.07865568  0.45690720  1
  O2-  O362  1  0.07879396  0.08176186  0.76462488  1
  O2-  O363  1  0.07474026  0.58405042  0.12790849  1
  O2-  O364  1  0.07383154  0.58478690  0.43704946  1
  O2-  O365  1  0.07254150  0.58009131  0.78790242  1
  O2-  O366  1  0.45047904  0.06455789  0.12234072  1
  O2-  O367  1  0.42979028  0.08703325  0.44292819  1
  O2-  O368  1  0.43224396  0.05143330  0.78612062  1
  O2-  O369  1  0.40677653  0.58290139  0.11681000  1
  O2-  O370  1  0.42705321  0.58252453  0.44453231  1
  O2-  O371  1  0.39764193  0.58327528  0.79982667  1
  O2-  O372  1  0.72916595  0.08064317  0.11694356  1
  O2-  O373  1  0.71405870  0.05899996  0.45160672  1
  O2-  O374  1  0.75411230  0.07667988  0.78944123  1
  O2-  O375  1  0.74882961  0.57608129  0.10915610  1
  O2-  O376  1  0.74492845  0.58199233  0.44752032  1
  O2-  O377  1  0.75771080  0.58308156  0.79037525  1
  O2-  O378  1  0.26871533  0.07531930  0.22026110  1
  O2-  O379  1  0.23408868  0.08071866  0.55776352  1
  O2-  O380  1  0.26252727  0.07112803  0.87974558  1
  O2-  O381  1  0.23863912  0.57978874  0.19859458  1
  O2-  O382  1  0.22846203  0.58057969  0.54595410  1
  O2-  O383  1  0.21272115  0.57795055  0.87911040  1
  O2-  O384  1  0.58131197  0.08249193  0.21974549  1
  O2-  O385  1  0.57295343  0.07842958  0.55625493  1
  O2-  O386  1  0.59676379  0.08101977  0.88027113  1
  O2-  O387  1  0.60738188  0.58374232  0.20895362  1
  O2-  O388  1  0.57964016  0.58108269  0.54864598  1
  O2-  O389  1  0.59084287  0.58445246  0.89387062  1
  O2-  O390  1  0.90003759  0.08269379  0.22687491  1
  O2-  O391  1  0.92409754  0.07787730  0.55719358  1
  O2-  O392  1  0.90636641  0.08385206  0.89158318  1
  O2-  O393  1  0.90985114  0.58108077  0.21738528  1
  O2-  O394  1  0.93664562  0.58266442  0.54400036  1
  O2-  O395  1  0.93280347  0.57876120  0.88803366  1
  O2-  O396  1  0.06531614  0.41390884  0.10837722  1
  O2-  O397  1  0.09110274  0.41788864  0.45256136  1
  O2-  O398  1  0.08326553  0.41173476  0.75572774  1
  O2-  O399  1  0.07816432  0.92652587  0.11246868  1
  O2-  O400  1  0.07441398  0.92346848  0.44771994  1
  O2-  O401  1  0.10145449  0.92440354  0.79130947  1
  O2-  O402  1  0.42400729  0.41879452  0.09737486  1
  O2-  O403  1  0.39399194  0.42219280  0.45965868  1
  O2-  O404  1  0.43079481  0.41879608  0.76862776  1
  O2-  O405  1  0.42223049  0.92173466  0.10820796  1
  O2-  O406  1  0.42513990  0.92087449  0.45577863  1
  O2-  O407  1  0.39915570  0.91683388  0.78393376  1
  O2-  O408  1  0.77216418  0.41783400  0.11256851  1
  O2-  O409  1  0.76751682  0.42137317  0.44884132  1
  O2-  O410  1  0.75406156  0.41619511  0.75460016  1
  O2-  O411  1  0.76105377  0.91860936  0.10576058  1
  O2-  O412  1  0.74473637  0.92929960  0.45028684  1
  O2-  O413  1  0.74840561  0.92463242  0.76539816  1
  O2-  O414  1  0.27928529  0.41909523  0.23595935  1
  O2-  O415  1  0.22877120  0.41662045  0.55738565  1
  O2-  O416  1  0.23592225  0.41230181  0.88581271  1
  O2-  O417  1  0.22589072  0.92930557  0.20759949  1
  O2-  O418  1  0.25743118  0.92720592  0.54751619  1
  O2-  O419  1  0.25169211  0.92963721  0.88392680  1
  O2-  O420  1  0.57988180  0.41454996  0.21209549  1
  O2-  O421  1  0.58410947  0.41533039  0.56332435  1
  O2-  O422  1  0.56973752  0.41386034  0.90038905  1
  O2-  O423  1  0.58221575  0.91707265  0.21073041  1
  O2-  O424  1  0.58476824  0.92405931  0.55717009  1
  O2-  O425  1  0.58606014  0.91413363  0.89778736  1
  O2-  O426  1  0.90800338  0.41555615  0.22647999  1
  O2-  O427  1  0.92125753  0.41789863  0.55025549  1
  O2-  O428  1  0.92178024  0.41345525  0.88679245  1
  O2-  O429  1  0.93601002  0.91648483  0.20377494  1
  O2-  O430  1  0.89630933  0.92500703  0.54790627  1
  O2-  O431  1  0.92372299  0.91392426  0.91609001  1
  O2-  O432  1  0.00306086  -0.01035790  0.00159480  1
  O2-  O433  1  -0.00040956  -0.01680141  0.33260537  1
  O2-  O434  1  -0.00755492  0.01040053  0.68120632  1
  O2-  O435  1  0.01604665  0.51113974  -0.01221694  1
  O2-  O436  1  -0.00753852  0.49886233  0.34153736  1
  O2-  O437  1  0.01740081  0.49954227  0.64709092  1
  O2-  O438  1  0.33111306  -0.01284780  0.00018899  1
  O2-  O439  1  0.32560811  0.00225615  0.34837476  1
  O2-  O440  1  0.33749013  -0.01696694  0.65869496  1
  O2-  O441  1  0.33969672  0.51280967  -0.02510853  1
  O2-  O442  1  0.33555512  0.51130225  0.33165076  1
  O2-  O443  1  0.34896516  0.52646853  0.64849863  1
  O2-  O444  1  0.66890992  0.00038854  0.00265281  1
  O2-  O445  1  0.67637612  -0.00667265  0.31919769  1
  O2-  O446  1  0.67003576  0.00149426  0.66090515  1
  O2-  O447  1  0.66252256  0.49366437  0.02004246  1
  O2-  O448  1  0.67047272  0.50679779  0.32696490  1
  O2-  O449  1  0.66793390  0.51431306  0.66742397  1
  O2-  O450  1  0.16538067  -0.02100160  0.00239353  1
  O2-  O451  1  0.16314381  -0.01173308  0.33154221  1
  O2-  O452  1  0.17957633  -0.00224367  0.68238737  1
  O2-  O453  1  0.17509478  0.51043713  0.01883580  1
  O2-  O454  1  0.18261696  0.49921639  0.36022795  1
  O2-  O455  1  0.17135123  0.51874635  0.67366725  1
  O2-  O456  1  0.49632768  -0.00175382  -0.01630048  1
  O2-  O457  1  0.51662978  0.00768402  0.34674160  1
  O2-  O458  1  0.49801926  0.00774585  0.67627339  1
  O2-  O459  1  0.50593595  0.50097023  0.01086534  1
  O2-  O460  1  0.50158148  0.48265346  0.32513010  1
  O2-  O461  1  0.50630753  0.52428185  0.67556392  1
  O2-  O462  1  0.83772625  0.00475111  0.01379292  1
  O2-  O463  1  0.84689963  -0.00372130  0.34501729  1
  O2-  O464  1  0.82080286  0.00182900  0.64824971  1
  O2-  O465  1  0.84494811  0.51656508  0.01047970  1
  O2-  O466  1  0.83661550  0.50093398  0.33490845  1
  O2-  O467  1  0.82358524  0.50379241  0.65438855  1
  O2-  O468  1  0.41081068  0.74845206  0.05257881  1
  O2-  O469  1  0.40593124  0.75364712  0.40143863  1
  O2-  O470  1  0.90716889  0.75305459  0.60406864  1
  O2-  O471  1  0.57192697  0.74958659  0.93999233  1
  O2-  O472  1  0.74899616  0.75206121  0.72033368  1
  O2-  O473  1  0.74130782  0.25194170  0.40363432  1
  O2-  O474  1  0.24799226  0.75540169  0.60641540  1
  O2-  O475  1  0.90769345  0.24551329  0.60365419  1
  O2-  O476  1  0.24468423  0.24711511  0.27548965  1
  O2-  O477  1  0.41768857  0.24884752  0.38285499  1
  O2-  O478  1  0.92401543  0.24902714  0.93690092  1
  O2-  O479  1  0.75404709  0.74824557  0.40177672  1
  O2-  O480  1  0.42259957  0.75208645  0.71667143  1
  O2-  O481  1  0.07666070  0.24666838  0.06100799  1
  O2-  O482  1  0.60476314  0.24511437  0.60211003  1
  O2-  O483  1  0.25000922  0.24715766  0.92829402  1
  O2-  O484  1  0.57917272  0.24874013  0.93127916  1
  O2-  O485  1  0.75193894  0.24485261  0.71837756  1
  O2-  O486  1  0.25466929  0.75024871  0.28150196  1
  O2-  O487  1  0.09406177  0.24374132  0.38279914  1
  O2-  O488  1  0.57871578  0.25204015  0.28095259  1
  O2-  O489  1  0.41226240  0.25244548  0.06723882  1
  O2-  O490  1  0.58203487  0.75720722  0.59945445  1
  O2-  O491  1  0.09610058  0.75757046  0.71398351  1
  O2-  O492  1  0.09630308  0.75676374  0.39430955  1
