# generated using pymatgen
data_Ca108Mn108O277
_symmetry_space_group_name_H-M   'P 1'
_cell_length_a   16.03041667
_cell_length_b   22.31151561
_cell_length_c   16.39303540
_cell_angle_alpha   89.99866415
_cell_angle_beta   90.00033615
_cell_angle_gamma   89.99970931
_symmetry_Int_Tables_number   1
_chemical_formula_structural   Ca108Mn108O277
_chemical_formula_sum   'Ca108 Mn108 O277'
_cell_volume   5863.18044339
_cell_formula_units_Z   1
loop_
 _symmetry_equiv_pos_site_id
 _symmetry_equiv_pos_as_xyz
  1  'x, y, z'
loop_
 _atom_type_symbol
 _atom_type_oxidation_number
  Ca2+  2.0
  Mn3.34+  3.34
  O2-  -2.0
loop_
 _atom_site_type_symbol
 _atom_site_label
 _atom_site_symmetry_multiplicity
 _atom_site_fract_x
 _atom_site_fract_y
 _atom_site_fract_z
 _atom_site_occupancy
  Ca2+  Ca0  1  0.08818574  0.23582451  0.26420580  1
  Ca2+  Ca1  1  0.08166427  0.24665358  0.58227832  1
  Ca2+  Ca2  1  0.08170664  0.23526575  0.90595790  1
  Ca2+  Ca3  1  0.07927212  0.74134873  0.25635009  1
  Ca2+  Ca4  1  0.09050561  0.75548080  0.57711951  1
  Ca2+  Ca5  1  0.07468429  0.76908329  0.91142139  1
  Ca2+  Ca6  1  0.41115880  0.25326181  0.25467010  1
  Ca2+  Ca7  1  0.40178311  0.25500070  0.57401196  1
  Ca2+  Ca8  1  0.40712333  0.26047691  0.91515352  1
  Ca2+  Ca9  1  0.42671789  0.74750732  0.25233442  1
  Ca2+  Ca10  1  0.41982219  0.74973867  0.58411600  1
  Ca2+  Ca11  1  0.43266975  0.74990333  0.91986575  1
  Ca2+  Ca12  1  0.74687716  0.24930069  0.25877225  1
  Ca2+  Ca13  1  0.76104817  0.24961598  0.57936229  1
  Ca2+  Ca14  1  0.76070712  0.25339260  0.90530299  1
  Ca2+  Ca15  1  0.74976728  0.74938289  0.24843867  1
  Ca2+  Ca16  1  0.73707344  0.73560964  0.59706727  1
  Ca2+  Ca17  1  0.73645853  0.75433135  0.91835950  1
  Ca2+  Ca18  1  0.23834835  0.24117712  0.08123860  1
  Ca2+  Ca19  1  0.23011197  0.23664854  0.41473391  1
  Ca2+  Ca20  1  0.22613622  0.24422525  0.75329415  1
  Ca2+  Ca21  1  0.26549547  0.75840150  0.09467293  1
  Ca2+  Ca22  1  0.25719208  0.74917908  0.41561495  1
  Ca2+  Ca23  1  0.26116258  0.75015754  0.73484718  1
  Ca2+  Ca24  1  0.57380777  0.26900965  0.08657490  1
  Ca2+  Ca25  1  0.58368238  0.24786531  0.40826951  1
  Ca2+  Ca26  1  0.59091046  0.25699578  0.75782428  1
  Ca2+  Ca27  1  0.59719946  0.75203423  0.08496210  1
  Ca2+  Ca28  1  0.59331612  0.75004410  0.42041490  1
  Ca2+  Ca29  1  0.59524282  0.75934738  0.74873767  1
  Ca2+  Ca30  1  0.93229734  0.24699467  0.07403274  1
  Ca2+  Ca31  1  0.93742641  0.25238475  0.41178738  1
  Ca2+  Ca32  1  0.93233073  0.25012798  0.75894510  1
  Ca2+  Ca33  1  0.89228331  0.75654795  0.08929016  1
  Ca2+  Ca34  1  0.89804020  0.74076610  0.41030194  1
  Ca2+  Ca35  1  0.89299061  0.76566489  0.74958694  1
  Ca2+  Ca36  1  0.58565523  0.61194385  0.09698224  1
  Ca2+  Ca37  1  0.88003270  0.60357194  0.73520840  1
  Ca2+  Ca38  1  0.91036798  0.09272473  0.39415358  1
  Ca2+  Ca39  1  0.26663338  0.58622282  0.09831642  1
  Ca2+  Ca40  1  0.39854239  0.61454381  0.57642597  1
  Ca2+  Ca41  1  0.41218331  0.07872207  0.27527787  1
  Ca2+  Ca42  1  0.24612524  0.60107340  0.42360260  1
  Ca2+  Ca43  1  0.39242478  0.05931505  0.57533711  1
  Ca2+  Ca44  1  0.58726141  0.08324524  0.74453930  1
  Ca2+  Ca45  1  0.10398341  0.60249070  0.57043789  1
  Ca2+  Ca46  1  0.76431742  0.08803822  0.91610893  1
  Ca2+  Ca47  1  0.38956871  0.60142638  0.25441017  1
  Ca2+  Ca48  1  0.40611054  0.08521405  0.91813487  1
  Ca2+  Ca49  1  0.42311067  0.08036218  0.27480873  1
  Ca2+  Ca50  1  0.11881968  0.57567919  0.27331382  1
  Ca2+  Ca51  1  0.10849103  0.57432340  0.27277683  1
  Ca2+  Ca52  1  0.88240682  0.60142764  0.10202094  1
  Ca2+  Ca53  1  0.56348712  0.61403757  0.75902579  1
  Ca2+  Ca54  1  0.08730857  0.55805712  0.94826250  1
  Ca2+  Ca55  1  0.43399770  0.58618901  0.92805351  1
  Ca2+  Ca56  1  0.92232450  0.09280185  0.39444643  1
  Ca2+  Ca57  1  0.57302585  0.07471034  0.08782561  1
  Ca2+  Ca58  1  0.86814028  0.60351709  0.73983235  1
  Ca2+  Ca59  1  0.73583410  0.61869674  0.25892290  1
  Ca2+  Ca60  1  0.57401769  0.61387548  0.76011241  1
  Ca2+  Ca61  1  0.94643106  0.09349229  0.76862770  1
  Ca2+  Ca62  1  0.60145618  0.61612539  0.40546106  1
  Ca2+  Ca63  1  0.72123788  0.59574450  0.91877411  1
  Ca2+  Ca64  1  0.60024261  0.08277791  0.74494595  1
  Ca2+  Ca65  1  0.29816807  0.60979253  0.73013009  1
  Ca2+  Ca66  1  0.93424440  0.09364039  0.76513421  1
  Ca2+  Ca67  1  0.39783701  0.59747597  0.25106475  1
  Ca2+  Ca68  1  0.38402732  0.06128536  0.56954989  1
  Ca2+  Ca69  1  0.75259597  0.07464754  0.27866004  1
  Ca2+  Ca70  1  0.59238090  0.07868654  0.39980562  1
  Ca2+  Ca71  1  0.25659835  0.60121677  0.42398000  1
  Ca2+  Ca72  1  0.24358002  0.42544929  0.07534710  1
  Ca2+  Ca73  1  0.24073969  0.42962502  0.40269114  1
  Ca2+  Ca74  1  0.56763293  0.40888181  0.41515684  1
  Ca2+  Ca75  1  0.07241957  0.89564265  0.24349346  1
  Ca2+  Ca76  1  0.40146387  0.41319391  0.58592164  1
  Ca2+  Ca77  1  0.92128142  0.40662183  0.75655788  1
  Ca2+  Ca78  1  0.25226051  0.42235819  0.07933380  1
  Ca2+  Ca79  1  0.41265733  0.90590249  0.93356862  1
  Ca2+  Ca80  1  0.89952714  0.91128482  0.41136278  1
  Ca2+  Ca81  1  0.73776640  0.90507849  0.25599917  1
  Ca2+  Ca82  1  0.08179839  0.89365131  0.24740607  1
  Ca2+  Ca83  1  0.93625594  0.42091746  0.07482584  1
  Ca2+  Ca84  1  0.39301168  0.41880443  0.25471882  1
  Ca2+  Ca85  1  0.93914087  0.41243981  0.40238527  1
  Ca2+  Ca86  1  0.40098447  0.42148166  0.24913819  1
  Ca2+  Ca87  1  0.76246255  0.40006467  0.25494211  1
  Ca2+  Ca88  1  0.74661859  0.89087879  0.58633292  1
  Ca2+  Ca89  1  0.09377589  0.40962542  0.58094207  1
  Ca2+  Ca90  1  0.25894120  0.91440361  0.72066819  1
  Ca2+  Ca91  1  0.23029031  0.43008289  0.40122140  1
  Ca2+  Ca92  1  0.27923323  0.91170074  0.43340283  1
  Ca2+  Ca93  1  0.75588971  0.40419360  0.58497141  1
  Ca2+  Ca94  1  0.88738129  0.90930795  0.41291794  1
  Ca2+  Ca95  1  0.73306548  0.40649793  0.91643215  1
  Ca2+  Ca96  1  0.58013701  0.41075362  0.41285386  1
  Ca2+  Ca97  1  0.42315066  0.90578981  0.25269199  1
  Ca2+  Ca98  1  0.43862635  0.42541924  0.93692126  1
  Ca2+  Ca99  1  0.07159040  0.90727975  0.90535825  1
  Ca2+  Ca100  1  0.08739467  0.40653934  0.91994521  1
  Ca2+  Ca101  1  0.25291998  0.40456378  0.74999798  1
  Ca2+  Ca102  1  0.74336119  0.40353913  0.58677713  1
  Ca2+  Ca103  1  0.57039314  0.90414183  0.41092307  1
  Ca2+  Ca104  1  0.08770483  0.41220593  0.25041362  1
  Ca2+  Ca105  1  0.94802355  0.41797349  0.07760968  1
  Ca2+  Ca106  1  0.57722524  0.40526382  0.76190654  1
  Ca2+  Ca107  1  0.24814843  0.91476628  0.72050531  1
  Mn3.34+  Mn108  1  0.08902483  0.33134725  0.08718846  1
  Mn3.34+  Mn109  1  0.08647761  0.33483414  0.41776899  1
  Mn3.34+  Mn110  1  0.08356822  0.33568087  0.75020347  1
  Mn3.34+  Mn111  1  0.08438902  0.83121737  0.07674928  1
  Mn3.34+  Mn112  1  0.08566366  0.83084681  0.42395110  1
  Mn3.34+  Mn113  1  0.07616142  0.83466540  0.74350782  1
  Mn3.34+  Mn114  1  0.41315390  0.33853532  0.08393651  1
  Mn3.34+  Mn115  1  0.41319549  0.33464192  0.41996998  1
  Mn3.34+  Mn116  1  0.41554482  0.33109827  0.75187658  1
  Mn3.34+  Mn117  1  0.42074991  0.83480439  0.08751019  1
  Mn3.34+  Mn118  1  0.41942128  0.83133496  0.41853612  1
  Mn3.34+  Mn119  1  0.42141264  0.83423676  0.75442360  1
  Mn3.34+  Mn120  1  0.75440899  0.33225676  0.08730753  1
  Mn3.34+  Mn121  1  0.75352321  0.33319955  0.41738012  1
  Mn3.34+  Mn122  1  0.75106414  0.33075873  0.75280711  1
  Mn3.34+  Mn123  1  0.74446806  0.83662056  0.08012630  1
  Mn3.34+  Mn124  1  0.74280419  0.82921254  0.41983407  1
  Mn3.34+  Mn125  1  0.74323410  0.84070348  0.75894895  1
  Mn3.34+  Mn126  1  0.24628647  0.33053822  0.24720942  1
  Mn3.34+  Mn127  1  0.24837351  0.33296026  0.58291888  1
  Mn3.34+  Mn128  1  0.25118595  0.33402572  0.91334187  1
  Mn3.34+  Mn129  1  0.25201301  0.83265809  0.24924692  1
  Mn3.34+  Mn130  1  0.25378744  0.83553408  0.57722472  1
  Mn3.34+  Mn131  1  0.25253518  0.83340432  0.91202643  1
  Mn3.34+  Mn132  1  0.58465551  0.33351680  0.24213238  1
  Mn3.34+  Mn133  1  0.57819714  0.32569163  0.58408710  1
  Mn3.34+  Mn134  1  0.58173888  0.33575610  0.92188686  1
  Mn3.34+  Mn135  1  0.58290380  0.83240997  0.24504412  1
  Mn3.34+  Mn136  1  0.57766365  0.82969460  0.58592659  1
  Mn3.34+  Mn137  1  0.58182277  0.83463536  0.91733340  1
  Mn3.34+  Mn138  1  0.92187908  0.33021847  0.24437436  1
  Mn3.34+  Mn139  1  0.92210454  0.33456093  0.58396374  1
  Mn3.34+  Mn140  1  0.91688495  0.33434426  0.91535978  1
  Mn3.34+  Mn141  1  0.91258422  0.83091783  0.24460075  1
  Mn3.34+  Mn142  1  0.91695858  0.83116357  0.58061283  1
  Mn3.34+  Mn143  1  0.90718953  0.84120917  0.91924113  1
  Mn3.34+  Mn144  1  0.92430944  0.16736821  0.92335964  1
  Mn3.34+  Mn145  1  0.75244655  0.16501751  0.75135743  1
  Mn3.34+  Mn146  1  0.91001788  0.16353827  0.58168672  1
  Mn3.34+  Mn147  1  0.09073254  0.65938200  0.08911663  1
  Mn3.34+  Mn148  1  0.57580161  0.16852338  0.91883284  1
  Mn3.34+  Mn149  1  0.91653251  0.67299778  0.57395671  1
  Mn3.34+  Mn150  1  0.24387717  0.15928297  0.58419359  1
  Mn3.34+  Mn151  1  0.08045726  0.66589499  0.75312373  1
  Mn3.34+  Mn152  1  0.57741570  0.17383214  0.58038873  1
  Mn3.34+  Mn153  1  0.75911796  0.16059824  0.09051284  1
  Mn3.34+  Mn154  1  0.92672456  0.66749316  0.92237179  1
  Mn3.34+  Mn155  1  0.58233494  0.66653541  0.57759992  1
  Mn3.34+  Mn156  1  0.58509095  0.16861915  0.24878655  1
  Mn3.34+  Mn157  1  0.24130035  0.16888950  0.24989792  1
  Mn3.34+  Mn158  1  0.41639713  0.16430604  0.08669854  1
  Mn3.34+  Mn159  1  0.75069964  0.16863428  0.41370686  1
  Mn3.34+  Mn160  1  0.41900930  0.66868545  0.09025262  1
  Mn3.34+  Mn161  1  0.74948059  0.15545620  0.09362740  1
  Mn3.34+  Mn162  1  0.41516921  0.66792011  0.41706813  1
  Mn3.34+  Mn163  1  0.24293169  0.16994948  0.91404918  1
  Mn3.34+  Mn164  1  0.07614267  0.66429856  0.08604695  1
  Mn3.34+  Mn165  1  0.23360236  0.15442724  0.58325119  1
  Mn3.34+  Mn166  1  0.40960945  0.16189361  0.75337054  1
  Mn3.34+  Mn167  1  0.58717574  0.16413208  0.91713066  1
  Mn3.34+  Mn168  1  0.58099797  0.67015399  0.92096359  1
  Mn3.34+  Mn169  1  0.92267910  0.16728035  0.23793547  1
  Mn3.34+  Mn170  1  0.25740848  0.66951510  0.91866739  1
  Mn3.34+  Mn171  1  0.24840067  0.66383303  0.91614515  1
  Mn3.34+  Mn172  1  0.09375067  0.65997829  0.75656203  1
  Mn3.34+  Mn173  1  0.92012341  0.15858499  0.57992302  1
  Mn3.34+  Mn174  1  0.40572578  0.15909196  0.08888838  1
  Mn3.34+  Mn175  1  0.41382465  0.16719579  0.41859363  1
  Mn3.34+  Mn176  1  0.08186900  0.66922407  0.41717682  1
  Mn3.34+  Mn177  1  0.91425234  0.66481080  0.25678247  1
  Mn3.34+  Mn178  1  0.91282918  0.66188092  0.91750656  1
  Mn3.34+  Mn179  1  0.58582138  0.16751775  0.57839633  1
  Mn3.34+  Mn180  1  0.08620897  0.50191255  0.74652376  1
  Mn3.34+  Mn181  1  0.90169765  0.00340147  0.60423642  1
  Mn3.34+  Mn182  1  0.91112203  -0.00381323  0.92512617  1
  Mn3.34+  Mn183  1  0.91483235  0.50046165  0.26103228  1
  Mn3.34+  Mn184  1  0.75195016  0.50488319  0.41128486  1
  Mn3.34+  Mn185  1  0.58657834  0.50902177  0.58258543  1
  Mn3.34+  Mn186  1  0.91218415  0.50146369  0.91864540  1
  Mn3.34+  Mn187  1  0.25656590  0.50048011  0.91490754  1
  Mn3.34+  Mn188  1  0.23414164  0.00867795  0.23724987  1
  Mn3.34+  Mn189  1  0.59789571  -0.01188059  0.92974692  1
  Mn3.34+  Mn190  1  0.10147575  0.00620827  0.42902692  1
  Mn3.34+  Mn191  1  0.57334491  0.50220016  0.58172123  1
  Mn3.34+  Mn192  1  0.58729024  -0.00197657  0.25277500  1
  Mn3.34+  Mn193  1  0.41836667  -0.00248979  0.75472595  1
  Mn3.34+  Mn194  1  0.75983904  -0.00517875  0.08205203  1
  Mn3.34+  Mn195  1  0.74014862  0.49615906  0.75228148  1
  Mn3.34+  Mn196  1  0.41811490  0.49849727  0.75614581  1
  Mn3.34+  Mn197  1  0.25236961  0.50179092  0.58901713  1
  Mn3.34+  Mn198  1  0.24476102  0.00077001  0.23372256  1
  Mn3.34+  Mn199  1  0.23913492  0.00242566  0.91948307  1
  Mn3.34+  Mn200  1  0.24977060  0.00698389  0.92044620  1
  Mn3.34+  Mn201  1  0.92040329  -0.00109133  0.24527848  1
  Mn3.34+  Mn202  1  0.58436310  -0.01018926  0.92464858  1
  Mn3.34+  Mn203  1  0.06694277  0.01372554  0.07852697  1
  Mn3.34+  Mn204  1  0.59561879  -0.00518001  0.58033554  1
  Mn3.34+  Mn205  1  0.74046219  0.50201789  0.08073619  1
  Mn3.34+  Mn206  1  0.59909072  0.49492727  0.23941900  1
  Mn3.34+  Mn207  1  0.09128152  -0.00267375  0.42914705  1
  Mn3.34+  Mn208  1  0.91023168  0.50891314  0.57559148  1
  Mn3.34+  Mn209  1  0.60744608  -0.00070330  0.58077133  1
  Mn3.34+  Mn210  1  0.91320571  -0.00408817  0.60316245  1
  Mn3.34+  Mn211  1  0.58412831  0.50041843  0.23855108  1
  Mn3.34+  Mn212  1  0.08074534  0.01010792  0.08471746  1
  Mn3.34+  Mn213  1  0.92280970  0.50230701  0.57387921  1
  Mn3.34+  Mn214  1  0.73016687  0.49371956  0.07727392  1
  Mn3.34+  Mn215  1  0.09643583  0.00223825  0.73948332  1
  O2-  O216  1  0.00178777  0.17718119  -0.00246609  1
  O2-  O217  1  -0.01441029  0.17099082  0.33092965  1
  O2-  O218  1  -0.00566199  0.14835466  0.66596163  1
  O2-  O219  1  0.00150301  0.63066538  0.00250595  1
  O2-  O220  1  0.01510947  0.64749064  0.32062311  1
  O2-  O221  1  0.00052649  0.64293462  0.66864371  1
  O2-  O222  1  0.33354326  0.15150062  -0.00073806  1
  O2-  O223  1  0.34040988  0.15181347  0.33244304  1
  O2-  O224  1  0.33632961  0.14315117  0.65625326  1
  O2-  O225  1  0.33312042  0.65015627  0.00226825  1
  O2-  O226  1  0.32707460  0.66345801  0.33657899  1
  O2-  O227  1  0.33767789  0.68668570  0.66008795  1
  O2-  O228  1  0.66695662  0.14523972  0.00769359  1
  O2-  O229  1  0.66811259  0.15290290  0.33181677  1
  O2-  O230  1  0.66022303  0.15683994  0.67082734  1
  O2-  O231  1  0.65910524  0.65896499  0.00134792  1
  O2-  O232  1  0.65297795  0.68987037  0.31840315  1
  O2-  O233  1  0.65579049  0.65247694  0.66300071  1
  O2-  O234  1  0.16786878  0.17642404  -0.00591698  1
  O2-  O235  1  0.17199454  0.16126747  0.32988575  1
  O2-  O236  1  0.16311289  0.16036091  0.66806106  1
  O2-  O237  1  0.16908498  0.64517850  0.00030302  1
  O2-  O238  1  0.16782791  0.66057497  0.33687052  1
  O2-  O239  1  0.17300891  0.65538313  0.67413811  1
  O2-  O240  1  0.49669642  0.13991344  0.00458956  1
  O2-  O241  1  0.50348964  0.15156330  0.33744512  1
  O2-  O242  1  0.49907878  0.16210678  0.66684328  1
  O2-  O243  1  0.49651454  0.65706075  0.00251753  1
  O2-  O244  1  0.48765817  0.64930850  0.33214102  1
  O2-  O245  1  0.49630522  0.65444370  0.65755217  1
  O2-  O246  1  0.82811820  0.16340017  -0.00273575  1
  O2-  O247  1  0.83224551  0.17240466  0.32953682  1
  O2-  O248  1  0.83395034  0.14372548  0.66383204  1
  O2-  O249  1  0.83143095  0.64976213  -0.00497757  1
  O2-  O250  1  0.84005971  0.66315988  0.33386794  1
  O2-  O251  1  0.84878560  0.68275114  0.66524986  1
  O2-  O252  1  0.00430583  0.34162502  0.00054463  1
  O2-  O253  1  0.00592472  0.34308629  0.32646204  1
  O2-  O254  1  0.00272328  0.35729973  0.66441576  1
  O2-  O255  1  0.00591516  0.84766994  -0.00751058  1
  O2-  O256  1  -0.00390025  0.85381241  0.34234996  1
  O2-  O257  1  -0.00385134  0.81303679  0.65914529  1
  O2-  O258  1  0.33259180  0.35750084  -0.00284418  1
  O2-  O259  1  0.32853367  0.35694371  0.33601324  1
  O2-  O260  1  0.33717202  0.34463744  0.66374048  1
  O2-  O261  1  0.33384409  0.83306887  -0.00334035  1
  O2-  O262  1  0.32508561  0.83910818  0.33904559  1
  O2-  O263  1  0.32881440  0.82968051  0.67043160  1
  O2-  O264  1  0.67737626  0.33206522  -0.00118984  1
  O2-  O265  1  0.66334566  0.35159561  0.33783200  1
  O2-  O266  1  0.66013548  0.34385810  0.66912785  1
  O2-  O267  1  0.66385630  0.84551008  -0.00096494  1
  O2-  O268  1  0.65922221  0.84309889  0.33850612  1
  O2-  O269  1  0.65935341  0.83835522  0.66524024  1
  O2-  O270  1  0.17342770  0.35018315  0.00678309  1
  O2-  O271  1  0.16969919  0.35269792  0.33434538  1
  O2-  O272  1  0.16893541  0.35006956  0.66926854  1
  O2-  O273  1  0.16922478  0.82539828  -0.00496754  1
  O2-  O274  1  0.15981045  0.83669713  0.32821316  1
  O2-  O275  1  0.17311009  0.83493309  0.66377604  1
  O2-  O276  1  0.49738565  0.34608403  0.00226896  1
  O2-  O277  1  0.49465581  0.35457042  0.32834474  1
  O2-  O278  1  0.49609118  0.30938302  0.66525012  1
  O2-  O279  1  0.49615639  0.84201303  -0.00174616  1
  O2-  O280  1  0.49756115  0.83225505  0.32689608  1
  O2-  O281  1  0.49330108  0.82210238  0.66756802  1
  O2-  O282  1  0.84129982  0.35121147  0.00700285  1
  O2-  O283  1  0.84376443  0.33742671  0.33526040  1
  O2-  O284  1  0.83478291  0.35347339  0.66742952  1
  O2-  O285  1  0.83628298  0.83775723  0.00713985  1
  O2-  O286  1  0.82982260  0.84577449  0.32924183  1
  O2-  O287  1  0.83135640  0.82741226  0.65482362  1
  O2-  O288  1  -0.00437529  0.20199871  0.17503066  1
  O2-  O289  1  -0.00707221  0.18331521  0.50085550  1
  O2-  O290  1  -0.00742505  0.17449040  0.83378481  1
  O2-  O291  1  -0.00831203  0.67251916  0.16194794  1
  O2-  O292  1  0.00595942  0.68602359  0.50530551  1
  O2-  O293  1  0.00236842  0.68229575  0.83619896  1
  O2-  O294  1  0.33469847  0.18778618  0.17108602  1
  O2-  O295  1  0.32953133  0.17481977  0.50528284  1
  O2-  O296  1  0.33696283  0.18774934  0.83269783  1
  O2-  O297  1  0.33666450  0.67725519  0.16975592  1
  O2-  O298  1  0.32835186  0.67886203  0.49139771  1
  O2-  O299  1  0.33061545  0.68607135  0.83465039  1
  O2-  O300  1  0.66556219  0.18837535  0.16156363  1
  O2-  O301  1  0.66869321  0.18434738  0.49976859  1
  O2-  O302  1  0.66984795  0.18909105  0.83511921  1
  O2-  O303  1  0.65872047  0.68771386  0.17861040  1
  O2-  O304  1  0.65895848  0.67861279  0.49995281  1
  O2-  O305  1  0.65931737  0.67507993  0.83825058  1
  O2-  O306  1  0.17141626  0.18847128  0.17361159  1
  O2-  O307  1  0.16020617  0.17680573  0.50547069  1
  O2-  O308  1  0.17032563  0.18120508  0.83645767  1
  O2-  O309  1  0.16502865  0.68748994  0.16463803  1
  O2-  O310  1  0.16586092  0.68076959  0.49406008  1
  O2-  O311  1  0.16345042  0.69237614  0.84678385  1
  O2-  O312  1  0.49976557  0.18278438  0.16527106  1
  O2-  O313  1  0.49630550  0.19254584  0.50071163  1
  O2-  O314  1  0.50226433  0.18727393  0.82599585  1
  O2-  O315  1  0.49593195  0.67696445  0.16778609  1
  O2-  O316  1  0.49540958  0.67987753  0.49711316  1
  O2-  O317  1  0.50296050  0.68328522  0.83513640  1
  O2-  O318  1  0.83340570  0.19240563  0.16712487  1
  O2-  O319  1  0.83649623  0.18467066  0.49595109  1
  O2-  O320  1  0.83738318  0.17122641  0.82812373  1
  O2-  O321  1  0.83499583  0.67889847  0.17708882  1
  O2-  O322  1  0.83684747  0.69605684  0.51268658  1
  O2-  O323  1  0.84234209  0.67714070  0.82828608  1
  O2-  O324  1  -0.00321105  0.31996490  0.15662583  1
  O2-  O325  1  -0.00201319  0.32824495  0.49588451  1
  O2-  O326  1  -0.00127901  0.32557730  0.83355282  1
  O2-  O327  1  0.00583613  0.82188816  0.17262334  1
  O2-  O328  1  -0.00263651  0.82290570  0.49572944  1
  O2-  O329  1  -0.00284019  0.82717315  0.82913148  1
  O2-  O330  1  0.33185038  0.32004990  0.16995451  1
  O2-  O331  1  0.33541629  0.32485359  0.50204632  1
  O2-  O332  1  0.32585691  0.31903732  0.82424805  1
  O2-  O333  1  0.34058474  0.81596484  0.17885076  1
  O2-  O334  1  0.33520345  0.81634667  0.50055264  1
  O2-  O335  1  0.33520463  0.80908834  0.83227896  1
  O2-  O336  1  0.67401906  0.31165026  0.16908188  1
  O2-  O337  1  0.66872310  0.32279146  0.51079705  1
  O2-  O338  1  0.66800815  0.31943913  0.83653713  1
  O2-  O339  1  0.67074550  0.81982288  0.17523311  1
  O2-  O340  1  0.66822603  0.81987798  0.50495127  1
  O2-  O341  1  0.66291409  0.82477559  0.83694056  1
  O2-  O342  1  0.16624994  0.31158872  0.16869809  1
  O2-  O343  1  0.16360783  0.32244978  0.50480257  1
  O2-  O344  1  0.16331504  0.32112929  0.83764797  1
  O2-  O345  1  0.16316367  0.81552587  0.17172313  1
  O2-  O346  1  0.17438124  0.81214137  0.49666354  1
  O2-  O347  1  0.16746778  0.82279117  0.83196234  1
  O2-  O348  1  0.48995529  0.32570133  0.17197943  1
  O2-  O349  1  0.50818769  0.31606088  0.49072647  1
  O2-  O350  1  0.50153315  0.31757106  0.83083530  1
  O2-  O351  1  0.50324965  0.81025655  0.16687340  1
  O2-  O352  1  0.50635749  0.81936136  0.49231910  1
  O2-  O353  1  0.49913523  0.81296725  0.83345303  1
  O2-  O354  1  0.83385566  0.31127842  0.17149814  1
  O2-  O355  1  0.82774524  0.32279265  0.50896682  1
  O2-  O356  1  0.83568767  0.32264318  0.83086431  1
  O2-  O357  1  0.82856735  0.82274872  0.17270537  1
  O2-  O358  1  0.83825713  0.82212235  0.48913095  1
  O2-  O359  1  0.82585399  0.82292881  0.84164203  1
  O2-  O360  1  0.07632708  0.08533144  0.12962428  1
  O2-  O361  1  0.04971740  0.07854869  0.44162003  1
  O2-  O362  1  0.06785295  0.05975626  0.80463100  1
  O2-  O363  1  0.09943592  0.57902232  0.12057917  1
  O2-  O364  1  0.10328250  0.58673887  0.43578073  1
  O2-  O365  1  0.08370540  0.58185031  0.79583493  1
  O2-  O366  1  0.42288208  0.07956071  0.13522863  1
  O2-  O367  1  0.42736775  0.08273026  0.44425980  1
  O2-  O368  1  0.45272983  0.07728445  0.78714033  1
  O2-  O369  1  0.41306761  0.58270428  0.11825008  1
  O2-  O370  1  0.38976373  0.58336981  0.43411661  1
  O2-  O371  1  0.42906363  0.57796830  0.78262460  1
  O2-  O372  1  0.74817802  0.07300579  0.13816472  1
  O2-  O373  1  0.77093532  0.08759857  0.42140735  1
  O2-  O374  1  0.72773840  0.08740559  0.78704881  1
  O2-  O375  1  0.73647338  0.57432759  0.13115562  1
  O2-  O376  1  0.73487297  0.58099056  0.40952828  1
  O2-  O377  1  0.75011024  0.57592210  0.78612803  1
  O2-  O378  1  0.26578502  0.08690681  0.21952758  1
  O2-  O379  1  0.25232973  0.07449206  0.54753905  1
  O2-  O380  1  0.25894910  0.08585370  0.88469583  1
  O2-  O381  1  0.25250804  0.57366912  0.22993908  1
  O2-  O382  1  0.25054767  0.57984959  0.56089633  1
  O2-  O383  1  0.24891817  0.57876406  0.87364550  1
  O2-  O384  1  0.58352870  0.08067551  0.22372023  1
  O2-  O385  1  0.58210673  0.08008003  0.53725089  1
  O2-  O386  1  0.59426751  0.07678835  0.88031999  1
  O2-  O387  1  0.59505986  0.58088034  0.23389891  1
  O2-  O388  1  0.56621819  0.58315496  0.53859279  1
  O2-  O389  1  0.57640344  0.58602939  0.89113114  1
  O2-  O390  1  0.90131385  0.08256995  0.24985524  1
  O2-  O391  1  0.90948699  0.07208262  0.53119731  1
  O2-  O392  1  0.90855467  0.07961103  0.89666649  1
  O2-  O393  1  0.90628696  0.57905671  0.23170032  1
  O2-  O394  1  0.91527729  0.58896276  0.55870124  1
  O2-  O395  1  0.92163654  0.58122007  0.87009733  1
  O2-  O396  1  0.08134190  0.42005887  0.11546341  1
  O2-  O397  1  0.09161607  0.42146609  0.44016225  1
  O2-  O398  1  0.08490855  0.42162507  0.78484455  1
  O2-  O399  1  0.08295106  0.92934001  0.11709803  1
  O2-  O400  1  0.11144497  0.91696371  0.44538270  1
  O2-  O401  1  0.10599516  0.92382807  0.76926112  1
  O2-  O402  1  0.38867367  0.42370693  0.11601912  1
  O2-  O403  1  0.43867333  0.41691787  0.45669471  1
  O2-  O404  1  0.42276343  0.41817917  0.78275667  1
  O2-  O405  1  0.41475490  0.91212037  0.11169321  1
  O2-  O406  1  0.42146877  0.91294191  0.42430423  1
  O2-  O407  1  0.38735253  0.91792921  0.78056454  1
  O2-  O408  1  0.76189033  0.41970857  0.12132699  1
  O2-  O409  1  0.73293000  0.42557967  0.45624762  1
  O2-  O410  1  0.74334176  0.41417339  0.77880636  1
  O2-  O411  1  0.74493649  0.92042437  0.12113843  1
  O2-  O412  1  0.75626387  0.91513998  0.44584924  1
  O2-  O413  1  0.75539282  0.91565494  0.73316905  1
  O2-  O414  1  0.24403869  0.41641182  0.21611790  1
  O2-  O415  1  0.25546469  0.42459998  0.54487978  1
  O2-  O416  1  0.24738133  0.42059639  0.88487331  1
  O2-  O417  1  0.21822565  0.92038520  0.22619318  1
  O2-  O418  1  0.25661285  0.91562593  0.57397176  1
  O2-  O419  1  0.24487397  0.92337927  0.87555317  1
  O2-  O420  1  0.60155391  0.41621724  0.20694210  1
  O2-  O421  1  0.58762500  0.41993968  0.54887714  1
  O2-  O422  1  0.58486321  0.41458380  0.89388876  1
  O2-  O423  1  0.57611198  0.91990167  0.23719675  1
  O2-  O424  1  0.58622224  0.91409264  0.55395191  1
  O2-  O425  1  0.55620509  0.91482332  0.88102883  1
  O2-  O426  1  0.91702600  0.42253373  0.21081951  1
  O2-  O427  1  0.89161240  0.42472091  0.53899768  1
  O2-  O428  1  0.90882592  0.41796489  0.89190536  1
  O2-  O429  1  0.93395499  0.91634987  0.22690167  1
  O2-  O430  1  0.90465297  0.92313809  0.54840690  1
  O2-  O431  1  0.92322420  0.92124190  0.88634928  1
  O2-  O432  1  0.00912698  -0.00675413  -0.01266578  1
  O2-  O433  1  0.01386666  -0.01217034  0.33584485  1
  O2-  O434  1  0.01012122  0.00765883  0.66805608  1
  O2-  O435  1  0.00600953  0.48452712  -0.00829758  1
  O2-  O436  1  0.02468291  0.49662688  0.29408136  1
  O2-  O437  1  -0.00257700  0.49605703  0.66455912  1
  O2-  O438  1  0.35697008  -0.00357315  -0.04206158  1
  O2-  O439  1  0.34746726  -0.00696801  0.29419512  1
  O2-  O440  1  0.33998486  0.00149958  0.67001435  1
  O2-  O441  1  0.33193404  0.49789309  -0.00512084  1
  O2-  O442  1  0.33471323  0.48027486  0.33471865  1
  O2-  O443  1  0.33561650  0.50142524  0.67099837  1
  O2-  O444  1  0.66700961  0.01825147  0.01521232  1
  O2-  O445  1  0.67072505  -0.00079001  0.32285389  1
  O2-  O446  1  0.66014595  0.01147273  0.68010321  1
  O2-  O447  1  0.68333449  0.50073538  -0.02492684  1
  O2-  O448  1  0.65277953  0.48609125  0.34492573  1
  O2-  O449  1  0.67484025  0.48199956  0.65217939  1
  O2-  O450  1  0.17035361  0.00440820  0.01175617  1
  O2-  O451  1  0.18343591  0.00470674  0.34528174  1
  O2-  O452  1  0.19048101  0.00500282  0.69284163  1
  O2-  O453  1  0.17551581  0.49131370  -0.00172861  1
  O2-  O454  1  0.18434775  0.51337010  0.35564570  1
  O2-  O455  1  0.16033820  0.49459745  0.65387555  1
  O2-  O456  1  0.50317621  0.01860936  -0.00568964  1
  O2-  O457  1  0.50609716  0.00928875  0.32809996  1
  O2-  O458  1  0.49895790  0.01929716  0.65093383  1
  O2-  O459  1  0.49125979  0.50858218  -0.01146974  1
  O2-  O460  1  0.49495470  0.48080479  0.31078019  1
  O2-  O461  1  0.50789335  0.49193893  0.67739528  1
  O2-  O462  1  0.82240926  0.01229814  -0.00857576  1
  O2-  O463  1  0.85229011  -0.00623598  0.34367859  1
  O2-  O464  1  0.85333078  0.02337366  0.70102263  1
  O2-  O465  1  0.84801945  0.50413720  0.02507171  1
  O2-  O466  1  0.83161843  0.47477004  0.33523398  1
  O2-  O467  1  0.83683397  0.49850191  0.67251788  1
  O2-  O468  1  0.92252268  0.75006612  0.94164044  1
  O2-  O469  1  0.73544414  0.25229198  0.39606253  1
  O2-  O470  1  0.74665229  0.75229957  0.39269206  1
  O2-  O471  1  0.74774773  0.75599788  0.06567109  1
  O2-  O472  1  0.26317656  0.25483261  0.94285577  1
  O2-  O473  1  0.40825894  0.25163755  0.39224896  1
  O2-  O474  1  0.91440414  0.24862901  0.61568631  1
  O2-  O475  1  0.25908201  0.25257266  0.28232625  1
  O2-  O476  1  0.41095011  0.74870772  0.05980438  1
  O2-  O477  1  0.07718494  0.25791544  0.72523028  1
  O2-  O478  1  0.75727057  0.24888319  0.72053692  1
  O2-  O479  1  0.57620564  0.25018654  0.95061563  1
  O2-  O480  1  0.25415149  0.24345205  0.60679951  1
  O2-  O481  1  0.58552115  0.75334333  0.94404912  1
  O2-  O482  1  0.41836380  0.24797220  0.05541103  1
  O2-  O483  1  0.74395283  0.75928699  0.74046410  1
  O2-  O484  1  0.08971505  0.74578103  0.73091075  1
  O2-  O485  1  0.57625058  0.25209727  0.27441668  1
  O2-  O486  1  0.08591003  0.25632309  0.40080223  1
  O2-  O487  1  0.58324734  0.74780059  0.60304481  1
  O2-  O488  1  0.41747669  0.74898812  0.39174615  1
  O2-  O489  1  0.06577887  0.74050402  0.04852166  1
  O2-  O490  1  0.07285694  0.75180402  0.39139269  1
  O2-  O491  1  0.92995284  0.75056650  0.27241330  1
  O2-  O492  1  0.90450913  0.25238747  0.93071901  1
