# generated using pymatgen
data_Ca108Mn108O277
_symmetry_space_group_name_H-M   'P 1'
_cell_length_a   16.00953676
_cell_length_b   22.28141605
_cell_length_c   16.37507663
_cell_angle_alpha   90.00085494
_cell_angle_beta   90.00025217
_cell_angle_gamma   90.00068730
_symmetry_Int_Tables_number   1
_chemical_formula_structural   Ca108Mn108O277
_chemical_formula_sum   'Ca108 Mn108 O277'
_cell_volume   5841.23790173
_cell_formula_units_Z   1
loop_
 _symmetry_equiv_pos_site_id
 _symmetry_equiv_pos_as_xyz
  1  'x, y, z'
loop_
 _atom_type_symbol
 _atom_type_oxidation_number
  Ca2+  2.0
  Mn3.34+  3.34
  O2-  -2.0
loop_
 _atom_site_type_symbol
 _atom_site_label
 _atom_site_symmetry_multiplicity
 _atom_site_fract_x
 _atom_site_fract_y
 _atom_site_fract_z
 _atom_site_occupancy
  Ca2+  Ca0  1  0.08117666  0.25557760  0.22981615  1
  Ca2+  Ca1  1  0.08422025  0.26067363  0.58043631  1
  Ca2+  Ca2  1  0.07671320  0.24962411  0.93842595  1
  Ca2+  Ca3  1  0.09217115  0.75516543  0.25521024  1
  Ca2+  Ca4  1  0.09814928  0.75226156  0.59328642  1
  Ca2+  Ca5  1  0.08307480  0.74720178  0.90234062  1
  Ca2+  Ca6  1  0.42131163  0.24710424  0.22650442  1
  Ca2+  Ca7  1  0.40215412  0.25464462  0.60012400  1
  Ca2+  Ca8  1  0.41026654  0.24550811  0.92099631  1
  Ca2+  Ca9  1  0.43151213  0.73343526  0.25685571  1
  Ca2+  Ca10  1  0.40961248  0.74598219  0.56805251  1
  Ca2+  Ca11  1  0.41707343  0.74694372  0.92621203  1
  Ca2+  Ca12  1  0.74728425  0.25486609  0.24816905  1
  Ca2+  Ca13  1  0.76310306  0.25996599  0.57944679  1
  Ca2+  Ca14  1  0.76160872  0.25524337  0.92153993  1
  Ca2+  Ca15  1  0.72614543  0.74496817  0.24872274  1
  Ca2+  Ca16  1  0.74148463  0.75113790  0.59753959  1
  Ca2+  Ca17  1  0.74764860  0.72928731  0.91184014  1
  Ca2+  Ca18  1  0.24922659  0.24118246  0.08677906  1
  Ca2+  Ca19  1  0.24776617  0.26316340  0.41095482  1
  Ca2+  Ca20  1  0.26836196  0.24693391  0.74745965  1
  Ca2+  Ca21  1  0.25847636  0.74758436  0.06934366  1
  Ca2+  Ca22  1  0.26267659  0.74632313  0.43000441  1
  Ca2+  Ca23  1  0.23510730  0.74817416  0.75040170  1
  Ca2+  Ca24  1  0.56740443  0.24644779  0.10422389  1
  Ca2+  Ca25  1  0.59160232  0.25482543  0.39386460  1
  Ca2+  Ca26  1  0.57188033  0.26327056  0.75513765  1
  Ca2+  Ca27  1  0.58493766  0.74155169  0.08112074  1
  Ca2+  Ca28  1  0.57509283  0.74760061  0.41248780  1
  Ca2+  Ca29  1  0.60392717  0.74576311  0.76121993  1
  Ca2+  Ca30  1  0.93423344  0.23837887  0.07842578  1
  Ca2+  Ca31  1  0.91230992  0.26626574  0.41229162  1
  Ca2+  Ca32  1  0.91342044  0.26640178  0.74755306  1
  Ca2+  Ca33  1  0.90637343  0.74585339  0.05975976  1
  Ca2+  Ca34  1  0.91308426  0.76387347  0.41955907  1
  Ca2+  Ca35  1  0.91133340  0.74314476  0.77198514  1
  Ca2+  Ca36  1  0.41139589  0.09931482  0.22021901  1
  Ca2+  Ca37  1  0.24947579  0.08536654  0.40882650  1
  Ca2+  Ca38  1  0.60356253  0.59898109  0.75745485  1
  Ca2+  Ca39  1  0.91114180  0.58057837  0.40684248  1
  Ca2+  Ca40  1  0.28929836  0.09713273  0.76511085  1
  Ca2+  Ca41  1  0.91250795  0.08591243  0.41817369  1
  Ca2+  Ca42  1  0.77952494  0.08914952  0.93947539  1
  Ca2+  Ca43  1  0.09101146  0.10271212  0.21768645  1
  Ca2+  Ca44  1  0.56086271  0.60603786  0.41446712  1
  Ca2+  Ca45  1  0.42236205  0.59467281  0.93595628  1
  Ca2+  Ca46  1  0.06433963  0.10166275  0.94759150  1
  Ca2+  Ca47  1  0.42216993  0.09925157  0.22072056  1
  Ca2+  Ca48  1  0.58593791  0.59759573  0.09986323  1
  Ca2+  Ca49  1  0.43372348  0.59448808  0.93660990  1
  Ca2+  Ca50  1  0.59646187  0.08566440  0.40300616  1
  Ca2+  Ca51  1  0.40540233  0.08364343  0.61041411  1
  Ca2+  Ca52  1  0.23943820  0.60072853  0.74415100  1
  Ca2+  Ca53  1  0.74054500  0.09918866  0.23281394  1
  Ca2+  Ca54  1  0.91240635  0.08845698  0.75268757  1
  Ca2+  Ca55  1  0.08420077  0.58486999  0.25126043  1
  Ca2+  Ca56  1  0.26466272  0.59608563  0.07802894  1
  Ca2+  Ca57  1  0.76667579  0.08031869  0.58670373  1
  Ca2+  Ca58  1  0.12527336  0.59111359  0.58539354  1
  Ca2+  Ca59  1  0.07522366  0.10150525  0.94914532  1
  Ca2+  Ca60  1  0.54596823  0.08459623  0.75752477  1
  Ca2+  Ca61  1  0.41442000  0.08623686  0.61581844  1
  Ca2+  Ca62  1  0.40758185  0.60723224  0.56354947  1
  Ca2+  Ca63  1  0.56761579  0.10085186  0.09398017  1
  Ca2+  Ca64  1  0.06439129  0.60326106  0.91089402  1
  Ca2+  Ca65  1  0.07701884  0.08519929  0.58534289  1
  Ca2+  Ca66  1  0.58505044  0.08633347  0.40219413  1
  Ca2+  Ca67  1  0.24848988  0.59799326  0.74804306  1
  Ca2+  Ca68  1  0.26972622  0.60288751  0.43364904  1
  Ca2+  Ca69  1  0.90653703  0.09222878  0.42429104  1
  Ca2+  Ca70  1  0.73131916  0.10180328  0.23642292  1
  Ca2+  Ca71  1  0.41802213  0.60801302  0.56270710  1
  Ca2+  Ca72  1  0.74881393  0.40427533  0.58937540  1
  Ca2+  Ca73  1  0.57943404  0.41042357  0.41610427  1
  Ca2+  Ca74  1  0.07191712  0.90541754  0.57831057  1
  Ca2+  Ca75  1  0.74462780  0.90932850  0.91767970  1
  Ca2+  Ca76  1  0.42878712  0.40731493  0.22810295  1
  Ca2+  Ca77  1  0.41677158  0.40717449  0.22845793  1
  Ca2+  Ca78  1  0.08745133  0.90692096  0.25148813  1
  Ca2+  Ca79  1  0.91010427  0.90566941  0.74126469  1
  Ca2+  Ca80  1  0.59222527  0.41004022  0.41529712  1
  Ca2+  Ca81  1  0.41159965  0.90715791  0.57949495  1
  Ca2+  Ca82  1  0.10020652  0.90626571  0.25030745  1
  Ca2+  Ca83  1  0.58256312  0.90550326  0.74527067  1
  Ca2+  Ca84  1  0.25658471  0.40355454  0.74599326  1
  Ca2+  Ca85  1  0.90248466  0.91074673  0.07500614  1
  Ca2+  Ca86  1  0.07042452  0.40259433  0.92830922  1
  Ca2+  Ca87  1  0.91516553  0.91100277  0.07534023  1
  Ca2+  Ca88  1  0.75072267  0.41636784  0.92031102  1
  Ca2+  Ca89  1  0.25261046  0.90688437  0.75225592  1
  Ca2+  Ca90  1  0.24390360  0.40340180  0.74623675  1
  Ca2+  Ca91  1  0.75619794  0.90920534  0.91780392  1
  Ca2+  Ca92  1  0.41323190  0.90638752  0.24412513  1
  Ca2+  Ca93  1  0.26091140  0.91078358  0.07707454  1
  Ca2+  Ca94  1  0.43055201  0.40696399  0.93726129  1
  Ca2+  Ca95  1  0.91342846  0.40521807  0.08548597  1
  Ca2+  Ca96  1  0.26529935  0.90654546  0.75192970  1
  Ca2+  Ca97  1  0.75011881  0.40975618  0.23529945  1
  Ca2+  Ca98  1  0.41215389  0.40682192  0.58251341  1
  Ca2+  Ca99  1  0.58110869  0.91137081  0.08210281  1
  Ca2+  Ca100  1  0.41485368  0.91578231  0.91824063  1
  Ca2+  Ca101  1  0.42585575  0.90586418  0.24465176  1
  Ca2+  Ca102  1  0.42428271  0.90831352  0.57771746  1
  Ca2+  Ca103  1  0.91107591  0.90678844  0.43300974  1
  Ca2+  Ca104  1  0.42610661  0.91610640  0.91798371  1
  Ca2+  Ca105  1  0.09067603  0.40355129  0.57677566  1
  Ca2+  Ca106  1  0.73982483  0.90206789  0.24883707  1
  Ca2+  Ca107  1  0.24675727  0.40772170  0.42557906  1
  Mn3.34+  Mn108  1  0.08545732  0.33157952  0.08598868  1
  Mn3.34+  Mn109  1  0.07813650  0.33884567  0.40949585  1
  Mn3.34+  Mn110  1  0.07748335  0.33296824  0.75468353  1
  Mn3.34+  Mn111  1  0.08368851  0.83208843  0.08092073  1
  Mn3.34+  Mn112  1  0.08464503  0.83506792  0.42018604  1
  Mn3.34+  Mn113  1  0.07995362  0.83210852  0.75029592  1
  Mn3.34+  Mn114  1  0.41494526  0.33188402  0.07855853  1
  Mn3.34+  Mn115  1  0.41595413  0.33573453  0.41718506  1
  Mn3.34+  Mn116  1  0.42144987  0.32767488  0.75561513  1
  Mn3.34+  Mn117  1  0.41844822  0.83392154  0.08388334  1
  Mn3.34+  Mn118  1  0.41886227  0.83150344  0.41590212  1
  Mn3.34+  Mn119  1  0.42006850  0.82998786  0.75108552  1
  Mn3.34+  Mn120  1  0.74835636  0.33833849  0.08217884  1
  Mn3.34+  Mn121  1  0.75566723  0.33599958  0.41528085  1
  Mn3.34+  Mn122  1  0.74791545  0.33769544  0.75425419  1
  Mn3.34+  Mn123  1  0.74664719  0.83318956  0.08545192  1
  Mn3.34+  Mn124  1  0.74452477  0.83410799  0.42089239  1
  Mn3.34+  Mn125  1  0.75062042  0.83201285  0.74819294  1
  Mn3.34+  Mn126  1  0.24602614  0.33179033  0.24635754  1
  Mn3.34+  Mn127  1  0.24906170  0.33594264  0.57973427  1
  Mn3.34+  Mn128  1  0.24863432  0.32996578  0.91981824  1
  Mn3.34+  Mn129  1  0.25312420  0.82888478  0.24993481  1
  Mn3.34+  Mn130  1  0.24827252  0.82910881  0.57960623  1
  Mn3.34+  Mn131  1  0.24676696  0.82787442  0.91631250  1
  Mn3.34+  Mn132  1  0.58659792  0.33174487  0.24402598  1
  Mn3.34+  Mn133  1  0.58306423  0.33525389  0.58420714  1
  Mn3.34+  Mn134  1  0.58722653  0.33693149  0.92078222  1
  Mn3.34+  Mn135  1  0.58380033  0.82699197  0.25145674  1
  Mn3.34+  Mn136  1  0.58716457  0.82964071  0.57945117  1
  Mn3.34+  Mn137  1  0.58412793  0.82713796  0.91496095  1
  Mn3.34+  Mn138  1  0.91771482  0.33409715  0.24678885  1
  Mn3.34+  Mn139  1  0.91848264  0.33228316  0.58245317  1
  Mn3.34+  Mn140  1  0.91382100  0.33825247  0.91620643  1
  Mn3.34+  Mn141  1  0.91302302  0.83056638  0.25013790  1
  Mn3.34+  Mn142  1  0.91247995  0.83864341  0.58347341  1
  Mn3.34+  Mn143  1  0.91958717  0.82956572  0.91245525  1
  Mn3.34+  Mn144  1  0.24930453  0.16734698  0.58386418  1
  Mn3.34+  Mn145  1  0.75837166  0.16988288  0.75567288  1
  Mn3.34+  Mn146  1  0.42180721  0.17001226  0.41684795  1
  Mn3.34+  Mn147  1  0.74558670  0.16303217  0.75648890  1
  Mn3.34+  Mn148  1  0.58398306  0.16376745  0.91964828  1
  Mn3.34+  Mn149  1  0.59097693  0.17921075  0.58572636  1
  Mn3.34+  Mn150  1  0.75491937  0.16286668  0.08023723  1
  Mn3.34+  Mn151  1  0.42854612  0.67753558  0.75278045  1
  Mn3.34+  Mn152  1  0.74888846  0.66706465  0.42277135  1
  Mn3.34+  Mn153  1  0.90104668  0.65988562  0.24185590  1
  Mn3.34+  Mn154  1  0.09062476  0.16431004  0.41430942  1
  Mn3.34+  Mn155  1  0.91993927  0.66855999  0.58980313  1
  Mn3.34+  Mn156  1  0.09077406  0.16541505  0.75292613  1
  Mn3.34+  Mn157  1  0.58384855  0.17225645  0.58497051  1
  Mn3.34+  Mn158  1  0.91232255  0.66412974  0.24269202  1
  Mn3.34+  Mn159  1  0.74434240  0.65318033  0.07690179  1
  Mn3.34+  Mn160  1  0.25942316  0.16014492  0.92389804  1
  Mn3.34+  Mn161  1  0.08094497  0.17014514  0.41349265  1
  Mn3.34+  Mn162  1  0.07838634  0.66240911  0.41641553  1
  Mn3.34+  Mn163  1  0.75021204  0.66283955  0.75679343  1
  Mn3.34+  Mn164  1  0.41958481  0.66011272  0.09138727  1
  Mn3.34+  Mn165  1  0.07868466  0.66315729  0.08158285  1
  Mn3.34+  Mn166  1  0.90763639  0.66150712  0.58999062  1
  Mn3.34+  Mn167  1  0.75091460  0.16902137  0.41590291  1
  Mn3.34+  Mn168  1  0.41477908  0.67731077  0.74872151  1
  Mn3.34+  Mn169  1  0.26104704  0.66843985  0.25184090  1
  Mn3.34+  Mn170  1  0.24760630  0.16929363  0.23894801  1
  Mn3.34+  Mn171  1  0.57542916  0.17357413  0.92012647  1
  Mn3.34+  Mn172  1  0.07966310  0.66854634  0.75403023  1
  Mn3.34+  Mn173  1  0.91602368  0.16490766  0.58148914  1
  Mn3.34+  Mn174  1  0.73851102  0.66252795  0.42162906  1
  Mn3.34+  Mn175  1  0.40719632  0.16416434  0.41331385  1
  Mn3.34+  Mn176  1  0.08886455  0.66738661  0.41629201  1
  Mn3.34+  Mn177  1  0.08820933  0.66870782  0.08163988  1
  Mn3.34+  Mn178  1  0.91874368  0.17097698  0.24235004  1
  Mn3.34+  Mn179  1  0.07721859  0.17210095  0.75225728  1
  Mn3.34+  Mn180  1  0.75281780  0.49876835  0.41102864  1
  Mn3.34+  Mn181  1  0.25028082  0.00240178  0.24666879  1
  Mn3.34+  Mn182  1  0.92021832  0.00537893  0.24600839  1
  Mn3.34+  Mn183  1  0.75081876  0.50105018  0.74687467  1
  Mn3.34+  Mn184  1  0.41350626  -0.00114897  0.41402208  1
  Mn3.34+  Mn185  1  0.07879217  0.49621762  0.08389855  1
  Mn3.34+  Mn186  1  0.58454345  0.50544594  0.25579283  1
  Mn3.34+  Mn187  1  0.08444519  0.00088737  0.75373404  1
  Mn3.34+  Mn188  1  0.41581451  0.50008963  0.41432256  1
  Mn3.34+  Mn189  1  0.07771428  0.50166407  0.75399585  1
  Mn3.34+  Mn190  1  0.41815068  0.50048863  0.75336844  1
  Mn3.34+  Mn191  1  0.24347032  0.49820224  0.92128237  1
  Mn3.34+  Mn192  1  0.92057408  -0.00184423  0.92137267  1
  Mn3.34+  Mn193  1  0.91771971  0.49526839  0.57805777  1
  Mn3.34+  Mn194  1  0.25301870  0.50240708  0.24542603  1
  Mn3.34+  Mn195  1  0.25542863  0.00279649  0.93023096  1
  Mn3.34+  Mn196  1  0.24935515  -0.00223834  0.57881385  1
  Mn3.34+  Mn197  1  0.07796958  0.49705296  0.41252793  1
  Mn3.34+  Mn198  1  0.59003397  0.50659709  0.58921280  1
  Mn3.34+  Mn199  1  0.90988037  0.00104651  0.24641051  1
  Mn3.34+  Mn200  1  0.75209701  0.00000718  0.73769581  1
  Mn3.34+  Mn201  1  0.42904033  0.49556715  0.75382441  1
  Mn3.34+  Mn202  1  0.91001118  0.50498052  0.93582221  1
  Mn3.34+  Mn203  1  0.06689226  0.49790110  0.75431710  1
  Mn3.34+  Mn204  1  0.08752629  0.00309782  0.08169336  1
  Mn3.34+  Mn205  1  0.09305445  -0.00275235  0.41729946  1
  Mn3.34+  Mn206  1  0.58320461  0.00155415  0.93052314  1
  Mn3.34+  Mn207  1  0.58614771  0.50098955  0.93607259  1
  Mn3.34+  Mn208  1  0.91824230  0.49524775  0.25647862  1
  Mn3.34+  Mn209  1  0.58406515  -0.00047906  0.24870455  1
  Mn3.34+  Mn210  1  0.90496016  0.50165520  0.57941639  1
  Mn3.34+  Mn211  1  0.25438917  0.50306188  0.92157680  1
  Mn3.34+  Mn212  1  0.74477245  -0.00511766  0.42286987  1
  Mn3.34+  Mn213  1  0.58691789  -0.00273011  0.58299044  1
  Mn3.34+  Mn214  1  0.24274373  0.49730016  0.24596962  1
  Mn3.34+  Mn215  1  0.07376041  -0.00396073  0.75267383  1
  O2-  O216  1  0.00116865  0.17466396  -0.01120093  1
  O2-  O217  1  -0.00742282  0.15397881  0.33691577  1
  O2-  O218  1  0.00075645  0.15482859  0.66560105  1
  O2-  O219  1  0.00254046  0.67316863  -0.00043134  1
  O2-  O220  1  -0.00187518  0.65656350  0.33110196  1
  O2-  O221  1  0.00889669  0.66108374  0.66151205  1
  O2-  O222  1  0.32797339  0.18011913  -0.00342724  1
  O2-  O223  1  0.32927588  0.15564041  0.32888156  1
  O2-  O224  1  0.33036372  0.16195509  0.66080076  1
  O2-  O225  1  0.34300236  0.66846243  0.00402696  1
  O2-  O226  1  0.33020759  0.67368143  0.33504781  1
  O2-  O227  1  0.33471011  0.66572812  0.67289044  1
  O2-  O228  1  0.66635891  0.17004197  0.00012158  1
  O2-  O229  1  0.66857106  0.15458308  0.33679673  1
  O2-  O230  1  0.67042554  0.16125235  0.66889575  1
  O2-  O231  1  0.66660062  0.67030136  0.00948012  1
  O2-  O232  1  0.66443119  0.66550356  0.33914363  1
  O2-  O233  1  0.66673474  0.67511239  0.67697644  1
  O2-  O234  1  0.16762522  0.17295878  -0.01541211  1
  O2-  O235  1  0.16989387  0.15688271  0.33068317  1
  O2-  O236  1  0.16358339  0.15692889  0.66395424  1
  O2-  O237  1  0.16786127  0.66439836  0.00149888  1
  O2-  O238  1  0.16475139  0.65765873  0.32667524  1
  O2-  O239  1  0.16798962  0.66011203  0.67250228  1
  O2-  O240  1  0.50231582  0.17357782  0.00243762  1
  O2-  O241  1  0.50364130  0.15225786  0.33728493  1
  O2-  O242  1  0.49816227  0.16254941  0.66171560  1
  O2-  O243  1  0.49485585  0.66698424  0.00471129  1
  O2-  O244  1  0.49859007  0.67787442  0.34624529  1
  O2-  O245  1  0.49864622  0.67371684  0.66236379  1
  O2-  O246  1  0.82675462  0.18096123  0.00093366  1
  O2-  O247  1  0.83155986  0.15200078  0.33342025  1
  O2-  O248  1  0.83202337  0.15546798  0.66281706  1
  O2-  O249  1  0.81969395  0.68006562  0.01159307  1
  O2-  O250  1  0.83482458  0.65938791  0.34230776  1
  O2-  O251  1  0.83084364  0.66870989  0.67065406  1
  O2-  O252  1  -0.00426262  0.33201990  -0.00125817  1
  O2-  O253  1  -0.00168123  0.32889361  0.33127972  1
  O2-  O254  1  0.00432326  0.33341944  0.66104159  1
  O2-  O255  1  -0.00966704  0.83589862  0.00898716  1
  O2-  O256  1  0.00375481  0.84213432  0.32967294  1
  O2-  O257  1  0.00408481  0.83817155  0.66345908  1
  O2-  O258  1  0.33740641  0.32723484  -0.00701637  1
  O2-  O259  1  0.33640527  0.34364997  0.33405849  1
  O2-  O260  1  0.33146553  0.34044261  0.66858308  1
  O2-  O261  1  0.33792895  0.83687588  -0.00371834  1
  O2-  O262  1  0.33975955  0.83318990  0.32790410  1
  O2-  O263  1  0.33520893  0.83851553  0.66919907  1
  O2-  O264  1  0.67029168  0.31629128  0.00034127  1
  O2-  O265  1  0.66334166  0.34301228  0.33559620  1
  O2-  O266  1  0.66762938  0.32569049  0.66095489  1
  O2-  O267  1  0.66750239  0.84301973  -0.00214327  1
  O2-  O268  1  0.67055897  0.83515339  0.32776191  1
  O2-  O269  1  0.66025086  0.82759020  0.67201081  1
  O2-  O270  1  0.16067811  0.32885320  -0.00618062  1
  O2-  O271  1  0.17339412  0.33591898  0.34006463  1
  O2-  O272  1  0.16871631  0.34240694  0.66705626  1
  O2-  O273  1  0.17185601  0.83003103  0.00556292  1
  O2-  O274  1  0.16236246  0.83929957  0.32778430  1
  O2-  O275  1  0.17065603  0.84225847  0.66949517  1
  O2-  O276  1  0.49931582  0.32759099  -0.00333403  1
  O2-  O277  1  0.50213099  0.34476347  0.33504989  1
  O2-  O278  1  0.49517095  0.32874773  0.66060533  1
  O2-  O279  1  0.49774315  0.83815809  -0.00311795  1
  O2-  O280  1  0.49424768  0.83392843  0.32695922  1
  O2-  O281  1  0.49636543  0.82631775  0.66294002  1
  O2-  O282  1  0.83263349  0.32637563  0.00067075  1
  O2-  O283  1  0.82822027  0.33503053  0.32642671  1
  O2-  O284  1  0.83068569  0.33382941  0.66182162  1
  O2-  O285  1  0.83089172  0.83957610  -0.00012981  1
  O2-  O286  1  0.83519464  0.83837092  0.33372693  1
  O2-  O287  1  0.83725068  0.83529497  0.67244504  1
  O2-  O288  1  0.00223943  0.17525993  0.17457949  1
  O2-  O289  1  -0.00029089  0.16900561  0.49858401  1
  O2-  O290  1  -0.00073640  0.17316825  0.83232672  1
  O2-  O291  1  0.00576315  0.67775459  0.16886329  1
  O2-  O292  1  -0.00606807  0.67081906  0.49736876  1
  O2-  O293  1  0.00622881  0.67597782  0.83440731  1
  O2-  O294  1  0.33353881  0.17375501  0.17192972  1
  O2-  O295  1  0.33231020  0.17169351  0.50030468  1
  O2-  O296  1  0.32114257  0.18274468  0.83863601  1
  O2-  O297  1  0.33068124  0.67921391  0.16033826  1
  O2-  O298  1  0.33794683  0.67687543  0.49898297  1
  O2-  O299  1  0.33510819  0.67300460  0.83005381  1
  O2-  O300  1  0.67559106  0.17645661  0.16119612  1
  O2-  O301  1  0.66666694  0.17508061  0.49687307  1
  O2-  O302  1  0.66497397  0.17915863  0.84065064  1
  O2-  O303  1  0.67683114  0.68226438  0.15237841  1
  O2-  O304  1  0.66135017  0.67745884  0.50118055  1
  O2-  O305  1  0.66785218  0.67128129  0.82913442  1
  O2-  O306  1  0.16640115  0.17722396  0.17021862  1
  O2-  O307  1  0.16729644  0.16959874  0.50184938  1
  O2-  O308  1  0.16799961  0.17432946  0.83519372  1
  O2-  O309  1  0.16544114  0.67710019  0.16489126  1
  O2-  O310  1  0.16529896  0.67216373  0.50041413  1
  O2-  O311  1  0.16745848  0.66801817  0.82405573  1
  O2-  O312  1  0.49728836  0.16787459  0.17192309  1
  O2-  O313  1  0.50283116  0.17368895  0.50097369  1
  O2-  O314  1  0.50649983  0.17885890  0.83321862  1
  O2-  O315  1  0.49836210  0.68240798  0.15670660  1
  O2-  O316  1  0.49367932  0.68009507  0.49733761  1
  O2-  O317  1  0.49905284  0.67418134  0.83511178  1
  O2-  O318  1  0.82707071  0.17563399  0.17081449  1
  O2-  O319  1  0.83579113  0.16899809  0.49341124  1
  O2-  O320  1  0.83594939  0.17141807  0.83693753  1
  O2-  O321  1  0.82833620  0.68258379  0.16001293  1
  O2-  O322  1  0.83579263  0.67062839  0.49536890  1
  O2-  O323  1  0.83199675  0.67441217  0.83019635  1
  O2-  O324  1  -0.00567722  0.32700064  0.16227363  1
  O2-  O325  1  0.00409603  0.32663201  0.50258599  1
  O2-  O326  1  0.00082850  0.31933090  0.84086258  1
  O2-  O327  1  0.00316076  0.82948468  0.16943995  1
  O2-  O328  1  -0.00080741  0.82721554  0.49791117  1
  O2-  O329  1  -0.00335552  0.82760876  0.82765539  1
  O2-  O330  1  0.34104385  0.32895439  0.17430201  1
  O2-  O331  1  0.33444357  0.32856692  0.50084909  1
  O2-  O332  1  0.32806627  0.32688524  0.82901936  1
  O2-  O333  1  0.33302006  0.82570787  0.16355547  1
  O2-  O334  1  0.33864690  0.82271361  0.50222202  1
  O2-  O335  1  0.33368183  0.82680664  0.83133587  1
  O2-  O336  1  0.67213727  0.32403897  0.16824597  1
  O2-  O337  1  0.66345437  0.32499299  0.49828426  1
  O2-  O338  1  0.66590726  0.31912322  0.83868523  1
  O2-  O339  1  0.66440450  0.82640839  0.16549010  1
  O2-  O340  1  0.66589134  0.81294456  0.50100500  1
  O2-  O341  1  0.66796176  0.83701191  0.83525229  1
  O2-  O342  1  0.16885912  0.32239747  0.16526467  1
  O2-  O343  1  0.16718898  0.32794819  0.50127578  1
  O2-  O344  1  0.17277190  0.32703014  0.82822325  1
  O2-  O345  1  0.16217602  0.82815370  0.16894799  1
  O2-  O346  1  0.16182996  0.82737109  0.50442191  1
  O2-  O347  1  0.17416382  0.83122202  0.82486184  1
  O2-  O348  1  0.49609003  0.32979109  0.17121037  1
  O2-  O349  1  0.50380705  0.32677819  0.49664141  1
  O2-  O350  1  0.49766960  0.32173264  0.84097776  1
  O2-  O351  1  0.49797819  0.82574598  0.16705136  1
  O2-  O352  1  0.49638209  0.81659675  0.50295754  1
  O2-  O353  1  0.49832984  0.82909806  0.83464024  1
  O2-  O354  1  0.82986669  0.32179880  0.16332278  1
  O2-  O355  1  0.83139614  0.32775376  0.50223790  1
  O2-  O356  1  0.83298776  0.32074713  0.83734736  1
  O2-  O357  1  0.83727858  0.82359211  0.15951969  1
  O2-  O358  1  0.83548434  0.82818619  0.49652131  1
  O2-  O359  1  0.82873111  0.83713966  0.83703595  1
  O2-  O360  1  0.08507284  0.08214192  0.08567126  1
  O2-  O361  1  0.07876465  0.08004012  0.44355001  1
  O2-  O362  1  0.07840475  0.08211307  0.77273996  1
  O2-  O363  1  0.08771186  0.57819993  0.11217172  1
  O2-  O364  1  0.08186464  0.57861797  0.44455890  1
  O2-  O365  1  0.08597819  0.58374563  0.76955959  1
  O2-  O366  1  0.43859413  0.06592479  0.10610410  1
  O2-  O367  1  0.41570497  0.08081406  0.44827484  1
  O2-  O368  1  0.41663003  0.07820744  0.74524868  1
  O2-  O369  1  0.41777375  0.58251947  0.08756403  1
  O2-  O370  1  0.41646047  0.57833340  0.43410681  1
  O2-  O371  1  0.41906493  0.58374159  0.77067716  1
  O2-  O372  1  0.74407270  0.08056398  0.09982329  1
  O2-  O373  1  0.74743087  0.07854875  0.44647523  1
  O2-  O374  1  0.75325059  0.07965840  0.77730473  1
  O2-  O375  1  0.74099437  0.58051045  0.09205424  1
  O2-  O376  1  0.75523040  0.58009359  0.43684239  1
  O2-  O377  1  0.74134735  0.57912000  0.76819006  1
  O2-  O378  1  0.25550267  0.08374149  0.23531805  1
  O2-  O379  1  0.25494598  0.08029278  0.55684855  1
  O2-  O380  1  0.23822376  0.07907459  0.89430807  1
  O2-  O381  1  0.24384634  0.58432125  0.22173619  1
  O2-  O382  1  0.27229530  0.57772308  0.56618265  1
  O2-  O383  1  0.25567285  0.58228309  0.88617351  1
  O2-  O384  1  0.59487028  0.08044281  0.23248260  1
  O2-  O385  1  0.58730319  0.07971014  0.55046096  1
  O2-  O386  1  0.59012153  0.07947685  0.89467710  1
  O2-  O387  1  0.57995225  0.57958510  0.23166771  1
  O2-  O388  1  0.55502803  0.57755681  0.55469707  1
  O2-  O389  1  0.56184113  0.56933327  0.88568329  1
  O2-  O390  1  0.91031453  0.08673113  0.23326698  1
  O2-  O391  1  0.91285125  0.08013773  0.55458259  1
  O2-  O392  1  0.93012352  0.07461185  0.89027624  1
  O2-  O393  1  0.92523782  0.57804106  0.22962762  1
  O2-  O394  1  0.92182515  0.58060026  0.55489212  1
  O2-  O395  1  0.92572908  0.57081926  0.89144362  1
  O2-  O396  1  0.06966625  0.41617001  0.08268496  1
  O2-  O397  1  0.09641270  0.41926605  0.43995875  1
  O2-  O398  1  0.08995054  0.41604093  0.77119985  1
  O2-  O399  1  0.07754490  0.92328252  0.11603827  1
  O2-  O400  1  0.07345437  0.91650653  0.43198685  1
  O2-  O401  1  0.08847627  0.91478087  0.76155318  1
  O2-  O402  1  0.41707694  0.41709669  0.09769391  1
  O2-  O403  1  0.42292261  0.41899025  0.44155941  1
  O2-  O404  1  0.41084201  0.41358968  0.76735635  1
  O2-  O405  1  0.41473179  0.92114234  0.11295741  1
  O2-  O406  1  0.41766408  0.91804301  0.44374582  1
  O2-  O407  1  0.40328626  0.92392412  0.77887004  1
  O2-  O408  1  0.76069173  0.41713273  0.09460295  1
  O2-  O409  1  0.73381887  0.41944934  0.44288582  1
  O2-  O410  1  0.74965037  0.42038270  0.77544841  1
  O2-  O411  1  0.76795379  0.92172522  0.10575766  1
  O2-  O412  1  0.75977807  0.91574942  0.42083777  1
  O2-  O413  1  0.74786845  0.92149440  0.77311122  1
  O2-  O414  1  0.26020093  0.41555124  0.23693802  1
  O2-  O415  1  0.25078833  0.41721009  0.57054619  1
  O2-  O416  1  0.24982876  0.41820550  0.89074036  1
  O2-  O417  1  0.24635933  0.91843739  0.22602260  1
  O2-  O418  1  0.26504553  0.91555169  0.57903201  1
  O2-  O419  1  0.26226695  0.92179521  0.89084954  1
  O2-  O420  1  0.57362458  0.42133075  0.23699568  1
  O2-  O421  1  0.58492191  0.42599430  0.55147832  1
  O2-  O422  1  0.58227155  0.42732966  0.89907015  1
  O2-  O423  1  0.57080910  0.91677702  0.23021639  1
  O2-  O424  1  0.56464188  0.91616782  0.58085591  1
  O2-  O425  1  0.57581860  0.92150687  0.89456427  1
  O2-  O426  1  0.90269266  0.41724343  0.22569778  1
  O2-  O427  1  0.91603865  0.41526582  0.57004421  1
  O2-  O428  1  0.91808801  0.42933682  0.89946434  1
  O2-  O429  1  0.91876672  0.91908761  0.22767424  1
  O2-  O430  1  0.92698087  0.91834975  0.56960147  1
  O2-  O431  1  0.90562719  0.91668500  0.90506871  1
  O2-  O432  1  -0.00444965  -0.00369662  0.00801832  1
  O2-  O433  1  -0.00749287  0.00620766  0.33990285  1
  O2-  O434  1  0.00152080  0.00784018  0.66593955  1
  O2-  O435  1  0.00298028  0.50103752  -0.00759015  1
  O2-  O436  1  0.00087207  0.51381097  0.33224174  1
  O2-  O437  1  0.00380868  0.50400974  0.65698670  1
  O2-  O438  1  0.34074313  -0.01532633  -0.00933926  1
  O2-  O439  1  0.34165985  0.00129056  0.31881407  1
  O2-  O440  1  0.33771929  -0.00039329  0.65099939  1
  O2-  O441  1  0.34295128  0.51267563  -0.00784528  1
  O2-  O442  1  0.33358586  0.49815907  0.33199651  1
  O2-  O443  1  0.32596688  0.49773999  0.68440791  1
  O2-  O444  1  0.67588290  -0.01002582  -0.01620631  1
  O2-  O445  1  0.66925860  0.01257086  0.33228156  1
  O2-  O446  1  0.65784172  0.00820440  0.67558808  1
  O2-  O447  1  0.66752880  0.50354920  -0.00326358  1
  O2-  O448  1  0.65977920  0.49173848  0.34245985  1
  O2-  O449  1  0.66661300  0.49887349  0.66780560  1
  O2-  O450  1  0.16324526  -0.00007766  -0.00663300  1
  O2-  O451  1  0.15671892  -0.00027440  0.31645504  1
  O2-  O452  1  0.16822446  0.00149472  0.66718803  1
  O2-  O453  1  0.16509077  0.50879738  0.00506644  1
  O2-  O454  1  0.16698099  0.50763367  0.33500343  1
  O2-  O455  1  0.17100325  0.50419342  0.68221474  1
  O2-  O456  1  0.49927619  -0.01245872  -0.00690612  1
  O2-  O457  1  0.50557744  0.01355897  0.33611799  1
  O2-  O458  1  0.49238926  0.00474761  0.64460591  1
  O2-  O459  1  0.49432498  0.50547788  -0.01248798  1
  O2-  O460  1  0.50386334  0.49247796  0.34104787  1
  O2-  O461  1  0.49605810  0.49757160  0.65865066  1
  O2-  O462  1  0.82915920  -0.00691952  -0.01577764  1
  O2-  O463  1  0.83644822  0.00925501  0.34074110  1
  O2-  O464  1  0.84023904  0.00919909  0.67955924  1
  O2-  O465  1  0.83030654  0.49492521  -0.00232926  1
  O2-  O466  1  0.83684045  0.50364931  0.33507729  1
  O2-  O467  1  0.83063958  0.49603952  0.66298043  1
  O2-  O468  1  0.25330346  0.25037162  0.26610100  1
  O2-  O469  1  0.92172087  0.74563248  0.26450502  1
  O2-  O470  1  0.58479582  0.75032352  0.92046097  1
  O2-  O471  1  0.41363811  0.25106976  0.73997259  1
  O2-  O472  1  0.75536489  0.75147393  0.75072795  1
  O2-  O473  1  0.23976037  0.74948150  0.25805430  1
  O2-  O474  1  0.41771555  0.25330798  0.08572487  1
  O2-  O475  1  0.75138894  0.25118593  0.74058723  1
  O2-  O476  1  0.91400652  0.24988420  0.26410677  1
  O2-  O477  1  0.08812786  0.75097059  0.74036277  1
  O2-  O478  1  0.08637861  0.25259304  0.41404366  1
  O2-  O479  1  0.24957082  0.75085179  0.91907963  1
  O2-  O480  1  0.74850095  0.25091603  0.40538207  1
  O2-  O481  1  0.41580100  0.25290400  0.40578892  1
  O2-  O482  1  0.91493449  0.75144059  0.58356626  1
  O2-  O483  1  0.07976707  0.75122272  0.40293453  1
  O2-  O484  1  0.08121022  0.25299988  0.08122543  1
  O2-  O485  1  0.58379309  0.74921741  0.25887469  1
  O2-  O486  1  0.91424142  0.75202603  0.91855720  1
  O2-  O487  1  0.08816980  0.25262164  0.73353517  1
  O2-  O488  1  0.24651968  0.75221615  0.59351927  1
  O2-  O489  1  0.24978952  0.25049578  0.59363533  1
  O2-  O490  1  0.91598123  0.24809038  0.59113543  1
  O2-  O491  1  0.75891532  0.74937397  0.40496410  1
  O2-  O492  1  0.58208682  0.25332560  0.25886204  1
