# generated using pymatgen
data_Ca108Mn108O277
_symmetry_space_group_name_H-M   'P 1'
_cell_length_a   16.01329055
_cell_length_b   22.28889900
_cell_length_c   16.37914106
_cell_angle_alpha   90.00200734
_cell_angle_beta   89.99795084
_cell_angle_gamma   90.00038502
_symmetry_Int_Tables_number   1
_chemical_formula_structural   Ca108Mn108O277
_chemical_formula_sum   'Ca108 Mn108 O277'
_cell_volume   5846.02034656
_cell_formula_units_Z   1
loop_
 _symmetry_equiv_pos_site_id
 _symmetry_equiv_pos_as_xyz
  1  'x, y, z'
loop_
 _atom_type_symbol
 _atom_type_oxidation_number
  Ca2+  2.0
  Mn3.34+  3.34
  O2-  -2.0
loop_
 _atom_site_type_symbol
 _atom_site_label
 _atom_site_symmetry_multiplicity
 _atom_site_fract_x
 _atom_site_fract_y
 _atom_site_fract_z
 _atom_site_occupancy
  Ca2+  Ca0  1  0.10411180  0.24405935  0.25212951  1
  Ca2+  Ca1  1  0.06934036  0.24187909  0.58692354  1
  Ca2+  Ca2  1  0.10270334  0.24598918  0.90254482  1
  Ca2+  Ca3  1  0.09851774  0.74639885  0.22748631  1
  Ca2+  Ca4  1  0.08932927  0.76753601  0.58642425  1
  Ca2+  Ca5  1  0.10442580  0.74539945  0.93174934  1
  Ca2+  Ca6  1  0.39638695  0.24959556  0.24182917  1
  Ca2+  Ca7  1  0.39974792  0.25378571  0.58308428  1
  Ca2+  Ca8  1  0.39987907  0.24377113  0.93480620  1
  Ca2+  Ca9  1  0.42264347  0.74418520  0.26240014  1
  Ca2+  Ca10  1  0.42716752  0.75567693  0.57921648  1
  Ca2+  Ca11  1  0.39704022  0.75380628  0.91222169  1
  Ca2+  Ca12  1  0.75881360  0.24752230  0.27044534  1
  Ca2+  Ca13  1  0.77498877  0.24097333  0.56872139  1
  Ca2+  Ca14  1  0.74481435  0.25259320  0.91253246  1
  Ca2+  Ca15  1  0.73774984  0.74776347  0.27568598  1
  Ca2+  Ca16  1  0.74177491  0.74951939  0.56773963  1
  Ca2+  Ca17  1  0.74480792  0.75098264  0.90587909  1
  Ca2+  Ca18  1  0.26406454  0.24212020  0.09619864  1
  Ca2+  Ca19  1  0.24936671  0.25036637  0.40449581  1
  Ca2+  Ca20  1  0.24127455  0.24745712  0.75201603  1
  Ca2+  Ca21  1  0.23079657  0.73959813  0.07128833  1
  Ca2+  Ca22  1  0.26744692  0.74834925  0.40243892  1
  Ca2+  Ca23  1  0.24814481  0.76043286  0.76349669  1
  Ca2+  Ca24  1  0.55472786  0.25435711  0.08494697  1
  Ca2+  Ca25  1  0.58722528  0.26189244  0.41013392  1
  Ca2+  Ca26  1  0.57045405  0.25721076  0.75881593  1
  Ca2+  Ca27  1  0.58815276  0.75598815  0.09112694  1
  Ca2+  Ca28  1  0.59382997  0.74450704  0.41752193  1
  Ca2+  Ca29  1  0.59158906  0.75687368  0.74235297  1
  Ca2+  Ca30  1  0.93300302  0.25204338  0.09680380  1
  Ca2+  Ca31  1  0.91583137  0.25093509  0.43133216  1
  Ca2+  Ca32  1  0.93718739  0.24544665  0.72346074  1
  Ca2+  Ca33  1  0.94716217  0.73667167  0.08505971  1
  Ca2+  Ca34  1  0.88924669  0.74552704  0.41804425  1
  Ca2+  Ca35  1  0.90526001  0.75890681  0.74843941  1
  Ca2+  Ca36  1  0.08974573  0.60216653  0.94043000  1
  Ca2+  Ca37  1  0.56560615  0.07484366  0.75182427  1
  Ca2+  Ca38  1  0.25470765  0.09289612  0.40542742  1
  Ca2+  Ca39  1  0.24002620  0.60169815  0.08623116  1
  Ca2+  Ca40  1  0.57721971  0.58486895  0.74272225  1
  Ca2+  Ca41  1  0.09797786  0.59507220  0.23866460  1
  Ca2+  Ca42  1  0.38754045  0.09483069  0.23229703  1
  Ca2+  Ca43  1  0.24379707  0.09203506  0.40581485  1
  Ca2+  Ca44  1  0.10212012  0.60192710  0.93827334  1
  Ca2+  Ca45  1  0.93853077  0.09473924  0.09134531  1
  Ca2+  Ca46  1  0.06288007  0.56966274  0.57445638  1
  Ca2+  Ca47  1  0.55339228  0.07298221  0.75419325  1
  Ca2+  Ca48  1  0.88830513  0.10712239  0.43549071  1
  Ca2+  Ca49  1  0.62033502  0.08450126  0.41635381  1
  Ca2+  Ca50  1  0.24282971  0.09868605  0.75121152  1
  Ca2+  Ca51  1  0.61039648  0.08487537  0.41939174  1
  Ca2+  Ca52  1  0.26304419  0.10083153  0.09242384  1
  Ca2+  Ca53  1  0.39728154  0.09370427  0.23001178  1
  Ca2+  Ca54  1  0.93646012  0.10611503  0.72403342  1
  Ca2+  Ca55  1  0.11845942  0.09369504  0.24457888  1
  Ca2+  Ca56  1  0.43168547  0.59367756  0.56921071  1
  Ca2+  Ca57  1  0.23244958  0.10098770  0.75312510  1
  Ca2+  Ca58  1  0.07490444  0.10499840  0.58688761  1
  Ca2+  Ca59  1  0.75064594  0.60580686  0.57169140  1
  Ca2+  Ca60  1  0.73812696  0.08735558  0.91645941  1
  Ca2+  Ca61  1  0.74517379  0.08203404  0.27911848  1
  Ca2+  Ca62  1  0.40568446  0.59600995  0.27978445  1
  Ca2+  Ca63  1  0.57381966  0.59657858  0.08753242  1
  Ca2+  Ca64  1  0.90439872  0.59399832  0.41607575  1
  Ca2+  Ca65  1  0.57186829  0.61303069  0.41259428  1
  Ca2+  Ca66  1  0.26927884  0.58556183  0.76338330  1
  Ca2+  Ca67  1  0.90818452  0.59199796  0.73724562  1
  Ca2+  Ca68  1  0.73513744  0.60938317  0.27870022  1
  Ca2+  Ca69  1  0.87810375  0.10821145  0.43421174  1
  Ca2+  Ca70  1  0.92602078  0.09364844  0.09071931  1
  Ca2+  Ca71  1  0.74756707  0.59678679  0.91097712  1
  Ca2+  Ca72  1  0.25858436  0.40592317  0.75164372  1
  Ca2+  Ca73  1  0.74466470  0.90376131  0.57423152  1
  Ca2+  Ca74  1  0.26707908  0.91088793  0.74387761  1
  Ca2+  Ca75  1  0.39817085  0.40584957  0.24474997  1
  Ca2+  Ca76  1  0.26592781  0.91256234  0.08700660  1
  Ca2+  Ca77  1  0.93011894  0.90211588  0.08717874  1
  Ca2+  Ca78  1  0.24858345  0.41802687  0.40194430  1
  Ca2+  Ca79  1  0.56558200  0.91228639  0.75264383  1
  Ca2+  Ca80  1  0.09391656  0.41290439  0.26311705  1
  Ca2+  Ca81  1  0.41600069  0.91520039  0.59863718  1
  Ca2+  Ca82  1  0.56011433  0.91798385  0.08186003  1
  Ca2+  Ca83  1  0.89944722  0.90003284  0.41753239  1
  Ca2+  Ca84  1  0.09999153  0.91466409  0.25593425  1
  Ca2+  Ca85  1  0.42372029  0.40843865  0.58780150  1
  Ca2+  Ca86  1  0.92006021  0.40192229  0.73328184  1
  Ca2+  Ca87  1  0.56225710  0.41065200  0.74179940  1
  Ca2+  Ca88  1  0.41405323  0.40556394  0.91888897  1
  Ca2+  Ca89  1  0.07297809  0.40636277  0.57512816  1
  Ca2+  Ca90  1  0.08207777  0.90396483  0.91545485  1
  Ca2+  Ca91  1  0.09504329  0.90424975  0.91512640  1
  Ca2+  Ca92  1  0.42095528  0.91902176  0.24948462  1
  Ca2+  Ca93  1  0.26999814  0.40541497  0.75156614  1
  Ca2+  Ca94  1  0.92272972  0.40632456  0.42881521  1
  Ca2+  Ca95  1  0.91734558  0.90162574  0.08789165  1
  Ca2+  Ca96  1  0.73934613  0.90495985  0.91176198  1
  Ca2+  Ca97  1  0.74901550  0.39425593  0.25207368  1
  Ca2+  Ca98  1  0.75232546  0.40231227  0.91334180  1
  Ca2+  Ca99  1  0.40875585  0.91628699  0.25043156  1
  Ca2+  Ca100  1  0.73938417  0.40132146  0.91302245  1
  Ca2+  Ca101  1  0.92548547  0.40079039  0.08736646  1
  Ca2+  Ca102  1  0.72674044  0.90387302  0.91057505  1
  Ca2+  Ca103  1  0.24887930  0.90674423  0.41687290  1
  Ca2+  Ca104  1  0.60559355  0.91774679  0.40559532  1
  Ca2+  Ca105  1  0.91266839  0.40068629  0.08686030  1
  Ca2+  Ca106  1  0.11151143  0.91723915  0.25166740  1
  Ca2+  Ca107  1  0.23770877  0.41789308  0.40204749  1
  Mn3.34+  Mn108  1  0.09211987  0.32938336  0.08300370  1
  Mn3.34+  Mn109  1  0.08336621  0.33318082  0.41834859  1
  Mn3.34+  Mn110  1  0.08553819  0.32976822  0.74943019  1
  Mn3.34+  Mn111  1  0.08725491  0.83377072  0.08766961  1
  Mn3.34+  Mn112  1  0.08066801  0.82969510  0.41867280  1
  Mn3.34+  Mn113  1  0.07928878  0.83932279  0.74460124  1
  Mn3.34+  Mn114  1  0.41326630  0.33579323  0.08467214  1
  Mn3.34+  Mn115  1  0.42092771  0.33354321  0.41877866  1
  Mn3.34+  Mn116  1  0.41778684  0.33144194  0.75184453  1
  Mn3.34+  Mn117  1  0.41813927  0.83327701  0.08335395  1
  Mn3.34+  Mn118  1  0.42131676  0.83496472  0.42056155  1
  Mn3.34+  Mn119  1  0.41795411  0.83681352  0.75130048  1
  Mn3.34+  Mn120  1  0.74491372  0.32432957  0.08714603  1
  Mn3.34+  Mn121  1  0.74760932  0.32889201  0.42156538  1
  Mn3.34+  Mn122  1  0.74881179  0.32654042  0.74373617  1
  Mn3.34+  Mn123  1  0.74761946  0.83325058  0.09159109  1
  Mn3.34+  Mn124  1  0.74671875  0.83315198  0.41633800  1
  Mn3.34+  Mn125  1  0.75008774  0.83441494  0.74438793  1
  Mn3.34+  Mn126  1  0.24805912  0.33393506  0.24697277  1
  Mn3.34+  Mn127  1  0.24842297  0.33275491  0.57810262  1
  Mn3.34+  Mn128  1  0.24772730  0.33489743  0.92268215  1
  Mn3.34+  Mn129  1  0.25514338  0.83126417  0.24748517  1
  Mn3.34+  Mn130  1  0.25027738  0.83564286  0.58032694  1
  Mn3.34+  Mn131  1  0.25594075  0.83319382  0.91662849  1
  Mn3.34+  Mn132  1  0.57972920  0.33231897  0.24914221  1
  Mn3.34+  Mn133  1  0.58853953  0.33407499  0.58037552  1
  Mn3.34+  Mn134  1  0.57810671  0.33417577  0.91836981  1
  Mn3.34+  Mn135  1  0.58340576  0.83923294  0.24848337  1
  Mn3.34+  Mn136  1  0.58224433  0.83395181  0.58080250  1
  Mn3.34+  Mn137  1  0.56984559  0.83815064  0.91611167  1
  Mn3.34+  Mn138  1  0.92008678  0.33353935  0.25546822  1
  Mn3.34+  Mn139  1  0.91471728  0.33567412  0.58082847  1
  Mn3.34+  Mn140  1  0.92313378  0.33431745  0.91047404  1
  Mn3.34+  Mn141  1  0.91647975  0.82536397  0.25175117  1
  Mn3.34+  Mn142  1  0.91722562  0.82959544  0.58046230  1
  Mn3.34+  Mn143  1  0.91608747  0.82535438  0.91493306  1
  Mn3.34+  Mn144  1  0.42512234  0.66931978  0.08037919  1
  Mn3.34+  Mn145  1  0.57403086  0.15854424  0.92228748  1
  Mn3.34+  Mn146  1  0.09242406  0.16450832  0.08565227  1
  Mn3.34+  Mn147  1  0.57750093  0.16747914  0.24417600  1
  Mn3.34+  Mn148  1  0.75956203  0.66659623  0.08661045  1
  Mn3.34+  Mn149  1  0.25371845  0.66462516  0.24965509  1
  Mn3.34+  Mn150  1  0.41913623  0.66262560  0.76150918  1
  Mn3.34+  Mn151  1  0.41126098  0.16540550  0.75268231  1
  Mn3.34+  Mn152  1  0.24913812  0.66941590  0.57663542  1
  Mn3.34+  Mn153  1  0.09144334  0.67170957  0.74639280  1
  Mn3.34+  Mn154  1  0.74771816  0.67037210  0.74951778  1
  Mn3.34+  Mn155  1  0.58286642  0.66444633  0.91447349  1
  Mn3.34+  Mn156  1  0.41119024  0.66923289  0.08220417  1
  Mn3.34+  Mn157  1  0.91505204  0.66633469  0.91276344  1
  Mn3.34+  Mn158  1  0.58973595  0.17225164  0.58055804  1
  Mn3.34+  Mn159  1  0.08581824  0.65901621  0.41613257  1
  Mn3.34+  Mn160  1  0.41960974  0.66732461  0.75137313  1
  Mn3.34+  Mn161  1  0.41661663  0.16776328  0.42042410  1
  Mn3.34+  Mn162  1  0.58476552  0.66776500  0.57987687  1
  Mn3.34+  Mn163  1  0.91944329  0.16915834  0.25234599  1
  Mn3.34+  Mn164  1  0.58316675  0.16470393  0.92070492  1
  Mn3.34+  Mn165  1  0.57603185  0.17134619  0.58569367  1
  Mn3.34+  Mn166  1  0.92600443  0.16673671  0.91175480  1
  Mn3.34+  Mn167  1  0.08073911  0.16649841  0.41690443  1
  Mn3.34+  Mn168  1  0.25029582  0.16762127  0.91999413  1
  Mn3.34+  Mn169  1  0.75306403  0.17140185  0.08577528  1
  Mn3.34+  Mn170  1  0.07766921  0.66607341  0.74619489  1
  Mn3.34+  Mn171  1  0.75047145  0.16473767  0.74883940  1
  Mn3.34+  Mn172  1  0.25945372  0.66244030  0.57419914  1
  Mn3.34+  Mn173  1  0.24999146  0.16590025  0.57954912  1
  Mn3.34+  Mn174  1  0.58676313  0.15964808  0.24228566  1
  Mn3.34+  Mn175  1  0.91419948  0.17266624  0.91232640  1
  Mn3.34+  Mn176  1  0.91660690  0.66321350  0.57904723  1
  Mn3.34+  Mn177  1  0.07704652  0.66547861  0.41745110  1
  Mn3.34+  Mn178  1  0.91823983  0.66397665  0.24883273  1
  Mn3.34+  Mn179  1  0.74784021  0.67259336  0.08647462  1
  Mn3.34+  Mn180  1  0.74312650  -0.00159595  0.08939252  1
  Mn3.34+  Mn181  1  0.57926940  -0.00199962  0.59132233  1
  Mn3.34+  Mn182  1  0.08488105  0.49643101  0.75483095  1
  Mn3.34+  Mn183  1  0.91919802  -0.00192501  0.90824630  1
  Mn3.34+  Mn184  1  0.41588717  0.49950164  0.40957118  1
  Mn3.34+  Mn185  1  0.75189645  -0.00005093  0.74772322  1
  Mn3.34+  Mn186  1  0.92118117  0.49916273  0.91358050  1
  Mn3.34+  Mn187  1  0.75092520  0.49973615  0.42586497  1
  Mn3.34+  Mn188  1  0.92151777  0.50148538  0.25959601  1
  Mn3.34+  Mn189  1  0.25454910  0.49989289  0.92383403  1
  Mn3.34+  Mn190  1  0.91327547  0.00005229  0.58357193  1
  Mn3.34+  Mn191  1  0.58872338  0.50097892  0.24320734  1
  Mn3.34+  Mn192  1  0.08315832  0.00320911  0.74902332  1
  Mn3.34+  Mn193  1  0.57633697  0.49424590  0.24487619  1
  Mn3.34+  Mn194  1  0.57733365  0.49994548  0.58545789  1
  Mn3.34+  Mn195  1  0.09087283  0.49537803  0.08824937  1
  Mn3.34+  Mn196  1  0.75477497  0.50287021  0.08585689  1
  Mn3.34+  Mn197  1  0.93006379  0.00299834  0.91043051  1
  Mn3.34+  Mn198  1  0.89998722  -0.00365367  0.26167628  1
  Mn3.34+  Mn199  1  0.26516821  -0.00046063  0.93079291  1
  Mn3.34+  Mn200  1  0.74073089  0.49638653  0.08541500  1
  Mn3.34+  Mn201  1  0.74919045  0.49790502  0.74094905  1
  Mn3.34+  Mn202  1  0.92332936  -0.00513670  0.58507201  1
  Mn3.34+  Mn203  1  0.25983769  0.50058497  0.58942697  1
  Mn3.34+  Mn204  1  0.75953709  0.50257663  0.74423192  1
  Mn3.34+  Mn205  1  0.08501013  -0.00080213  0.41785461  1
  Mn3.34+  Mn206  1  0.25387105  0.00027026  0.59427525  1
  Mn3.34+  Mn207  1  0.07398358  0.50102332  0.75543095  1
  Mn3.34+  Mn208  1  0.73849593  0.49338812  0.42419074  1
  Mn3.34+  Mn209  1  0.57485351  0.50107426  0.91960405  1
  Mn3.34+  Mn210  1  0.25468826  0.00452280  0.93095382  1
  Mn3.34+  Mn211  1  0.08072029  0.50069653  0.08934626  1
  Mn3.34+  Mn212  1  0.41625695  0.49945388  0.07876910  1
  Mn3.34+  Mn213  1  0.91354495  0.00041169  0.25536778  1
  Mn3.34+  Mn214  1  0.42244561  0.00240973  0.41198029  1
  Mn3.34+  Mn215  1  0.73015309  0.00580178  0.08816833  1
  O2-  O216  1  -0.00420712  0.15817512  0.00649759  1
  O2-  O217  1  -0.00184683  0.14995800  0.33369310  1
  O2-  O218  1  0.00634901  0.17004352  0.66008113  1
  O2-  O219  1  0.00132230  0.67324815  -0.01455008  1
  O2-  O220  1  -0.00513958  0.67377755  0.33759576  1
  O2-  O221  1  0.00286856  0.66563186  0.66059282  1
  O2-  O222  1  0.32421873  0.16755751  0.00188944  1
  O2-  O223  1  0.34084682  0.15404720  0.33723354  1
  O2-  O224  1  0.32800869  0.15802351  0.67033157  1
  O2-  O225  1  0.33163351  0.67257527  0.00509529  1
  O2-  O226  1  0.33879556  0.67459228  0.32685220  1
  O2-  O227  1  0.33577138  0.65319574  0.66698900  1
  O2-  O228  1  0.67652693  0.16701838  -0.00475072  1
  O2-  O229  1  0.66620156  0.15869447  0.32850398  1
  O2-  O230  1  0.66460998  0.17516108  0.66921801  1
  O2-  O231  1  0.66575336  0.66054277  -0.00044012  1
  O2-  O232  1  0.65181081  0.67442243  0.33102988  1
  O2-  O233  1  0.66519510  0.65423272  0.67077936  1
  O2-  O234  1  0.16471031  0.16329917  -0.00142982  1
  O2-  O235  1  0.16843374  0.15835605  0.33989989  1
  O2-  O236  1  0.17258199  0.15686042  0.65967476  1
  O2-  O237  1  0.16891082  0.66320517  0.00112838  1
  O2-  O238  1  0.16352759  0.67059894  0.33192180  1
  O2-  O239  1  0.16969506  0.64893093  0.65854700  1
  O2-  O240  1  0.49936860  0.17077457  0.00241147  1
  O2-  O241  1  0.50489728  0.15403679  0.34031572  1
  O2-  O242  1  0.50391116  0.16549140  0.66994988  1
  O2-  O243  1  0.50538208  0.67628277  0.00184596  1
  O2-  O244  1  0.50414399  0.67984837  0.33419580  1
  O2-  O245  1  0.50102167  0.65703407  0.66984514  1
  O2-  O246  1  0.83879094  0.15853377  0.00039541  1
  O2-  O247  1  0.83373000  0.15798854  0.32189325  1
  O2-  O248  1  0.83463709  0.17648909  0.68087658  1
  O2-  O249  1  0.83018134  0.66664919  -0.00312232  1
  O2-  O250  1  0.83705431  0.67027872  0.32797291  1
  O2-  O251  1  0.83871490  0.66546827  0.66802665  1
  O2-  O252  1  -0.00672004  0.34194759  0.00647982  1
  O2-  O253  1  0.00203433  0.34761699  0.33476647  1
  O2-  O254  1  0.00459169  0.33796964  0.66314427  1
  O2-  O255  1  -0.00026444  0.84060172  0.00388134  1
  O2-  O256  1  0.00408194  0.82667147  0.32909705  1
  O2-  O257  1  -0.00600791  0.81794155  0.66492076  1
  O2-  O258  1  0.33807144  0.33870653  -0.00654795  1
  O2-  O259  1  0.32905197  0.34407256  0.33866301  1
  O2-  O260  1  0.33433782  0.34287274  0.66404703  1
  O2-  O261  1  0.32938967  0.82995870  0.00838577  1
  O2-  O262  1  0.33686363  0.83998739  0.33305333  1
  O2-  O263  1  0.33652436  0.84000586  0.66451964  1
  O2-  O264  1  0.67368924  0.33354423  -0.00757893  1
  O2-  O265  1  0.66903652  0.33240144  0.33009409  1
  O2-  O266  1  0.66041751  0.31317078  0.67056600  1
  O2-  O267  1  0.66262444  0.83907055  -0.00415201  1
  O2-  O268  1  0.65957857  0.83133245  0.33639588  1
  O2-  O269  1  0.66218467  0.84722655  0.66714530  1
  O2-  O270  1  0.16250584  0.32833477  -0.00403971  1
  O2-  O271  1  0.16921250  0.33875875  0.33811277  1
  O2-  O272  1  0.17290729  0.34865437  0.66746964  1
  O2-  O273  1  0.16637287  0.84767974  0.00011976  1
  O2-  O274  1  0.16691714  0.84061717  0.32915638  1
  O2-  O275  1  0.17173538  0.84209209  0.66955796  1
  O2-  O276  1  0.49639149  0.33749951  -0.00206673  1
  O2-  O277  1  0.49553410  0.33854612  0.33016929  1
  O2-  O278  1  0.50022061  0.33456997  0.66705087  1
  O2-  O279  1  0.49909436  0.81182419  0.00300485  1
  O2-  O280  1  0.49605966  0.82919965  0.32831275  1
  O2-  O281  1  0.49978793  0.83902740  0.66392692  1
  O2-  O282  1  0.83040605  0.33912323  0.00245702  1
  O2-  O283  1  0.83475626  0.34165757  0.33269887  1
  O2-  O284  1  0.83958288  0.33003544  0.67207230  1
  O2-  O285  1  0.83261303  0.84445172  -0.00229531  1
  O2-  O286  1  0.83524775  0.82813417  0.33542015  1
  O2-  O287  1  0.82984702  0.82510891  0.65818413  1
  O2-  O288  1  -0.00009887  0.17283603  0.16613207  1
  O2-  O289  1  -0.00197614  0.16924367  0.48996334  1
  O2-  O290  1  -0.00566654  0.17615317  0.82566025  1
  O2-  O291  1  0.00165416  0.68317033  0.18248932  1
  O2-  O292  1  0.00067034  0.68796381  0.50281614  1
  O2-  O293  1  -0.00552840  0.68236867  0.82874368  1
  O2-  O294  1  0.33425272  0.17009276  0.16906572  1
  O2-  O295  1  0.32500713  0.17203491  0.49000223  1
  O2-  O296  1  0.33009141  0.17222263  0.82970675  1
  O2-  O297  1  0.33451042  0.67902827  0.16211245  1
  O2-  O298  1  0.33904872  0.68298418  0.50026382  1
  O2-  O299  1  0.32941432  0.67456101  0.82802744  1
  O2-  O300  1  0.67130239  0.18124617  0.16682664  1
  O2-  O301  1  0.65799234  0.17926443  0.49659815  1
  O2-  O302  1  0.66347549  0.17738520  0.83524222  1
  O2-  O303  1  0.66860755  0.67745638  0.16555119  1
  O2-  O304  1  0.66426820  0.67321277  0.50646014  1
  O2-  O305  1  0.66761696  0.68063812  0.83868366  1
  O2-  O306  1  0.16755380  0.17135480  0.16303635  1
  O2-  O307  1  0.16649816  0.17262490  0.49849611  1
  O2-  O308  1  0.17769759  0.17346948  0.82967073  1
  O2-  O309  1  0.17262159  0.67151224  0.17082647  1
  O2-  O310  1  0.16440178  0.68243170  0.49639360  1
  O2-  O311  1  0.16248238  0.67049926  0.83342870  1
  O2-  O312  1  0.49137009  0.17058946  0.17314788  1
  O2-  O313  1  0.49749314  0.18230022  0.50290351  1
  O2-  O314  1  0.50339274  0.17181462  0.82684838  1
  O2-  O315  1  0.50191172  0.68599297  0.15923303  1
  O2-  O316  1  0.50125890  0.67792412  0.50814298  1
  O2-  O317  1  0.50457052  0.68600395  0.83624073  1
  O2-  O318  1  0.84422805  0.17874013  0.15740608  1
  O2-  O319  1  0.83607234  0.18137502  0.49072219  1
  O2-  O320  1  0.82175445  0.17888556  0.84174970  1
  O2-  O321  1  0.83746487  0.68314183  0.17019028  1
  O2-  O322  1  0.83656527  0.67840412  0.50858440  1
  O2-  O323  1  0.83102531  0.68062456  0.83458453  1
  O2-  O324  1  -0.00550616  0.33118348  0.16523310  1
  O2-  O325  1  0.00250673  0.32834730  0.49840041  1
  O2-  O326  1  -0.00508131  0.32561320  0.82409337  1
  O2-  O327  1  0.00127437  0.82043883  0.16698841  1
  O2-  O328  1  -0.00530387  0.80899728  0.49411844  1
  O2-  O329  1  0.00600740  0.81917159  0.84361763  1
  O2-  O330  1  0.33283463  0.32965060  0.17047727  1
  O2-  O331  1  0.33224924  0.32797150  0.50000954  1
  O2-  O332  1  0.33228444  0.32852262  0.82891161  1
  O2-  O333  1  0.33949543  0.82798361  0.17094605  1
  O2-  O334  1  0.33546629  0.81787590  0.49499307  1
  O2-  O335  1  0.33214131  0.82654427  0.82941906  1
  O2-  O336  1  0.66929998  0.31361663  0.17044927  1
  O2-  O337  1  0.66790296  0.31190940  0.50393572  1
  O2-  O338  1  0.66963597  0.32192120  0.83321812  1
  O2-  O339  1  0.66419326  0.81944670  0.17129463  1
  O2-  O340  1  0.66631736  0.82822246  0.50276786  1
  O2-  O341  1  0.66580042  0.82291403  0.83864799  1
  O2-  O342  1  0.15853833  0.32652681  0.17530730  1
  O2-  O343  1  0.16847306  0.32743914  0.49770815  1
  O2-  O344  1  0.17655684  0.33158109  0.82442998  1
  O2-  O345  1  0.16803038  0.83431604  0.16861259  1
  O2-  O346  1  0.17039233  0.81776464  0.49083578  1
  O2-  O347  1  0.16478048  0.83392060  0.83895484  1
  O2-  O348  1  0.49470466  0.32550776  0.17129156  1
  O2-  O349  1  0.49785484  0.31743928  0.50698307  1
  O2-  O350  1  0.50168426  0.33325609  0.83080274  1
  O2-  O351  1  0.49988996  0.81340981  0.16744561  1
  O2-  O352  1  0.50287452  0.81867556  0.49840352  1
  O2-  O353  1  0.50111528  0.81767620  0.82980834  1
  O2-  O354  1  0.83737405  0.32367062  0.16309409  1
  O2-  O355  1  0.83924120  0.32755102  0.49504709  1
  O2-  O356  1  0.82525529  0.32382764  0.83871261  1
  O2-  O357  1  0.84765015  0.82279577  0.15810960  1
  O2-  O358  1  0.83136659  0.82158656  0.50000228  1
  O2-  O359  1  0.82690524  0.82245194  0.83939935  1
  O2-  O360  1  0.07044944  0.08082206  0.11180747  1
  O2-  O361  1  0.09539038  0.08026138  0.44183109  1
  O2-  O362  1  0.09213097  0.07967644  0.76860220  1
  O2-  O363  1  0.08977503  0.58307719  0.09792897  1
  O2-  O364  1  0.06064464  0.57844743  0.44126660  1
  O2-  O365  1  0.08028634  0.58295070  0.77785477  1
  O2-  O366  1  0.40888322  0.06491798  0.10865037  1
  O2-  O367  1  0.41752032  0.08150982  0.44026949  1
  O2-  O368  1  0.42359789  0.08364883  0.76509884  1
  O2-  O369  1  0.42604119  0.58043001  0.12053632  1
  O2-  O370  1  0.43121389  0.57498293  0.43631407  1
  O2-  O371  1  0.42057140  0.58115669  0.76968262  1
  O2-  O372  1  0.76193483  0.08352691  0.11007534  1
  O2-  O373  1  0.74978996  0.08186843  0.43247382  1
  O2-  O374  1  0.73808954  0.07876089  0.77996882  1
  O2-  O375  1  0.73932273  0.58272414  0.10787851  1
  O2-  O376  1  0.75129921  0.58092118  0.43593295  1
  O2-  O377  1  0.75266098  0.58415358  0.77562946  1
  O2-  O378  1  0.25955515  0.07359290  0.23298151  1
  O2-  O379  1  0.24467129  0.07677825  0.54914238  1
  O2-  O380  1  0.25435696  0.08218257  0.88972678  1
  O2-  O381  1  0.25480537  0.58452958  0.22835016  1
  O2-  O382  1  0.25174097  0.58037001  0.55583596  1
  O2-  O383  1  0.22493618  0.57332564  0.88762973  1
  O2-  O384  1  0.59195194  0.08052962  0.23321232  1
  O2-  O385  1  0.58455841  0.07917221  0.55678014  1
  O2-  O386  1  0.59215989  0.07796029  0.88650226  1
  O2-  O387  1  0.58190911  0.58002851  0.22123250  1
  O2-  O388  1  0.58195399  0.58113662  0.55593891  1
  O2-  O389  1  0.59434759  0.57929906  0.88458201  1
  O2-  O390  1  0.91118423  0.08038500  0.22167232  1
  O2-  O391  1  0.92343636  0.08204560  0.56408384  1
  O2-  O392  1  0.90559695  0.08338025  0.89081292  1
  O2-  O393  1  0.91863245  0.58082906  0.23522602  1
  O2-  O394  1  0.92046779  0.58413333  0.55505252  1
  O2-  O395  1  0.92192145  0.58017730  0.88176878  1
  O2-  O396  1  0.07106589  0.41478843  0.10734516  1
  O2-  O397  1  0.09726642  0.41743644  0.43491691  1
  O2-  O398  1  0.08114452  0.41493312  0.76466400  1
  O2-  O399  1  0.06441752  0.91951371  0.12117855  1
  O2-  O400  1  0.07741921  0.91717526  0.41914922  1
  O2-  O401  1  0.08123004  0.92384740  0.78275873  1
  O2-  O402  1  0.41563745  0.42120967  0.10458010  1
  O2-  O403  1  0.40513876  0.42112309  0.44593133  1
  O2-  O404  1  0.41077162  0.41617057  0.76862883  1
  O2-  O405  1  0.42205327  0.91925026  0.11484741  1
  O2-  O406  1  0.41817264  0.92287742  0.44118394  1
  O2-  O407  1  0.41878374  0.91550559  0.75659057  1
  O2-  O408  1  0.76243462  0.41596365  0.10513948  1
  O2-  O409  1  0.75215454  0.41366393  0.42979716  1
  O2-  O410  1  0.74584453  0.41764927  0.77658692  1
  O2-  O411  1  0.75904558  0.91751166  0.10245895  1
  O2-  O412  1  0.75324662  0.91448472  0.43790712  1
  O2-  O413  1  0.74935006  0.91832874  0.77727059  1
  O2-  O414  1  0.24643795  0.41758965  0.25290158  1
  O2-  O415  1  0.24958857  0.42159892  0.55559094  1
  O2-  O416  1  0.26394460  0.42081267  0.89023499  1
  O2-  O417  1  0.25112308  0.91843261  0.23042004  1
  O2-  O418  1  0.26172711  0.92165188  0.55600463  1
  O2-  O419  1  0.24860859  0.92065327  0.88890679  1
  O2-  O420  1  0.59753022  0.41499391  0.23061793  1
  O2-  O421  1  0.57504083  0.41930824  0.57644853  1
  O2-  O422  1  0.59895711  0.42025320  0.88866126  1
  O2-  O423  1  0.55552655  0.91959345  0.22551172  1
  O2-  O424  1  0.58048552  0.91906074  0.55671343  1
  O2-  O425  1  0.59665527  0.92147942  0.88900654  1
  O2-  O426  1  0.90751863  0.42187551  0.22074281  1
  O2-  O427  1  0.92958681  0.41748823  0.56689066  1
  O2-  O428  1  0.89639811  0.41687947  0.89491981  1
  O2-  O429  1  0.92787338  0.91706511  0.22495492  1
  O2-  O430  1  0.91013674  0.91517195  0.55526555  1
  O2-  O431  1  0.92553439  0.91575963  0.90154157  1
  O2-  O432  1  -0.01481723  -0.00689053  0.01241888  1
  O2-  O433  1  0.00692066  0.00138000  0.32553898  1
  O2-  O434  1  0.00051087  0.01118136  0.66892127  1
  O2-  O435  1  -0.00501158  0.49748773  0.00774450  1
  O2-  O436  1  0.00865381  0.49722073  0.31854965  1
  O2-  O437  1  0.00268469  0.50618020  0.66718823  1
  O2-  O438  1  0.32910463  -0.00174600  0.02408645  1
  O2-  O439  1  0.33879538  -0.00137069  0.33652011  1
  O2-  O440  1  0.32788158  -0.00175696  0.66999889  1
  O2-  O441  1  0.33462808  0.50770082  0.00064555  1
  O2-  O442  1  0.32971257  0.49449964  0.34388385  1
  O2-  O443  1  0.32327810  0.49202827  0.67719964  1
  O2-  O444  1  0.66804149  -0.00552854  -0.00681985  1
  O2-  O445  1  0.65697932  0.00907829  0.35248845  1
  O2-  O446  1  0.65625862  0.00130153  0.68323905  1
  O2-  O447  1  0.67453377  0.50097391  -0.01198083  1
  O2-  O448  1  0.66729652  0.50685561  0.33052378  1
  O2-  O449  1  0.65801453  0.50850794  0.67123465  1
  O2-  O450  1  0.15954889  -0.01883143  -0.00792983  1
  O2-  O451  1  0.16867743  -0.00159770  0.33955263  1
  O2-  O452  1  0.17341676  0.00527944  0.67613528  1
  O2-  O453  1  0.16314371  0.50657164  -0.00221992  1
  O2-  O454  1  0.16588272  0.49073356  0.32899343  1
  O2-  O455  1  0.16297068  0.50499961  0.66253525  1
  O2-  O456  1  0.50134761  0.00092447  0.01814850  1
  O2-  O457  1  0.49870110  -0.00070273  0.33837680  1
  O2-  O458  1  0.50570613  -0.00156995  0.67584611  1
  O2-  O459  1  0.50696040  0.50733363  0.01162017  1
  O2-  O460  1  0.49342403  0.50372247  0.32267726  1
  O2-  O461  1  0.49633275  0.50428087  0.65692406  1
  O2-  O462  1  0.82825639  0.00369238  -0.00505924  1
  O2-  O463  1  0.83714591  0.00961251  0.34767083  1
  O2-  O464  1  0.83031739  0.00103595  0.66389989  1
  O2-  O465  1  0.82990986  0.49752685  -0.00496957  1
  O2-  O466  1  0.83689815  0.50059092  0.34196713  1
  O2-  O467  1  0.84603387  0.51053164  0.67395317  1
  O2-  O468  1  0.91915363  0.25075577  0.26453982  1
  O2-  O469  1  0.25301507  0.24978441  0.59725568  1
  O2-  O470  1  0.58054308  0.24877696  0.92290995  1
  O2-  O471  1  0.74285983  0.75105115  0.73715307  1
  O2-  O472  1  0.25081078  0.25301236  0.25964182  1
  O2-  O473  1  0.57596078  0.24700251  0.26560792  1
  O2-  O474  1  0.08321060  0.24946086  0.40007831  1
  O2-  O475  1  0.40992194  0.24951769  0.40098228  1
  O2-  O476  1  0.74803969  0.75447303  0.06137855  1
  O2-  O477  1  0.74393100  0.75194609  0.41395802  1
  O2-  O478  1  0.41194349  0.25582849  0.07883121  1
  O2-  O479  1  0.92307054  0.25434986  0.58403880  1
  O2-  O480  1  0.75479008  0.25206728  0.40512388  1
  O2-  O481  1  0.24643818  0.74947612  0.60667418  1
  O2-  O482  1  0.07544060  0.24862346  0.07551136  1
  O2-  O483  1  0.09038532  0.75468456  0.07369576  1
  O2-  O484  1  0.58773835  0.75107401  0.60315741  1
  O2-  O485  1  0.91745203  0.25345749  0.93736040  1
  O2-  O486  1  0.24746114  0.75167355  0.25834093  1
  O2-  O487  1  0.09059985  0.25247262  0.74010549  1
  O2-  O488  1  0.41658615  0.24929825  0.73769182  1
  O2-  O489  1  0.24622361  0.75524807  0.92035682  1
  O2-  O490  1  0.41313294  0.74826739  0.73272041  1
  O2-  O491  1  0.09684925  0.75354694  0.73829868  1
  O2-  O492  1  0.25109722  0.25144092  0.91876081  1
