# generated using pymatgen
data_Ca108Mn108O277
_symmetry_space_group_name_H-M   'P 1'
_cell_length_a   16.02795469
_cell_length_b   22.30700197
_cell_length_c   16.38959624
_cell_angle_alpha   89.99490317
_cell_angle_beta   90.00370065
_cell_angle_gamma   90.01311715
_symmetry_Int_Tables_number   1
_chemical_formula_structural   Ca108Mn108O277
_chemical_formula_sum   'Ca108 Mn108 O277'
_cell_volume   5859.86421327
_cell_formula_units_Z   1
loop_
 _symmetry_equiv_pos_site_id
 _symmetry_equiv_pos_as_xyz
  1  'x, y, z'
loop_
 _atom_type_symbol
 _atom_type_oxidation_number
  Ca2+  2.0
  Mn3.34+  3.34
  O2-  -2.0
loop_
 _atom_site_type_symbol
 _atom_site_label
 _atom_site_symmetry_multiplicity
 _atom_site_fract_x
 _atom_site_fract_y
 _atom_site_fract_z
 _atom_site_occupancy
  Ca2+  Ca0  1  0.08140429  0.25298161  0.26698840  1
  Ca2+  Ca1  1  0.07738943  0.25215782  0.56620652  1
  Ca2+  Ca2  1  0.06704061  0.24732966  0.92100735  1
  Ca2+  Ca3  1  0.09206118  0.74444431  0.26351188  1
  Ca2+  Ca4  1  0.06242551  0.74624533  0.58231342  1
  Ca2+  Ca5  1  0.09174290  0.75138832  0.91713330  1
  Ca2+  Ca6  1  0.42434451  0.25003117  0.24916277  1
  Ca2+  Ca7  1  0.39073078  0.23919087  0.59074440  1
  Ca2+  Ca8  1  0.42004228  0.24926821  0.91469658  1
  Ca2+  Ca9  1  0.41179662  0.75623543  0.24319911  1
  Ca2+  Ca10  1  0.41872498  0.77093821  0.59158546  1
  Ca2+  Ca11  1  0.40086534  0.74408348  0.92145358  1
  Ca2+  Ca12  1  0.74379798  0.25079204  0.25178616  1
  Ca2+  Ca13  1  0.76491228  0.25883995  0.57666354  1
  Ca2+  Ca14  1  0.76866612  0.24313684  0.91727480  1
  Ca2+  Ca15  1  0.74994661  0.75737411  0.25261861  1
  Ca2+  Ca16  1  0.77287111  0.74535045  0.59657442  1
  Ca2+  Ca17  1  0.75863161  0.75164381  0.89106385  1
  Ca2+  Ca18  1  0.24824096  0.25303057  0.07052612  1
  Ca2+  Ca19  1  0.22837086  0.25193417  0.42972981  1
  Ca2+  Ca20  1  0.26214465  0.24695264  0.76109913  1
  Ca2+  Ca21  1  0.25890232  0.74614815  0.07267558  1
  Ca2+  Ca22  1  0.24184905  0.75984355  0.41608746  1
  Ca2+  Ca23  1  0.25490515  0.74996517  0.77112124  1
  Ca2+  Ca24  1  0.58401556  0.24889331  0.07920668  1
  Ca2+  Ca25  1  0.58079584  0.24363767  0.40808068  1
  Ca2+  Ca26  1  0.57181973  0.25369418  0.76524302  1
  Ca2+  Ca27  1  0.57081676  0.74920862  0.07002806  1
  Ca2+  Ca28  1  0.57678210  0.75445789  0.41584057  1
  Ca2+  Ca29  1  0.59379647  0.74969641  0.76188660  1
  Ca2+  Ca30  1  0.91540628  0.24282997  0.06815417  1
  Ca2+  Ca31  1  0.93393981  0.24194597  0.43111102  1
  Ca2+  Ca32  1  0.91823878  0.26258353  0.75678649  1
  Ca2+  Ca33  1  0.92475872  0.75518299  0.06748446  1
  Ca2+  Ca34  1  0.92515322  0.74258340  0.42757101  1
  Ca2+  Ca35  1  0.90104977  0.73911736  0.76115712  1
  Ca2+  Ca36  1  0.25339114  0.10758072  0.44525099  1
  Ca2+  Ca37  1  0.92197555  0.59143770  0.09052265  1
  Ca2+  Ca38  1  0.39609070  0.09425194  0.91367547  1
  Ca2+  Ca39  1  0.59644756  0.58532865  0.39936028  1
  Ca2+  Ca40  1  0.75779710  0.09074236  0.92169522  1
  Ca2+  Ca41  1  0.57687817  0.08595266  0.74568816  1
  Ca2+  Ca42  1  0.25877382  0.08926362  0.07337133  1
  Ca2+  Ca43  1  0.75755517  0.61308388  0.90142069  1
  Ca2+  Ca44  1  0.89456831  0.08967105  0.76848137  1
  Ca2+  Ca45  1  0.23704010  0.59975451  0.39694042  1
  Ca2+  Ca46  1  0.04786850  0.57606022  0.28480381  1
  Ca2+  Ca47  1  0.75270648  0.61036894  0.90973717  1
  Ca2+  Ca48  1  0.74042249  0.08595107  0.58611078  1
  Ca2+  Ca49  1  0.08292230  0.08199802  0.30545682  1
  Ca2+  Ca50  1  0.07399074  0.09148365  0.92551314  1
  Ca2+  Ca51  1  0.09970295  0.09725179  0.56341405  1
  Ca2+  Ca52  1  0.22549502  0.59957129  0.39659050  1
  Ca2+  Ca53  1  0.86898042  0.59759395  0.73644961  1
  Ca2+  Ca54  1  0.43313783  0.08731328  0.24943853  1
  Ca2+  Ca55  1  0.73497692  0.08677941  0.26283105  1
  Ca2+  Ca56  1  0.06129071  0.09121376  0.92416200  1
  Ca2+  Ca57  1  0.88869536  0.09223797  0.76066338  1
  Ca2+  Ca58  1  0.90055992  0.08196307  0.05310919  1
  Ca2+  Ca59  1  0.57149207  0.08994072  0.08281170  1
  Ca2+  Ca60  1  0.60843205  0.59087955  0.76708498  1
  Ca2+  Ca61  1  0.40849604  0.58263773  0.60349147  1
  Ca2+  Ca62  1  0.27513263  0.07510034  0.71391994  1
  Ca2+  Ca63  1  0.90954894  0.59284990  0.08978360  1
  Ca2+  Ca64  1  0.59795090  0.59048949  0.76642445  1
  Ca2+  Ca65  1  0.78040368  0.58112201  0.27379255  1
  Ca2+  Ca66  1  0.38770201  0.61733570  0.24029588  1
  Ca2+  Ca67  1  0.39138987  0.09634513  0.92248650  1
  Ca2+  Ca68  1  0.27744193  0.08050781  0.70721777  1
  Ca2+  Ca69  1  0.24432773  0.10439459  0.44276260  1
  Ca2+  Ca70  1  0.09022417  0.09992710  0.56096957  1
  Ca2+  Ca71  1  0.75329948  0.08600218  0.58586451  1
  Ca2+  Ca72  1  0.41749928  0.39449891  0.25233303  1
  Ca2+  Ca73  1  0.91064280  0.90382351  0.76038354  1
  Ca2+  Ca74  1  0.73142543  0.41042432  0.90526165  1
  Ca2+  Ca75  1  0.93323177  0.42985145  0.40218788  1
  Ca2+  Ca76  1  0.25888538  0.41542118  0.73548951  1
  Ca2+  Ca77  1  0.10163875  0.90972216  0.56991320  1
  Ca2+  Ca78  1  0.92640989  0.42520395  0.40669158  1
  Ca2+  Ca79  1  0.59459596  0.39943292  0.41493617  1
  Ca2+  Ca80  1  0.08331003  0.39967196  0.91451928  1
  Ca2+  Ca81  1  0.09453639  0.40028049  0.91618545  1
  Ca2+  Ca82  1  0.08081525  0.41619038  0.26098714  1
  Ca2+  Ca83  1  0.91784310  0.89467840  0.40975867  1
  Ca2+  Ca84  1  0.55920861  0.91021602  0.74877777  1
  Ca2+  Ca85  1  0.77227390  0.91185560  0.92522164  1
  Ca2+  Ca86  1  0.07429327  0.91000790  0.27450074  1
  Ca2+  Ca87  1  0.43770294  0.41175128  0.91337927  1
  Ca2+  Ca88  1  0.27131483  0.91560237  0.73555697  1
  Ca2+  Ca89  1  0.76134920  0.41348370  0.26140017  1
  Ca2+  Ca90  1  0.58172599  0.39930492  0.41544418  1
  Ca2+  Ca91  1  0.58457539  0.90271471  0.08925470  1
  Ca2+  Ca92  1  0.58255549  0.40694180  0.07748699  1
  Ca2+  Ca93  1  0.76241142  0.41719524  0.61259099  1
  Ca2+  Ca94  1  0.08552090  0.90977280  0.27491492  1
  Ca2+  Ca95  1  0.41782670  0.90371056  0.24319726  1
  Ca2+  Ca96  1  0.27122207  0.90789000  0.07793316  1
  Ca2+  Ca97  1  0.92035270  0.90116532  0.76282476  1
  Ca2+  Ca98  1  0.76199543  0.91088661  0.92310633  1
  Ca2+  Ca99  1  0.60426455  0.90482028  0.41801057  1
  Ca2+  Ca100  1  0.42539955  0.41112861  0.91535181  1
  Ca2+  Ca101  1  0.56950912  0.91162979  0.74785577  1
  Ca2+  Ca102  1  0.59166749  0.90472632  0.41639332  1
  Ca2+  Ca103  1  0.08880170  0.41492301  0.57479567  1
  Ca2+  Ca104  1  0.24605687  0.41563681  0.73566332  1
  Ca2+  Ca105  1  0.91916483  0.40806289  0.08715718  1
  Ca2+  Ca106  1  0.59348742  0.40860908  0.74792138  1
  Ca2+  Ca107  1  0.06989300  0.41754594  0.26032325  1
  Mn3.34+  Mn108  1  0.08524254  0.33011311  0.09202674  1
  Mn3.34+  Mn109  1  0.08410053  0.33647961  0.42077841  1
  Mn3.34+  Mn110  1  0.08136048  0.33587965  0.74606825  1
  Mn3.34+  Mn111  1  0.08627417  0.83376898  0.08682842  1
  Mn3.34+  Mn112  1  0.08420386  0.83177346  0.42350166  1
  Mn3.34+  Mn113  1  0.08780776  0.83493158  0.75011884  1
  Mn3.34+  Mn114  1  0.41396662  0.33019668  0.08605002  1
  Mn3.34+  Mn115  1  0.40958130  0.32706754  0.42329643  1
  Mn3.34+  Mn116  1  0.41939382  0.33269706  0.74525396  1
  Mn3.34+  Mn117  1  0.41815969  0.83786614  0.07952371  1
  Mn3.34+  Mn118  1  0.41300492  0.83176662  0.41887248  1
  Mn3.34+  Mn119  1  0.41338473  0.83337208  0.75478645  1
  Mn3.34+  Mn120  1  0.75103496  0.33121829  0.08323161  1
  Mn3.34+  Mn121  1  0.75713856  0.33111002  0.42177527  1
  Mn3.34+  Mn122  1  0.75051146  0.33331973  0.75317783  1
  Mn3.34+  Mn123  1  0.75342966  0.83408222  0.08800245  1
  Mn3.34+  Mn124  1  0.75725554  0.82928385  0.42005842  1
  Mn3.34+  Mn125  1  0.74721442  0.83938793  0.74694556  1
  Mn3.34+  Mn126  1  0.24976421  0.33165954  0.24790722  1
  Mn3.34+  Mn127  1  0.25153187  0.33661727  0.57787332  1
  Mn3.34+  Mn128  1  0.25357024  0.33608674  0.91443268  1
  Mn3.34+  Mn129  1  0.25096664  0.83386104  0.24574374  1
  Mn3.34+  Mn130  1  0.25288612  0.84014655  0.58359102  1
  Mn3.34+  Mn131  1  0.24829513  0.83561681  0.91732517  1
  Mn3.34+  Mn132  1  0.58747021  0.33381085  0.24216660  1
  Mn3.34+  Mn133  1  0.58453619  0.32662803  0.58302564  1
  Mn3.34+  Mn134  1  0.58630876  0.33262874  0.91620320  1
  Mn3.34+  Mn135  1  0.58579711  0.83251295  0.24577891  1
  Mn3.34+  Mn136  1  0.58571738  0.83709637  0.58312115  1
  Mn3.34+  Mn137  1  0.58198302  0.83175383  0.91742741  1
  Mn3.34+  Mn138  1  0.91365772  0.33291604  0.24691840  1
  Mn3.34+  Mn139  1  0.91924916  0.33939543  0.58786218  1
  Mn3.34+  Mn140  1  0.91359908  0.33389985  0.91726954  1
  Mn3.34+  Mn141  1  0.91365182  0.82896685  0.24201731  1
  Mn3.34+  Mn142  1  0.91613767  0.83193854  0.58402503  1
  Mn3.34+  Mn143  1  0.92769920  0.83163356  0.92215583  1
  Mn3.34+  Mn144  1  0.74678578  0.16629488  0.08377284  1
  Mn3.34+  Mn145  1  0.59517373  0.66339378  0.57746330  1
  Mn3.34+  Mn146  1  0.58482704  0.16450219  0.24748517  1
  Mn3.34+  Mn147  1  0.08893302  0.66569060  0.08827254  1
  Mn3.34+  Mn148  1  0.09912925  0.66100718  0.08951633  1
  Mn3.34+  Mn149  1  0.24146854  0.66245197  0.58880999  1
  Mn3.34+  Mn150  1  0.07345508  0.66653498  0.42187562  1
  Mn3.34+  Mn151  1  0.41620200  0.66713480  0.75882406  1
  Mn3.34+  Mn152  1  0.58181932  0.66951583  0.57961642  1
  Mn3.34+  Mn153  1  0.75864730  0.66572930  0.42059263  1
  Mn3.34+  Mn154  1  0.59045854  0.66925268  0.24625635  1
  Mn3.34+  Mn155  1  0.41805321  0.17055658  0.41622807  1
  Mn3.34+  Mn156  1  0.41791038  0.16768968  0.08503780  1
  Mn3.34+  Mn157  1  0.40948510  0.66963901  0.07765463  1
  Mn3.34+  Mn158  1  0.09046106  0.17093709  0.75180251  1
  Mn3.34+  Mn159  1  0.07427020  0.66504550  0.75514540  1
  Mn3.34+  Mn160  1  0.92384888  0.16249145  0.24741211  1
  Mn3.34+  Mn161  1  0.25357243  0.66957871  0.59148434  1
  Mn3.34+  Mn162  1  0.91090153  0.15870312  0.24246886  1
  Mn3.34+  Mn163  1  0.24678211  0.17196083  0.24534510  1
  Mn3.34+  Mn164  1  0.91484205  0.67000496  0.25175944  1
  Mn3.34+  Mn165  1  0.57765880  0.66487272  0.92249212  1
  Mn3.34+  Mn166  1  0.41642161  0.66929040  0.41959323  1
  Mn3.34+  Mn167  1  0.75010470  0.16751063  0.41785568  1
  Mn3.34+  Mn168  1  0.08368004  0.16625945  0.08765328  1
  Mn3.34+  Mn169  1  0.58645660  0.16696556  0.91654929  1
  Mn3.34+  Mn170  1  0.75035581  0.67144252  0.08810547  1
  Mn3.34+  Mn171  1  0.58001847  0.17399320  0.58442421  1
  Mn3.34+  Mn172  1  0.57111076  0.16801562  0.58266992  1
  Mn3.34+  Mn173  1  0.25561656  0.16607026  0.24289758  1
  Mn3.34+  Mn174  1  0.74422968  0.16935403  0.75496901  1
  Mn3.34+  Mn175  1  0.58191869  0.66292601  0.24402405  1
  Mn3.34+  Mn176  1  0.91484952  0.16606079  0.58140526  1
  Mn3.34+  Mn177  1  0.41368013  0.16788139  0.75701997  1
  Mn3.34+  Mn178  1  0.08402929  0.66112786  0.75883775  1
  Mn3.34+  Mn179  1  0.07693685  0.16417117  0.75306072  1
  Mn3.34+  Mn180  1  0.73654742  0.49935084  0.08174074  1
  Mn3.34+  Mn181  1  0.08386830  -0.00381507  0.08678847  1
  Mn3.34+  Mn182  1  0.74939825  0.49823373  0.42399339  1
  Mn3.34+  Mn183  1  0.41171364  0.50611480  0.75445773  1
  Mn3.34+  Mn184  1  0.10053327  0.50162975  0.07623849  1
  Mn3.34+  Mn185  1  0.58324685  0.49985890  0.24968974  1
  Mn3.34+  Mn186  1  0.42117811  0.50591279  0.07647120  1
  Mn3.34+  Mn187  1  0.59010977  0.50305736  0.58823386  1
  Mn3.34+  Mn188  1  0.57986798  0.00294230  0.92556913  1
  Mn3.34+  Mn189  1  0.07086219  0.00217637  0.09006444  1
  Mn3.34+  Mn190  1  0.72662301  0.50526448  0.07759644  1
  Mn3.34+  Mn191  1  0.75570164  0.00058269  0.41133721  1
  Mn3.34+  Mn192  1  0.24640748  0.50715984  0.92152838  1
  Mn3.34+  Mn193  1  0.24804748  -0.00461546  0.91878356  1
  Mn3.34+  Mn194  1  0.40244194  0.49313240  0.42226394  1
  Mn3.34+  Mn195  1  0.25262231  -0.00004779  0.24736393  1
  Mn3.34+  Mn196  1  0.08773134  -0.00192663  0.75468786  1
  Mn3.34+  Mn197  1  0.40966292  -0.00160408  0.42390476  1
  Mn3.34+  Mn198  1  0.91135523  -0.00213728  0.25125641  1
  Mn3.34+  Mn199  1  0.24569871  0.50195039  0.58417643  1
  Mn3.34+  Mn200  1  0.91403962  0.50333363  0.91048088  1
  Mn3.34+  Mn201  1  0.92669161  0.49969690  0.91126899  1
  Mn3.34+  Mn202  1  0.41540713  0.50034902  0.42305973  1
  Mn3.34+  Mn203  1  0.58850191  -0.00290212  0.25407301  1
  Mn3.34+  Mn204  1  0.24822732  0.50481759  0.23344650  1
  Mn3.34+  Mn205  1  0.57710128  0.49590844  0.58651278  1
  Mn3.34+  Mn206  1  0.07484094  0.50331821  0.74122808  1
  Mn3.34+  Mn207  1  0.92181328  -0.00466170  0.57805873  1
  Mn3.34+  Mn208  1  0.57975249  0.00271233  0.59770920  1
  Mn3.34+  Mn209  1  0.41073294  0.50090354  0.07792493  1
  Mn3.34+  Mn210  1  0.75280335  0.00199314  0.08498967  1
  Mn3.34+  Mn211  1  0.56784978  -0.00134847  0.92536786  1
  Mn3.34+  Mn212  1  0.91106468  0.50560062  0.59922685  1
  Mn3.34+  Mn213  1  0.41968683  0.00358978  0.42346598  1
  Mn3.34+  Mn214  1  0.91101183  -0.00079124  0.58122826  1
  Mn3.34+  Mn215  1  0.26154287  0.49891363  0.23320930  1
  O2-  O216  1  0.00030304  0.15129794  0.01184985  1
  O2-  O217  1  -0.00056464  0.16985506  0.32636465  1
  O2-  O218  1  -0.00528618  0.13985101  0.67184654  1
  O2-  O219  1  0.00152533  0.65086955  0.01717042  1
  O2-  O220  1  -0.00350948  0.67081540  0.33181785  1
  O2-  O221  1  -0.00626294  0.65333054  0.68298877  1
  O2-  O222  1  0.33260784  0.16123056  0.00562512  1
  O2-  O223  1  0.33722639  0.15325347  0.32627690  1
  O2-  O224  1  0.32918569  0.16936378  0.67691426  1
  O2-  O225  1  0.33485087  0.66803211  0.00386400  1
  O2-  O226  1  0.32907063  0.66292733  0.34797079  1
  O2-  O227  1  0.33364949  0.65076647  0.67011609  1
  O2-  O228  1  0.66301064  0.14804092  0.00230057  1
  O2-  O229  1  0.66871285  0.17230257  0.32913012  1
  O2-  O230  1  0.66433155  0.16236613  0.66763617  1
  O2-  O231  1  0.67566095  0.67054512  -0.00260349  1
  O2-  O232  1  0.66834659  0.66889904  0.33216929  1
  O2-  O233  1  0.66346326  0.64874837  0.66536819  1
  O2-  O234  1  0.16006616  0.14871476  0.00669040  1
  O2-  O235  1  0.17562488  0.16243303  0.33583949  1
  O2-  O236  1  0.16381224  0.15197071  0.67140278  1
  O2-  O237  1  0.16936377  0.65983411  0.00439470  1
  O2-  O238  1  0.16364771  0.67004408  0.33754101  1
  O2-  O239  1  0.15878566  0.65046254  0.67163802  1
  O2-  O240  1  0.49470887  0.14940264  -0.00413111  1
  O2-  O241  1  0.50034902  0.16256282  0.32902125  1
  O2-  O242  1  0.50006164  0.15795215  0.67343958  1
  O2-  O243  1  0.50245325  0.66123426  0.00570596  1
  O2-  O244  1  0.49999343  0.64235005  0.33075279  1
  O2-  O245  1  0.50583634  0.64371623  0.66042274  1
  O2-  O246  1  0.82639087  0.15727137  0.00394456  1
  O2-  O247  1  0.83291162  0.15475452  0.32518400  1
  O2-  O248  1  0.82658600  0.15153598  0.66535317  1
  O2-  O249  1  0.83269679  0.65352992  0.01244437  1
  O2-  O250  1  0.82757496  0.67998131  0.32745713  1
  O2-  O251  1  0.83063683  0.67501146  0.67020040  1
  O2-  O252  1  0.00301139  0.34980419  0.00446073  1
  O2-  O253  1  -0.00106709  0.34371148  0.33167549  1
  O2-  O254  1  0.00869786  0.35243005  0.65877920  1
  O2-  O255  1  0.00482993  0.83960567  0.00214015  1
  O2-  O256  1  0.00070538  0.83079692  0.33140505  1
  O2-  O257  1  -0.00005277  0.85543195  0.66203633  1
  O2-  O258  1  0.34176882  0.34194889  -0.00949235  1
  O2-  O259  1  0.33455547  0.33197840  0.32862717  1
  O2-  O260  1  0.32828680  0.33215184  0.66821142  1
  O2-  O261  1  0.33552739  0.83964611  -0.00041076  1
  O2-  O262  1  0.33763544  0.82895100  0.32530284  1
  O2-  O263  1  0.33316469  0.83569811  0.67036679  1
  O2-  O264  1  0.66716313  0.34894055  -0.00079260  1
  O2-  O265  1  0.67189903  0.33805638  0.33027611  1
  O2-  O266  1  0.67130728  0.31565348  0.66534407  1
  O2-  O267  1  0.67140626  0.84266422  -0.00466941  1
  O2-  O268  1  0.66774668  0.83098204  0.33656302  1
  O2-  O269  1  0.65898365  0.85620578  0.67342708  1
  O2-  O270  1  0.16885274  0.33698079  -0.00434427  1
  O2-  O271  1  0.15913653  0.34345499  0.32669086  1
  O2-  O272  1  0.17319018  0.34300849  0.67046135  1
  O2-  O273  1  0.17531111  0.84805607  0.01259620  1
  O2-  O274  1  0.16563164  0.83447999  0.33193170  1
  O2-  O275  1  0.16637440  0.85085708  0.66923315  1
  O2-  O276  1  0.50080954  0.34923581  0.00121440  1
  O2-  O277  1  0.50953765  0.33887547  0.33076046  1
  O2-  O278  1  0.51176521  0.33924129  0.67358776  1
  O2-  O279  1  0.50868280  0.84628279  0.00464037  1
  O2-  O280  1  0.50640857  0.85208539  0.33448634  1
  O2-  O281  1  0.49909497  0.84695161  0.66145773  1
  O2-  O282  1  0.83289221  0.35392944  0.00005717  1
  O2-  O283  1  0.83952628  0.35165337  0.34019989  1
  O2-  O284  1  0.83214908  0.33342593  0.67083717  1
  O2-  O285  1  0.83131540  0.83645996  -0.00259707  1
  O2-  O286  1  0.83875756  0.81592867  0.33531845  1
  O2-  O287  1  0.83553626  0.85159298  0.66915090  1
  O2-  O288  1  -0.00138172  0.18811079  0.16837400  1
  O2-  O289  1  0.00303234  0.16863693  0.51221173  1
  O2-  O290  1  -0.00066186  0.17691374  0.83237035  1
  O2-  O291  1  0.00182621  0.68120949  0.16767183  1
  O2-  O292  1  0.00244369  0.67562881  0.50158194  1
  O2-  O293  1  0.00319408  0.68482028  0.83589650  1
  O2-  O294  1  0.33419167  0.19146361  0.16548079  1
  O2-  O295  1  0.32761187  0.18344964  0.48506533  1
  O2-  O296  1  0.33931840  0.18012928  0.84195093  1
  O2-  O297  1  0.34071309  0.68992840  0.16503712  1
  O2-  O298  1  0.33501942  0.68274003  0.50774983  1
  O2-  O299  1  0.34092816  0.68057370  0.83088295  1
  O2-  O300  1  0.66524554  0.18438657  0.16749806  1
  O2-  O301  1  0.66155201  0.19013924  0.50494347  1
  O2-  O302  1  0.66782669  0.19115412  0.83526538  1
  O2-  O303  1  0.66831821  0.69332411  0.16395988  1
  O2-  O304  1  0.66392124  0.68430025  0.48966728  1
  O2-  O305  1  0.66078875  0.67415826  0.83658410  1
  O2-  O306  1  0.16711199  0.19039038  0.16630277  1
  O2-  O307  1  0.16802054  0.17672013  0.50985119  1
  O2-  O308  1  0.16051453  0.18571338  0.83889295  1
  O2-  O309  1  0.16815612  0.68394526  0.17005526  1
  O2-  O310  1  0.17284715  0.67414770  0.49694590  1
  O2-  O311  1  0.16321996  0.68099416  0.82877812  1
  O2-  O312  1  0.50277514  0.18265477  0.16558964  1
  O2-  O313  1  0.49134707  0.18936336  0.50504756  1
  O2-  O314  1  0.50017060  0.17287924  0.83753772  1
  O2-  O315  1  0.49874184  0.67566778  0.16886793  1
  O2-  O316  1  0.50437697  0.67806519  0.49734727  1
  O2-  O317  1  0.51037390  0.67407844  0.82594905  1
  O2-  O318  1  0.83306047  0.18765959  0.16960487  1
  O2-  O319  1  0.82462254  0.17819747  0.51029574  1
  O2-  O320  1  0.83575293  0.18388938  0.81655141  1
  O2-  O321  1  0.84082323  0.68569653  0.16286122  1
  O2-  O322  1  0.82782535  0.68956201  0.49394926  1
  O2-  O323  1  0.82185162  0.67347822  0.83002247  1
  O2-  O324  1  -0.00274795  0.30980822  0.17407386  1
  O2-  O325  1  -0.00726198  0.33075256  0.49490636  1
  O2-  O326  1  0.00751278  0.32386785  0.84006676  1
  O2-  O327  1  0.00376242  0.81467675  0.17311658  1
  O2-  O328  1  -0.00129072  0.82123241  0.50064111  1
  O2-  O329  1  -0.00797939  0.82397060  0.82274156  1
  O2-  O330  1  0.33337016  0.31047666  0.16772048  1
  O2-  O331  1  0.32734366  0.30540642  0.50477769  1
  O2-  O332  1  0.33219875  0.32236596  0.83150523  1
  O2-  O333  1  0.33171475  0.82141611  0.16188019  1
  O2-  O334  1  0.33156079  0.81658286  0.49823351  1
  O2-  O335  1  0.33530343  0.82060789  0.83438651  1
  O2-  O336  1  0.66518772  0.31385452  0.16321408  1
  O2-  O337  1  0.66367641  0.31317378  0.49222412  1
  O2-  O338  1  0.66575433  0.31698271  0.83200402  1
  O2-  O339  1  0.66159845  0.81506392  0.15909863  1
  O2-  O340  1  0.66342519  0.82170037  0.49372978  1
  O2-  O341  1  0.67238442  0.82874958  0.83813955  1
  O2-  O342  1  0.16628818  0.31024512  0.17156443  1
  O2-  O343  1  0.16008943  0.32281311  0.50773690  1
  O2-  O344  1  0.16677573  0.31931552  0.83686862  1
  O2-  O345  1  0.16511422  0.81387137  0.17403204  1
  O2-  O346  1  0.16296846  0.82527201  0.50582858  1
  O2-  O347  1  0.16496094  0.82193141  0.83216653  1
  O2-  O348  1  0.49908994  0.31613119  0.16856501  1
  O2-  O349  1  0.50897117  0.31846459  0.49393131  1
  O2-  O350  1  0.49321189  0.32543337  0.84083031  1
  O2-  O351  1  0.49750569  0.82472910  0.17042764  1
  O2-  O352  1  0.50777757  0.82409584  0.49419879  1
  O2-  O353  1  0.51380072  0.82620059  0.82187515  1
  O2-  O354  1  0.83150052  0.31317414  0.17077044  1
  O2-  O355  1  0.83152344  0.33154532  0.50729856  1
  O2-  O356  1  0.82879708  0.32040063  0.83676552  1
  O2-  O357  1  0.83434772  0.80582417  0.16179234  1
  O2-  O358  1  0.83852365  0.81504656  0.49851526  1
  O2-  O359  1  0.83389040  0.82888412  0.83009263  1
  O2-  O360  1  0.09024394  0.08124809  0.13418386  1
  O2-  O361  1  0.12049796  0.06946087  0.43756253  1
  O2-  O362  1  0.08344381  0.08195314  0.78997607  1
  O2-  O363  1  0.06937808  0.58000071  0.12916913  1
  O2-  O364  1  0.09571266  0.58360977  0.41740037  1
  O2-  O365  1  0.07099310  0.58187809  0.78692341  1
  O2-  O366  1  0.40925619  0.08945290  0.11761963  1
  O2-  O367  1  0.40058038  0.08607741  0.44730926  1
  O2-  O368  1  0.41079565  0.08506858  0.78132415  1
  O2-  O369  1  0.40838350  0.58471504  0.11224440  1
  O2-  O370  1  0.40779547  0.57974789  0.45454608  1
  O2-  O371  1  0.44413778  0.58307861  0.77075371  1
  O2-  O372  1  0.75599186  0.08252906  0.12213974  1
  O2-  O373  1  0.74595920  0.08126782  0.45067045  1
  O2-  O374  1  0.75437818  0.08359369  0.78433274  1
  O2-  O375  1  0.76787982  0.57919494  0.12554963  1
  O2-  O376  1  0.74039323  0.58062071  0.41426925  1
  O2-  O377  1  0.73406551  0.56369000  0.79271275  1
  O2-  O378  1  0.25288971  0.08091907  0.21327898  1
  O2-  O379  1  0.23001362  0.07384579  0.56924692  1
  O2-  O380  1  0.25235978  0.06354309  0.85495987  1
  O2-  O381  1  0.25395239  0.58445829  0.24633182  1
  O2-  O382  1  0.26072600  0.58158863  0.54438666  1
  O2-  O383  1  0.25257541  0.57422017  0.88112485  1
  O2-  O384  1  0.58855186  0.07680814  0.21848772  1
  O2-  O385  1  0.59772690  0.08237857  0.55371045  1
  O2-  O386  1  0.59938878  0.07960127  0.87770118  1
  O2-  O387  1  0.61594313  0.58225550  0.23374411  1
  O2-  O388  1  0.57932563  0.57735391  0.53452612  1
  O2-  O389  1  0.60231156  0.58434233  0.90269708  1
  O2-  O390  1  0.91793880  0.07664218  0.20229549  1
  O2-  O391  1  0.89836145  0.08044909  0.54846961  1
  O2-  O392  1  0.93630040  0.07141939  0.88101082  1
  O2-  O393  1  0.91149381  0.58099643  0.22296841  1
  O2-  O394  1  0.90800655  0.57170959  0.55952212  1
  O2-  O395  1  0.89539020  0.58259647  0.88960217  1
  O2-  O396  1  0.07939295  0.41848235  0.12391778  1
  O2-  O397  1  0.07076928  0.42081659  0.43648302  1
  O2-  O398  1  0.10497015  0.42272136  0.78620484  1
  O2-  O399  1  0.09094908  0.91979994  0.13212282  1
  O2-  O400  1  0.06737312  0.91427655  0.42027030  1
  O2-  O401  1  0.06106341  0.91930510  0.77394812  1
  O2-  O402  1  0.41656872  0.41972345  0.12148048  1
  O2-  O403  1  0.43200516  0.41287104  0.43746966  1
  O2-  O404  1  0.40170107  0.42183928  0.77966547  1
  O2-  O405  1  0.41551512  0.91826880  0.10811907  1
  O2-  O406  1  0.42847899  0.91690558  0.43988790  1
  O2-  O407  1  0.42634656  0.91376801  0.77305047  1
  O2-  O408  1  0.75010262  0.42042156  0.12499675  1
  O2-  O409  1  0.73186048  0.41602626  0.45273428  1
  O2-  O410  1  0.73610826  0.41169417  0.76285666  1
  O2-  O411  1  0.73989006  0.92138756  0.08943588  1
  O2-  O412  1  0.74512707  0.91883471  0.43518681  1
  O2-  O413  1  0.76294074  0.92446438  0.78631311  1
  O2-  O414  1  0.25658036  0.41891928  0.21830836  1
  O2-  O415  1  0.24603970  0.42154114  0.56135213  1
  O2-  O416  1  0.25266642  0.42918328  0.87076703  1
  O2-  O417  1  0.25192801  0.92069569  0.21745823  1
  O2-  O418  1  0.24484360  0.91861812  0.57342711  1
  O2-  O419  1  0.24908956  0.92094380  0.88600254  1
  O2-  O420  1  0.57848742  0.41924906  0.21558044  1
  O2-  O421  1  0.59857557  0.41714671  0.54962396  1
  O2-  O422  1  0.57437945  0.41446292  0.88106475  1
  O2-  O423  1  0.58400643  0.91669177  0.22515537  1
  O2-  O424  1  0.58187124  0.92616949  0.54905792  1
  O2-  O425  1  0.59534506  0.92024760  0.88737038  1
  O2-  O426  1  0.92472559  0.41507213  0.22130258  1
  O2-  O427  1  0.89898920  0.43888827  0.53952223  1
  O2-  O428  1  0.93770211  0.41811087  0.88946234  1
  O2-  O429  1  0.92998085  0.91619471  0.24174496  1
  O2-  O430  1  0.91832932  0.91641491  0.54384657  1
  O2-  O431  1  0.90322238  0.91885141  0.89422638  1
  O2-  O432  1  -0.00043616  0.02032685  0.00491502  1
  O2-  O433  1  0.00777922  -0.00025642  0.30268155  1
  O2-  O434  1  0.01506270  0.00991917  0.64978820  1
  O2-  O435  1  -0.01230976  0.50738872  0.01714758  1
  O2-  O436  1  0.00077777  0.48447295  0.32237831  1
  O2-  O437  1  0.00224667  0.48630777  0.64751353  1
  O2-  O438  1  0.32386098  0.02122029  -0.01016337  1
  O2-  O439  1  0.32838569  0.00627788  0.33658674  1
  O2-  O440  1  0.33305092  -0.00491740  0.69464100  1
  O2-  O441  1  0.34025831  0.48579878  -0.01691395  1
  O2-  O442  1  0.33144828  0.50225557  0.32957459  1
  O2-  O443  1  0.32799884  0.50074790  0.67192419  1
  O2-  O444  1  0.64443203  0.00769281  0.02592753  1
  O2-  O445  1  0.65361849  -0.00318710  0.35130764  1
  O2-  O446  1  0.67453094  0.01381645  0.65075901  1
  O2-  O447  1  0.67328860  0.48437019  -0.01624684  1
  O2-  O448  1  0.65687260  0.48322505  0.34670986  1
  O2-  O449  1  0.65894875  0.49413499  0.67766080  1
  O2-  O450  1  0.16220879  0.01647954  -0.00349282  1
  O2-  O451  1  0.15502537  -0.00420267  0.29397879  1
  O2-  O452  1  0.17341152  0.00842771  0.69037518  1
  O2-  O453  1  0.14598874  0.48495683  -0.03365494  1
  O2-  O454  1  0.16000440  0.49707096  0.30559867  1
  O2-  O455  1  0.16751184  0.48547390  0.66857602  1
  O2-  O456  1  0.48322821  0.02928387  -0.01137162  1
  O2-  O457  1  0.48866546  0.00221157  0.32297028  1
  O2-  O458  1  0.52522055  -0.00026659  0.69654570  1
  O2-  O459  1  0.50185606  0.47669483  0.00280088  1
  O2-  O460  1  0.49895866  0.49765898  0.34074922  1
  O2-  O461  1  0.49610815  0.49894538  0.66984728  1
  O2-  O462  1  0.81081716  0.00599329  -0.01435719  1
  O2-  O463  1  0.82194976  0.01236848  0.31678663  1
  O2-  O464  1  0.84211068  0.01811853  0.67261417  1
  O2-  O465  1  0.83772201  0.49517835  0.00913551  1
  O2-  O466  1  0.82939337  0.48491247  0.34220080  1
  O2-  O467  1  0.83432967  0.49984384  0.66702379  1
  O2-  O468  1  0.24150476  0.75040140  0.60906533  1
  O2-  O469  1  0.57811391  0.75142316  0.93055490  1
  O2-  O470  1  0.56552189  0.74896235  0.27508091  1
  O2-  O471  1  0.42766110  0.75272031  0.06176550  1
  O2-  O472  1  0.08165250  0.24762653  0.05518336  1
  O2-  O473  1  0.42476338  0.24904164  0.38765457  1
  O2-  O474  1  0.42477479  0.24980459  0.73608547  1
  O2-  O475  1  0.77392649  0.25126923  0.39614466  1
  O2-  O476  1  0.92106040  0.75581190  0.61320234  1
  O2-  O477  1  0.91822377  0.25568694  0.93505949  1
  O2-  O478  1  0.57254285  0.24996167  0.94134159  1
  O2-  O479  1  0.08664332  0.75011623  0.40981982  1
  O2-  O480  1  0.24567168  0.75649012  0.93024474  1
  O2-  O481  1  0.42655639  0.74728219  0.72745599  1
  O2-  O482  1  0.58341344  0.75283372  0.61155823  1
  O2-  O483  1  0.06923494  0.24927872  0.71654419  1
  O2-  O484  1  0.42622172  0.25043140  0.05320005  1
  O2-  O485  1  0.43187649  0.75020093  0.39219264  1
  O2-  O486  1  0.08117028  0.74810499  0.05834216  1
  O2-  O487  1  0.91400716  0.75336613  0.92871550  1
  O2-  O488  1  0.74156972  0.75968758  0.73401578  1
  O2-  O489  1  0.07909038  0.25612675  0.40706618  1
  O2-  O490  1  0.08427741  0.74671953  0.72403015  1
  O2-  O491  1  0.92284891  0.24617891  0.60267776  1
  O2-  O492  1  0.74689053  0.24925622  0.05291711  1
