# generated using pymatgen
data_Ca108Mn108O277
_symmetry_space_group_name_H-M   'P 1'
_cell_length_a   16.02810615
_cell_length_b   22.30592358
_cell_length_c   16.38970653
_cell_angle_alpha   90.00332278
_cell_angle_beta   89.99858882
_cell_angle_gamma   89.99491094
_symmetry_Int_Tables_number   1
_chemical_formula_structural   Ca108Mn108O277
_chemical_formula_sum   'Ca108 Mn108 O277'
_cell_volume   5859.67588646
_cell_formula_units_Z   1
loop_
 _symmetry_equiv_pos_site_id
 _symmetry_equiv_pos_as_xyz
  1  'x, y, z'
loop_
 _atom_type_symbol
 _atom_type_oxidation_number
  Ca2+  2.0
  Mn3.34+  3.34
  O2-  -2.0
loop_
 _atom_site_type_symbol
 _atom_site_label
 _atom_site_symmetry_multiplicity
 _atom_site_fract_x
 _atom_site_fract_y
 _atom_site_fract_z
 _atom_site_occupancy
  Ca2+  Ca0  1  0.09953762  0.25867595  0.26661188  1
  Ca2+  Ca1  1  0.10382434  0.24958773  0.56187997  1
  Ca2+  Ca2  1  0.07832305  0.26976449  0.91721428  1
  Ca2+  Ca3  1  0.10045577  0.73847413  0.26492271  1
  Ca2+  Ca4  1  0.08039429  0.72942479  0.57171958  1
  Ca2+  Ca5  1  0.08166954  0.75071287  0.90999581  1
  Ca2+  Ca6  1  0.41630829  0.24633433  0.24912367  1
  Ca2+  Ca7  1  0.41714304  0.25118854  0.58244610  1
  Ca2+  Ca8  1  0.40805717  0.25389831  0.91144176  1
  Ca2+  Ca9  1  0.38786403  0.73648758  0.24093928  1
  Ca2+  Ca10  1  0.41617055  0.73283769  0.59611825  1
  Ca2+  Ca11  1  0.42093851  0.74579985  0.92102507  1
  Ca2+  Ca12  1  0.73569597  0.25802332  0.25040929  1
  Ca2+  Ca13  1  0.73126735  0.25234410  0.58474723  1
  Ca2+  Ca14  1  0.75529436  0.27211101  0.91517675  1
  Ca2+  Ca15  1  0.74897241  0.75442509  0.25285763  1
  Ca2+  Ca16  1  0.76412125  0.74004026  0.57203734  1
  Ca2+  Ca17  1  0.74735735  0.74651461  0.92014507  1
  Ca2+  Ca18  1  0.24887134  0.26254050  0.08341697  1
  Ca2+  Ca19  1  0.23634049  0.24117828  0.42602552  1
  Ca2+  Ca20  1  0.25631634  0.25205595  0.74370260  1
  Ca2+  Ca21  1  0.25430549  0.75124123  0.09000534  1
  Ca2+  Ca22  1  0.23193611  0.74469517  0.40467012  1
  Ca2+  Ca23  1  0.25217959  0.74227201  0.75732448  1
  Ca2+  Ca24  1  0.58827860  0.27226342  0.07964727  1
  Ca2+  Ca25  1  0.57739568  0.24789241  0.43029966  1
  Ca2+  Ca26  1  0.57705458  0.25661959  0.73839761  1
  Ca2+  Ca27  1  0.58215716  0.74370565  0.06847432  1
  Ca2+  Ca28  1  0.58765677  0.76371026  0.42738098  1
  Ca2+  Ca29  1  0.57682660  0.75120356  0.75271327  1
  Ca2+  Ca30  1  0.91710743  0.27923774  0.07176524  1
  Ca2+  Ca31  1  0.93827775  0.25423501  0.42652757  1
  Ca2+  Ca32  1  0.91416598  0.26612757  0.75678577  1
  Ca2+  Ca33  1  0.90824382  0.74270841  0.07857077  1
  Ca2+  Ca34  1  0.93460896  0.74027093  0.43299960  1
  Ca2+  Ca35  1  0.93352343  0.73435489  0.74305565  1
  Ca2+  Ca36  1  0.76965534  0.59105992  0.25143691  1
  Ca2+  Ca37  1  0.25007014  0.08906057  0.73943103  1
  Ca2+  Ca38  1  0.41831387  0.10715089  0.57147872  1
  Ca2+  Ca39  1  0.38652145  0.11041323  0.91932934  1
  Ca2+  Ca40  1  0.07654026  0.07852030  0.91596091  1
  Ca2+  Ca41  1  0.25496959  0.59326138  0.09175053  1
  Ca2+  Ca42  1  0.93730088  0.60597430  0.42804509  1
  Ca2+  Ca43  1  0.26419819  0.59608914  0.09478028  1
  Ca2+  Ca44  1  0.40748043  0.59869093  0.92607858  1
  Ca2+  Ca45  1  0.60013048  0.59185614  0.43046881  1
  Ca2+  Ca46  1  0.55383721  0.08607033  0.08953531  1
  Ca2+  Ca47  1  0.92836634  0.09901201  0.41663512  1
  Ca2+  Ca48  1  0.75274274  0.58349579  0.93010167  1
  Ca2+  Ca49  1  0.58550932  0.11189472  0.42928145  1
  Ca2+  Ca50  1  0.09076046  0.08704103  0.28102808  1
  Ca2+  Ca51  1  0.58758270  0.58950695  0.42999361  1
  Ca2+  Ca52  1  0.09344177  0.11106820  0.55626471  1
  Ca2+  Ca53  1  0.59257733  0.08499027  0.73610784  1
  Ca2+  Ca54  1  0.74281589  0.07958760  0.28756770  1
  Ca2+  Ca55  1  0.58458382  0.59225895  0.75126515  1
  Ca2+  Ca56  1  0.24358699  0.10989975  0.43300787  1
  Ca2+  Ca57  1  0.91708311  0.07482042  0.75619037  1
  Ca2+  Ca58  1  0.27077179  0.10353002  0.08148923  1
  Ca2+  Ca59  1  0.40775346  0.10745100  0.57217037  1
  Ca2+  Ca60  1  0.09287763  0.59638916  0.27310484  1
  Ca2+  Ca61  1  0.10198537  0.08593540  0.28090227  1
  Ca2+  Ca62  1  0.08908237  0.08056228  0.91559580  1
  Ca2+  Ca63  1  0.21457298  0.60951163  0.43462702  1
  Ca2+  Ca64  1  0.25689311  0.09653106  0.74071348  1
  Ca2+  Ca65  1  0.08813891  0.60799281  0.89710166  1
  Ca2+  Ca66  1  0.75282044  0.07904820  0.28212078  1
  Ca2+  Ca67  1  0.90469270  0.07327797  0.75882143  1
  Ca2+  Ca68  1  0.91954614  0.07869612  0.06677783  1
  Ca2+  Ca69  1  0.92992527  0.07574402  0.07340680  1
  Ca2+  Ca70  1  0.21827024  0.61638869  0.73470194  1
  Ca2+  Ca71  1  0.56575932  0.08695415  0.09112597  1
  Ca2+  Ca72  1  0.57696577  0.90700886  0.06285760  1
  Ca2+  Ca73  1  0.24968268  0.90625438  0.41718706  1
  Ca2+  Ca74  1  0.74814565  0.89634207  0.58257598  1
  Ca2+  Ca75  1  0.07769471  0.41124631  0.24241651  1
  Ca2+  Ca76  1  0.23991695  0.90239908  0.74757209  1
  Ca2+  Ca77  1  0.56736361  0.91092720  0.06668918  1
  Ca2+  Ca78  1  0.42486263  0.41139688  0.58304046  1
  Ca2+  Ca79  1  0.90012058  0.41717508  0.74809119  1
  Ca2+  Ca80  1  0.42190129  0.41568137  0.94672368  1
  Ca2+  Ca81  1  0.08971984  0.90138733  0.24693389  1
  Ca2+  Ca82  1  0.41559233  0.90426682  0.24585539  1
  Ca2+  Ca83  1  0.23755079  0.41040159  0.40958529  1
  Ca2+  Ca84  1  0.75040579  0.91249338  0.26704502  1
  Ca2+  Ca85  1  0.90382522  0.90595538  0.41537483  1
  Ca2+  Ca86  1  0.07186338  0.40996231  0.58999776  1
  Ca2+  Ca87  1  0.60796425  0.41532660  0.75291645  1
  Ca2+  Ca88  1  0.41731753  0.89781172  0.58060030  1
  Ca2+  Ca89  1  0.75412012  0.41943962  0.91647506  1
  Ca2+  Ca90  1  0.92125011  0.41356855  0.40488902  1
  Ca2+  Ca91  1  0.91491508  0.90170803  0.41171975  1
  Ca2+  Ca92  1  0.23871258  0.40484845  0.75061437  1
  Ca2+  Ca93  1  0.74149165  0.90819259  0.90614219  1
  Ca2+  Ca94  1  0.40454875  0.89726397  0.58092703  1
  Ca2+  Ca95  1  0.40792757  0.40513502  0.23534964  1
  Ca2+  Ca96  1  0.76645902  0.40358315  0.25259556  1
  Ca2+  Ca97  1  0.22742371  0.90072902  0.74878161  1
  Ca2+  Ca98  1  0.93231304  0.90521322  0.07452465  1
  Ca2+  Ca99  1  0.91330144  0.90619116  0.76321039  1
  Ca2+  Ca100  1  0.92082208  0.90339320  0.07454397  1
  Ca2+  Ca101  1  0.24887746  0.40921567  0.40876066  1
  Ca2+  Ca102  1  0.41203454  0.41086714  0.58242349  1
  Ca2+  Ca103  1  0.58639104  0.40403799  0.41309781  1
  Ca2+  Ca104  1  0.59874755  0.40260617  0.41536182  1
  Ca2+  Ca105  1  0.92521382  0.90687409  0.76328460  1
  Ca2+  Ca106  1  0.08797262  0.89619020  0.58431513  1
  Ca2+  Ca107  1  0.40410432  0.90399493  0.24495713  1
  Mn3.34+  Mn108  1  0.08642670  0.34502657  0.07979540  1
  Mn3.34+  Mn109  1  0.08133226  0.33511233  0.41920836  1
  Mn3.34+  Mn110  1  0.08052462  0.33907019  0.75112338  1
  Mn3.34+  Mn111  1  0.08996193  0.82996943  0.07875337  1
  Mn3.34+  Mn112  1  0.08500179  0.83135914  0.41693472  1
  Mn3.34+  Mn113  1  0.08043149  0.82745724  0.75164275  1
  Mn3.34+  Mn114  1  0.41465719  0.33754931  0.08313082  1
  Mn3.34+  Mn115  1  0.41475569  0.32950736  0.41636801  1
  Mn3.34+  Mn116  1  0.41746728  0.33445250  0.75771188  1
  Mn3.34+  Mn117  1  0.41133309  0.82891203  0.07757636  1
  Mn3.34+  Mn118  1  0.41988000  0.83229632  0.41537649  1
  Mn3.34+  Mn119  1  0.41766563  0.82941227  0.75747700  1
  Mn3.34+  Mn120  1  0.75010810  0.34450550  0.08264901  1
  Mn3.34+  Mn121  1  0.75812602  0.32957041  0.42150456  1
  Mn3.34+  Mn122  1  0.75041086  0.34012642  0.75020599  1
  Mn3.34+  Mn123  1  0.74851668  0.82799667  0.08625492  1
  Mn3.34+  Mn124  1  0.74487547  0.83404534  0.41927472  1
  Mn3.34+  Mn125  1  0.74820031  0.83723180  0.75262128  1
  Mn3.34+  Mn126  1  0.24911871  0.33432611  0.24228336  1
  Mn3.34+  Mn127  1  0.24946368  0.33375733  0.58474110  1
  Mn3.34+  Mn128  1  0.24906377  0.33388578  0.91546459  1
  Mn3.34+  Mn129  1  0.24722826  0.83184029  0.24734260  1
  Mn3.34+  Mn130  1  0.24724787  0.81614341  0.58009526  1
  Mn3.34+  Mn131  1  0.24989961  0.82598965  0.91736369  1
  Mn3.34+  Mn132  1  0.58118968  0.33022283  0.24382628  1
  Mn3.34+  Mn133  1  0.58596350  0.33330220  0.58610166  1
  Mn3.34+  Mn134  1  0.58277411  0.33916377  0.91584304  1
  Mn3.34+  Mn135  1  0.58485049  0.83655733  0.25032194  1
  Mn3.34+  Mn136  1  0.58467331  0.82953467  0.58873788  1
  Mn3.34+  Mn137  1  0.58219926  0.83611801  0.90919878  1
  Mn3.34+  Mn138  1  0.91879606  0.33133529  0.24640142  1
  Mn3.34+  Mn139  1  0.90995978  0.34185404  0.58234194  1
  Mn3.34+  Mn140  1  0.92197798  0.34814273  0.91729362  1
  Mn3.34+  Mn141  1  0.91891742  0.82803047  0.24509691  1
  Mn3.34+  Mn142  1  0.91720001  0.82618946  0.58386971  1
  Mn3.34+  Mn143  1  0.91516406  0.82897388  0.91499647  1
  Mn3.34+  Mn144  1  0.58498245  0.15648508  0.91215269  1
  Mn3.34+  Mn145  1  0.75459582  0.16812470  0.74527951  1
  Mn3.34+  Mn146  1  0.09539547  0.16573021  0.08689090  1
  Mn3.34+  Mn147  1  0.76327738  0.64897117  0.74796644  1
  Mn3.34+  Mn148  1  0.58617292  0.66920597  0.24513536  1
  Mn3.34+  Mn149  1  0.57592905  0.16275283  0.91312903  1
  Mn3.34+  Mn150  1  0.41610444  0.66291692  0.08187583  1
  Mn3.34+  Mn151  1  0.91650953  0.66420325  0.91360364  1
  Mn3.34+  Mn152  1  0.08245242  0.17224369  0.08353561  1
  Mn3.34+  Mn153  1  0.75320381  0.66361672  0.08208550  1
  Mn3.34+  Mn154  1  0.74433549  0.16737756  0.07995376  1
  Mn3.34+  Mn155  1  0.40567974  0.66314791  0.42025049  1
  Mn3.34+  Mn156  1  0.91426419  0.17105258  0.57856121  1
  Mn3.34+  Mn157  1  0.58332443  0.66459704  0.58884440  1
  Mn3.34+  Mn158  1  0.75253930  0.16687955  0.42733912  1
  Mn3.34+  Mn159  1  0.75458842  0.17262118  0.07781744  1
  Mn3.34+  Mn160  1  0.25560412  0.17115525  0.25077055  1
  Mn3.34+  Mn161  1  0.41209484  0.66855159  0.75480258  1
  Mn3.34+  Mn162  1  0.08048864  0.66217852  0.08561716  1
  Mn3.34+  Mn163  1  0.57575619  0.66424544  0.24401284  1
  Mn3.34+  Mn164  1  0.41293311  0.17816119  0.08533022  1
  Mn3.34+  Mn165  1  0.41528196  0.66832347  0.41793480  1
  Mn3.34+  Mn166  1  0.74654861  0.16148855  0.74575274  1
  Mn3.34+  Mn167  1  0.07067694  0.65737131  0.08786315  1
  Mn3.34+  Mn168  1  0.57985961  0.16941118  0.25021061  1
  Mn3.34+  Mn169  1  0.91238891  0.17650574  0.24775824  1
  Mn3.34+  Mn170  1  0.75485700  0.66940230  0.41822245  1
  Mn3.34+  Mn171  1  0.92187485  0.18228181  0.24902634  1
  Mn3.34+  Mn172  1  0.41610607  0.16996242  0.41220498  1
  Mn3.34+  Mn173  1  0.08482543  0.16640386  0.74856118  1
  Mn3.34+  Mn174  1  0.91413470  0.16789348  0.91625936  1
  Mn3.34+  Mn175  1  0.07418366  0.17169243  0.74704823  1
  Mn3.34+  Mn176  1  0.91415918  0.66489253  0.24726022  1
  Mn3.34+  Mn177  1  0.75482216  0.65519144  0.74907539  1
  Mn3.34+  Mn178  1  0.41569396  0.17000504  0.75063082  1
  Mn3.34+  Mn179  1  0.58429932  0.66508033  0.91634753  1
  Mn3.34+  Mn180  1  0.26327642  -0.00559612  0.92263263  1
  Mn3.34+  Mn181  1  0.75338603  0.50231951  0.07829397  1
  Mn3.34+  Mn182  1  0.76171551  0.50119950  0.41864230  1
  Mn3.34+  Mn183  1  0.92097478  -0.00100936  0.58595261  1
  Mn3.34+  Mn184  1  0.25246462  0.49758404  0.25736473  1
  Mn3.34+  Mn185  1  0.57795676  -0.00248838  0.26378348  1
  Mn3.34+  Mn186  1  0.92053933  0.00152651  0.24588171  1
  Mn3.34+  Mn187  1  0.92789169  0.50676441  0.93226172  1
  Mn3.34+  Mn188  1  0.57867861  0.50425341  0.93231423  1
  Mn3.34+  Mn189  1  0.07809649  0.50168733  0.41834991  1
  Mn3.34+  Mn190  1  0.24258353  0.49967940  0.92325400  1
  Mn3.34+  Mn191  1  0.41959121  0.50284736  0.75546814  1
  Mn3.34+  Mn192  1  0.41634932  -0.00064090  0.40982190  1
  Mn3.34+  Mn193  1  0.60374637  -0.00341263  0.58317589  1
  Mn3.34+  Mn194  1  0.24789694  -0.00000218  0.58887063  1
  Mn3.34+  Mn195  1  0.42927334  -0.00153171  0.76098898  1
  Mn3.34+  Mn196  1  0.90641396  0.50020817  0.60101312  1
  Mn3.34+  Mn197  1  0.60228898  0.49721467  0.60315424  1
  Mn3.34+  Mn198  1  0.74222328  -0.00344753  0.08757118  1
  Mn3.34+  Mn199  1  0.43416795  -0.00537248  0.77061294  1
  Mn3.34+  Mn200  1  0.40766960  0.49780677  0.75667214  1
  Mn3.34+  Mn201  1  0.58494243  0.49597849  0.23683449  1
  Mn3.34+  Mn202  1  0.08065718  0.49795551  0.74058631  1
  Mn3.34+  Mn203  1  0.24583698  0.50418338  0.58987934  1
  Mn3.34+  Mn204  1  0.91997937  0.49964998  0.24662507  1
  Mn3.34+  Mn205  1  0.57360355  0.50157108  0.23667241  1
  Mn3.34+  Mn206  1  0.22634879  0.49752858  0.92490575  1
  Mn3.34+  Mn207  1  0.10291124  -0.00196026  0.09206158  1
  Mn3.34+  Mn208  1  0.75329118  0.00078785  0.08513655  1
  Mn3.34+  Mn209  1  0.25323479  -0.01113379  0.92624242  1
  Mn3.34+  Mn210  1  0.08616448  -0.00155111  0.41850055  1
  Mn3.34+  Mn211  1  0.90648443  0.00484757  0.58669755  1
  Mn3.34+  Mn212  1  0.40366268  0.00140960  0.09470076  1
  Mn3.34+  Mn213  1  0.59057182  0.00280554  0.58211713  1
  Mn3.34+  Mn214  1  0.41399856  0.50271332  0.41718973  1
  Mn3.34+  Mn215  1  0.25733264  0.00188057  0.25066414  1
  O2-  O216  1  0.00567001  0.14217246  0.00176273  1
  O2-  O217  1  0.00389311  0.16029956  0.32676448  1
  O2-  O218  1  -0.00894490  0.14565331  0.67159832  1
  O2-  O219  1  -0.00143027  0.65028024  0.00040988  1
  O2-  O220  1  -0.00943724  0.67332307  0.32525291  1
  O2-  O221  1  0.02172341  0.67463864  0.67326080  1
  O2-  O222  1  0.33233045  0.18135528  0.00398096  1
  O2-  O223  1  0.33363596  0.17023951  0.33316807  1
  O2-  O224  1  0.33679754  0.15588313  0.66845325  1
  O2-  O225  1  0.33079127  0.66426947  0.00520421  1
  O2-  O226  1  0.32817685  0.65695713  0.34066374  1
  O2-  O227  1  0.33001808  0.67124777  0.67843148  1
  O2-  O228  1  0.65379744  0.13667952  0.00836766  1
  O2-  O229  1  0.67585561  0.16147995  0.33442179  1
  O2-  O230  1  0.66248341  0.15958747  0.67134161  1
  O2-  O231  1  0.67141836  0.65698846  -0.00513448  1
  O2-  O232  1  0.66277699  0.64735615  0.32863803  1
  O2-  O233  1  0.67455461  0.66206968  0.66829161  1
  O2-  O234  1  0.16650164  0.14616231  -0.00084960  1
  O2-  O235  1  0.17461340  0.15753302  0.32852542  1
  O2-  O236  1  0.16432096  0.14970738  0.66773382  1
  O2-  O237  1  0.16459926  0.65223056  0.00826882  1
  O2-  O238  1  0.16564926  0.66616003  0.33459442  1
  O2-  O239  1  0.15705630  0.69644602  0.67773696  1
  O2-  O240  1  0.49231960  0.15652526  -0.00126650  1
  O2-  O241  1  0.50501227  0.17353872  0.33771130  1
  O2-  O242  1  0.49420033  0.14377619  0.67481830  1
  O2-  O243  1  0.49863988  0.66230974  -0.00554949  1
  O2-  O244  1  0.50293268  0.64679097  0.33863249  1
  O2-  O245  1  0.50518645  0.65564900  0.67143464  1
  O2-  O246  1  0.83931863  0.14018350  0.00445815  1
  O2-  O247  1  0.83633544  0.16656032  0.33840694  1
  O2-  O248  1  0.83534750  0.16514523  0.66208656  1
  O2-  O249  1  0.83092160  0.65613437  -0.00298037  1
  O2-  O250  1  0.82757935  0.66647933  0.32728166  1
  O2-  O251  1  0.82978368  0.68851994  0.67309199  1
  O2-  O252  1  0.00361508  0.34074789  -0.00078482  1
  O2-  O253  1  -0.00307260  0.34040465  0.33657008  1
  O2-  O254  1  -0.00922232  0.34728813  0.67074005  1
  O2-  O255  1  -0.00032389  0.84342477  -0.00285826  1
  O2-  O256  1  0.00081546  0.84625462  0.33067621  1
  O2-  O257  1  -0.00336745  0.84700138  0.66835273  1
  O2-  O258  1  0.33609475  0.32011004  -0.00173327  1
  O2-  O259  1  0.33168308  0.34443373  0.33472302  1
  O2-  O260  1  0.33328223  0.35253063  0.66779225  1
  O2-  O261  1  0.33260501  0.81518092  -0.00385014  1
  O2-  O262  1  0.33263370  0.84731399  0.33446751  1
  O2-  O263  1  0.32880615  0.83666456  0.66674445  1
  O2-  O264  1  0.66839752  0.34911185  -0.00530349  1
  O2-  O265  1  0.67348915  0.33991253  0.33479129  1
  O2-  O266  1  0.66492538  0.34232217  0.66865909  1
  O2-  O267  1  0.66698003  0.84372011  0.00585723  1
  O2-  O268  1  0.66982462  0.84587808  0.33042707  1
  O2-  O269  1  0.67174166  0.82512284  0.66811656  1
  O2-  O270  1  0.17151512  0.32660334  -0.00267551  1
  O2-  O271  1  0.16233326  0.35149970  0.32874146  1
  O2-  O272  1  0.16283092  0.35044755  0.66019536  1
  O2-  O273  1  0.17058753  0.81364790  -0.00262197  1
  O2-  O274  1  0.16849763  0.84634804  0.33525928  1
  O2-  O275  1  0.16584359  0.83040278  0.66714222  1
  O2-  O276  1  0.49456137  0.32642495  -0.00089131  1
  O2-  O277  1  0.50303343  0.33761264  0.33955948  1
  O2-  O278  1  0.49973757  0.35309499  0.66809357  1
  O2-  O279  1  0.50076366  0.83956189  0.00116735  1
  O2-  O280  1  0.49782179  0.85358519  0.32866914  1
  O2-  O281  1  0.49395243  0.84748302  0.66763720  1
  O2-  O282  1  0.83148483  0.34903144  -0.00390946  1
  O2-  O283  1  0.83637015  0.31394548  0.33333663  1
  O2-  O284  1  0.83400207  0.32734281  0.66808756  1
  O2-  O285  1  0.83230333  0.84781763  0.00178926  1
  O2-  O286  1  0.83887057  0.83930899  0.33244568  1
  O2-  O287  1  0.83538865  0.84160151  0.66795682  1
  O2-  O288  1  -0.00503085  0.18423482  0.15872325  1
  O2-  O289  1  -0.00040167  0.18435137  0.51051684  1
  O2-  O290  1  0.00534847  0.18515171  0.83810500  1
  O2-  O291  1  -0.00133757  0.68566179  0.16939403  1
  O2-  O292  1  0.00072668  0.67018674  0.50264649  1
  O2-  O293  1  -0.00058498  0.67954643  0.84271433  1
  O2-  O294  1  0.32995726  0.18872860  0.16474486  1
  O2-  O295  1  0.33988656  0.17928433  0.49565018  1
  O2-  O296  1  0.32726992  0.17748594  0.82308677  1
  O2-  O297  1  0.32845838  0.67370037  0.15550809  1
  O2-  O298  1  0.33030439  0.68771839  0.49785683  1
  O2-  O299  1  0.34162140  0.68280427  0.83754398  1
  O2-  O300  1  0.66994522  0.17142993  0.17283649  1
  O2-  O301  1  0.66899466  0.18518190  0.49142085  1
  O2-  O302  1  0.67058414  0.16889406  0.83417085  1
  O2-  O303  1  0.67045110  0.68377786  0.16784206  1
  O2-  O304  1  0.65877397  0.67561964  0.49142485  1
  O2-  O305  1  0.66978674  0.68282543  0.82453099  1
  O2-  O306  1  0.16654263  0.18439989  0.17286634  1
  O2-  O307  1  0.16966522  0.17618240  0.49943205  1
  O2-  O308  1  0.16448590  0.17485279  0.83109695  1
  O2-  O309  1  0.16406733  0.67816745  0.16071231  1
  O2-  O310  1  0.17939664  0.68904506  0.50157466  1
  O2-  O311  1  0.16347850  0.68638284  0.83318102  1
  O2-  O312  1  0.50852141  0.18316190  0.15307729  1
  O2-  O313  1  0.49153346  0.18112712  0.49809212  1
  O2-  O314  1  0.49560212  0.18648661  0.83315347  1
  O2-  O315  1  0.49806680  0.68078635  0.16641745  1
  O2-  O316  1  0.50030174  0.67546455  0.49429301  1
  O2-  O317  1  0.50608760  0.67698993  0.83318175  1
  O2-  O318  1  0.83045766  0.19554210  0.17022241  1
  O2-  O319  1  0.83592326  0.19363458  0.49651397  1
  O2-  O320  1  0.84261509  0.17741113  0.81824436  1
  O2-  O321  1  0.83063116  0.68517818  0.16991099  1
  O2-  O322  1  0.83625322  0.67686099  0.48855379  1
  O2-  O323  1  0.83166685  0.68036214  0.83258330  1
  O2-  O324  1  0.00445451  0.31337112  0.17504972  1
  O2-  O325  1  0.00317972  0.32590559  0.50706387  1
  O2-  O326  1  -0.00114529  0.32410388  0.83166010  1
  O2-  O327  1  -0.00669638  0.82069010  0.15910917  1
  O2-  O328  1  -0.00503041  0.83261908  0.49401739  1
  O2-  O329  1  -0.00728185  0.81741146  0.82511645  1
  O2-  O330  1  0.33672566  0.31736249  0.16863254  1
  O2-  O331  1  0.33797834  0.32383824  0.50423581  1
  O2-  O332  1  0.32953744  0.31367087  0.83159689  1
  O2-  O333  1  0.33947333  0.82307785  0.17309680  1
  O2-  O334  1  0.33680030  0.81766865  0.50439741  1
  O2-  O335  1  0.32490392  0.81682000  0.82577213  1
  O2-  O336  1  0.67038839  0.32572203  0.16794822  1
  O2-  O337  1  0.66042363  0.32213195  0.49231810  1
  O2-  O338  1  0.66574665  0.32782217  0.83140973  1
  O2-  O339  1  0.66434202  0.82203919  0.16468543  1
  O2-  O340  1  0.67245244  0.82345624  0.51008041  1
  O2-  O341  1  0.67259438  0.82161993  0.83687530  1
  O2-  O342  1  0.16411123  0.32257845  0.16891191  1
  O2-  O343  1  0.17789292  0.33020495  0.49150207  1
  O2-  O344  1  0.17101665  0.31767276  0.82646908  1
  O2-  O345  1  0.16074463  0.82331119  0.17180181  1
  O2-  O346  1  0.16500797  0.82587392  0.49984831  1
  O2-  O347  1  0.16714872  0.81381811  0.82685270  1
  O2-  O348  1  0.49066554  0.31510218  0.16681282  1
  O2-  O349  1  0.49801028  0.32292063  0.50085294  1
  O2-  O350  1  0.50097054  0.31729443  0.83371447  1
  O2-  O351  1  0.50114559  0.83561157  0.16462836  1
  O2-  O352  1  0.49522682  0.82691124  0.50601169  1
  O2-  O353  1  0.49816398  0.82091068  0.83542363  1
  O2-  O354  1  0.83063309  0.31808669  0.17153840  1
  O2-  O355  1  0.83639390  0.31131481  0.50129220  1
  O2-  O356  1  0.83572254  0.32949461  0.83184986  1
  O2-  O357  1  0.83372985  0.81584614  0.16571048  1
  O2-  O358  1  0.83718371  0.81918089  0.49729663  1
  O2-  O359  1  0.83483862  0.81339530  0.82874463  1
  O2-  O360  1  0.07169179  0.08189386  0.13851686  1
  O2-  O361  1  0.08795446  0.08026921  0.42593694  1
  O2-  O362  1  0.07357848  0.08025238  0.78217670  1
  O2-  O363  1  0.08758042  0.58156867  0.12739039  1
  O2-  O364  1  0.07821261  0.58022531  0.41902989  1
  O2-  O365  1  0.10174060  0.56873884  0.77655361  1
  O2-  O366  1  0.41700376  0.08519611  0.11169328  1
  O2-  O367  1  0.42452145  0.08031344  0.43738567  1
  O2-  O368  1  0.40510999  0.08131390  0.78866034  1
  O2-  O369  1  0.40100709  0.58325971  0.09586532  1
  O2-  O370  1  0.43763062  0.58133473  0.44709288  1
  O2-  O371  1  0.42102413  0.58373509  0.78101629  1
  O2-  O372  1  0.76897407  0.07943313  0.13210142  1
  O2-  O373  1  0.74906626  0.08587818  0.42591279  1
  O2-  O374  1  0.76821673  0.08245706  0.77384059  1
  O2-  O375  1  0.75201226  0.58137279  0.11463939  1
  O2-  O376  1  0.74072429  0.58326901  0.43262383  1
  O2-  O377  1  0.73736705  0.57582109  0.79265998  1
  O2-  O378  1  0.23686280  0.08372273  0.21766363  1
  O2-  O379  1  0.27007008  0.07811557  0.55960424  1
  O2-  O380  1  0.24217869  0.07143872  0.87182006  1
  O2-  O381  1  0.23074868  0.57140279  0.22234181  1
  O2-  O382  1  0.23934123  0.57815274  0.56437415  1
  O2-  O383  1  0.24858347  0.57319046  0.87376037  1
  O2-  O384  1  0.58972743  0.07962800  0.22811741  1
  O2-  O385  1  0.55484710  0.07628857  0.54906266  1
  O2-  O386  1  0.55547076  0.07856499  0.88147767  1
  O2-  O387  1  0.58739850  0.58182257  0.21184030  1
  O2-  O388  1  0.58913215  0.57678483  0.56234629  1
  O2-  O389  1  0.58748645  0.58057969  0.88849722  1
  O2-  O390  1  0.91008000  0.08688563  0.21177565  1
  O2-  O391  1  0.91610993  0.08296722  0.54615982  1
  O2-  O392  1  0.93643905  0.08058300  0.88856350  1
  O2-  O393  1  0.91716335  0.58136817  0.23087261  1
  O2-  O394  1  0.91307675  0.56166178  0.54615089  1
  O2-  O395  1  0.91312789  0.57705446  0.88576551  1
  O2-  O396  1  0.08187509  0.41963325  0.10896655  1
  O2-  O397  1  0.09209945  0.42130695  0.45206978  1
  O2-  O398  1  0.08583888  0.42157587  0.77962793  1
  O2-  O399  1  0.06387528  0.91817156  0.11170408  1
  O2-  O400  1  0.07780701  0.91835813  0.44353989  1
  O2-  O401  1  0.09017748  0.91322860  0.76254071  1
  O2-  O402  1  0.42046628  0.41570653  0.09668748  1
  O2-  O403  1  0.42761214  0.42160081  0.44891866  1
  O2-  O404  1  0.40819492  0.41847999  0.79600278  1
  O2-  O405  1  0.41608031  0.91765558  0.10601067  1
  O2-  O406  1  0.40508121  0.92033037  0.45030473  1
  O2-  O407  1  0.39087810  0.91423096  0.76799677  1
  O2-  O408  1  0.75231688  0.42525313  0.12059822  1
  O2-  O409  1  0.73932658  0.41935853  0.43358533  1
  O2-  O410  1  0.75346143  0.41816932  0.77371707  1
  O2-  O411  1  0.75374204  0.91457997  0.11492151  1
  O2-  O412  1  0.77160311  0.91717691  0.44154154  1
  O2-  O413  1  0.77656629  0.91703978  0.77728777  1
  O2-  O414  1  0.25977371  0.41812831  0.22591724  1
  O2-  O415  1  0.26886173  0.42657282  0.54292809  1
  O2-  O416  1  0.26198320  0.42109038  0.88940746  1
  O2-  O417  1  0.26354848  0.92002444  0.22404396  1
  O2-  O418  1  0.26130616  0.91695708  0.56841251  1
  O2-  O419  1  0.24295322  0.91262154  0.88276152  1
  O2-  O420  1  0.57262797  0.41395056  0.23491754  1
  O2-  O421  1  0.57077289  0.42300666  0.54508515  1
  O2-  O422  1  0.57393448  0.42664844  0.88802800  1
  O2-  O423  1  0.58541253  0.92473893  0.20850984  1
  O2-  O424  1  0.58259262  0.91550123  0.56521636  1
  O2-  O425  1  0.59538660  0.91783433  0.91947726  1
  O2-  O426  1  0.91321262  0.41703883  0.23569343  1
  O2-  O427  1  0.91766960  0.43337488  0.54212195  1
  O2-  O428  1  0.91084568  0.43696757  0.88183418  1
  O2-  O429  1  0.91281588  0.91928812  0.21528998  1
  O2-  O430  1  0.90901229  0.91825797  0.55215746  1
  O2-  O431  1  0.91030737  0.91478201  0.89612871  1
  O2-  O432  1  0.01022118  0.01687505  0.01076252  1
  O2-  O433  1  -0.00015232  0.01086594  0.33561012  1
  O2-  O434  1  -0.00096286  0.00712226  0.67417253  1
  O2-  O435  1  0.01620265  0.51098167  -0.01952972  1
  O2-  O436  1  -0.00094917  0.48863216  0.33557287  1
  O2-  O437  1  -0.00377592  0.48433417  0.66298926  1
  O2-  O438  1  0.33708999  0.02466012  0.00229624  1
  O2-  O439  1  0.31707789  -0.00980896  0.35030099  1
  O2-  O440  1  0.35338872  0.01197680  0.66300256  1
  O2-  O441  1  0.32815749  0.50555975  -0.00755838  1
  O2-  O442  1  0.32712842  0.48168089  0.34534807  1
  O2-  O443  1  0.33717901  0.48681455  0.65997166  1
  O2-  O444  1  0.65424863  0.01533060  0.02028538  1
  O2-  O445  1  0.68206726  -0.00402499  0.30463347  1
  O2-  O446  1  0.67316713  0.01137938  0.66824948  1
  O2-  O447  1  0.67893078  0.49890293  -0.01603553  1
  O2-  O448  1  0.65607155  0.50168329  0.33967041  1
  O2-  O449  1  0.64818392  0.50611352  0.69897567  1
  O2-  O450  1  0.16893748  0.02179989  -0.00370486  1
  O2-  O451  1  0.15495445  -0.00339003  0.31697621  1
  O2-  O452  1  0.19742431  0.00307482  0.69784269  1
  O2-  O453  1  0.17309709  0.52704108  0.01228237  1
  O2-  O454  1  0.16805190  0.48718582  0.33968467  1
  O2-  O455  1  0.16923932  0.48188152  0.66850382  1
  O2-  O456  1  0.51225627  0.00006520  0.04979394  1
  O2-  O457  1  0.47191920  -0.01119494  0.30303338  1
  O2-  O458  1  0.50983739  -0.00013619  0.67307966  1
  O2-  O459  1  0.47401967  0.50750274  -0.04358089  1
  O2-  O460  1  0.50057092  0.49525744  0.33393480  1
  O2-  O461  1  0.49391780  0.48294977  0.66236580  1
  O2-  O462  1  0.85530828  -0.00478622  0.02857206  1
  O2-  O463  1  0.83541504  0.00582612  0.32467523  1
  O2-  O464  1  0.84871472  -0.00316549  0.68883195  1
  O2-  O465  1  0.83454616  0.50215172  -0.01066164  1
  O2-  O466  1  0.82596208  0.49626094  0.32186282  1
  O2-  O467  1  0.83301572  0.49292516  0.66960536  1
  O2-  O468  1  0.06876202  0.74229801  0.05879841  1
  O2-  O469  1  0.24932064  0.75398874  0.26559189  1
  O2-  O470  1  0.58757126  0.74974639  0.93271330  1
  O2-  O471  1  0.08125868  0.25346649  0.71708441  1
  O2-  O472  1  0.90940133  0.24790669  0.93954910  1
  O2-  O473  1  0.57907544  0.25521129  0.60223137  1
  O2-  O474  1  0.59265108  0.25120421  0.26774651  1
  O2-  O475  1  0.24812926  0.25656454  0.60504295  1
  O2-  O476  1  0.74220302  0.25632684  0.05386682  1
  O2-  O477  1  0.91311485  0.74817947  0.94267868  1
  O2-  O478  1  0.24419439  0.25378869  0.27608111  1
  O2-  O479  1  0.93115621  0.74962004  0.59213351  1
  O2-  O480  1  0.08770781  0.25676915  0.40435072  1
  O2-  O481  1  0.73513472  0.75054514  0.39575010  1
  O2-  O482  1  0.60135032  0.24199695  0.93918308  1
  O2-  O483  1  0.58275768  0.75048613  0.27867760  1
  O2-  O484  1  0.43133683  0.74959442  0.07557252  1
  O2-  O485  1  0.74820842  0.74896336  0.05850705  1
  O2-  O486  1  0.08078844  0.75359539  0.40484729  1
  O2-  O487  1  0.43241455  0.74878972  0.38368809  1
  O2-  O488  1  0.41988684  0.25150154  0.72085772  1
  O2-  O489  1  0.08359841  0.25205814  0.05804972  1
  O2-  O490  1  0.74086193  0.24998629  0.74031520  1
  O2-  O491  1  0.43101124  0.75115476  0.73082787  1
  O2-  O492  1  0.56946076  0.74862039  0.59758696  1
