# generated using pymatgen
data_Ca108Mn108O277
_symmetry_space_group_name_H-M   'P 1'
_cell_length_a   16.02984885
_cell_length_b   22.30933014
_cell_length_c   16.39181796
_cell_angle_alpha   89.99693170
_cell_angle_beta   89.99584523
_cell_angle_gamma   90.00278006
_symmetry_Int_Tables_number   1
_chemical_formula_structural   Ca108Mn108O277
_chemical_formula_sum   'Ca108 Mn108 O277'
_cell_volume   5861.96306481
_cell_formula_units_Z   1
loop_
 _symmetry_equiv_pos_site_id
 _symmetry_equiv_pos_as_xyz
  1  'x, y, z'
loop_
 _atom_type_symbol
 _atom_type_oxidation_number
  Ca2+  2.0
  Mn3.34+  3.34
  O2-  -2.0
loop_
 _atom_site_type_symbol
 _atom_site_label
 _atom_site_symmetry_multiplicity
 _atom_site_fract_x
 _atom_site_fract_y
 _atom_site_fract_z
 _atom_site_occupancy
  Ca2+  Ca0  1  0.08153108  0.25031039  0.23428019  1
  Ca2+  Ca1  1  0.06387379  0.24008288  0.59042320  1
  Ca2+  Ca2  1  0.07075618  0.24019542  0.92646620  1
  Ca2+  Ca3  1  0.09007839  0.75713987  0.25139180  1
  Ca2+  Ca4  1  0.06294328  0.75220340  0.57803896  1
  Ca2+  Ca5  1  0.06096297  0.74664603  0.92542468  1
  Ca2+  Ca6  1  0.40433084  0.23240169  0.25879646  1
  Ca2+  Ca7  1  0.42957233  0.23679710  0.57465968  1
  Ca2+  Ca8  1  0.42683308  0.26114829  0.91691307  1
  Ca2+  Ca9  1  0.40089959  0.75759773  0.24418942  1
  Ca2+  Ca10  1  0.40812191  0.77474028  0.58993322  1
  Ca2+  Ca11  1  0.40655906  0.76553740  0.92930182  1
  Ca2+  Ca12  1  0.74974877  0.24802995  0.25378731  1
  Ca2+  Ca13  1  0.75991346  0.23263768  0.57951151  1
  Ca2+  Ca14  1  0.74899623  0.25200064  0.91933482  1
  Ca2+  Ca15  1  0.76443616  0.75104371  0.23796655  1
  Ca2+  Ca16  1  0.78036974  0.74973904  0.58661699  1
  Ca2+  Ca17  1  0.77803550  0.74821614  0.91797806  1
  Ca2+  Ca18  1  0.22241341  0.24202037  0.08623627  1
  Ca2+  Ca19  1  0.26102220  0.24095745  0.43017031  1
  Ca2+  Ca20  1  0.23607379  0.24502456  0.74005499  1
  Ca2+  Ca21  1  0.24461960  0.74432952  0.10358847  1
  Ca2+  Ca22  1  0.23763132  0.75149722  0.39648025  1
  Ca2+  Ca23  1  0.25303367  0.77098146  0.74970419  1
  Ca2+  Ca24  1  0.59527793  0.25095750  0.07953316  1
  Ca2+  Ca25  1  0.58122743  0.23658548  0.43859729  1
  Ca2+  Ca26  1  0.58357554  0.25698586  0.73458499  1
  Ca2+  Ca27  1  0.56154778  0.74626022  0.09211929  1
  Ca2+  Ca28  1  0.58564830  0.76254715  0.41033447  1
  Ca2+  Ca29  1  0.59136925  0.76460759  0.74715603  1
  Ca2+  Ca30  1  0.92190590  0.25316789  0.08048825  1
  Ca2+  Ca31  1  0.91201726  0.25074522  0.44227298  1
  Ca2+  Ca32  1  0.92654359  0.24815033  0.73381605  1
  Ca2+  Ca33  1  0.92085538  0.74216599  0.07852152  1
  Ca2+  Ca34  1  0.92855878  0.75689822  0.42301752  1
  Ca2+  Ca35  1  0.91443768  0.73793572  0.74346027  1
  Ca2+  Ca36  1  0.73460454  0.08094859  0.26684544  1
  Ca2+  Ca37  1  0.10701370  0.10712858  0.23652336  1
  Ca2+  Ca38  1  0.88354262  0.08414342  0.43441037  1
  Ca2+  Ca39  1  0.38664958  0.61508593  0.22106332  1
  Ca2+  Ca40  1  0.61295059  0.58408647  0.75387428  1
  Ca2+  Ca41  1  0.60419605  0.08898644  0.08335386  1
  Ca2+  Ca42  1  0.40752332  0.58555407  0.58089769  1
  Ca2+  Ca43  1  0.07242466  0.60000344  0.24448350  1
  Ca2+  Ca44  1  0.07736805  0.60619870  0.24077326  1
  Ca2+  Ca45  1  0.79421646  0.59430969  0.59040009  1
  Ca2+  Ca46  1  0.42217877  0.09730895  0.93001679  1
  Ca2+  Ca47  1  0.43513181  0.08436340  0.57521024  1
  Ca2+  Ca48  1  0.77644806  0.59255913  0.23225241  1
  Ca2+  Ca49  1  0.91820777  0.08506301  0.07371598  1
  Ca2+  Ca50  1  0.40920433  0.09692837  0.93088439  1
  Ca2+  Ca51  1  0.60025148  0.58412605  0.75361858  1
  Ca2+  Ca52  1  0.42268881  0.58989210  0.94714437  1
  Ca2+  Ca53  1  0.60940091  0.07657522  0.68201215  1
  Ca2+  Ca54  1  0.24163389  0.59202280  0.74765224  1
  Ca2+  Ca55  1  0.91580222  0.61073673  0.41845214  1
  Ca2+  Ca56  1  0.26565898  0.09201716  0.40790785  1
  Ca2+  Ca57  1  0.59775388  0.08977241  0.44387510  1
  Ca2+  Ca58  1  0.43132558  0.58471434  0.94804984  1
  Ca2+  Ca59  1  0.23521862  0.12162357  0.10101572  1
  Ca2+  Ca60  1  0.60067932  0.59100974  0.08718196  1
  Ca2+  Ca61  1  0.78658901  0.60570395  0.92114865  1
  Ca2+  Ca62  1  0.00816417  0.59620415  0.57965848  1
  Ca2+  Ca63  1  0.75773478  0.07518805  0.93928604  1
  Ca2+  Ca64  1  0.24683961  0.60119024  0.39444333  1
  Ca2+  Ca65  1  0.93445325  0.08728132  0.74058847  1
  Ca2+  Ca66  1  0.92954006  0.08439825  0.07413451  1
  Ca2+  Ca67  1  0.41972907  0.58698031  0.58262278  1
  Ca2+  Ca68  1  0.58077791  0.57212135  0.38958773  1
  Ca2+  Ca69  1  0.07701654  0.08369119  0.60359288  1
  Ca2+  Ca70  1  0.90576939  0.60359548  0.06959844  1
  Ca2+  Ca71  1  0.08774528  0.09860004  0.91793996  1
  Ca2+  Ca72  1  0.58605385  0.89833893  0.08700458  1
  Ca2+  Ca73  1  0.59795088  0.89993923  0.08578186  1
  Ca2+  Ca74  1  0.74105814  0.92708539  0.58793524  1
  Ca2+  Ca75  1  0.23563384  0.40457600  0.42255441  1
  Ca2+  Ca76  1  0.74681302  0.91755569  0.26419814  1
  Ca2+  Ca77  1  0.58542977  0.40827494  0.41085923  1
  Ca2+  Ca78  1  0.91659187  0.91268491  0.74713741  1
  Ca2+  Ca79  1  0.92482878  0.90579644  0.08461715  1
  Ca2+  Ca80  1  0.91124511  0.41196582  0.07780008  1
  Ca2+  Ca81  1  0.08715193  0.90955371  0.58728990  1
  Ca2+  Ca82  1  0.06403985  0.39995888  0.91546404  1
  Ca2+  Ca83  1  0.58354493  0.92051524  0.71579590  1
  Ca2+  Ca84  1  0.58797655  0.41123124  0.06553238  1
  Ca2+  Ca85  1  0.44273624  0.41113326  0.24465503  1
  Ca2+  Ca86  1  0.41350874  0.40411115  0.58882125  1
  Ca2+  Ca87  1  0.75096074  0.40812805  0.90332073  1
  Ca2+  Ca88  1  0.43109986  0.41358273  0.24895911  1
  Ca2+  Ca89  1  0.77009927  0.41323142  0.24494110  1
  Ca2+  Ca90  1  0.04885184  0.40956546  0.57810801  1
  Ca2+  Ca91  1  0.05295057  0.41790883  0.25179534  1
  Ca2+  Ca92  1  0.77961226  0.41427182  0.61429911  1
  Ca2+  Ca93  1  0.24773591  0.40430210  0.42293881  1
  Ca2+  Ca94  1  0.24283543  0.39672965  0.08313735  1
  Ca2+  Ca95  1  0.40084539  0.40354328  0.58944204  1
  Ca2+  Ca96  1  0.75725629  0.91773992  0.26546438  1
  Ca2+  Ca97  1  0.58392720  0.91724719  0.42739966  1
  Ca2+  Ca98  1  0.08390954  0.90506911  0.91460394  1
  Ca2+  Ca99  1  0.25021514  0.39743996  0.75303919  1
  Ca2+  Ca100  1  0.25569089  0.39627833  0.08312015  1
  Ca2+  Ca101  1  0.59078179  0.40233480  0.41496458  1
  Ca2+  Ca102  1  0.90594179  0.91236846  0.74692159  1
  Ca2+  Ca103  1  0.91490446  0.90897943  0.08125780  1
  Ca2+  Ca104  1  0.25278676  0.90054724  0.42026517  1
  Ca2+  Ca105  1  0.07634065  0.39903830  0.91706902  1
  Ca2+  Ca106  1  0.75084035  0.90560836  0.91109140  1
  Ca2+  Ca107  1  0.75792893  0.41575682  0.24693244  1
  Mn3.34+  Mn108  1  0.07705186  0.33180033  0.08822768  1
  Mn3.34+  Mn109  1  0.07442851  0.33366208  0.41761636  1
  Mn3.34+  Mn110  1  0.07854212  0.32978940  0.74824616  1
  Mn3.34+  Mn111  1  0.09103438  0.83453150  0.08620505  1
  Mn3.34+  Mn112  1  0.08402703  0.83758788  0.41717935  1
  Mn3.34+  Mn113  1  0.08539602  0.84374132  0.75493425  1
  Mn3.34+  Mn114  1  0.41805554  0.32320520  0.08594977  1
  Mn3.34+  Mn115  1  0.41548831  0.33089935  0.41842381  1
  Mn3.34+  Mn116  1  0.41890298  0.33180927  0.75326129  1
  Mn3.34+  Mn117  1  0.40685210  0.83285270  0.08392989  1
  Mn3.34+  Mn118  1  0.41507722  0.83825961  0.42059542  1
  Mn3.34+  Mn119  1  0.41689875  0.83670088  0.75522168  1
  Mn3.34+  Mn120  1  0.75211096  0.33014711  0.07972232  1
  Mn3.34+  Mn121  1  0.75677400  0.33308225  0.42391990  1
  Mn3.34+  Mn122  1  0.75009439  0.33775854  0.75079116  1
  Mn3.34+  Mn123  1  0.75216986  0.83061856  0.08381052  1
  Mn3.34+  Mn124  1  0.75088154  0.84229573  0.42516422  1
  Mn3.34+  Mn125  1  0.74872285  0.83417004  0.74939364  1
  Mn3.34+  Mn126  1  0.24845552  0.32452367  0.25154069  1
  Mn3.34+  Mn127  1  0.24033885  0.32663748  0.58567254  1
  Mn3.34+  Mn128  1  0.25151677  0.32207625  0.91162008  1
  Mn3.34+  Mn129  1  0.24919139  0.83144943  0.24936167  1
  Mn3.34+  Mn130  1  0.25003513  0.83997459  0.58578628  1
  Mn3.34+  Mn131  1  0.24937124  0.83668428  0.91956210  1
  Mn3.34+  Mn132  1  0.58714821  0.33099625  0.24246224  1
  Mn3.34+  Mn133  1  0.58685585  0.33022463  0.58569301  1
  Mn3.34+  Mn134  1  0.58565084  0.33253087  0.91088748  1
  Mn3.34+  Mn135  1  0.57666789  0.83477513  0.25356646  1
  Mn3.34+  Mn136  1  0.58517088  0.83686800  0.57864519  1
  Mn3.34+  Mn137  1  0.58344959  0.82972989  0.91181288  1
  Mn3.34+  Mn138  1  0.91672768  0.33537761  0.25374554  1
  Mn3.34+  Mn139  1  0.91294128  0.33177478  0.58670572  1
  Mn3.34+  Mn140  1  0.90873061  0.33064369  0.90909940  1
  Mn3.34+  Mn141  1  0.92331222  0.83353946  0.25485089  1
  Mn3.34+  Mn142  1  0.91588183  0.83815059  0.57714522  1
  Mn3.34+  Mn143  1  0.91886122  0.83214675  0.91145923  1
  Mn3.34+  Mn144  1  0.58623927  0.67456886  0.91642032  1
  Mn3.34+  Mn145  1  0.74548016  0.16087710  0.75572069  1
  Mn3.34+  Mn146  1  0.90916638  0.16599235  0.25045339  1
  Mn3.34+  Mn147  1  0.07844423  0.66776304  0.41916086  1
  Mn3.34+  Mn148  1  0.75213318  0.66967419  0.41770533  1
  Mn3.34+  Mn149  1  0.59422395  0.68417068  0.91864867  1
  Mn3.34+  Mn150  1  0.07762864  0.15870550  0.42276421  1
  Mn3.34+  Mn151  1  0.23896766  0.66646926  0.58052636  1
  Mn3.34+  Mn152  1  0.58830302  0.16924273  0.91654914  1
  Mn3.34+  Mn153  1  0.58397894  0.67347881  0.57728926  1
  Mn3.34+  Mn154  1  0.23626105  0.66616961  0.91791013  1
  Mn3.34+  Mn155  1  0.59236002  0.67952019  0.58022613  1
  Mn3.34+  Mn156  1  0.41778890  0.17334396  0.09125813  1
  Mn3.34+  Mn157  1  0.24934225  0.17305094  0.91195875  1
  Mn3.34+  Mn158  1  0.08766603  0.16363201  0.42030597  1
  Mn3.34+  Mn159  1  0.75712657  0.15359400  0.75550814  1
  Mn3.34+  Mn160  1  0.24640694  0.67106234  0.91955906  1
  Mn3.34+  Mn161  1  0.76246300  0.66802996  0.75358234  1
  Mn3.34+  Mn162  1  0.75076060  0.16502189  0.08613188  1
  Mn3.34+  Mn163  1  0.08647280  0.16139910  0.75313235  1
  Mn3.34+  Mn164  1  0.91593150  0.16693379  0.91271523  1
  Mn3.34+  Mn165  1  0.74502298  0.16522841  0.41997199  1
  Mn3.34+  Mn166  1  0.24978391  0.15830735  0.58433138  1
  Mn3.34+  Mn167  1  0.07860635  0.66851226  0.08348457  1
  Mn3.34+  Mn168  1  0.58027078  0.65910673  0.24957425  1
  Mn3.34+  Mn169  1  0.41828582  0.67210648  0.41764748  1
  Mn3.34+  Mn170  1  0.07735958  0.66586874  0.75404237  1
  Mn3.34+  Mn171  1  0.57902013  0.16379953  0.24771527  1
  Mn3.34+  Mn172  1  0.25063518  0.67255066  0.58258653  1
  Mn3.34+  Mn173  1  0.41661373  0.66857702  0.75582795  1
  Mn3.34+  Mn174  1  0.41870565  0.16332367  0.41598576  1
  Mn3.34+  Mn175  1  0.42040773  0.16342473  0.75093900  1
  Mn3.34+  Mn176  1  0.91297813  0.67112993  0.24539446  1
  Mn3.34+  Mn177  1  0.41012452  0.15839746  0.75196397  1
  Mn3.34+  Mn178  1  0.91944136  0.16118354  0.24802209  1
  Mn3.34+  Mn179  1  0.59355219  0.66628999  0.25155981  1
  Mn3.34+  Mn180  1  0.75127038  0.49881018  0.07044883  1
  Mn3.34+  Mn181  1  0.24766138  0.00077663  0.60071606  1
  Mn3.34+  Mn182  1  0.08004345  0.50108301  0.08066996  1
  Mn3.34+  Mn183  1  0.25510020  0.49502278  0.91401941  1
  Mn3.34+  Mn184  1  0.42162599  -0.00061514  0.41165214  1
  Mn3.34+  Mn185  1  0.41410688  0.00403672  0.09305664  1
  Mn3.34+  Mn186  1  0.24334930  -0.00532077  0.24876020  1
  Mn3.34+  Mn187  1  0.61063231  0.50397677  0.58502327  1
  Mn3.34+  Mn188  1  0.91435182  -0.00245494  0.60020593  1
  Mn3.34+  Mn189  1  0.91714823  0.00147993  0.91579121  1
  Mn3.34+  Mn190  1  0.07343010  0.50389119  0.74615220  1
  Mn3.34+  Mn191  1  0.25869582  -0.00267726  0.25229134  1
  Mn3.34+  Mn192  1  0.06230295  0.50081472  0.74354886  1
  Mn3.34+  Mn193  1  0.24379391  -0.00190566  0.89908774  1
  Mn3.34+  Mn194  1  0.09542927  -0.00245371  0.07930332  1
  Mn3.34+  Mn195  1  0.92769855  -0.00420860  0.26835931  1
  Mn3.34+  Mn196  1  0.24076486  0.50084675  0.91524536  1
  Mn3.34+  Mn197  1  0.23823745  0.49852870  0.24488072  1
  Mn3.34+  Mn198  1  0.56941107  0.00139619  0.26506912  1
  Mn3.34+  Mn199  1  0.41405606  0.50098259  0.75225559  1
  Mn3.34+  Mn200  1  0.24917468  0.50393187  0.24264905  1
  Mn3.34+  Mn201  1  0.58666303  0.49575494  0.91559626  1
  Mn3.34+  Mn202  1  0.06538939  0.50239465  0.40978300  1
  Mn3.34+  Mn203  1  0.58802346  0.00410251  0.90333509  1
  Mn3.34+  Mn204  1  0.57723871  -0.00196960  0.90365928  1
  Mn3.34+  Mn205  1  0.41204471  -0.00858972  0.73791993  1
  Mn3.34+  Mn206  1  0.41632502  0.50096961  0.41105817  1
  Mn3.34+  Mn207  1  0.91990554  0.49783173  0.91432349  1
  Mn3.34+  Mn208  1  0.23039555  0.50320229  0.59143774  1
  Mn3.34+  Mn209  1  0.25499746  0.00096097  0.90170364  1
  Mn3.34+  Mn210  1  0.78106075  0.49983032  0.42391809  1
  Mn3.34+  Mn211  1  0.59767323  0.50264366  0.58201765  1
  Mn3.34+  Mn212  1  0.41863920  0.49981488  0.08469018  1
  Mn3.34+  Mn213  1  0.07735420  -0.00168164  0.41289603  1
  Mn3.34+  Mn214  1  0.40233967  -0.00376954  0.09104033  1
  Mn3.34+  Mn215  1  0.76826038  0.50553836  0.42819113  1
  O2-  O216  1  -0.00626051  0.14891027  -0.00786936  1
  O2-  O217  1  0.00131464  0.14664749  0.33127575  1
  O2-  O218  1  0.00591988  0.15670282  0.67488735  1
  O2-  O219  1  -0.00409303  0.66648799  0.01063477  1
  O2-  O220  1  -0.00196443  0.65720825  0.33280394  1
  O2-  O221  1  0.01307187  0.67538622  0.66794164  1
  O2-  O222  1  0.34170116  0.17421332  -0.00803418  1
  O2-  O223  1  0.32957622  0.17183918  0.34365760  1
  O2-  O224  1  0.33528309  0.15122024  0.66570337  1
  O2-  O225  1  0.33123838  0.65098820  -0.00799324  1
  O2-  O226  1  0.34011987  0.67048436  0.34010074  1
  O2-  O227  1  0.33298802  0.64045997  0.66436587  1
  O2-  O228  1  0.67409725  0.14990863  -0.00258265  1
  O2-  O229  1  0.66448560  0.16918246  0.32548597  1
  O2-  O230  1  0.67323315  0.17467062  0.67305723  1
  O2-  O231  1  0.67061322  0.67867577  -0.00036099  1
  O2-  O232  1  0.66630154  0.65424435  0.33740303  1
  O2-  O233  1  0.66661158  0.65200420  0.66801931  1
  O2-  O234  1  0.17150921  0.16915994  -0.00749169  1
  O2-  O235  1  0.16826391  0.15429453  0.34600259  1
  O2-  O236  1  0.16567924  0.15550828  0.66471174  1
  O2-  O237  1  0.16241017  0.65758307  0.00246818  1
  O2-  O238  1  0.15387543  0.65527230  0.33539914  1
  O2-  O239  1  0.16890504  0.65623335  0.67049611  1
  O2-  O240  1  0.50343922  0.15306181  0.01065113  1
  O2-  O241  1  0.50179010  0.17317023  0.33241651  1
  O2-  O242  1  0.49990000  0.14635924  0.67428536  1
  O2-  O243  1  0.51040130  0.66073035  0.00136862  1
  O2-  O244  1  0.50595301  0.65373427  0.33737679  1
  O2-  O245  1  0.50446776  0.64415783  0.66488650  1
  O2-  O246  1  0.83687288  0.14853994  0.00242280  1
  O2-  O247  1  0.82887039  0.15009816  0.32537805  1
  O2-  O248  1  0.83654903  0.16683226  0.67897539  1
  O2-  O249  1  0.82893436  0.67741195  0.00793360  1
  O2-  O250  1  0.82690414  0.65894240  0.32740970  1
  O2-  O251  1  0.83716413  0.66178946  0.67398889  1
  O2-  O252  1  -0.00544036  0.34835789  0.00485714  1
  O2-  O253  1  0.00045583  0.34767912  0.33074703  1
  O2-  O254  1  -0.00209318  0.34053053  0.66946984  1
  O2-  O255  1  -0.00295713  0.85012348  -0.00423717  1
  O2-  O256  1  0.00144264  0.84134568  0.33446539  1
  O2-  O257  1  -0.00478061  0.85150716  0.66851341  1
  O2-  O258  1  0.32639971  0.31922305  0.00615730  1
  O2-  O259  1  0.33647685  0.34986289  0.32961835  1
  O2-  O260  1  0.32833777  0.33892753  0.66398017  1
  O2-  O261  1  0.33618097  0.84795438  -0.00327516  1
  O2-  O262  1  0.33294913  0.82614211  0.33889821  1
  O2-  O263  1  0.33355682  0.84566152  0.67096563  1
  O2-  O264  1  0.67005815  0.34280399  -0.00041844  1
  O2-  O265  1  0.67196999  0.35673569  0.32431253  1
  O2-  O266  1  0.67372035  0.32944261  0.66156883  1
  O2-  O267  1  0.66877293  0.83199166  0.00022402  1
  O2-  O268  1  0.66500421  0.84446608  0.33624233  1
  O2-  O269  1  0.66502591  0.83888312  0.66607623  1
  O2-  O270  1  0.16267785  0.34325278  -0.00179485  1
  O2-  O271  1  0.16740363  0.34534515  0.33261466  1
  O2-  O272  1  0.16147705  0.35010850  0.66631525  1
  O2-  O273  1  0.15982225  0.84218135  -0.00541223  1
  O2-  O274  1  0.17149299  0.84024053  0.33941689  1
  O2-  O275  1  0.15682659  0.83274507  0.66614639  1
  O2-  O276  1  0.50257567  0.33349725  0.00852729  1
  O2-  O277  1  0.50568011  0.34432286  0.33396112  1
  O2-  O278  1  0.49938189  0.34708227  0.66386626  1
  O2-  O279  1  0.51056886  0.83159813  0.00390518  1
  O2-  O280  1  0.49787983  0.82880424  0.34223115  1
  O2-  O281  1  0.50808673  0.83014161  0.66668674  1
  O2-  O282  1  0.83120833  0.35112876  -0.00452151  1
  O2-  O283  1  0.82870358  0.34888372  0.33053429  1
  O2-  O284  1  0.83149549  0.32389207  0.67254622  1
  O2-  O285  1  0.83301773  0.85106158  -0.00151710  1
  O2-  O286  1  0.82237122  0.84104990  0.32754921  1
  O2-  O287  1  0.83065045  0.85407069  0.66048398  1
  O2-  O288  1  -0.00779944  0.17337859  0.16431581  1
  O2-  O289  1  -0.00218577  0.17092750  0.49614850  1
  O2-  O290  1  -0.00172913  0.18116658  0.83467549  1
  O2-  O291  1  0.00254406  0.68564471  0.17441900  1
  O2-  O292  1  -0.00230125  0.67839494  0.49647787  1
  O2-  O293  1  0.00839470  0.69261805  0.82459868  1
  O2-  O294  1  0.33097683  0.19688421  0.15203789  1
  O2-  O295  1  0.33644716  0.17272265  0.50466298  1
  O2-  O296  1  0.33444379  0.18642156  0.83046839  1
  O2-  O297  1  0.33704422  0.69075109  0.16501294  1
  O2-  O298  1  0.33522344  0.68162165  0.50463873  1
  O2-  O299  1  0.32545607  0.67783056  0.83520079  1
  O2-  O300  1  0.66558894  0.18162531  0.16359106  1
  O2-  O301  1  0.66998035  0.17481364  0.49654381  1
  O2-  O302  1  0.66753894  0.19061303  0.82884793  1
  O2-  O303  1  0.66554744  0.67573298  0.16707697  1
  O2-  O304  1  0.66914138  0.69656534  0.49453287  1
  O2-  O305  1  0.66398565  0.68811878  0.82750944  1
  O2-  O306  1  0.16641126  0.18599185  0.18013104  1
  O2-  O307  1  0.16661950  0.18258432  0.50288001  1
  O2-  O308  1  0.16520119  0.18804066  0.83715528  1
  O2-  O309  1  0.15145733  0.67269953  0.16960702  1
  O2-  O310  1  0.16980874  0.68132490  0.49135208  1
  O2-  O311  1  0.16987475  0.68531104  0.82822980  1
  O2-  O312  1  0.50247229  0.19300459  0.16705788  1
  O2-  O313  1  0.49964527  0.16441394  0.49603346  1
  O2-  O314  1  0.48759378  0.17830054  0.84625812  1
  O2-  O315  1  0.50134890  0.67401009  0.17408163  1
  O2-  O316  1  0.49379535  0.69418733  0.50511878  1
  O2-  O317  1  0.50288111  0.68799714  0.83979652  1
  O2-  O318  1  0.83480338  0.18844796  0.16437853  1
  O2-  O319  1  0.83275135  0.17272266  0.48558027  1
  O2-  O320  1  0.83011123  0.18487673  0.83561276  1
  O2-  O321  1  0.83601660  0.68180648  0.16703380  1
  O2-  O322  1  0.83373273  0.68304379  0.48943273  1
  O2-  O323  1  0.83167545  0.68016590  0.83408526  1
  O2-  O324  1  -0.00300441  0.32670660  0.16898223  1
  O2-  O325  1  0.00135291  0.32302994  0.50457710  1
  O2-  O326  1  0.00653930  0.31822616  0.84378265  1
  O2-  O327  1  -0.00859633  0.82850853  0.15684945  1
  O2-  O328  1  0.00470452  0.82752529  0.50376480  1
  O2-  O329  1  -0.00219775  0.81862561  0.82772779  1
  O2-  O330  1  0.32941030  0.31960986  0.16652586  1
  O2-  O331  1  0.32761893  0.32553160  0.50066092  1
  O2-  O332  1  0.32901726  0.30967606  0.82698047  1
  O2-  O333  1  0.33184862  0.82476540  0.16654183  1
  O2-  O334  1  0.32771160  0.82090850  0.49526428  1
  O2-  O335  1  0.33429923  0.82187814  0.83643517  1
  O2-  O336  1  0.67068277  0.31412950  0.16628020  1
  O2-  O337  1  0.65143906  0.32852089  0.48306924  1
  O2-  O338  1  0.67087412  0.31649108  0.83054420  1
  O2-  O339  1  0.66600912  0.81236312  0.16009963  1
  O2-  O340  1  0.66983836  0.81348304  0.50131754  1
  O2-  O341  1  0.67390636  0.81382974  0.83978363  1
  O2-  O342  1  0.16967946  0.31864115  0.16209793  1
  O2-  O343  1  0.17103242  0.32389778  0.49187532  1
  O2-  O344  1  0.16144754  0.32105507  0.83650566  1
  O2-  O345  1  0.16457085  0.82214800  0.16799802  1
  O2-  O346  1  0.16697073  0.82029188  0.50223241  1
  O2-  O347  1  0.15853662  0.81529094  0.83618072  1
  O2-  O348  1  0.49069874  0.31477907  0.17708949  1
  O2-  O349  1  0.49475040  0.33575573  0.50339208  1
  O2-  O350  1  0.50232008  0.31846428  0.83151172  1
  O2-  O351  1  0.50580682  0.82489915  0.16271251  1
  O2-  O352  1  0.50349170  0.81462886  0.50012085  1
  O2-  O353  1  0.50216140  0.80811262  0.83583508  1
  O2-  O354  1  0.83101912  0.32353332  0.16862951  1
  O2-  O355  1  0.82341150  0.31604685  0.51112129  1
  O2-  O356  1  0.82835970  0.31369471  0.83194923  1
  O2-  O357  1  0.83780362  0.81992394  0.15870522  1
  O2-  O358  1  0.83503264  0.81969555  0.49520082  1
  O2-  O359  1  0.83919227  0.82412794  0.82647533  1
  O2-  O360  1  0.07555323  0.07421440  0.11149030  1
  O2-  O361  1  0.09372404  0.07738317  0.45945670  1
  O2-  O362  1  0.07827393  0.08325052  0.78212219  1
  O2-  O363  1  0.06418360  0.58368187  0.10697097  1
  O2-  O364  1  0.07693192  0.58343321  0.45010193  1
  O2-  O365  1  0.08729617  0.58336152  0.78293128  1
  O2-  O366  1  0.39066349  0.08421477  0.10469461  1
  O2-  O367  1  0.40696617  0.07970587  0.43586494  1
  O2-  O368  1  0.41229144  0.07307608  0.79875287  1
  O2-  O369  1  0.43712963  0.57864849  0.09682530  1
  O2-  O370  1  0.42501160  0.58266668  0.44795452  1
  O2-  O371  1  0.42245517  0.58264984  0.80023039  1
  O2-  O372  1  0.76111648  0.08584183  0.11473338  1
  O2-  O373  1  0.74109094  0.08340135  0.41955887  1
  O2-  O374  1  0.73511971  0.07663360  0.79735170  1
  O2-  O375  1  0.75515762  0.57502314  0.10042928  1
  O2-  O376  1  0.73947476  0.58131421  0.45340334  1
  O2-  O377  1  0.73597367  0.58793679  0.79472438  1
  O2-  O378  1  0.24537351  0.07586430  0.21756329  1
  O2-  O379  1  0.24708398  0.07604812  0.54802131  1
  O2-  O380  1  0.27336990  0.08484710  0.89252060  1
  O2-  O381  1  0.24390919  0.58570475  0.24352818  1
  O2-  O382  1  0.26678525  0.58234302  0.54204038  1
  O2-  O383  1  0.24970421  0.58027922  0.88008712  1
  O2-  O384  1  0.58389280  0.07667072  0.21651772  1
  O2-  O385  1  0.56727815  0.05735570  0.56054712  1
  O2-  O386  1  0.56894857  0.08571452  0.88681583  1
  O2-  O387  1  0.59560500  0.57755825  0.23363916  1
  O2-  O388  1  0.57310486  0.58267727  0.53198718  1
  O2-  O389  1  0.56981957  0.58112718  0.88602020  1
  O2-  O390  1  0.91272713  0.07680086  0.20961380  1
  O2-  O391  1  0.93027793  0.06649755  0.55983954  1
  O2-  O392  1  0.90851828  0.08229441  0.88219009  1
  O2-  O393  1  0.92383966  0.59025812  0.21916880  1
  O2-  O394  1  0.89191758  0.54901271  0.51351201  1
  O2-  O395  1  0.91628210  0.57517417  0.91841815  1
  O2-  O396  1  0.10399434  0.41852900  0.12075023  1
  O2-  O397  1  0.09862565  0.42158589  0.44863622  1
  O2-  O398  1  0.08457205  0.41924892  0.78451676  1
  O2-  O399  1  0.06801924  0.91858930  0.10061015  1
  O2-  O400  1  0.09989781  0.92069156  0.44628797  1
  O2-  O401  1  0.05714457  0.92065541  0.78147856  1
  O2-  O402  1  0.39357529  0.41863360  0.11507542  1
  O2-  O403  1  0.39540489  0.42081516  0.45414073  1
  O2-  O404  1  0.39469035  0.41669110  0.75256240  1
  O2-  O405  1  0.44606051  0.91901395  0.09871487  1
  O2-  O406  1  0.42361540  0.92056261  0.44253148  1
  O2-  O407  1  0.44328376  0.91779701  0.78116141  1
  O2-  O408  1  0.74311369  0.41927354  0.11160757  1
  O2-  O409  1  0.75385157  0.41953920  0.45851697  1
  O2-  O410  1  0.75413723  0.41577170  0.76266338  1
  O2-  O411  1  0.73313196  0.91843425  0.12407385  1
  O2-  O412  1  0.73442411  0.92051441  0.43982368  1
  O2-  O413  1  0.75860575  0.91547736  0.77683762  1
  O2-  O414  1  0.24912533  0.41808252  0.21511154  1
  O2-  O415  1  0.26316834  0.42129531  0.55595660  1
  O2-  O416  1  0.24495370  0.41389262  0.89183034  1
  O2-  O417  1  0.25893486  0.91452545  0.23939087  1
  O2-  O418  1  0.24452280  0.92224918  0.55710557  1
  O2-  O419  1  0.22812636  0.91659212  0.88403840  1
  O2-  O420  1  0.57038195  0.42023666  0.20243429  1
  O2-  O421  1  0.56867503  0.42366636  0.55293223  1
  O2-  O422  1  0.60313332  0.41546975  0.90068212  1
  O2-  O423  1  0.58952809  0.92134925  0.21885139  1
  O2-  O424  1  0.59294352  0.91533891  0.56335575  1
  O2-  O425  1  0.59768364  0.91662155  0.89358831  1
  O2-  O426  1  0.90613566  0.41854385  0.21857222  1
  O2-  O427  1  0.90963750  0.41122135  0.56971682  1
  O2-  O428  1  0.92828864  0.41586523  0.87918467  1
  O2-  O429  1  0.89686929  0.92098871  0.21786885  1
  O2-  O430  1  0.91667573  0.92714809  0.55446254  1
  O2-  O431  1  0.91599831  0.91987433  0.88532072  1
  O2-  O432  1  -0.01022504  0.00083871  0.01710023  1
  O2-  O433  1  -0.00618521  0.02972506  0.34502967  1
  O2-  O434  1  -0.01182180  -0.00421780  0.67837331  1
  O2-  O435  1  0.00619185  0.47514100  -0.00869360  1
  O2-  O436  1  0.03720038  0.51202241  0.29321628  1
  O2-  O437  1  0.03190109  0.50341155  0.63192422  1
  O2-  O438  1  0.33573088  0.00257412  -0.00948409  1
  O2-  O439  1  0.32602237  0.00027233  0.34424371  1
  O2-  O440  1  0.34944996  0.01470304  0.64914333  1
  O2-  O441  1  0.33839540  0.51214654  -0.00678409  1
  O2-  O442  1  0.34996843  0.48887378  0.30840259  1
  O2-  O443  1  0.35501702  0.50662825  0.63517412  1
  O2-  O444  1  0.65997623  0.00280519  -0.00128117  1
  O2-  O445  1  0.67042980  -0.00534624  0.30388091  1
  O2-  O446  1  0.66939746  -0.01072732  0.66445459  1
  O2-  O447  1  0.65150711  0.50659794  0.01550773  1
  O2-  O448  1  0.65827707  0.49015349  0.37740707  1
  O2-  O449  1  0.67415147  0.52136324  0.67473227  1
  O2-  O450  1  0.15284164  0.01346050  -0.02517641  1
  O2-  O451  1  0.16362343  0.00952444  0.32978830  1
  O2-  O452  1  0.14257176  -0.00197925  0.63011442  1
  O2-  O453  1  0.17851846  0.48192110  0.01036021  1
  O2-  O454  1  0.19548520  0.49422807  0.36067091  1
  O2-  O455  1  0.19440884  0.49815100  0.71061776  1
  O2-  O456  1  0.49525624  0.01686327  -0.00135491  1
  O2-  O457  1  0.53243625  0.00494038  0.37720964  1
  O2-  O458  1  0.51045894  0.00612512  0.69860438  1
  O2-  O459  1  0.49409094  0.50087383  -0.00851596  1
  O2-  O460  1  0.50600985  0.46869982  0.34288750  1
  O2-  O461  1  0.51041876  0.52167024  0.66730791  1
  O2-  O462  1  0.83769709  -0.00189616  0.00018528  1
  O2-  O463  1  0.82360596  0.00074642  0.30732183  1
  O2-  O464  1  0.83613036  -0.00844073  0.67202199  1
  O2-  O465  1  0.83075389  0.48412955  -0.00921631  1
  O2-  O466  1  0.80753722  0.50033366  0.30915443  1
  O2-  O467  1  0.82587208  0.50493014  0.63317205  1
  O2-  O468  1  0.75202391  0.25359420  0.39301045  1
  O2-  O469  1  0.24376771  0.75212479  0.25742932  1
  O2-  O470  1  0.91694228  0.75680425  0.94003886  1
  O2-  O471  1  0.42883141  0.24738434  0.71967450  1
  O2-  O472  1  0.25832248  0.75332163  0.94618695  1
  O2-  O473  1  0.58516770  0.24904387  0.94150642  1
  O2-  O474  1  0.75155937  0.75071852  0.72268523  1
  O2-  O475  1  0.92192455  0.25014762  0.59279128  1
  O2-  O476  1  0.91307012  0.75256700  0.27807136  1
  O2-  O477  1  0.08110356  0.75255416  0.06515048  1
  O2-  O478  1  0.08170819  0.75131273  0.39686034  1
  O2-  O479  1  0.92029020  0.24908991  0.27910363  1
  O2-  O480  1  0.08561431  0.24987529  0.72540255  1
  O2-  O481  1  0.91401501  0.24910127  0.94426289  1
  O2-  O482  1  0.41306817  0.75357278  0.07072493  1
  O2-  O483  1  0.40723406  0.74735894  0.72361908  1
  O2-  O484  1  0.75504797  0.24885139  0.05508023  1
  O2-  O485  1  0.07510065  0.24669702  0.39138133  1
  O2-  O486  1  0.91953488  0.76101757  0.60267444  1
  O2-  O487  1  0.25271812  0.24512930  0.60185283  1
  O2-  O488  1  0.58393982  0.74633523  0.27145898  1
  O2-  O489  1  0.57280181  0.25224784  0.58939705  1
  O2-  O490  1  0.07010608  0.25460357  0.06563114  1
  O2-  O491  1  0.25702182  0.75206242  0.61192230  1
  O2-  O492  1  0.42117573  0.24978462  0.41352308  1
