# generated using pymatgen
data_Ca108Mn108O277
_symmetry_space_group_name_H-M   'P 1'
_cell_length_a   16.02240249
_cell_length_b   22.29727451
_cell_length_c   16.38473591
_cell_angle_alpha   90.00071326
_cell_angle_beta   90.00366467
_cell_angle_gamma   90.00452717
_symmetry_Int_Tables_number   1
_chemical_formula_structural   Ca108Mn108O277
_chemical_formula_sum   'Ca108 Mn108 O277'
_cell_volume   5853.54364831
_cell_formula_units_Z   1
loop_
 _symmetry_equiv_pos_site_id
 _symmetry_equiv_pos_as_xyz
  1  'x, y, z'
loop_
 _atom_type_symbol
 _atom_type_oxidation_number
  Ca2+  2.0
  Mn3.34+  3.34
  O2-  -2.0
loop_
 _atom_site_type_symbol
 _atom_site_label
 _atom_site_symmetry_multiplicity
 _atom_site_fract_x
 _atom_site_fract_y
 _atom_site_fract_z
 _atom_site_occupancy
  Ca2+  Ca0  1  0.07720519  0.24684496  0.25014964  1
  Ca2+  Ca1  1  0.06188832  0.23934807  0.58584926  1
  Ca2+  Ca2  1  0.08147734  0.25591553  0.91755217  1
  Ca2+  Ca3  1  0.08166654  0.75397860  0.25119983  1
  Ca2+  Ca4  1  0.08462367  0.73409552  0.58578232  1
  Ca2+  Ca5  1  0.07216280  0.74552353  0.90645603  1
  Ca2+  Ca6  1  0.41844605  0.25403164  0.24099507  1
  Ca2+  Ca7  1  0.41675694  0.26537032  0.58895170  1
  Ca2+  Ca8  1  0.40802449  0.23798934  0.91566848  1
  Ca2+  Ca9  1  0.43083175  0.73352320  0.23494750  1
  Ca2+  Ca10  1  0.41312585  0.72836780  0.57940246  1
  Ca2+  Ca11  1  0.42761508  0.74486647  0.92743614  1
  Ca2+  Ca12  1  0.75131257  0.26306475  0.26392829  1
  Ca2+  Ca13  1  0.77134282  0.25590655  0.56686461  1
  Ca2+  Ca14  1  0.76194186  0.26377075  0.91732250  1
  Ca2+  Ca15  1  0.73760976  0.75036960  0.23048555  1
  Ca2+  Ca16  1  0.75119184  0.75341483  0.59321168  1
  Ca2+  Ca17  1  0.74718306  0.73982955  0.92264615  1
  Ca2+  Ca18  1  0.24674325  0.24158240  0.08728988  1
  Ca2+  Ca19  1  0.23384076  0.25615424  0.41257112  1
  Ca2+  Ca20  1  0.24504486  0.25281925  0.75291119  1
  Ca2+  Ca21  1  0.27002502  0.75001773  0.09258247  1
  Ca2+  Ca22  1  0.24668177  0.74898810  0.40911533  1
  Ca2+  Ca23  1  0.25155492  0.75078799  0.74323054  1
  Ca2+  Ca24  1  0.57277993  0.25732498  0.09061035  1
  Ca2+  Ca25  1  0.59860593  0.26100124  0.40945827  1
  Ca2+  Ca26  1  0.57198507  0.25864393  0.75030426  1
  Ca2+  Ca27  1  0.57216659  0.74399911  0.09586646  1
  Ca2+  Ca28  1  0.56424179  0.73549074  0.39700813  1
  Ca2+  Ca29  1  0.57615024  0.75129943  0.75523375  1
  Ca2+  Ca30  1  0.92995269  0.26102232  0.08477824  1
  Ca2+  Ca31  1  0.91407694  0.24941971  0.42670357  1
  Ca2+  Ca32  1  0.92672596  0.25912671  0.73564520  1
  Ca2+  Ca33  1  0.90698625  0.74199791  0.08218141  1
  Ca2+  Ca34  1  0.93069996  0.75668908  0.41707947  1
  Ca2+  Ca35  1  0.92144827  0.75219786  0.74847122  1
  Ca2+  Ca36  1  0.91322911  0.09218200  0.09784352  1
  Ca2+  Ca37  1  0.90882301  0.08970770  0.71907695  1
  Ca2+  Ca38  1  0.75129021  0.58561969  0.59075762  1
  Ca2+  Ca39  1  0.91322543  0.59627464  0.74554970  1
  Ca2+  Ca40  1  0.71736415  0.58049864  0.25839019  1
  Ca2+  Ca41  1  0.55088864  0.10913539  0.08622439  1
  Ca2+  Ca42  1  0.11800362  0.10735946  0.91789344  1
  Ca2+  Ca43  1  0.72716634  0.58276704  0.26041865  1
  Ca2+  Ca44  1  0.21597581  0.07786066  0.41548183  1
  Ca2+  Ca45  1  0.39887523  0.07554723  0.61190871  1
  Ca2+  Ca46  1  0.40473413  0.10664649  0.23480885  1
  Ca2+  Ca47  1  0.07093499  0.08083906  0.26812025  1
  Ca2+  Ca48  1  0.60052354  0.59441810  0.75637880  1
  Ca2+  Ca49  1  0.27503079  0.59046594  0.09633131  1
  Ca2+  Ca50  1  0.91634200  0.58809193  0.41219969  1
  Ca2+  Ca51  1  0.58658020  0.08950121  0.39609541  1
  Ca2+  Ca52  1  0.56791889  0.59915617  0.09842455  1
  Ca2+  Ca53  1  0.09207249  0.58710420  0.25665535  1
  Ca2+  Ca54  1  0.38775832  0.07470682  0.61069456  1
  Ca2+  Ca55  1  0.56345877  0.10910459  0.08395361  1
  Ca2+  Ca56  1  0.10211296  0.58359084  0.25498525  1
  Ca2+  Ca57  1  0.28263142  0.61428183  0.43866632  1
  Ca2+  Ca58  1  0.24439925  0.60026782  0.69411180  1
  Ca2+  Ca59  1  0.43113806  0.58653819  0.92554119  1
  Ca2+  Ca60  1  0.55660142  0.59219349  0.40939871  1
  Ca2+  Ca61  1  0.92579053  0.09168315  0.09752395  1
  Ca2+  Ca62  1  0.55341613  0.08542783  0.75581844  1
  Ca2+  Ca63  1  0.26463854  0.10439287  0.76540921  1
  Ca2+  Ca64  1  0.12513913  0.10408781  0.91174508  1
  Ca2+  Ca65  1  0.42474203  0.60164013  0.25485325  1
  Ca2+  Ca66  1  0.92000407  0.08843866  0.71850746  1
  Ca2+  Ca67  1  0.58957535  0.59246045  0.75576828  1
  Ca2+  Ca68  1  0.93462998  0.09514409  0.42643350  1
  Ca2+  Ca69  1  0.77485566  0.10105810  0.57575889  1
  Ca2+  Ca70  1  0.56165600  0.60318725  0.09232742  1
  Ca2+  Ca71  1  0.22713771  0.07442765  0.41197735  1
  Ca2+  Ca72  1  0.23981023  0.41159533  0.08297542  1
  Ca2+  Ca73  1  0.38797858  0.91384077  0.59223272  1
  Ca2+  Ca74  1  0.61006482  0.43247169  0.39237945  1
  Ca2+  Ca75  1  0.42824023  0.40565083  0.92141369  1
  Ca2+  Ca76  1  0.41906201  0.90409921  0.25192175  1
  Ca2+  Ca77  1  0.58878052  0.90388208  0.74905712  1
  Ca2+  Ca78  1  0.40025472  0.90722305  0.90312115  1
  Ca2+  Ca79  1  0.10674058  0.90278338  0.91391934  1
  Ca2+  Ca80  1  0.90492378  0.90415580  0.09931841  1
  Ca2+  Ca81  1  0.91765270  0.90371447  0.09761483  1
  Ca2+  Ca82  1  0.09503389  0.90418403  0.91520733  1
  Ca2+  Ca83  1  0.58874988  0.90046289  0.41498879  1
  Ca2+  Ca84  1  0.93778180  0.91698961  0.40183589  1
  Ca2+  Ca85  1  0.89179778  0.41230880  0.41640754  1
  Ca2+  Ca86  1  0.92851235  0.41344330  0.07548455  1
  Ca2+  Ca87  1  0.76565087  0.91100728  0.60783366  1
  Ca2+  Ca88  1  0.26164344  0.40999183  0.40435003  1
  Ca2+  Ca89  1  0.07581327  0.91905602  0.26666057  1
  Ca2+  Ca90  1  0.40637723  0.90254289  0.25068040  1
  Ca2+  Ca91  1  0.10255012  0.90791993  0.57388165  1
  Ca2+  Ca92  1  0.23884229  0.91657114  0.40558710  1
  Ca2+  Ca93  1  0.08041105  0.41094801  0.93001558  1
  Ca2+  Ca94  1  0.42062944  0.41236407  0.25395371  1
  Ca2+  Ca95  1  0.09789563  0.40826152  0.24184838  1
  Ca2+  Ca96  1  0.41563773  0.40456399  0.92173145  1
  Ca2+  Ca97  1  0.58981679  0.40907121  0.74678234  1
  Ca2+  Ca98  1  0.58069926  0.41075748  0.09669033  1
  Ca2+  Ca99  1  0.58658077  0.90196502  0.08836043  1
  Ca2+  Ca100  1  0.08658281  0.40848148  0.24238957  1
  Ca2+  Ca101  1  0.26309158  0.91709759  0.74719206  1
  Ca2+  Ca102  1  0.08421119  0.39513122  0.58386848  1
  Ca2+  Ca103  1  0.39921260  0.91116871  0.59649245  1
  Ca2+  Ca104  1  0.09152373  0.90708626  0.57458750  1
  Ca2+  Ca105  1  0.60077822  0.41317289  0.74989717  1
  Ca2+  Ca106  1  0.57594807  0.90017183  0.41564442  1
  Ca2+  Ca107  1  0.75131936  0.89691466  0.90919683  1
  Mn3.34+  Mn108  1  0.08442884  0.33401775  0.08332997  1
  Mn3.34+  Mn109  1  0.08171931  0.33204177  0.41949081  1
  Mn3.34+  Mn110  1  0.08532370  0.33420906  0.75230183  1
  Mn3.34+  Mn111  1  0.08644688  0.83092420  0.08587547  1
  Mn3.34+  Mn112  1  0.08538943  0.83225379  0.41504218  1
  Mn3.34+  Mn113  1  0.08224150  0.83195777  0.74863406  1
  Mn3.34+  Mn114  1  0.41255680  0.32894832  0.08566675  1
  Mn3.34+  Mn115  1  0.41992003  0.33802669  0.42237252  1
  Mn3.34+  Mn116  1  0.41082359  0.33099192  0.74956641  1
  Mn3.34+  Mn117  1  0.41515060  0.83308773  0.07910031  1
  Mn3.34+  Mn118  1  0.41221151  0.82537459  0.42217185  1
  Mn3.34+  Mn119  1  0.41826068  0.83371287  0.75198022  1
  Mn3.34+  Mn120  1  0.75066511  0.33222160  0.08616351  1
  Mn3.34+  Mn121  1  0.74814245  0.34208729  0.41966330  1
  Mn3.34+  Mn122  1  0.75853805  0.33834872  0.74995560  1
  Mn3.34+  Mn123  1  0.74727066  0.83158791  0.08302097  1
  Mn3.34+  Mn124  1  0.75411769  0.83121006  0.41958971  1
  Mn3.34+  Mn125  1  0.75224676  0.83766997  0.75550353  1
  Mn3.34+  Mn126  1  0.25225340  0.33205503  0.24751208  1
  Mn3.34+  Mn127  1  0.25065206  0.33901515  0.58088696  1
  Mn3.34+  Mn128  1  0.24923973  0.33297716  0.91331173  1
  Mn3.34+  Mn129  1  0.24566759  0.83191840  0.24686242  1
  Mn3.34+  Mn130  1  0.25023599  0.82484850  0.57881769  1
  Mn3.34+  Mn131  1  0.25391771  0.83062141  0.91487984  1
  Mn3.34+  Mn132  1  0.58337892  0.33734908  0.25086003  1
  Mn3.34+  Mn133  1  0.58509012  0.33937982  0.57634198  1
  Mn3.34+  Mn134  1  0.59232330  0.33555304  0.91800779  1
  Mn3.34+  Mn135  1  0.58614509  0.82973660  0.24646182  1
  Mn3.34+  Mn136  1  0.58418496  0.82534139  0.58258136  1
  Mn3.34+  Mn137  1  0.58312147  0.83012742  0.91803438  1
  Mn3.34+  Mn138  1  0.91320858  0.33501915  0.25074586  1
  Mn3.34+  Mn139  1  0.91565075  0.33661311  0.58354104  1
  Mn3.34+  Mn140  1  0.91656129  0.33685418  0.91059912  1
  Mn3.34+  Mn141  1  0.91414472  0.83081298  0.25267621  1
  Mn3.34+  Mn142  1  0.91882190  0.83189792  0.58321319  1
  Mn3.34+  Mn143  1  0.91493771  0.83045203  0.91423813  1
  Mn3.34+  Mn144  1  0.91277562  0.66078544  0.91307847  1
  Mn3.34+  Mn145  1  0.25380060  0.66639161  0.24972137  1
  Mn3.34+  Mn146  1  0.41732918  0.66933334  0.74704457  1
  Mn3.34+  Mn147  1  0.24320805  0.16587323  0.58055803  1
  Mn3.34+  Mn148  1  0.75480499  0.67108993  0.42209133  1
  Mn3.34+  Mn149  1  0.91605396  0.66446643  0.24725993  1
  Mn3.34+  Mn150  1  0.08362558  0.66005219  0.07860394  1
  Mn3.34+  Mn151  1  0.07360555  0.65469540  0.07926519  1
  Mn3.34+  Mn152  1  0.41338982  0.16953447  0.75430222  1
  Mn3.34+  Mn153  1  0.74715941  0.16283824  0.76029196  1
  Mn3.34+  Mn154  1  0.59008581  0.16684104  0.58110506  1
  Mn3.34+  Mn155  1  0.41465120  0.17636610  0.41806190  1
  Mn3.34+  Mn156  1  0.08738671  0.66907424  0.42178982  1
  Mn3.34+  Mn157  1  0.08538368  0.17214361  0.74961432  1
  Mn3.34+  Mn158  1  0.57906247  0.66523539  0.57905818  1
  Mn3.34+  Mn159  1  0.92162897  0.66567746  0.58144163  1
  Mn3.34+  Mn160  1  0.24646050  0.16835970  0.24510077  1
  Mn3.34+  Mn161  1  0.92213754  0.16961307  0.91517342  1
  Mn3.34+  Mn162  1  0.08021060  0.16885401  0.42021428  1
  Mn3.34+  Mn163  1  0.75436652  0.66757655  0.75331106  1
  Mn3.34+  Mn164  1  0.75375492  0.66293189  0.08233063  1
  Mn3.34+  Mn165  1  0.74533416  0.66562319  0.42413385  1
  Mn3.34+  Mn166  1  0.74691221  0.17478051  0.08101611  1
  Mn3.34+  Mn167  1  0.91725359  0.16709824  0.25593300  1
  Mn3.34+  Mn168  1  0.75482263  0.16898963  0.41315321  1
  Mn3.34+  Mn169  1  0.24503061  0.65871390  0.91050259  1
  Mn3.34+  Mn170  1  0.25517078  0.66388561  0.91161624  1
  Mn3.34+  Mn171  1  0.57970621  0.17514162  0.91415093  1
  Mn3.34+  Mn172  1  0.58641948  0.66322731  0.91725526  1
  Mn3.34+  Mn173  1  0.74695735  0.17045463  0.76659865  1
  Mn3.34+  Mn174  1  0.58421062  0.17096002  0.25191156  1
  Mn3.34+  Mn175  1  0.40584204  0.17058434  0.42132197  1
  Mn3.34+  Mn176  1  0.08631685  0.16896005  0.08832573  1
  Mn3.34+  Mn177  1  0.08113751  0.66774734  0.74832591  1
  Mn3.34+  Mn178  1  0.57931855  0.17179819  0.58171903  1
  Mn3.34+  Mn179  1  0.75721052  0.17538867  0.08615535  1
  Mn3.34+  Mn180  1  0.11230331  -0.00100116  0.08620883  1
  Mn3.34+  Mn181  1  0.59483198  -0.00089804  0.91839404  1
  Mn3.34+  Mn182  1  0.90110975  0.00501205  0.91465161  1
  Mn3.34+  Mn183  1  0.08314479  0.49743790  0.42971269  1
  Mn3.34+  Mn184  1  0.24209850  0.50052044  0.92460755  1
  Mn3.34+  Mn185  1  0.74701094  0.00045926  0.09887588  1
  Mn3.34+  Mn186  1  0.74238622  0.49749363  0.06342944  1
  Mn3.34+  Mn187  1  0.91554934  -0.00149170  0.58223474  1
  Mn3.34+  Mn188  1  0.91161714  0.50067400  0.58962749  1
  Mn3.34+  Mn189  1  0.41708567  0.00245338  0.42210947  1
  Mn3.34+  Mn190  1  0.07887678  0.49743616  0.75174211  1
  Mn3.34+  Mn191  1  0.08912859  0.50222943  0.75032440  1
  Mn3.34+  Mn192  1  0.24997476  0.00150034  0.24625986  1
  Mn3.34+  Mn193  1  0.58401980  0.00395784  0.91755909  1
  Mn3.34+  Mn194  1  0.91279282  -0.00071022  0.91409005  1
  Mn3.34+  Mn195  1  0.75979351  0.00064167  0.39727081  1
  Mn3.34+  Mn196  1  0.09424651  0.50292482  0.42744033  1
  Mn3.34+  Mn197  1  0.58432682  0.00113253  0.24789457  1
  Mn3.34+  Mn198  1  0.39286932  -0.00261176  0.06815351  1
  Mn3.34+  Mn199  1  0.24592714  0.49970532  0.57759033  1
  Mn3.34+  Mn200  1  0.75091396  0.50374903  0.06321460  1
  Mn3.34+  Mn201  1  0.11609031  0.00604951  0.07978785  1
  Mn3.34+  Mn202  1  0.58631709  0.50087759  0.58221298  1
  Mn3.34+  Mn203  1  0.60163805  0.00378034  0.58643346  1
  Mn3.34+  Mn204  1  0.59130151  -0.00235203  0.58506732  1
  Mn3.34+  Mn205  1  0.38074028  0.00290820  0.06223449  1
  Mn3.34+  Mn206  1  0.41274215  0.49900362  0.40046438  1
  Mn3.34+  Mn207  1  0.41600051  0.49694447  0.07628149  1
  Mn3.34+  Mn208  1  0.41001986  0.50188910  0.74456152  1
  Mn3.34+  Mn209  1  0.08818261  -0.00057564  0.74871970  1
  Mn3.34+  Mn210  1  0.75814883  0.00101014  0.41127189  1
  Mn3.34+  Mn211  1  0.39930899  0.49744940  0.74554155  1
  Mn3.34+  Mn212  1  0.92886048  0.50136599  0.92475936  1
  Mn3.34+  Mn213  1  0.10203637  0.00540115  0.74622731  1
  Mn3.34+  Mn214  1  0.76092801  0.49929004  0.75571510  1
  Mn3.34+  Mn215  1  0.90635482  0.50120031  0.25462934  1
  O2-  O216  1  0.00776527  0.13899493  0.00214038  1
  O2-  O217  1  0.00563986  0.15693689  0.32928516  1
  O2-  O218  1  -0.00464455  0.16190609  0.68025475  1
  O2-  O219  1  0.00031574  0.65290238  -0.00634536  1
  O2-  O220  1  0.00294703  0.64706676  0.32703151  1
  O2-  O221  1  -0.00112763  0.65445830  0.66716651  1
  O2-  O222  1  0.32837257  0.19162053  0.00301761  1
  O2-  O223  1  0.32392381  0.15457122  0.34029765  1
  O2-  O224  1  0.33297066  0.16280163  0.65987701  1
  O2-  O225  1  0.33353074  0.65048129  -0.00802482  1
  O2-  O226  1  0.33307736  0.66449100  0.32614384  1
  O2-  O227  1  0.33391648  0.67334519  0.67286690  1
  O2-  O228  1  0.66183015  0.17188091  0.00064394  1
  O2-  O229  1  0.66146403  0.15918444  0.33604075  1
  O2-  O230  1  0.65927930  0.15061939  0.68191152  1
  O2-  O231  1  0.66302382  0.65260861  0.00504843  1
  O2-  O232  1  0.66774368  0.66222395  0.33811686  1
  O2-  O233  1  0.66959913  0.65786063  0.66875602  1
  O2-  O234  1  0.16785826  0.16933535  0.00678733  1
  O2-  O235  1  0.16804087  0.14927285  0.33534219  1
  O2-  O236  1  0.17013926  0.17280702  0.66940607  1
  O2-  O237  1  0.17441434  0.64695412  0.00602120  1
  O2-  O238  1  0.16389582  0.65435650  0.33325147  1
  O2-  O239  1  0.16567649  0.67849454  0.67384222  1
  O2-  O240  1  0.50465532  0.17957815  0.00116228  1
  O2-  O241  1  0.49127331  0.15640367  0.33061881  1
  O2-  O242  1  0.49486802  0.14807000  0.65991581  1
  O2-  O243  1  0.50312548  0.65474392  -0.00592564  1
  O2-  O244  1  0.49276385  0.66522322  0.33426817  1
  O2-  O245  1  0.50594563  0.64710121  0.67109393  1
  O2-  O246  1  0.84266912  0.16203406  0.00466792  1
  O2-  O247  1  0.84040657  0.15731447  0.33813519  1
  O2-  O248  1  0.82515516  0.16661194  0.67097156  1
  O2-  O249  1  0.83372245  0.66778166  -0.00211478  1
  O2-  O250  1  0.83155005  0.65546027  0.33572712  1
  O2-  O251  1  0.83090312  0.66525733  0.66388432  1
  O2-  O252  1  0.00097556  0.34607065  0.00343027  1
  O2-  O253  1  0.00443546  0.35615666  0.33177010  1
  O2-  O254  1  -0.00009236  0.34319770  0.66724257  1
  O2-  O255  1  -0.00018317  0.85901997  0.00038545  1
  O2-  O256  1  0.00423463  0.84403798  0.33192107  1
  O2-  O257  1  0.00849679  0.85347734  0.65837425  1
  O2-  O258  1  0.33685208  0.33066758  -0.00265261  1
  O2-  O259  1  0.33711807  0.33886593  0.32946729  1
  O2-  O260  1  0.32779058  0.32362757  0.66671255  1
  O2-  O261  1  0.33738700  0.84301257  -0.00589420  1
  O2-  O262  1  0.33130341  0.84392256  0.33970822  1
  O2-  O263  1  0.33025690  0.83836635  0.66643083  1
  O2-  O264  1  0.66568540  0.30811283  0.00270244  1
  O2-  O265  1  0.66355438  0.34198857  0.33569615  1
  O2-  O266  1  0.66287072  0.34046882  0.67569552  1
  O2-  O267  1  0.66935322  0.84765130  -0.00244302  1
  O2-  O268  1  0.66278312  0.83720621  0.33765944  1
  O2-  O269  1  0.67007867  0.83814328  0.66745071  1
  O2-  O270  1  0.16847980  0.33717806  0.00081053  1
  O2-  O271  1  0.16860458  0.34925645  0.33382999  1
  O2-  O272  1  0.16443763  0.32897942  0.66150038  1
  O2-  O273  1  0.16454438  0.84125775  -0.00306774  1
  O2-  O274  1  0.16680323  0.84792702  0.33292218  1
  O2-  O275  1  0.17006279  0.84122660  0.66362155  1
  O2-  O276  1  0.50208394  0.33577340  0.00288430  1
  O2-  O277  1  0.49646534  0.33560614  0.33389054  1
  O2-  O278  1  0.50205419  0.35192204  0.67527186  1
  O2-  O279  1  0.49948587  0.85371703  0.00008091  1
  O2-  O280  1  0.49377579  0.84073276  0.33344743  1
  O2-  O281  1  0.49692959  0.85541655  0.65937062  1
  O2-  O282  1  0.83579821  0.32928108  0.00443723  1
  O2-  O283  1  0.83524856  0.33899650  0.33494245  1
  O2-  O284  1  0.82897012  0.32313059  0.66405539  1
  O2-  O285  1  0.83724739  0.84422095  0.00445946  1
  O2-  O286  1  0.83838868  0.82964975  0.34156066  1
  O2-  O287  1  0.83198562  0.83067375  0.66977131  1
  O2-  O288  1  -0.00890688  0.17622838  0.15814995  1
  O2-  O289  1  -0.00135749  0.17929056  0.48942693  1
  O2-  O290  1  0.01367409  0.16951939  0.84484593  1
  O2-  O291  1  -0.00028137  0.67589198  0.16681403  1
  O2-  O292  1  -0.00523026  0.67884241  0.49158077  1
  O2-  O293  1  -0.00694047  0.67657450  0.82800544  1
  O2-  O294  1  0.33251982  0.18419788  0.17760937  1
  O2-  O295  1  0.33269071  0.19817154  0.50433158  1
  O2-  O296  1  0.33191895  0.18247954  0.82563657  1
  O2-  O297  1  0.32725687  0.67338981  0.16767524  1
  O2-  O298  1  0.32716165  0.69670476  0.48946065  1
  O2-  O299  1  0.33979121  0.68425781  0.83397742  1
  O2-  O300  1  0.65964099  0.18192684  0.15927625  1
  O2-  O301  1  0.67083276  0.18103133  0.49971589  1
  O2-  O302  1  0.66507483  0.19635335  0.83833875  1
  O2-  O303  1  0.67088970  0.66494495  0.16185281  1
  O2-  O304  1  0.66780630  0.69180811  0.50164086  1
  O2-  O305  1  0.66393035  0.68222563  0.82699870  1
  O2-  O306  1  0.15811517  0.18093971  0.17364641  1
  O2-  O307  1  0.17040944  0.18041646  0.49370591  1
  O2-  O308  1  0.16764368  0.17967937  0.83272897  1
  O2-  O309  1  0.15794491  0.67766575  0.16759481  1
  O2-  O310  1  0.16811780  0.68573437  0.49207869  1
  O2-  O311  1  0.16629438  0.68218626  0.83455553  1
  O2-  O312  1  0.50180781  0.17970198  0.16796523  1
  O2-  O313  1  0.50452276  0.19068834  0.48945031  1
  O2-  O314  1  0.50325420  0.18050964  0.82756068  1
  O2-  O315  1  0.50106562  0.66871847  0.16420895  1
  O2-  O316  1  0.50632286  0.67605873  0.49899939  1
  O2-  O317  1  0.50680197  0.67501989  0.83014000  1
  O2-  O318  1  0.83829109  0.18377258  0.16728219  1
  O2-  O319  1  0.82979418  0.17416396  0.49423707  1
  O2-  O320  1  0.83804851  0.19312125  0.83117902  1
  O2-  O321  1  0.82775974  0.67918274  0.17496532  1
  O2-  O322  1  0.83269964  0.69027635  0.50135564  1
  O2-  O323  1  0.83523666  0.68699566  0.82847722  1
  O2-  O324  1  0.00461076  0.32962709  0.16978815  1
  O2-  O325  1  0.00094328  0.32339485  0.49826666  1
  O2-  O326  1  0.00721482  0.32496897  0.84003792  1
  O2-  O327  1  -0.00809717  0.82136665  0.15787036  1
  O2-  O328  1  0.00317880  0.82814522  0.49754102  1
  O2-  O329  1  0.00747349  0.83110698  0.84403970  1
  O2-  O330  1  0.32890847  0.31428395  0.16339267  1
  O2-  O331  1  0.32962724  0.31731858  0.49428097  1
  O2-  O332  1  0.33891637  0.31502078  0.84111830  1
  O2-  O333  1  0.33969293  0.82359241  0.17464688  1
  O2-  O334  1  0.33937560  0.81078268  0.50777796  1
  O2-  O335  1  0.33383917  0.81952835  0.83110171  1
  O2-  O336  1  0.66247001  0.31972158  0.16341873  1
  O2-  O337  1  0.66913944  0.31924247  0.50214312  1
  O2-  O338  1  0.66591619  0.31672121  0.83170892  1
  O2-  O339  1  0.65971658  0.82509919  0.15744975  1
  O2-  O340  1  0.66569290  0.81673001  0.49535539  1
  O2-  O341  1  0.66757753  0.81505319  0.83147526  1
  O2-  O342  1  0.16139374  0.32216798  0.17141207  1
  O2-  O343  1  0.16312241  0.31498689  0.50224986  1
  O2-  O344  1  0.16823724  0.31406475  0.83637612  1
  O2-  O345  1  0.16256546  0.82131413  0.17093437  1
  O2-  O346  1  0.16152605  0.81645448  0.50355661  1
  O2-  O347  1  0.16479129  0.81691048  0.83520243  1
  O2-  O348  1  0.49492002  0.31951207  0.16622287  1
  O2-  O349  1  0.50205894  0.31431459  0.49810901  1
  O2-  O350  1  0.49913618  0.32011370  0.83920033  1
  O2-  O351  1  0.49575988  0.82933966  0.16844894  1
  O2-  O352  1  0.50818997  0.81642461  0.48783670  1
  O2-  O353  1  0.50191737  0.82725272  0.83195583  1
  O2-  O354  1  0.83455444  0.31450167  0.16602356  1
  O2-  O355  1  0.83839012  0.32922153  0.49424444  1
  O2-  O356  1  0.83913092  0.31437872  0.82765768  1
  O2-  O357  1  0.83421755  0.82034624  0.16307342  1
  O2-  O358  1  0.83072997  0.81786724  0.50697749  1
  O2-  O359  1  0.82846750  0.81399035  0.83847853  1
  O2-  O360  1  0.07513587  0.08065836  0.12172485  1
  O2-  O361  1  0.08478329  0.08473116  0.43722069  1
  O2-  O362  1  0.08485410  0.08592949  0.77294967  1
  O2-  O363  1  0.09108817  0.57629684  0.11880871  1
  O2-  O364  1  0.08226583  0.58478883  0.44010190  1
  O2-  O365  1  0.08956165  0.58383607  0.77330362  1
  O2-  O366  1  0.42893367  0.07515716  0.11081319  1
  O2-  O367  1  0.41975756  0.08624484  0.46111785  1
  O2-  O368  1  0.40880580  0.08508438  0.75539370  1
  O2-  O369  1  0.42213308  0.57057849  0.11793207  1
  O2-  O370  1  0.41354136  0.56578570  0.44911113  1
  O2-  O371  1  0.41518478  0.58259626  0.78162777  1
  O2-  O372  1  0.76747405  0.08429373  0.11095590  1
  O2-  O373  1  0.74026936  0.08158742  0.44351408  1
  O2-  O374  1  0.78100468  0.08273704  0.77670393  1
  O2-  O375  1  0.76399202  0.57719754  0.11545169  1
  O2-  O376  1  0.75988020  0.58496343  0.45177784  1
  O2-  O377  1  0.74055814  0.58026852  0.77815402  1
  O2-  O378  1  0.25621846  0.08276379  0.22569922  1
  O2-  O379  1  0.26884733  0.08080900  0.54082629  1
  O2-  O380  1  0.21684833  0.05413479  0.86108777  1
  O2-  O381  1  0.23715140  0.58360119  0.22812496  1
  O2-  O382  1  0.24097206  0.57574981  0.55677882  1
  O2-  O383  1  0.25225329  0.57709839  0.87569189  1
  O2-  O384  1  0.57767069  0.08471832  0.21706363  1
  O2-  O385  1  0.58276951  0.08108043  0.53730098  1
  O2-  O386  1  0.58844262  0.08529115  0.88931677  1
  O2-  O387  1  0.60729625  0.55724263  0.20283928  1
  O2-  O388  1  0.60210375  0.58304847  0.55090864  1
  O2-  O389  1  0.57700349  0.58132359  0.88786053  1
  O2-  O390  1  0.92632937  0.08384845  0.22818876  1
  O2-  O391  1  0.91141738  0.07842600  0.56603678  1
  O2-  O392  1  0.91066119  0.08356131  0.87901856  1
  O2-  O393  1  0.92581555  0.57947460  0.22525961  1
  O2-  O394  1  0.90494279  0.58080314  0.55067339  1
  O2-  O395  1  0.91075215  0.57522145  0.88109240  1
  O2-  O396  1  0.08987358  0.41657324  0.10722844  1
  O2-  O397  1  0.09243215  0.41576812  0.44660270  1
  O2-  O398  1  0.09601841  0.41783171  0.78399768  1
  O2-  O399  1  0.07064485  0.92336199  0.12032968  1
  O2-  O400  1  0.09007965  0.91682198  0.44139286  1
  O2-  O401  1  0.09352587  0.91906902  0.78129667  1
  O2-  O402  1  0.40841904  0.41836128  0.10757365  1
  O2-  O403  1  0.41036879  0.42786741  0.44238140  1
  O2-  O404  1  0.41173147  0.41701308  0.78594613  1
  O2-  O405  1  0.42017446  0.92763319  0.11984486  1
  O2-  O406  1  0.43594700  0.91893020  0.46101086  1
  O2-  O407  1  0.40855996  0.91671526  0.76486937  1
  O2-  O408  1  0.74272524  0.41969629  0.10094821  1
  O2-  O409  1  0.74868276  0.42034770  0.43138797  1
  O2-  O410  1  0.73340052  0.42137416  0.78336975  1
  O2-  O411  1  0.76272572  0.91686487  0.10719387  1
  O2-  O412  1  0.73234922  0.92176995  0.45115044  1
  O2-  O413  1  0.73869251  0.91567122  0.77443298  1
  O2-  O414  1  0.24113840  0.41424724  0.22275072  1
  O2-  O415  1  0.23269909  0.42335212  0.54055861  1
  O2-  O416  1  0.27545127  0.42163378  0.90288778  1
  O2-  O417  1  0.26538890  0.91849241  0.23160417  1
  O2-  O418  1  0.25430084  0.91355129  0.54326481  1
  O2-  O419  1  0.23917728  0.91001989  0.88246606  1
  O2-  O420  1  0.56566153  0.41576530  0.23145033  1
  O2-  O421  1  0.58498043  0.42046659  0.54816173  1
  O2-  O422  1  0.55972574  0.42101975  0.88010715  1
  O2-  O423  1  0.56736805  0.91704158  0.23147161  1
  O2-  O424  1  0.59267893  0.91597654  0.54990967  1
  O2-  O425  1  0.59253763  0.91817121  0.88655012  1
  O2-  O426  1  0.92978499  0.42400551  0.21855822  1
  O2-  O427  1  0.93214278  0.42380432  0.55211976  1
  O2-  O428  1  0.92263375  0.42238685  0.89314154  1
  O2-  O429  1  0.92331747  0.91490727  0.23041163  1
  O2-  O430  1  0.91826530  0.91859934  0.55009001  1
  O2-  O431  1  0.90023117  0.91832765  0.89200694  1
  O2-  O432  1  -0.00941493  0.00614102  0.01701628  1
  O2-  O433  1  0.01343217  -0.00236729  0.32713259  1
  O2-  O434  1  -0.00193907  0.00761884  0.66899850  1
  O2-  O435  1  0.00915471  0.48830598  -0.00850894  1
  O2-  O436  1  -0.01060524  0.50283018  0.34759385  1
  O2-  O437  1  -0.00769015  0.50492749  0.67573302  1
  O2-  O438  1  0.33473794  -0.01397126  -0.03261401  1
  O2-  O439  1  0.32794103  -0.00052119  0.34035469  1
  O2-  O440  1  0.33773960  -0.00853483  0.64507603  1
  O2-  O441  1  0.33530796  0.51219012  -0.00315610  1
  O2-  O442  1  0.33600576  0.49414040  0.32984419  1
  O2-  O443  1  0.32363367  0.50854794  0.66178830  1
  O2-  O444  1  0.65945587  -0.00025072  0.01709081  1
  O2-  O445  1  0.65504800  -0.00048799  0.34675308  1
  O2-  O446  1  0.66204165  0.00140925  0.68170191  1
  O2-  O447  1  0.63094827  0.50695823  0.04354962  1
  O2-  O448  1  0.65702057  0.52668009  0.35016596  1
  O2-  O449  1  0.65917131  0.50346645  0.68726755  1
  O2-  O450  1  0.13930461  -0.00723218  -0.03149332  1
  O2-  O451  1  0.16939683  0.00310689  0.33268601  1
  O2-  O452  1  0.16333537  -0.02180233  0.65523741  1
  O2-  O453  1  0.17483391  0.48588309  0.00407038  1
  O2-  O454  1  0.14664237  0.49477284  0.31695644  1
  O2-  O455  1  0.16212352  0.49910424  0.66208754  1
  O2-  O456  1  0.49914226  -0.00047997  0.00236817  1
  O2-  O457  1  0.49819680  -0.00642071  0.33414429  1
  O2-  O458  1  0.49598430  0.00702893  0.65472039  1
  O2-  O459  1  0.48665142  0.48931303  -0.00416177  1
  O2-  O460  1  0.49854256  0.50188819  0.33992575  1
  O2-  O461  1  0.51101303  0.49950212  0.68569208  1
  O2-  O462  1  0.83813697  0.00058863  0.01539621  1
  O2-  O463  1  0.87074398  0.00204556  0.37259348  1
  O2-  O464  1  0.82996848  0.00563208  0.65137135  1
  O2-  O465  1  0.84911044  0.49360291  0.00754441  1
  O2-  O466  1  0.82320906  0.51748165  0.32181977  1
  O2-  O467  1  0.82902611  0.51825047  0.66601834  1
  O2-  O468  1  0.07354639  0.25054980  0.06491466  1
  O2-  O469  1  0.06681365  0.75197811  0.73570141  1
  O2-  O470  1  0.58462883  0.25099924  0.27135367  1
  O2-  O471  1  0.07789761  0.75044607  0.38980097  1
  O2-  O472  1  0.75115469  0.25142146  0.40058723  1
  O2-  O473  1  0.07061163  0.25241771  0.73537264  1
  O2-  O474  1  0.57893672  0.25404303  0.61181799  1
  O2-  O475  1  0.57938784  0.74911124  0.94460351  1
  O2-  O476  1  0.58491679  0.75169871  0.25547746  1
  O2-  O477  1  0.91858524  0.25585327  0.58945998  1
  O2-  O478  1  0.08353732  0.25245249  0.38834328  1
  O2-  O479  1  0.57481772  0.74699373  0.61457633  1
  O2-  O480  1  0.92767375  0.74642451  0.27135775  1
  O2-  O481  1  0.23918991  0.75118445  0.26760580  1
  O2-  O482  1  0.92869522  0.75147489  0.93992556  1
  O2-  O483  1  0.42963130  0.25040938  0.72562952  1
  O2-  O484  1  0.07627140  0.74240868  0.05588571  1
  O2-  O485  1  0.43280719  0.75126844  0.72821373  1
  O2-  O486  1  0.93285385  0.75043374  0.60455052  1
  O2-  O487  1  0.23930756  0.24963304  0.27509868  1
  O2-  O488  1  0.93420121  0.24976536  0.94084940  1
  O2-  O489  1  0.92822845  0.25150217  0.27371590  1
  O2-  O490  1  0.24995067  0.74623050  0.94366610  1
  O2-  O491  1  0.74548099  0.74904161  0.06810776  1
  O2-  O492  1  0.41920075  0.75448958  0.06686560  1
