# generated using pymatgen
data_Ca108Mn108O277
_symmetry_space_group_name_H-M   'P 1'
_cell_length_a   16.03716934
_cell_length_b   22.31803912
_cell_length_c   16.39558223
_cell_angle_alpha   90.00201943
_cell_angle_beta   89.99883396
_cell_angle_gamma   89.99613855
_symmetry_Int_Tables_number   1
_chemical_formula_structural   Ca108Mn108O277
_chemical_formula_sum   'Ca108 Mn108 O277'
_cell_volume   5868.27681565
_cell_formula_units_Z   1
loop_
 _symmetry_equiv_pos_site_id
 _symmetry_equiv_pos_as_xyz
  1  'x, y, z'
loop_
 _atom_type_symbol
 _atom_type_oxidation_number
  Ca2+  2.0
  Mn3.34+  3.34
  O2-  -2.0
loop_
 _atom_site_type_symbol
 _atom_site_label
 _atom_site_symmetry_multiplicity
 _atom_site_fract_x
 _atom_site_fract_y
 _atom_site_fract_z
 _atom_site_occupancy
  Ca2+  Ca0  1  0.09226845  0.24475258  0.23669622  1
  Ca2+  Ca1  1  0.07232178  0.23460508  0.58014325  1
  Ca2+  Ca2  1  0.08635741  0.25330538  0.92660926  1
  Ca2+  Ca3  1  0.09936615  0.75081937  0.24081050  1
  Ca2+  Ca4  1  0.09951719  0.75849105  0.57800815  1
  Ca2+  Ca5  1  0.08608945  0.74678164  0.92065937  1
  Ca2+  Ca6  1  0.41730832  0.23616565  0.24497207  1
  Ca2+  Ca7  1  0.41976822  0.24347424  0.58039840  1
  Ca2+  Ca8  1  0.40984329  0.25273237  0.91189144  1
  Ca2+  Ca9  1  0.42581093  0.74234454  0.25379688  1
  Ca2+  Ca10  1  0.41454865  0.75129658  0.55815729  1
  Ca2+  Ca11  1  0.39798832  0.74674114  0.93180868  1
  Ca2+  Ca12  1  0.75239412  0.24593574  0.25408312  1
  Ca2+  Ca13  1  0.75070211  0.24522488  0.57719074  1
  Ca2+  Ca14  1  0.75334169  0.26756534  0.91259466  1
  Ca2+  Ca15  1  0.73972369  0.76454562  0.24503069  1
  Ca2+  Ca16  1  0.73708649  0.76246113  0.57810163  1
  Ca2+  Ca17  1  0.76917828  0.75458690  0.92805691  1
  Ca2+  Ca18  1  0.23541799  0.24665999  0.08484251  1
  Ca2+  Ca19  1  0.24895382  0.23582380  0.41250231  1
  Ca2+  Ca20  1  0.25955429  0.25314545  0.75122492  1
  Ca2+  Ca21  1  0.27169733  0.72367131  0.08990456  1
  Ca2+  Ca22  1  0.27676017  0.74164180  0.40976451  1
  Ca2+  Ca23  1  0.25157121  0.75890971  0.74563188  1
  Ca2+  Ca24  1  0.58523631  0.25468191  0.08443701  1
  Ca2+  Ca25  1  0.58019315  0.24491777  0.42006003  1
  Ca2+  Ca26  1  0.57372910  0.25228599  0.74762903  1
  Ca2+  Ca27  1  0.57890189  0.74873611  0.10104951  1
  Ca2+  Ca28  1  0.55965646  0.75588298  0.40660582  1
  Ca2+  Ca29  1  0.57901298  0.75800865  0.74086239  1
  Ca2+  Ca30  1  0.95220071  0.23764126  0.08023282  1
  Ca2+  Ca31  1  0.91547115  0.24258979  0.41685660  1
  Ca2+  Ca32  1  0.91626868  0.25649988  0.74952195  1
  Ca2+  Ca33  1  0.91938735  0.74562502  0.07917235  1
  Ca2+  Ca34  1  0.92238105  0.77513789  0.41420750  1
  Ca2+  Ca35  1  0.92429609  0.75933395  0.76571661  1
  Ca2+  Ca36  1  0.39815133  0.58772356  0.93843443  1
  Ca2+  Ca37  1  0.73189116  0.08402061  0.26599539  1
  Ca2+  Ca38  1  0.09428751  0.09603310  0.91929918  1
  Ca2+  Ca39  1  0.74952130  0.59471592  0.22767794  1
  Ca2+  Ca40  1  0.73956126  0.59580636  0.23064944  1
  Ca2+  Ca41  1  0.06758787  0.58571145  0.92694409  1
  Ca2+  Ca42  1  0.24078098  0.09600064  0.74581906  1
  Ca2+  Ca43  1  0.57387224  0.07765701  0.41521998  1
  Ca2+  Ca44  1  0.25188271  0.09410127  0.74612481  1
  Ca2+  Ca45  1  0.54123056  0.60216111  0.41297393  1
  Ca2+  Ca46  1  0.90729564  0.58597660  0.05735822  1
  Ca2+  Ca47  1  0.41031346  0.09411692  0.91490789  1
  Ca2+  Ca48  1  0.56962126  0.58558713  0.74178075  1
  Ca2+  Ca49  1  0.92651772  0.57997731  0.76179885  1
  Ca2+  Ca50  1  0.74725936  0.58470413  0.60003846  1
  Ca2+  Ca51  1  0.92185101  0.59013900  0.40522552  1
  Ca2+  Ca52  1  0.75033951  0.08236839  0.90910349  1
  Ca2+  Ca53  1  0.09556354  0.58690913  0.59714953  1
  Ca2+  Ca54  1  0.08311265  0.09741259  0.91966664  1
  Ca2+  Ca55  1  0.09090407  0.09963758  0.28095761  1
  Ca2+  Ca56  1  0.94167166  0.10935215  0.45061010  1
  Ca2+  Ca57  1  0.56511344  0.09718494  0.09087595  1
  Ca2+  Ca58  1  0.25376476  0.58994029  0.74803795  1
  Ca2+  Ca59  1  0.91467746  0.09178668  0.71677297  1
  Ca2+  Ca60  1  0.56449429  0.07510791  0.41823448  1
  Ca2+  Ca61  1  0.59692291  0.06834697  0.69621431  1
  Ca2+  Ca62  1  0.42109386  0.09640841  0.91334589  1
  Ca2+  Ca63  1  0.09546680  0.10312344  0.27321872  1
  Ca2+  Ca64  1  0.25560284  0.11034854  0.09140917  1
  Ca2+  Ca65  1  0.92195859  0.09562557  0.71117425  1
  Ca2+  Ca66  1  0.57276194  0.09172396  0.09427815  1
  Ca2+  Ca67  1  0.40692872  0.60475603  0.57474607  1
  Ca2+  Ca68  1  0.41588283  0.08373909  0.27026985  1
  Ca2+  Ca69  1  0.56388035  0.59718344  0.08729061  1
  Ca2+  Ca70  1  0.24220249  0.58968448  0.74867233  1
  Ca2+  Ca71  1  0.41148638  0.58778688  0.93900500  1
  Ca2+  Ca72  1  0.23964699  0.89964965  0.07869178  1
  Ca2+  Ca73  1  0.41591129  0.39857454  0.58355467  1
  Ca2+  Ca74  1  0.58760572  0.42044916  0.06726956  1
  Ca2+  Ca75  1  0.10279618  0.39948368  0.23881845  1
  Ca2+  Ca76  1  0.73673962  0.92910034  0.58764336  1
  Ca2+  Ca77  1  0.07572954  0.90257889  0.56757806  1
  Ca2+  Ca78  1  0.73668066  0.40134945  0.23974195  1
  Ca2+  Ca79  1  0.59428538  0.92076457  0.74170404  1
  Ca2+  Ca80  1  0.41506040  0.40526108  0.91738387  1
  Ca2+  Ca81  1  0.45864983  0.93575371  0.30630604  1
  Ca2+  Ca82  1  0.76377975  0.90750602  0.91575899  1
  Ca2+  Ca83  1  0.40462314  0.40804832  0.25134900  1
  Ca2+  Ca84  1  0.71576940  0.92541941  0.25565521  1
  Ca2+  Ca85  1  0.24989846  0.89689996  0.07988492  1
  Ca2+  Ca86  1  0.08067731  0.90538385  0.90800706  1
  Ca2+  Ca87  1  0.43842650  0.91799595  0.56514730  1
  Ca2+  Ca88  1  0.90730274  0.89730449  0.08438640  1
  Ca2+  Ca89  1  0.58582837  0.91830078  0.73655633  1
  Ca2+  Ca90  1  0.59169306  0.90733126  0.08687383  1
  Ca2+  Ca91  1  0.09146221  0.39926533  0.24014688  1
  Ca2+  Ca92  1  0.72595829  0.93174695  0.58525377  1
  Ca2+  Ca93  1  0.41583786  0.40809543  0.25206415  1
  Ca2+  Ca94  1  0.90879930  0.41585260  0.04918721  1
  Ca2+  Ca95  1  0.08461515  0.91730051  0.28159121  1
  Ca2+  Ca96  1  0.07979589  0.39300667  0.58987892  1
  Ca2+  Ca97  1  0.24237173  0.40612545  0.74848354  1
  Ca2+  Ca98  1  0.74797094  0.40242871  0.23875669  1
  Ca2+  Ca99  1  0.07348734  0.40974161  0.91437350  1
  Ca2+  Ca100  1  0.91872077  0.39078570  0.42784432  1
  Ca2+  Ca101  1  0.25174724  0.39733586  0.42605274  1
  Ca2+  Ca102  1  0.58913165  0.40066187  0.75995164  1
  Ca2+  Ca103  1  0.59825294  0.42099837  0.06590596  1
  Ca2+  Ca104  1  0.40075478  0.90642526  0.91183749  1
  Ca2+  Ca105  1  0.57328254  0.39754210  0.42002654  1
  Ca2+  Ca106  1  0.25255679  0.90154939  0.41537325  1
  Ca2+  Ca107  1  0.41300370  0.90838420  0.91337790  1
  Mn3.34+  Mn108  1  0.08643196  0.33459850  0.07660748  1
  Mn3.34+  Mn109  1  0.08604201  0.32433017  0.42044818  1
  Mn3.34+  Mn110  1  0.08042870  0.33000462  0.75316270  1
  Mn3.34+  Mn111  1  0.07822598  0.82854177  0.08553933  1
  Mn3.34+  Mn112  1  0.08530258  0.83775396  0.41660836  1
  Mn3.34+  Mn113  1  0.08204730  0.83585811  0.74722946  1
  Mn3.34+  Mn114  1  0.41493286  0.33379156  0.08299615  1
  Mn3.34+  Mn115  1  0.41405724  0.32767150  0.41963070  1
  Mn3.34+  Mn116  1  0.41592982  0.33410998  0.74984818  1
  Mn3.34+  Mn117  1  0.41816806  0.82693153  0.08848180  1
  Mn3.34+  Mn118  1  0.41440297  0.83716917  0.41464804  1
  Mn3.34+  Mn119  1  0.41660720  0.83044072  0.74993215  1
  Mn3.34+  Mn120  1  0.75483501  0.33289919  0.07566613  1
  Mn3.34+  Mn121  1  0.74804263  0.32900344  0.42247238  1
  Mn3.34+  Mn122  1  0.75486409  0.33873987  0.74398895  1
  Mn3.34+  Mn123  1  0.74861777  0.83437142  0.08459021  1
  Mn3.34+  Mn124  1  0.75010133  0.84030993  0.41490993  1
  Mn3.34+  Mn125  1  0.75878639  0.83885931  0.75372781  1
  Mn3.34+  Mn126  1  0.25498225  0.33087291  0.24756944  1
  Mn3.34+  Mn127  1  0.24892597  0.32851347  0.58531000  1
  Mn3.34+  Mn128  1  0.24781533  0.33357646  0.91637516  1
  Mn3.34+  Mn129  1  0.25351052  0.83442123  0.24707642  1
  Mn3.34+  Mn130  1  0.25350977  0.83354786  0.58366390  1
  Mn3.34+  Mn131  1  0.24378487  0.83156912  0.90911369  1
  Mn3.34+  Mn132  1  0.58113053  0.32765516  0.24800979  1
  Mn3.34+  Mn133  1  0.58681452  0.32867544  0.58561072  1
  Mn3.34+  Mn134  1  0.58488910  0.33176839  0.91356728  1
  Mn3.34+  Mn135  1  0.58066620  0.83974381  0.25132070  1
  Mn3.34+  Mn136  1  0.58221297  0.83675537  0.57678032  1
  Mn3.34+  Mn137  1  0.58482039  0.83294521  0.91364023  1
  Mn3.34+  Mn138  1  0.91868668  0.33017291  0.24837012  1
  Mn3.34+  Mn139  1  0.91466386  0.33123137  0.58412802  1
  Mn3.34+  Mn140  1  0.91545198  0.33665587  0.90817544  1
  Mn3.34+  Mn141  1  0.91676877  0.83495761  0.24707259  1
  Mn3.34+  Mn142  1  0.91382025  0.83059330  0.58770224  1
  Mn3.34+  Mn143  1  0.92173323  0.83477919  0.91559502  1
  Mn3.34+  Mn144  1  0.09973542  0.66440546  0.40826953  1
  Mn3.34+  Mn145  1  0.58004783  0.67504974  0.91401323  1
  Mn3.34+  Mn146  1  0.41066099  0.16147164  0.42189916  1
  Mn3.34+  Mn147  1  0.58162451  0.16575219  0.91259039  1
  Mn3.34+  Mn148  1  0.57794187  0.66741306  0.24834963  1
  Mn3.34+  Mn149  1  0.75390411  0.16339328  0.74972889  1
  Mn3.34+  Mn150  1  0.41524440  0.66968349  0.75349562  1
  Mn3.34+  Mn151  1  0.73970544  0.67102030  0.41889698  1
  Mn3.34+  Mn152  1  0.91860848  0.16764095  0.91464990  1
  Mn3.34+  Mn153  1  0.24240978  0.66895656  0.91849557  1
  Mn3.34+  Mn154  1  0.73879472  0.16764030  0.74826872  1
  Mn3.34+  Mn155  1  0.58076001  0.16192961  0.57687703  1
  Mn3.34+  Mn156  1  0.91496505  0.16847607  0.25071785  1
  Mn3.34+  Mn157  1  0.25127656  0.66759713  0.57985001  1
  Mn3.34+  Mn158  1  0.75126963  0.16477114  0.42231391  1
  Mn3.34+  Mn159  1  0.75516024  0.66629803  0.41863717  1
  Mn3.34+  Mn160  1  0.92175168  0.67194029  0.24319389  1
  Mn3.34+  Mn161  1  0.24813340  0.17191971  0.57518439  1
  Mn3.34+  Mn162  1  0.58357216  0.16661207  0.25257946  1
  Mn3.34+  Mn163  1  0.76668428  0.15995974  0.08383850  1
  Mn3.34+  Mn164  1  0.08305436  0.17533387  0.75088811  1
  Mn3.34+  Mn165  1  0.75671739  0.66836401  0.75630415  1
  Mn3.34+  Mn166  1  0.58878809  0.66884313  0.91241120  1
  Mn3.34+  Mn167  1  0.74799465  0.66232904  0.75895506  1
  Mn3.34+  Mn168  1  0.91577968  0.67292207  0.58040233  1
  Mn3.34+  Mn169  1  0.42018388  0.16675691  0.74131980  1
  Mn3.34+  Mn170  1  0.08618586  0.67060643  0.40799543  1
  Mn3.34+  Mn171  1  0.92080036  0.66691749  0.91706449  1
  Mn3.34+  Mn172  1  0.08289483  0.66774071  0.75516349  1
  Mn3.34+  Mn173  1  0.92318019  0.66635847  0.57880765  1
  Mn3.34+  Mn174  1  0.75295729  0.16576163  0.08121541  1
  Mn3.34+  Mn175  1  0.58079096  0.66945900  0.58413266  1
  Mn3.34+  Mn176  1  0.08733922  0.66540764  0.08942811  1
  Mn3.34+  Mn177  1  0.75254522  0.66938326  0.07853536  1
  Mn3.34+  Mn178  1  0.24979784  0.16907801  0.91665766  1
  Mn3.34+  Mn179  1  0.25636296  0.17021815  0.24963818  1
  Mn3.34+  Mn180  1  0.08425103  0.00168762  0.08662892  1
  Mn3.34+  Mn181  1  0.59049634  0.49504752  0.58503753  1
  Mn3.34+  Mn182  1  0.60263832  0.50442175  0.92290801  1
  Mn3.34+  Mn183  1  0.40848346  -0.00179843  0.74496797  1
  Mn3.34+  Mn184  1  0.08274096  0.49566799  0.42036314  1
  Mn3.34+  Mn185  1  0.40724870  0.50032536  0.08019138  1
  Mn3.34+  Mn186  1  0.91335259  0.49832792  0.59320488  1
  Mn3.34+  Mn187  1  0.06948031  -0.00342637  0.08571254  1
  Mn3.34+  Mn188  1  0.25211702  0.49933936  0.58854452  1
  Mn3.34+  Mn189  1  0.91835903  0.50621898  0.23842795  1
  Mn3.34+  Mn190  1  0.75473042  0.00540545  0.41269527  1
  Mn3.34+  Mn191  1  0.09694220  0.50157104  0.41850701  1
  Mn3.34+  Mn192  1  0.08461445  0.50604896  0.07595172  1
  Mn3.34+  Mn193  1  0.08473828  -0.00207498  0.74702200  1
  Mn3.34+  Mn194  1  0.24822722  0.50381525  0.24998777  1
  Mn3.34+  Mn195  1  0.75760142  0.49871682  0.75622842  1
  Mn3.34+  Mn196  1  0.40639896  0.49533560  0.41216405  1
  Mn3.34+  Mn197  1  0.91849589  0.00285026  0.24902981  1
  Mn3.34+  Mn198  1  0.07625768  0.49779253  0.74950300  1
  Mn3.34+  Mn199  1  0.91636269  0.00038885  0.90738202  1
  Mn3.34+  Mn200  1  0.41746152  0.49992964  0.75662145  1
  Mn3.34+  Mn201  1  0.24181635  0.00456992  0.57137117  1
  Mn3.34+  Mn202  1  0.75700115  0.49374152  0.41967452  1
  Mn3.34+  Mn203  1  0.90785223  0.00715326  0.24694629  1
  Mn3.34+  Mn204  1  0.74247389  0.49954478  0.41841444  1
  Mn3.34+  Mn205  1  0.59502536  -0.00042181  0.92555164  1
  Mn3.34+  Mn206  1  0.25211358  0.00913218  0.57034439  1
  Mn3.34+  Mn207  1  0.40277693  0.00137335  0.09168303  1
  Mn3.34+  Mn208  1  0.41256834  -0.00483585  0.09270114  1
  Mn3.34+  Mn209  1  0.57256262  0.50164883  0.25441562  1
  Mn3.34+  Mn210  1  0.92113647  -0.00476472  0.59243067  1
  Mn3.34+  Mn211  1  0.93400215  0.50212920  0.23833282  1
  Mn3.34+  Mn212  1  0.58009593  0.50066765  0.58293568  1
  Mn3.34+  Mn213  1  0.25120899  0.00231908  0.25344682  1
  Mn3.34+  Mn214  1  0.24186354  0.49540007  0.93058541  1
  Mn3.34+  Mn215  1  0.76306862  0.00207472  0.07511011  1
  O2-  O216  1  0.00023422  0.15382988  -0.00926608  1
  O2-  O217  1  -0.01087903  0.15968814  0.33419697  1
  O2-  O218  1  -0.00465010  0.17557611  0.67870229  1
  O2-  O219  1  -0.00339878  0.65651582  0.00237493  1
  O2-  O220  1  0.00330568  0.65484561  0.32884860  1
  O2-  O221  1  0.00043557  0.66207073  0.66996287  1
  O2-  O222  1  0.33600029  0.15522823  -0.01120926  1
  O2-  O223  1  0.33763018  0.15591036  0.33201941  1
  O2-  O224  1  0.33099811  0.15075294  0.66802707  1
  O2-  O225  1  0.32758635  0.65988752  -0.00942001  1
  O2-  O226  1  0.32967457  0.67938030  0.31513282  1
  O2-  O227  1  0.32853845  0.65520152  0.67357494  1
  O2-  O228  1  0.66763819  0.13825124  0.00823796  1
  O2-  O229  1  0.65484469  0.14440957  0.34531706  1
  O2-  O230  1  0.67075182  0.15132364  0.66210201  1
  O2-  O231  1  0.65956124  0.65636723  0.00233755  1
  O2-  O232  1  0.66600601  0.63790139  0.33627034  1
  O2-  O233  1  0.66047687  0.65386097  0.67696338  1
  O2-  O234  1  0.17050993  0.15342617  -0.00370730  1
  O2-  O235  1  0.16823987  0.17475369  0.32920772  1
  O2-  O236  1  0.17005456  0.16527994  0.67283801  1
  O2-  O237  1  0.15701006  0.65076109  -0.00949438  1
  O2-  O238  1  0.17857154  0.67888058  0.33250583  1
  O2-  O239  1  0.16535212  0.65515463  0.67145719  1
  O2-  O240  1  0.50225423  0.15003382  -0.00388060  1
  O2-  O241  1  0.49948590  0.15525810  0.33133504  1
  O2-  O242  1  0.50869037  0.15249396  0.67316474  1
  O2-  O243  1  0.49490248  0.66246672  -0.01082102  1
  O2-  O244  1  0.50232752  0.66792832  0.32769484  1
  O2-  O245  1  0.49599127  0.65711995  0.66822758  1
  O2-  O246  1  0.83098782  0.14217447  -0.01019819  1
  O2-  O247  1  0.82107861  0.15073707  0.32766731  1
  O2-  O248  1  0.83351917  0.16881824  0.66824383  1
  O2-  O249  1  0.83497291  0.66806146  -0.00096415  1
  O2-  O250  1  0.83308476  0.64971129  0.32973961  1
  O2-  O251  1  0.82551278  0.66470896  0.65923318  1
  O2-  O252  1  -0.00179584  0.34073277  0.00319873  1
  O2-  O253  1  0.00775905  0.34660177  0.33295824  1
  O2-  O254  1  0.00355735  0.31560209  0.66280402  1
  O2-  O255  1  -0.00054337  0.85232621  0.00235872  1
  O2-  O256  1  0.00190807  0.83520272  0.32791537  1
  O2-  O257  1  0.00089294  0.80568038  0.66680306  1
  O2-  O258  1  0.34033181  0.33572562  -0.00479750  1
  O2-  O259  1  0.33223751  0.35042396  0.33398534  1
  O2-  O260  1  0.33021359  0.35205711  0.66906418  1
  O2-  O261  1  0.33370370  0.84194103  -0.00291390  1
  O2-  O262  1  0.33244382  0.84009492  0.33046217  1
  O2-  O263  1  0.34581244  0.82469526  0.66115784  1
  O2-  O264  1  0.66242941  0.34456586  0.00288984  1
  O2-  O265  1  0.66487217  0.35380487  0.33336501  1
  O2-  O266  1  0.66379044  0.34449913  0.66739115  1
  O2-  O267  1  0.66782085  0.85109821  -0.00491116  1
  O2-  O268  1  0.66937047  0.85109764  0.32791974  1
  O2-  O269  1  0.67599411  0.84616069  0.66717344  1
  O2-  O270  1  0.16056855  0.34742497  -0.01021180  1
  O2-  O271  1  0.16805238  0.34309846  0.33288297  1
  O2-  O272  1  0.16577388  0.33629118  0.66878263  1
  O2-  O273  1  0.15920949  0.85005711  -0.00445578  1
  O2-  O274  1  0.16850892  0.83755373  0.32699135  1
  O2-  O275  1  0.15964462  0.83831222  0.66011155  1
  O2-  O276  1  0.50360594  0.34654388  0.00595815  1
  O2-  O277  1  0.49424299  0.34902343  0.32797074  1
  O2-  O278  1  0.50200934  0.34772450  0.66918844  1
  O2-  O279  1  0.49702962  0.85091487  -0.00244354  1
  O2-  O280  1  0.50140387  0.83996987  0.33465682  1
  O2-  O281  1  0.51051390  0.84551708  0.67769686  1
  O2-  O282  1  0.82914440  0.34351756  -0.00862868  1
  O2-  O283  1  0.82893693  0.35392423  0.33109280  1
  O2-  O284  1  0.83345064  0.31596909  0.65974394  1
  O2-  O285  1  0.83211939  0.84131855  -0.00207116  1
  O2-  O286  1  0.83296865  0.82771316  0.32766014  1
  O2-  O287  1  0.83104009  0.80024491  0.67115089  1
  O2-  O288  1  0.00419510  0.17927859  0.18497874  1
  O2-  O289  1  -0.00189604  0.19089776  0.49281372  1
  O2-  O290  1  0.00794003  0.18332501  0.84051337  1
  O2-  O291  1  0.00102837  0.69057903  0.16643285  1
  O2-  O292  1  0.00156164  0.67889475  0.49054593  1
  O2-  O293  1  0.00462132  0.68667902  0.83450640  1
  O2-  O294  1  0.32820670  0.18409940  0.16255902  1
  O2-  O295  1  0.33452612  0.18538116  0.50026924  1
  O2-  O296  1  0.32864629  0.17435877  0.82859314  1
  O2-  O297  1  0.32631610  0.68325520  0.19858004  1
  O2-  O298  1  0.33258432  0.67747137  0.50792829  1
  O2-  O299  1  0.33102339  0.68482468  0.83127141  1
  O2-  O300  1  0.67549397  0.17916892  0.17089214  1
  O2-  O301  1  0.66330208  0.18178517  0.49876951  1
  O2-  O302  1  0.67533509  0.17053910  0.84264915  1
  O2-  O303  1  0.67377919  0.67401442  0.17049553  1
  O2-  O304  1  0.68033814  0.67633094  0.51758225  1
  O2-  O305  1  0.66846191  0.69365297  0.83567887  1
  O2-  O306  1  0.17077929  0.17345439  0.17538616  1
  O2-  O307  1  0.16905811  0.19030041  0.50580691  1
  O2-  O308  1  0.16709506  0.18113027  0.83289657  1
  O2-  O309  1  0.16577737  0.68432690  0.15990106  1
  O2-  O310  1  0.16037649  0.67677104  0.50629792  1
  O2-  O311  1  0.17406011  0.68123452  0.82313664  1
  O2-  O312  1  0.51653020  0.18117684  0.16246469  1
  O2-  O313  1  0.50071355  0.18090528  0.49639299  1
  O2-  O314  1  0.48596285  0.17931577  0.83826239  1
  O2-  O315  1  0.50899162  0.67684443  0.16621208  1
  O2-  O316  1  0.50628608  0.67760121  0.50379273  1
  O2-  O317  1  0.50298071  0.69318186  0.82838724  1
  O2-  O318  1  0.83961145  0.19127491  0.16054985  1
  O2-  O319  1  0.83293121  0.18226814  0.49195997  1
  O2-  O320  1  0.83585301  0.18320090  0.82769289  1
  O2-  O321  1  0.82727848  0.68810197  0.17577773  1
  O2-  O322  1  0.83953444  0.69689042  0.49274974  1
  O2-  O323  1  0.84093763  0.68840827  0.83191558  1
  O2-  O324  1  0.01185509  0.32408509  0.17261050  1
  O2-  O325  1  -0.00056036  0.31379848  0.49687765  1
  O2-  O326  1  0.00498629  0.31155422  0.83712374  1
  O2-  O327  1  -0.00289265  0.81350836  0.16465550  1
  O2-  O328  1  0.00471717  0.82124445  0.50813370  1
  O2-  O329  1  0.00905750  0.82026152  0.83951471  1
  O2-  O330  1  0.34513469  0.32462720  0.17628616  1
  O2-  O331  1  0.33286776  0.32214645  0.50304060  1
  O2-  O332  1  0.33324412  0.32121761  0.83226756  1
  O2-  O333  1  0.32409453  0.81683066  0.15670102  1
  O2-  O334  1  0.32979929  0.82252109  0.49621953  1
  O2-  O335  1  0.33753668  0.81686222  0.83683791  1
  O2-  O336  1  0.67198202  0.31922214  0.17017141  1
  O2-  O337  1  0.66054963  0.31584955  0.49578840  1
  O2-  O338  1  0.65903905  0.32009176  0.83035037  1
  O2-  O339  1  0.66242909  0.82754483  0.16261863  1
  O2-  O340  1  0.67415440  0.83651425  0.50780069  1
  O2-  O341  1  0.66399708  0.80663757  0.83428232  1
  O2-  O342  1  0.16824090  0.32290798  0.16935336  1
  O2-  O343  1  0.16972217  0.31278401  0.49905481  1
  O2-  O344  1  0.16908251  0.31412126  0.82899954  1
  O2-  O345  1  0.17109420  0.82116075  0.15834847  1
  O2-  O346  1  0.16966517  0.82583374  0.49838932  1
  O2-  O347  1  0.16495010  0.81364557  0.82957384  1
  O2-  O348  1  0.49910868  0.31260434  0.16466632  1
  O2-  O349  1  0.49839190  0.31982948  0.49936279  1
  O2-  O350  1  0.49696450  0.31974913  0.83654138  1
  O2-  O351  1  0.50264117  0.82296885  0.16507564  1
  O2-  O352  1  0.49505468  0.82826307  0.50405056  1
  O2-  O353  1  0.49529776  0.81119278  0.83824755  1
  O2-  O354  1  0.82838874  0.32925788  0.17019806  1
  O2-  O355  1  0.83836833  0.31436155  0.49379684  1
  O2-  O356  1  0.83608750  0.32058979  0.82590149  1
  O2-  O357  1  0.83713283  0.81662961  0.16024636  1
  O2-  O358  1  0.83252954  0.81772682  0.50397689  1
  O2-  O359  1  0.83362723  0.82045091  0.83829325  1
  O2-  O360  1  0.08823200  0.07264420  0.14130309  1
  O2-  O361  1  0.07308914  0.08079339  0.41082199  1
  O2-  O362  1  0.09185378  0.07975159  0.78354505  1
  O2-  O363  1  0.06941669  0.58252583  0.11321184  1
  O2-  O364  1  0.08049514  0.58167143  0.45108359  1
  O2-  O365  1  0.08869324  0.57794631  0.78819547  1
  O2-  O366  1  0.42528649  0.07931880  0.12498608  1
  O2-  O367  1  0.42695461  0.08385750  0.44184343  1
  O2-  O368  1  0.39383311  0.07806091  0.78101695  1
  O2-  O369  1  0.42059859  0.57933863  0.07706165  1
  O2-  O370  1  0.42338802  0.56591247  0.45715001  1
  O2-  O371  1  0.41232355  0.58074605  0.79710821  1
  O2-  O372  1  0.75282477  0.08181403  0.12772639  1
  O2-  O373  1  0.75030362  0.08111671  0.44966320  1
  O2-  O374  1  0.77115764  0.08148115  0.76989192  1
  O2-  O375  1  0.76562940  0.58806921  0.10147886  1
  O2-  O376  1  0.75961252  0.57963523  0.45902261  1
  O2-  O377  1  0.74986795  0.57885475  0.79673463  1
  O2-  O378  1  0.25187552  0.08269185  0.22776067  1
  O2-  O379  1  0.24129110  0.08979441  0.55074517  1
  O2-  O380  1  0.23456502  0.08327036  0.88239639  1
  O2-  O381  1  0.25528865  0.57376761  0.21617130  1
  O2-  O382  1  0.24564254  0.58177952  0.56582119  1
  O2-  O383  1  0.26087735  0.57769361  0.88495904  1
  O2-  O384  1  0.58949703  0.08473198  0.22178417  1
  O2-  O385  1  0.58166263  0.08056469  0.55539809  1
  O2-  O386  1  0.56400515  0.07840861  0.87872140  1
  O2-  O387  1  0.60224932  0.58093160  0.21797193  1
  O2-  O388  1  0.59373037  0.58161665  0.55021582  1
  O2-  O389  1  0.56309001  0.58232582  0.87941449  1
  O2-  O390  1  0.90714958  0.08624983  0.21408851  1
  O2-  O391  1  0.92698173  0.07498135  0.57735726  1
  O2-  O392  1  0.92731148  0.08054367  0.86357494  1
  O2-  O393  1  0.89866939  0.58456229  0.20812624  1
  O2-  O394  1  0.90756320  0.58121802  0.53935264  1
  O2-  O395  1  0.92711809  0.58668087  0.89455451  1
  O2-  O396  1  0.08338735  0.42367234  0.10998899  1
  O2-  O397  1  0.09017893  0.41622366  0.45373642  1
  O2-  O398  1  0.09236882  0.41791156  0.77191146  1
  O2-  O399  1  0.07745718  0.91637845  0.12330337  1
  O2-  O400  1  0.09691671  0.91761398  0.43057063  1
  O2-  O401  1  0.08339698  0.91926834  0.77288479  1
  O2-  O402  1  0.43266642  0.42295506  0.12072819  1
  O2-  O403  1  0.40681008  0.41636997  0.44904480  1
  O2-  O404  1  0.42038382  0.41811740  0.77851166  1
  O2-  O405  1  0.39060124  0.91421896  0.10628514  1
  O2-  O406  1  0.40131783  0.91988615  0.43578889  1
  O2-  O407  1  0.42069278  0.91896964  0.77970817  1
  O2-  O408  1  0.73686872  0.41661760  0.10714236  1
  O2-  O409  1  0.75255865  0.41523583  0.45443287  1
  O2-  O410  1  0.73537895  0.41987335  0.77178599  1
  O2-  O411  1  0.75917915  0.91881188  0.11528094  1
  O2-  O412  1  0.76295770  0.92798299  0.45211703  1
  O2-  O413  1  0.72277489  0.91581047  0.78965837  1
  O2-  O414  1  0.24572293  0.42134215  0.21602181  1
  O2-  O415  1  0.23785276  0.41696471  0.56230389  1
  O2-  O416  1  0.25005900  0.41832909  0.88567068  1
  O2-  O417  1  0.23778774  0.92630168  0.21071267  1
  O2-  O418  1  0.25178091  0.92078527  0.55772087  1
  O2-  O419  1  0.26273634  0.91409439  0.90103855  1
  O2-  O420  1  0.59085218  0.41879112  0.20779005  1
  O2-  O421  1  0.57543496  0.41498350  0.55442851  1
  O2-  O422  1  0.57885483  0.41929527  0.89707580  1
  O2-  O423  1  0.57821577  0.92080480  0.22244317  1
  O2-  O424  1  0.58441023  0.92001653  0.57540188  1
  O2-  O425  1  0.56187569  0.92214752  0.87630492  1
  O2-  O426  1  0.92970794  0.41866497  0.22614769  1
  O2-  O427  1  0.93954660  0.41926461  0.55767460  1
  O2-  O428  1  0.93236816  0.41519429  0.90032671  1
  O2-  O429  1  0.92901600  0.92238110  0.21759455  1
  O2-  O430  1  0.92840559  0.91701631  0.56482757  1
  O2-  O431  1  0.91873082  0.91749615  0.89339372  1
  O2-  O432  1  0.01838693  0.00852259  -0.02204482  1
  O2-  O433  1  0.01153897  0.01438592  0.31056510  1
  O2-  O434  1  -0.01719085  0.00420330  0.69099900  1
  O2-  O435  1  -0.01792450  0.50164999  0.03271241  1
  O2-  O436  1  -0.00383023  0.51281549  0.34086866  1
  O2-  O437  1  0.00611350  0.52260047  0.66239535  1
  O2-  O438  1  0.35287992  0.01099176  -0.01850676  1
  O2-  O439  1  0.34576818  -0.00481485  0.29918571  1
  O2-  O440  1  0.33264202  0.00665741  0.65773640  1
  O2-  O441  1  0.35076711  0.49492050  -0.02974243  1
  O2-  O442  1  0.33596404  0.48109017  0.32099910  1
  O2-  O443  1  0.32723272  0.51213653  0.68275939  1
  O2-  O444  1  0.64830752  0.01084883  0.03508211  1
  O2-  O445  1  0.66232107  0.00856008  0.35248400  1
  O2-  O446  1  0.66743583  -0.01423560  0.67495330  1
  O2-  O447  1  0.64950907  0.50708293  0.02778071  1
  O2-  O448  1  0.68864057  0.49286016  0.30974112  1
  O2-  O449  1  0.66477561  0.51456375  0.67567825  1
  O2-  O450  1  0.18459178  -0.01157071  0.02776318  1
  O2-  O451  1  0.16136736  0.00388646  0.31002304  1
  O2-  O452  1  0.17127310  0.01435476  0.66930782  1
  O2-  O453  1  0.13069676  0.49890040  -0.03814105  1
  O2-  O454  1  0.15540804  0.48186862  0.31903918  1
  O2-  O455  1  0.17269860  0.51079052  0.68086446  1
  O2-  O456  1  0.50071866  -0.00333920  0.01194400  1
  O2-  O457  1  0.50212298  0.02172967  0.33377730  1
  O2-  O458  1  0.50755623  -0.00611200  0.69336721  1
  O2-  O459  1  0.50015322  0.49123986  0.00422534  1
  O2-  O460  1  0.50685047  0.48083844  0.34973627  1
  O2-  O461  1  0.49668908  0.50916040  0.66702943  1
  O2-  O462  1  0.80902723  -0.00029827  -0.03960559  1
  O2-  O463  1  0.81027875  -0.00629330  0.30685252  1
  O2-  O464  1  0.82450212  -0.00559844  0.64325572  1
  O2-  O465  1  0.84171290  0.50032475  0.03285298  1
  O2-  O466  1  0.84145557  0.51300471  0.33432051  1
  O2-  O467  1  0.83594758  0.52544232  0.67693522  1
  O2-  O468  1  0.25980357  0.25278706  0.27318091  1
  O2-  O469  1  0.42329305  0.75064816  0.06674597  1
  O2-  O470  1  0.41619262  0.25083239  0.72270858  1
  O2-  O471  1  0.57970428  0.24774956  0.60886185  1
  O2-  O472  1  0.59462875  0.75117317  0.26725899  1
  O2-  O473  1  0.41805361  0.75524564  0.40453788  1
  O2-  O474  1  0.90486052  0.25162328  0.27781149  1
  O2-  O475  1  0.59333331  0.24844843  0.28132846  1
  O2-  O476  1  0.08043404  0.75016131  0.05516086  1
  O2-  O477  1  0.24125985  0.74984078  0.94664920  1
  O2-  O478  1  0.90824796  0.24696461  0.94406164  1
  O2-  O479  1  0.09145005  0.25452099  0.06587437  1
  O2-  O480  1  0.26865749  0.25067948  0.61363411  1
  O2-  O481  1  0.41699689  0.24984165  0.38799677  1
  O2-  O482  1  0.74255513  0.24933994  0.38892926  1
  O2-  O483  1  0.73283103  0.75267289  0.06058374  1
  O2-  O484  1  0.73032909  0.24786772  0.73330432  1
  O2-  O485  1  0.24296703  0.74863178  0.60495478  1
  O2-  O486  1  0.58811408  0.75298510  0.60328110  1
  O2-  O487  1  0.72569649  0.75193681  0.39277952  1
  O2-  O488  1  0.07870325  0.75325616  0.40340106  1
  O2-  O489  1  0.58651948  0.24834847  0.94412696  1
  O2-  O490  1  0.74565975  0.24616010  0.05081586  1
  O2-  O491  1  0.25068773  0.25009192  0.94260172  1
  O2-  O492  1  0.92355567  0.75332917  0.94125416  1
