# generated using pymatgen
data_Ca108Mn108O277
_symmetry_space_group_name_H-M   'P 1'
_cell_length_a   16.02627720
_cell_length_b   22.30676541
_cell_length_c   16.38753087
_cell_angle_alpha   90.00260543
_cell_angle_beta   89.99859292
_cell_angle_gamma   89.99581197
_symmetry_Int_Tables_number   1
_chemical_formula_structural   Ca108Mn108O277
_chemical_formula_sum   'Ca108 Mn108 O277'
_cell_volume   5858.45059199
_cell_formula_units_Z   1
loop_
 _symmetry_equiv_pos_site_id
 _symmetry_equiv_pos_as_xyz
  1  'x, y, z'
loop_
 _atom_type_symbol
 _atom_type_oxidation_number
  Ca2+  2.0
  Mn3.34+  3.34
  O2-  -2.0
loop_
 _atom_site_type_symbol
 _atom_site_label
 _atom_site_symmetry_multiplicity
 _atom_site_fract_x
 _atom_site_fract_y
 _atom_site_fract_z
 _atom_site_occupancy
  Ca2+  Ca0  1  0.09869703  0.24846250  0.24865701  1
  Ca2+  Ca1  1  0.07320705  0.24270358  0.57787463  1
  Ca2+  Ca2  1  0.09323747  0.24677744  0.92064851  1
  Ca2+  Ca3  1  0.08124210  0.74027825  0.24935006  1
  Ca2+  Ca4  1  0.08483391  0.75742610  0.56691739  1
  Ca2+  Ca5  1  0.09415427  0.74492122  0.93196740  1
  Ca2+  Ca6  1  0.42172203  0.25748698  0.24220243  1
  Ca2+  Ca7  1  0.43937837  0.25173793  0.58311853  1
  Ca2+  Ca8  1  0.40965333  0.25535352  0.92355833  1
  Ca2+  Ca9  1  0.41727941  0.74343249  0.26167305  1
  Ca2+  Ca10  1  0.40683308  0.73876355  0.56908901  1
  Ca2+  Ca11  1  0.38898898  0.74576843  0.91884317  1
  Ca2+  Ca12  1  0.71812871  0.24245472  0.26727208  1
  Ca2+  Ca13  1  0.73611339  0.24190363  0.56087900  1
  Ca2+  Ca14  1  0.73924411  0.25239991  0.91132831  1
  Ca2+  Ca15  1  0.75040469  0.77070283  0.25201519  1
  Ca2+  Ca16  1  0.75742036  0.76811136  0.58029187  1
  Ca2+  Ca17  1  0.76134999  0.75602830  0.91898091  1
  Ca2+  Ca18  1  0.24707656  0.23941844  0.08214896  1
  Ca2+  Ca19  1  0.24296775  0.24672914  0.39922694  1
  Ca2+  Ca20  1  0.25543103  0.24566751  0.76446525  1
  Ca2+  Ca21  1  0.24809450  0.74395505  0.07325787  1
  Ca2+  Ca22  1  0.25847413  0.74862403  0.41357653  1
  Ca2+  Ca23  1  0.25654021  0.74817793  0.76405849  1
  Ca2+  Ca24  1  0.56826694  0.25369740  0.09668004  1
  Ca2+  Ca25  1  0.59769522  0.24400029  0.41180470  1
  Ca2+  Ca26  1  0.57548800  0.25259291  0.74183161  1
  Ca2+  Ca27  1  0.57492775  0.75778050  0.09627095  1
  Ca2+  Ca28  1  0.56374774  0.75387891  0.40998035  1
  Ca2+  Ca29  1  0.56830172  0.75726532  0.74385840  1
  Ca2+  Ca30  1  0.93579175  0.24955802  0.07464684  1
  Ca2+  Ca31  1  0.90214421  0.24534454  0.42784960  1
  Ca2+  Ca32  1  0.92936815  0.24227556  0.74474662  1
  Ca2+  Ca33  1  0.92935811  0.75621696  0.07688254  1
  Ca2+  Ca34  1  0.93161379  0.74950950  0.41661263  1
  Ca2+  Ca35  1  0.92131916  0.75537665  0.74907658  1
  Ca2+  Ca36  1  0.07170906  0.08934176  0.60218427  1
  Ca2+  Ca37  1  0.58888327  0.09206231  0.74031550  1
  Ca2+  Ca38  1  0.95769607  0.60338699  0.07623994  1
  Ca2+  Ca39  1  0.22788729  0.59782067  0.07355948  1
  Ca2+  Ca40  1  0.12136152  0.08724762  0.24969065  1
  Ca2+  Ca41  1  0.57344897  0.09667676  0.09389945  1
  Ca2+  Ca42  1  0.55526795  0.59326124  0.40263440  1
  Ca2+  Ca43  1  0.36641886  0.57948440  0.91956935  1
  Ca2+  Ca44  1  0.60551674  0.10264018  0.42188802  1
  Ca2+  Ca45  1  0.57797940  0.09281140  0.74275205  1
  Ca2+  Ca46  1  0.40551324  0.59654098  0.25628102  1
  Ca2+  Ca47  1  0.58442760  0.09538683  0.09191961  1
  Ca2+  Ca48  1  0.07838709  0.08374249  0.59996193  1
  Ca2+  Ca49  1  0.93480630  0.07854708  0.04364459  1
  Ca2+  Ca50  1  0.45020130  0.09869934  0.58722994  1
  Ca2+  Ca51  1  0.40537234  0.09996586  0.91750003  1
  Ca2+  Ca52  1  0.77075423  0.59596526  0.59553567  1
  Ca2+  Ca53  1  0.75795044  0.59485173  0.59637860  1
  Ca2+  Ca54  1  0.72716421  0.09681720  0.27765806  1
  Ca2+  Ca55  1  0.74056936  0.10733836  0.56100562  1
  Ca2+  Ca56  1  0.08565494  0.59684340  0.56773990  1
  Ca2+  Ca57  1  0.56271278  0.56974496  0.08421347  1
  Ca2+  Ca58  1  0.21090351  0.09660265  0.75946586  1
  Ca2+  Ca59  1  0.25642338  0.59550326  0.76062603  1
  Ca2+  Ca60  1  0.08495763  0.09978095  0.90702970  1
  Ca2+  Ca61  1  0.10276388  0.60677129  0.92414601  1
  Ca2+  Ca62  1  0.75265867  0.57297222  0.25122496  1
  Ca2+  Ca63  1  0.91463443  0.10295217  0.42408527  1
  Ca2+  Ca64  1  0.96036909  0.60798262  0.06870648  1
  Ca2+  Ca65  1  0.55162934  0.57355434  0.08797820  1
  Ca2+  Ca66  1  0.39793718  0.09568251  0.24354867  1
  Ca2+  Ca67  1  0.94515087  0.58652408  0.40902614  1
  Ca2+  Ca68  1  0.37655234  0.58111211  0.91814028  1
  Ca2+  Ca69  1  0.26269336  0.60522115  0.41601385  1
  Ca2+  Ca70  1  0.76537980  0.57183051  0.24982585  1
  Ca2+  Ca71  1  0.95122063  0.08429594  0.76048079  1
  Ca2+  Ca72  1  0.59151855  0.90685820  0.41263193  1
  Ca2+  Ca73  1  0.07843576  0.91732771  0.59093816  1
  Ca2+  Ca74  1  0.92996401  0.42070483  0.37336960  1
  Ca2+  Ca75  1  0.75524072  0.40427461  0.57452082  1
  Ca2+  Ca76  1  0.58399322  0.42037791  0.38166358  1
  Ca2+  Ca77  1  0.92699547  0.41027942  0.09865937  1
  Ca2+  Ca78  1  0.40660462  0.89853682  0.24915339  1
  Ca2+  Ca79  1  0.92162444  0.90291070  0.41844077  1
  Ca2+  Ca80  1  0.60007540  0.90256784  0.75576134  1
  Ca2+  Ca81  1  0.93673826  0.42258896  0.38044512  1
  Ca2+  Ca82  1  0.23486719  0.90868835  0.75034245  1
  Ca2+  Ca83  1  0.42043295  0.90056083  0.57783041  1
  Ca2+  Ca84  1  0.23919067  0.40164100  0.41039591  1
  Ca2+  Ca85  1  0.27442636  0.41106584  0.77098497  1
  Ca2+  Ca86  1  0.07131468  0.40384505  0.57529430  1
  Ca2+  Ca87  1  0.41873780  0.40069701  0.58637620  1
  Ca2+  Ca88  1  0.77448858  0.91315360  0.93171776  1
  Ca2+  Ca89  1  0.74469969  0.40454554  0.24458841  1
  Ca2+  Ca90  1  0.41005146  0.42418570  0.94210091  1
  Ca2+  Ca91  1  0.23737654  0.91265542  0.38394899  1
  Ca2+  Ca92  1  0.74688343  0.40648470  0.93095465  1
  Ca2+  Ca93  1  0.91747486  0.91439481  0.75191562  1
  Ca2+  Ca94  1  0.59356145  0.90530368  0.08228207  1
  Ca2+  Ca95  1  0.55757660  0.41004262  0.75808227  1
  Ca2+  Ca96  1  0.40828476  0.90026952  0.57804945  1
  Ca2+  Ca97  1  0.08401050  0.40271290  0.57371841  1
  Ca2+  Ca98  1  0.07636923  0.91284601  0.92288436  1
  Ca2+  Ca99  1  0.56096467  0.41333325  0.09533974  1
  Ca2+  Ca100  1  0.41797602  0.89538024  0.91981882  1
  Ca2+  Ca101  1  0.75975911  0.40670753  0.93110038  1
  Ca2+  Ca102  1  0.92279138  0.39368067  0.75929192  1
  Ca2+  Ca103  1  0.91046331  0.90263847  0.41862792  1
  Ca2+  Ca104  1  0.26442345  0.41176257  0.77476685  1
  Ca2+  Ca105  1  0.06727982  0.91645923  0.92093450  1
  Ca2+  Ca106  1  0.26362907  0.42046063  0.06286651  1
  Ca2+  Ca107  1  0.74364410  0.40365326  0.57558437  1
  Mn3.34+  Mn108  1  0.08892494  0.33650177  0.08869471  1
  Mn3.34+  Mn109  1  0.08079153  0.32751151  0.41146068  1
  Mn3.34+  Mn110  1  0.08708749  0.32805637  0.75377743  1
  Mn3.34+  Mn111  1  0.08549323  0.83803550  0.09371848  1
  Mn3.34+  Mn112  1  0.08801974  0.83303940  0.41159476  1
  Mn3.34+  Mn113  1  0.08170079  0.83782610  0.75148446  1
  Mn3.34+  Mn114  1  0.41253987  0.33889390  0.08616492  1
  Mn3.34+  Mn115  1  0.41583036  0.34031596  0.41247561  1
  Mn3.34+  Mn116  1  0.41840179  0.33330505  0.75608388  1
  Mn3.34+  Mn117  1  0.41157665  0.82868549  0.08633042  1
  Mn3.34+  Mn118  1  0.41272155  0.82907593  0.41489377  1
  Mn3.34+  Mn119  1  0.41480374  0.82968215  0.75362270  1
  Mn3.34+  Mn120  1  0.75214067  0.32576066  0.09057416  1
  Mn3.34+  Mn121  1  0.74978728  0.33179803  0.41217809  1
  Mn3.34+  Mn122  1  0.74918927  0.33405534  0.75177876  1
  Mn3.34+  Mn123  1  0.75617461  0.83675095  0.08564724  1
  Mn3.34+  Mn124  1  0.74890522  0.83547904  0.41433130  1
  Mn3.34+  Mn125  1  0.75249761  0.83308523  0.75638187  1
  Mn3.34+  Mn126  1  0.25236465  0.33370282  0.24242572  1
  Mn3.34+  Mn127  1  0.25247015  0.33337324  0.58181808  1
  Mn3.34+  Mn128  1  0.24732001  0.33255550  0.92290368  1
  Mn3.34+  Mn129  1  0.24441507  0.83561947  0.23860240  1
  Mn3.34+  Mn130  1  0.24449564  0.83354299  0.58271665  1
  Mn3.34+  Mn131  1  0.24585580  0.83391804  0.91964866  1
  Mn3.34+  Mn132  1  0.57906627  0.33557542  0.24886567  1
  Mn3.34+  Mn133  1  0.58275403  0.33351426  0.58135621  1
  Mn3.34+  Mn134  1  0.58046458  0.33124676  0.92000000  1
  Mn3.34+  Mn135  1  0.58314045  0.83431905  0.24908969  1
  Mn3.34+  Mn136  1  0.58934107  0.83757750  0.58278704  1
  Mn3.34+  Mn137  1  0.58552538  0.83414628  0.91695540  1
  Mn3.34+  Mn138  1  0.91706297  0.32876168  0.24309572  1
  Mn3.34+  Mn139  1  0.91546789  0.32881088  0.58059655  1
  Mn3.34+  Mn140  1  0.92570191  0.33110000  0.91652312  1
  Mn3.34+  Mn141  1  0.92086414  0.82937608  0.24388801  1
  Mn3.34+  Mn142  1  0.91663372  0.83567957  0.58711981  1
  Mn3.34+  Mn143  1  0.92070411  0.83436861  0.91497297  1
  Mn3.34+  Mn144  1  0.41150192  0.66192820  0.75123923  1
  Mn3.34+  Mn145  1  0.74556461  0.66370544  0.08305781  1
  Mn3.34+  Mn146  1  0.41269748  0.16373242  0.41476886  1
  Mn3.34+  Mn147  1  0.58204056  0.66834218  0.58688797  1
  Mn3.34+  Mn148  1  0.91932437  0.66464180  0.24818619  1
  Mn3.34+  Mn149  1  0.75218350  0.17048255  0.07906181  1
  Mn3.34+  Mn150  1  0.75738071  0.66850247  0.41280447  1
  Mn3.34+  Mn151  1  0.74633309  0.66365693  0.41508580  1
  Mn3.34+  Mn152  1  0.75506824  0.67688027  0.75605493  1
  Mn3.34+  Mn153  1  0.25006175  0.67006430  0.58301255  1
  Mn3.34+  Mn154  1  0.58330820  0.66428091  0.24438498  1
  Mn3.34+  Mn155  1  0.92786110  0.17423204  0.24679442  1
  Mn3.34+  Mn156  1  0.08439587  0.67243846  0.74874224  1
  Mn3.34+  Mn157  1  0.41369624  0.17029942  0.75239095  1
  Mn3.34+  Mn158  1  0.41240395  0.16946432  0.08450251  1
  Mn3.34+  Mn159  1  0.41187986  0.66626458  0.08898558  1
  Mn3.34+  Mn160  1  0.24525238  0.17067751  0.58188062  1
  Mn3.34+  Mn161  1  0.25586692  0.16376797  0.57982196  1
  Mn3.34+  Mn162  1  0.91692436  0.16728710  0.24468227  1
  Mn3.34+  Mn163  1  0.08834752  0.66481387  0.41362113  1
  Mn3.34+  Mn164  1  0.75774822  0.67128636  0.08283928  1
  Mn3.34+  Mn165  1  0.92169564  0.67173471  0.58261050  1
  Mn3.34+  Mn166  1  0.76168718  0.16487062  0.08078448  1
  Mn3.34+  Mn167  1  0.57958026  0.16633511  0.91479743  1
  Mn3.34+  Mn168  1  0.57295659  0.66231432  0.58547293  1
  Mn3.34+  Mn169  1  0.42253510  0.16867607  0.41256549  1
  Mn3.34+  Mn170  1  0.92292927  0.16879297  0.91268010  1
  Mn3.34+  Mn171  1  0.24696438  0.16808918  0.24192593  1
  Mn3.34+  Mn172  1  0.57888244  0.66948635  0.90826004  1
  Mn3.34+  Mn173  1  0.75254836  0.16743371  0.75286245  1
  Mn3.34+  Mn174  1  0.24372342  0.66420206  0.24332090  1
  Mn3.34+  Mn175  1  0.58867651  0.66447527  0.90525040  1
  Mn3.34+  Mn176  1  0.24517144  0.16821681  0.92045584  1
  Mn3.34+  Mn177  1  0.91599114  0.16749012  0.58244801  1
  Mn3.34+  Mn178  1  0.07375127  0.66827704  0.75039819  1
  Mn3.34+  Mn179  1  0.76217094  0.16190413  0.75574026  1
  Mn3.34+  Mn180  1  0.56818767  0.50250939  0.58656748  1
  Mn3.34+  Mn181  1  0.23849897  0.49398039  0.25571114  1
  Mn3.34+  Mn182  1  0.59106825  0.00211504  0.92699420  1
  Mn3.34+  Mn183  1  0.74746155  0.50171247  0.41402497  1
  Mn3.34+  Mn184  1  0.08809324  0.49324864  0.07225892  1
  Mn3.34+  Mn185  1  0.39184224  0.00016442  0.07854384  1
  Mn3.34+  Mn186  1  0.27059875  0.50728425  0.58966901  1
  Mn3.34+  Mn187  1  0.75747650  0.49756248  0.08067165  1
  Mn3.34+  Mn188  1  0.75947083  0.50788602  0.75622169  1
  Mn3.34+  Mn189  1  0.40397565  -0.00655157  0.08091183  1
  Mn3.34+  Mn190  1  0.75206469  -0.00084249  0.75040889  1
  Mn3.34+  Mn191  1  0.24852430  0.00229103  0.91619381  1
  Mn3.34+  Mn192  1  0.06832120  0.50273355  0.75725452  1
  Mn3.34+  Mn193  1  0.90701593  0.00149879  0.59145691  1
  Mn3.34+  Mn194  1  0.91469090  0.00128717  0.23417702  1
  Mn3.34+  Mn195  1  0.08851483  0.00266082  0.40295125  1
  Mn3.34+  Mn196  1  0.55470309  0.50442457  0.58679395  1
  Mn3.34+  Mn197  1  0.41831895  -0.00366454  0.75512098  1
  Mn3.34+  Mn198  1  0.40659372  0.00163612  0.75585313  1
  Mn3.34+  Mn199  1  0.92337284  0.50282081  0.92077939  1
  Mn3.34+  Mn200  1  0.75850178  0.00207611  0.07649667  1
  Mn3.34+  Mn201  1  0.25944536  0.50244733  0.58645682  1
  Mn3.34+  Mn202  1  0.74591972  0.50213523  0.75910672  1
  Mn3.34+  Mn203  1  0.92157045  0.49958764  0.57148199  1
  Mn3.34+  Mn204  1  0.41381318  0.49974751  0.40200073  1
  Mn3.34+  Mn205  1  0.22631407  0.50022088  0.25952191  1
  Mn3.34+  Mn206  1  0.24804527  -0.00066926  0.57601083  1
  Mn3.34+  Mn207  1  0.59129977  -0.00672455  0.25737855  1
  Mn3.34+  Mn208  1  0.75550479  -0.00120087  0.41390410  1
  Mn3.34+  Mn209  1  0.39838300  0.00576134  0.40099599  1
  Mn3.34+  Mn210  1  0.08365222  0.00061265  0.06848431  1
  Mn3.34+  Mn211  1  0.92663533  -0.00372448  0.23482003  1
  Mn3.34+  Mn212  1  0.59570569  -0.00211951  0.58804125  1
  Mn3.34+  Mn213  1  0.40968379  0.00088576  0.40382255  1
  Mn3.34+  Mn214  1  0.08284664  0.49720154  0.75881703  1
  Mn3.34+  Mn215  1  0.58346184  0.50052081  0.91774750  1
  O2-  O216  1  -0.00380300  0.17258496  -0.00529243  1
  O2-  O217  1  -0.00608384  0.17496253  0.33818405  1
  O2-  O218  1  0.00170372  0.16022397  0.66289764  1
  O2-  O219  1  0.01062541  0.68022575  0.00653385  1
  O2-  O220  1  0.00078585  0.66102416  0.33195536  1
  O2-  O221  1  0.00086097  0.65005786  0.66591375  1
  O2-  O222  1  0.33446690  0.16026613  -0.00030790  1
  O2-  O223  1  0.33199635  0.15753013  0.33669193  1
  O2-  O224  1  0.33216009  0.14336917  0.66468770  1
  O2-  O225  1  0.33423836  0.65394092  0.00776248  1
  O2-  O226  1  0.32605936  0.66758778  0.32318102  1
  O2-  O227  1  0.32653245  0.65582385  0.67022302  1
  O2-  O228  1  0.66719409  0.15166615  -0.00028682  1
  O2-  O229  1  0.66112817  0.16749601  0.33764459  1
  O2-  O230  1  0.67399127  0.14968364  0.67099990  1
  O2-  O231  1  0.67210911  0.65983038  -0.01087689  1
  O2-  O232  1  0.66976832  0.64423473  0.32699103  1
  O2-  O233  1  0.66734789  0.66003175  0.66440784  1
  O2-  O234  1  0.16224876  0.16777388  -0.00785452  1
  O2-  O235  1  0.16724435  0.17190121  0.32273967  1
  O2-  O236  1  0.16218185  0.16317692  0.66283099  1
  O2-  O237  1  0.16058667  0.67206364  0.00825786  1
  O2-  O238  1  0.17259912  0.67228875  0.33746170  1
  O2-  O239  1  0.16162248  0.64586817  0.66924386  1
  O2-  O240  1  0.49839628  0.14768760  -0.00037243  1
  O2-  O241  1  0.49577146  0.14259811  0.33481804  1
  O2-  O242  1  0.50255719  0.15931783  0.67744182  1
  O2-  O243  1  0.50536460  0.65051615  0.00043013  1
  O2-  O244  1  0.50097210  0.65711882  0.31835534  1
  O2-  O245  1  0.49775914  0.65489232  0.66974385  1
  O2-  O246  1  0.83564095  0.18708939  -0.00547093  1
  O2-  O247  1  0.83537493  0.16344554  0.32291829  1
  O2-  O248  1  0.84139680  0.14523020  0.67415818  1
  O2-  O249  1  0.84370453  0.66385224  0.01087745  1
  O2-  O250  1  0.83793865  0.63529211  0.33351551  1
  O2-  O251  1  0.82664024  0.67359909  0.65972264  1
  O2-  O252  1  0.00421750  0.32091837  0.00190249  1
  O2-  O253  1  -0.00825759  0.31912343  0.33471417  1
  O2-  O254  1  0.00459915  0.33564541  0.66401706  1
  O2-  O255  1  0.00410729  0.82516834  -0.00318776  1
  O2-  O256  1  -0.00495293  0.84175203  0.33975372  1
  O2-  O257  1  -0.00316881  0.85361080  0.67092496  1
  O2-  O258  1  0.33673408  0.34260291  -0.00472453  1
  O2-  O259  1  0.32838067  0.35007900  0.33373839  1
  O2-  O260  1  0.33165700  0.35455956  0.67407795  1
  O2-  O261  1  0.33425008  0.84092454  -0.00214683  1
  O2-  O262  1  0.32814068  0.83311846  0.33318959  1
  O2-  O263  1  0.33192618  0.85309417  0.66905774  1
  O2-  O264  1  0.67122041  0.34115053  0.00288909  1
  O2-  O265  1  0.66841756  0.34234364  0.33181789  1
  O2-  O266  1  0.66426822  0.35949653  0.66854788  1
  O2-  O267  1  0.67065718  0.83986832  -0.00498398  1
  O2-  O268  1  0.66551083  0.84536262  0.33292259  1
  O2-  O269  1  0.66874004  0.82870652  0.67427826  1
  O2-  O270  1  0.16943716  0.32996673  0.00579077  1
  O2-  O271  1  0.16667860  0.32867060  0.33415463  1
  O2-  O272  1  0.16541983  0.34811677  0.66490835  1
  O2-  O273  1  0.15554155  0.84477566  -0.00670706  1
  O2-  O274  1  0.17055442  0.82765622  0.32952799  1
  O2-  O275  1  0.16135282  0.85443844  0.66309726  1
  O2-  O276  1  0.50071119  0.34735565  -0.00060799  1
  O2-  O277  1  0.50206586  0.34736669  0.33616660  1
  O2-  O278  1  0.50012685  0.34365812  0.66809085  1
  O2-  O279  1  0.50541563  0.84232862  0.00687272  1
  O2-  O280  1  0.49946744  0.84716339  0.33812316  1
  O2-  O281  1  0.50161770  0.85210459  0.67155784  1
  O2-  O282  1  0.83319902  0.32587224  -0.00127547  1
  O2-  O283  1  0.83492061  0.34386910  0.33323583  1
  O2-  O284  1  0.83222956  0.35608123  0.66687691  1
  O2-  O285  1  0.83699804  0.82916682  -0.00576201  1
  O2-  O286  1  0.83637442  0.84388568  0.33510142  1
  O2-  O287  1  0.83516885  0.82909170  0.67315773  1
  O2-  O288  1  0.00466831  0.18993610  0.16900930  1
  O2-  O289  1  -0.00406345  0.17699037  0.50556147  1
  O2-  O290  1  -0.00190420  0.18480124  0.83654358  1
  O2-  O291  1  -0.01145635  0.68001122  0.16487096  1
  O2-  O292  1  0.00034881  0.67235782  0.49914930  1
  O2-  O293  1  0.00600194  0.68979750  0.83453280  1
  O2-  O294  1  0.34394006  0.18229367  0.17171001  1
  O2-  O295  1  0.34026181  0.18175628  0.50255779  1
  O2-  O296  1  0.33591087  0.17772114  0.83458174  1
  O2-  O297  1  0.33737424  0.68327847  0.17004552  1
  O2-  O298  1  0.32072802  0.68013632  0.50064873  1
  O2-  O299  1  0.33580763  0.67430922  0.83278461  1
  O2-  O300  1  0.66883657  0.17770892  0.15849909  1
  O2-  O301  1  0.66292890  0.17597539  0.49537416  1
  O2-  O302  1  0.66233147  0.18064512  0.82708673  1
  O2-  O303  1  0.66260442  0.67959856  0.15847148  1
  O2-  O304  1  0.67131390  0.68219414  0.50922253  1
  O2-  O305  1  0.66382809  0.69575881  0.82718185  1
  O2-  O306  1  0.17014332  0.18001506  0.16784142  1
  O2-  O307  1  0.16766518  0.18608688  0.50189737  1
  O2-  O308  1  0.17080407  0.18004528  0.83480192  1
  O2-  O309  1  0.17309092  0.68901365  0.16688492  1
  O2-  O310  1  0.16195339  0.68264279  0.50562384  1
  O2-  O311  1  0.16687624  0.67708588  0.82672279  1
  O2-  O312  1  0.50293943  0.17059850  0.15416341  1
  O2-  O313  1  0.49920616  0.17741302  0.49555509  1
  O2-  O314  1  0.49922503  0.18254697  0.83171889  1
  O2-  O315  1  0.50732813  0.67637143  0.15852868  1
  O2-  O316  1  0.50653789  0.67088132  0.49585864  1
  O2-  O317  1  0.49562255  0.69019111  0.83281955  1
  O2-  O318  1  0.83946130  0.18914679  0.16330959  1
  O2-  O319  1  0.83414812  0.17397059  0.50584602  1
  O2-  O320  1  0.83507965  0.18972173  0.83559188  1
  O2-  O321  1  0.81890042  0.68026118  0.18239734  1
  O2-  O322  1  0.83121924  0.68269537  0.50405637  1
  O2-  O323  1  0.83091080  0.70371693  0.82492826  1
  O2-  O324  1  -0.00028033  0.31429045  0.16452319  1
  O2-  O325  1  0.00087110  0.30931002  0.49997274  1
  O2-  O326  1  0.00008872  0.30880769  0.82766121  1
  O2-  O327  1  0.00636484  0.80892123  0.16967731  1
  O2-  O328  1  -0.00031401  0.83452275  0.49816189  1
  O2-  O329  1  0.00335501  0.81576301  0.83549965  1
  O2-  O330  1  0.33059007  0.32034474  0.15912657  1
  O2-  O331  1  0.33382974  0.33254583  0.50231247  1
  O2-  O332  1  0.33048932  0.32135555  0.83069972  1
  O2-  O333  1  0.33427637  0.81199692  0.17379594  1
  O2-  O334  1  0.33772627  0.82020672  0.50876119  1
  O2-  O335  1  0.32992609  0.82534201  0.83361215  1
  O2-  O336  1  0.66752905  0.31510634  0.16769884  1
  O2-  O337  1  0.67327221  0.32725872  0.50553513  1
  O2-  O338  1  0.67090394  0.32385936  0.83896411  1
  O2-  O339  1  0.66170047  0.82681171  0.16286518  1
  O2-  O340  1  0.66323099  0.82400121  0.49356783  1
  O2-  O341  1  0.66478272  0.81347415  0.83308503  1
  O2-  O342  1  0.16913992  0.31079514  0.16362698  1
  O2-  O343  1  0.15979212  0.32006817  0.50032878  1
  O2-  O344  1  0.17608826  0.32010542  0.82647064  1
  O2-  O345  1  0.17038724  0.80927133  0.16295261  1
  O2-  O346  1  0.16914524  0.82759269  0.49567307  1
  O2-  O347  1  0.16557428  0.82595490  0.83019197  1
  O2-  O348  1  0.50080163  0.32894658  0.16330981  1
  O2-  O349  1  0.49815882  0.32757273  0.50428559  1
  O2-  O350  1  0.50487569  0.31825967  0.83048293  1
  O2-  O351  1  0.49436858  0.81908945  0.17378747  1
  O2-  O352  1  0.49309644  0.82791138  0.50277163  1
  O2-  O353  1  0.49679359  0.81637251  0.83972445  1
  O2-  O354  1  0.83479674  0.30469325  0.16905125  1
  O2-  O355  1  0.82731535  0.32727415  0.50384497  1
  O2-  O356  1  0.83554673  0.31846214  0.83527290  1
  O2-  O357  1  0.83886684  0.81651229  0.16289422  1
  O2-  O358  1  0.84115571  0.82201467  0.49277031  1
  O2-  O359  1  0.83735990  0.82254401  0.83619985  1
  O2-  O360  1  0.05638884  0.06019992  0.13083892  1
  O2-  O361  1  0.06589804  0.06321803  0.46772047  1
  O2-  O362  1  0.08371495  0.07029493  0.77477714  1
  O2-  O363  1  0.08322367  0.56707836  0.11245213  1
  O2-  O364  1  0.09231059  0.58689557  0.43603948  1
  O2-  O365  1  0.07937321  0.58320209  0.78717581  1
  O2-  O366  1  0.41770770  0.07965882  0.11164280  1
  O2-  O367  1  0.41424775  0.07828529  0.46186534  1
  O2-  O368  1  0.42065482  0.08315239  0.78005003  1
  O2-  O369  1  0.42244179  0.58367064  0.11898340  1
  O2-  O370  1  0.40692399  0.56978853  0.44419020  1
  O2-  O371  1  0.40838410  0.58253119  0.78444316  1
  O2-  O372  1  0.75759867  0.08090464  0.12251072  1
  O2-  O373  1  0.75775511  0.07620254  0.43454787  1
  O2-  O374  1  0.73700823  0.07924240  0.78897046  1
  O2-  O375  1  0.74250986  0.58000020  0.11296356  1
  O2-  O376  1  0.75051317  0.57934913  0.46109062  1
  O2-  O377  1  0.75689483  0.58919686  0.75443910  1
  O2-  O378  1  0.25688908  0.08811168  0.22598009  1
  O2-  O379  1  0.23437929  0.08297252  0.55398727  1
  O2-  O380  1  0.25218161  0.08285559  0.89075950  1
  O2-  O381  1  0.25115377  0.57682558  0.21145306  1
  O2-  O382  1  0.23862504  0.58433470  0.55081565  1
  O2-  O383  1  0.24125955  0.56987014  0.88732084  1
  O2-  O384  1  0.60088007  0.06921648  0.21810472  1
  O2-  O385  1  0.59558206  0.07646397  0.56172670  1
  O2-  O386  1  0.57034018  0.08070628  0.87588609  1
  O2-  O387  1  0.59911281  0.57936519  0.21526522  1
  O2-  O388  1  0.60977746  0.57920725  0.54719470  1
  O2-  O389  1  0.57845259  0.58026194  0.88467685  1
  O2-  O390  1  0.91624412  0.08350722  0.20935219  1
  O2-  O391  1  0.91879551  0.08166062  0.56031013  1
  O2-  O392  1  0.92950535  0.08930354  0.89964883  1
  O2-  O393  1  0.89770313  0.58179020  0.19762560  1
  O2-  O394  1  0.90206026  0.58481212  0.55921374  1
  O2-  O395  1  0.95231133  0.57954622  0.92574725  1
  O2-  O396  1  0.07637783  0.42262480  0.11710652  1
  O2-  O397  1  0.05938451  0.41406647  0.44341672  1
  O2-  O398  1  0.07435064  0.41604462  0.78106382  1
  O2-  O399  1  0.08108932  0.92544977  0.09527847  1
  O2-  O400  1  0.07771728  0.92538097  0.43978267  1
  O2-  O401  1  0.07687288  0.91897274  0.78356152  1
  O2-  O402  1  0.41283236  0.41830230  0.09321669  1
  O2-  O403  1  0.41402322  0.42934342  0.45192435  1
  O2-  O404  1  0.41235919  0.41407378  0.79513459  1
  O2-  O405  1  0.41265101  0.91577424  0.11326651  1
  O2-  O406  1  0.40473893  0.92045069  0.44406686  1
  O2-  O407  1  0.42020743  0.91676455  0.78482198  1
  O2-  O408  1  0.77140625  0.41504155  0.10337937  1
  O2-  O409  1  0.75103116  0.42034702  0.43859903  1
  O2-  O410  1  0.75689976  0.42331163  0.79440187  1
  O2-  O411  1  0.74309647  0.92110741  0.08589569  1
  O2-  O412  1  0.76750260  0.91854529  0.44102645  1
  O2-  O413  1  0.75101324  0.92143113  0.78953876  1
  O2-  O414  1  0.23973053  0.41852546  0.21048401  1
  O2-  O415  1  0.22096869  0.42710476  0.54446396  1
  O2-  O416  1  0.25184379  0.41452485  0.90408557  1
  O2-  O417  1  0.25460086  0.91132051  0.23506678  1
  O2-  O418  1  0.26517232  0.91966656  0.54591528  1
  O2-  O419  1  0.23853885  0.92226074  0.88829825  1
  O2-  O420  1  0.60198879  0.41822897  0.22794782  1
  O2-  O421  1  0.60146894  0.42670017  0.54002261  1
  O2-  O422  1  0.60268059  0.41924056  0.89273259  1
  O2-  O423  1  0.56796933  0.91767737  0.22112666  1
  O2-  O424  1  0.56150950  0.92204278  0.55198310  1
  O2-  O425  1  0.58334111  0.92096006  0.88868935  1
  O2-  O426  1  0.90849047  0.41362263  0.23623922  1
  O2-  O427  1  0.92756358  0.41403512  0.54650686  1
  O2-  O428  1  0.90015047  0.42062799  0.88976820  1
  O2-  O429  1  0.92257115  0.91423573  0.23184261  1
  O2-  O430  1  0.91416630  0.92183578  0.55646542  1
  O2-  O431  1  0.93053958  0.91697961  0.89176475  1
  O2-  O432  1  0.00458176  -0.00093066  -0.00657698  1
  O2-  O433  1  0.00125699  0.01184648  0.33072108  1
  O2-  O434  1  0.00628422  0.00337292  0.63999516  1
  O2-  O435  1  -0.01457504  0.49298297  0.02500732  1
  O2-  O436  1  -0.01596152  0.50460519  0.36598212  1
  O2-  O437  1  0.00494914  0.48509618  0.65801742  1
  O2-  O438  1  0.35197533  -0.00197559  -0.03196568  1
  O2-  O439  1  0.33939435  -0.01168942  0.30857453  1
  O2-  O440  1  0.33019680  -0.01052036  0.66532410  1
  O2-  O441  1  0.34067638  0.50211047  -0.01222312  1
  O2-  O442  1  0.34504061  0.50701082  0.31214311  1
  O2-  O443  1  0.32051428  0.48477656  0.68790949  1
  O2-  O444  1  0.65486323  0.01439471  0.03205546  1
  O2-  O445  1  0.65857669  0.00304134  0.35211595  1
  O2-  O446  1  0.64365284  0.00039446  0.70237147  1
  O2-  O447  1  0.65284160  0.49700735  0.02080197  1
  O2-  O448  1  0.67230838  0.50983072  0.33827891  1
  O2-  O449  1  0.66188603  0.49989718  0.66774762  1
  O2-  O450  1  0.14950707  0.00299032  -0.02583053  1
  O2-  O451  1  0.17142564  0.00349828  0.33968224  1
  O2-  O452  1  0.15969275  0.00173593  0.64317204  1
  O2-  O453  1  0.17978256  0.50116484  0.02250778  1
  O2-  O454  1  0.18930126  0.49398740  0.36532025  1
  O2-  O455  1  0.16234640  0.50780832  0.66513208  1
  O2-  O456  1  0.50443543  0.00573044  0.01892441  1
  O2-  O457  1  0.50125422  0.00601829  0.33168013  1
  O2-  O458  1  0.49275337  0.01338381  0.66005850  1
  O2-  O459  1  0.49974218  0.50548808  -0.00192085  1
  O2-  O460  1  0.51084124  0.50475591  0.35623444  1
  O2-  O461  1  0.49082101  0.47247021  0.66722045  1
  O2-  O462  1  0.83453804  0.00426793  0.00392512  1
  O2-  O463  1  0.84054620  0.00422260  0.33146369  1
  O2-  O464  1  0.85582182  0.00293106  0.70094613  1
  O2-  O465  1  0.82052458  0.49245103  -0.01889325  1
  O2-  O466  1  0.82775950  0.50182060  0.33138122  1
  O2-  O467  1  0.81899953  0.49237181  0.64855126  1
  O2-  O468  1  0.26853096  0.24859287  0.61440745  1
  O2-  O469  1  0.57198939  0.75229155  0.60113075  1
  O2-  O470  1  0.08789461  0.75411422  0.71415907  1
  O2-  O471  1  0.24330035  0.75184556  0.61396177  1
  O2-  O472  1  0.74527155  0.24907235  0.71789475  1
  O2-  O473  1  0.07444535  0.75124933  0.40836046  1
  O2-  O474  1  0.73949928  0.75198570  0.06510122  1
  O2-  O475  1  0.58912822  0.74888587  0.27050416  1
  O2-  O476  1  0.26908832  0.25361115  0.26624871  1
  O2-  O477  1  0.58734604  0.25608426  0.60352292  1
  O2-  O478  1  0.42207181  0.74762245  0.05649853  1
  O2-  O479  1  0.57075016  0.25547419  0.26799722  1
  O2-  O480  1  0.74691430  0.75146847  0.39084249  1
  O2-  O481  1  0.41177406  0.25086556  0.72244984  1
  O2-  O482  1  0.42409503  0.25060958  0.06247596  1
  O2-  O483  1  0.42104516  0.75115176  0.40394454  1
  O2-  O484  1  0.40971940  0.25333750  0.39778057  1
  O2-  O485  1  0.24580059  0.75486904  0.93018932  1
  O2-  O486  1  0.41192195  0.75088064  0.71916077  1
  O2-  O487  1  0.75201445  0.25370795  0.40498817  1
  O2-  O488  1  0.90700874  0.74664436  0.27887639  1
  O2-  O489  1  0.90146314  0.24938734  0.60895290  1
  O2-  O490  1  0.58690057  0.24807222  0.94517958  1
  O2-  O491  1  0.26022015  0.25036078  0.93437192  1
  O2-  O492  1  0.93571012  0.75283436  0.60003559  1
