# generated using pymatgen
data_Ca108Mn108O277
_symmetry_space_group_name_H-M   'P 1'
_cell_length_a   16.02704584
_cell_length_b   22.30799519
_cell_length_c   16.38856306
_cell_angle_alpha   89.99965362
_cell_angle_beta   89.99832231
_cell_angle_gamma   89.99864605
_symmetry_Int_Tables_number   1
_chemical_formula_structural   Ca108Mn108O277
_chemical_formula_sum   'Ca108 Mn108 O277'
_cell_volume   5859.42362066
_cell_formula_units_Z   1
loop_
 _symmetry_equiv_pos_site_id
 _symmetry_equiv_pos_as_xyz
  1  'x, y, z'
loop_
 _atom_type_symbol
 _atom_type_oxidation_number
  Ca2+  2.0
  Mn3.34+  3.34
  O2-  -2.0
loop_
 _atom_site_type_symbol
 _atom_site_label
 _atom_site_symmetry_multiplicity
 _atom_site_fract_x
 _atom_site_fract_y
 _atom_site_fract_z
 _atom_site_occupancy
  Ca2+  Ca0  1  0.08610674  0.25725208  0.24378828  1
  Ca2+  Ca1  1  0.06630283  0.24856347  0.59858398  1
  Ca2+  Ca2  1  0.07129946  0.26407483  0.90215231  1
  Ca2+  Ca3  1  0.06955108  0.76183794  0.25327978  1
  Ca2+  Ca4  1  0.07201706  0.76281400  0.57882403  1
  Ca2+  Ca5  1  0.10800591  0.74189360  0.91049071  1
  Ca2+  Ca6  1  0.41974496  0.26973792  0.25873433  1
  Ca2+  Ca7  1  0.42758009  0.23861369  0.58996622  1
  Ca2+  Ca8  1  0.42124791  0.25168948  0.90927883  1
  Ca2+  Ca9  1  0.43616982  0.75563687  0.25544836  1
  Ca2+  Ca10  1  0.41794748  0.75674470  0.59627136  1
  Ca2+  Ca11  1  0.41370619  0.75119589  0.89480103  1
  Ca2+  Ca12  1  0.76322164  0.23915080  0.25778860  1
  Ca2+  Ca13  1  0.75399230  0.23549585  0.59223655  1
  Ca2+  Ca14  1  0.76020274  0.24134232  0.89773836  1
  Ca2+  Ca15  1  0.73696860  0.74266618  0.24189112  1
  Ca2+  Ca16  1  0.75411616  0.75183849  0.59162666  1
  Ca2+  Ca17  1  0.74074580  0.74480517  0.92648734  1
  Ca2+  Ca18  1  0.24926053  0.26476816  0.08592127  1
  Ca2+  Ca19  1  0.26701185  0.25161016  0.42380675  1
  Ca2+  Ca20  1  0.24176278  0.24516684  0.73767787  1
  Ca2+  Ca21  1  0.25407748  0.75913317  0.07403499  1
  Ca2+  Ca22  1  0.26300091  0.75161515  0.41417823  1
  Ca2+  Ca23  1  0.27002771  0.74704640  0.76714703  1
  Ca2+  Ca24  1  0.59828892  0.25781883  0.08436616  1
  Ca2+  Ca25  1  0.58583140  0.24749029  0.43161868  1
  Ca2+  Ca26  1  0.59918538  0.24054360  0.73504964  1
  Ca2+  Ca27  1  0.59649002  0.75627313  0.09061797  1
  Ca2+  Ca28  1  0.57209518  0.74101529  0.40246084  1
  Ca2+  Ca29  1  0.56785901  0.75100454  0.75121113  1
  Ca2+  Ca30  1  0.90476015  0.24929214  0.08320435  1
  Ca2+  Ca31  1  0.90031507  0.24866044  0.43806424  1
  Ca2+  Ca32  1  0.90609269  0.24054100  0.73358036  1
  Ca2+  Ca33  1  0.88903406  0.75181187  0.09553067  1
  Ca2+  Ca34  1  0.90896474  0.75299089  0.41685821  1
  Ca2+  Ca35  1  0.90505862  0.74703234  0.73922348  1
  Ca2+  Ca36  1  0.75734387  0.09028894  0.58699247  1
  Ca2+  Ca37  1  0.42941589  0.60174589  0.29700219  1
  Ca2+  Ca38  1  0.87254174  0.58058789  0.72147351  1
  Ca2+  Ca39  1  0.06269788  0.08307170  0.26507166  1
  Ca2+  Ca40  1  0.28336963  0.06376356  0.08862659  1
  Ca2+  Ca41  1  0.90174206  0.09415974  0.71818534  1
  Ca2+  Ca42  1  0.10223054  0.58092448  0.26674534  1
  Ca2+  Ca43  1  0.08974771  0.58324672  0.26851350  1
  Ca2+  Ca44  1  0.10726966  0.59137545  0.90458801  1
  Ca2+  Ca45  1  0.86037856  0.57843486  0.72400772  1
  Ca2+  Ca46  1  0.43709501  0.61104932  0.56303956  1
  Ca2+  Ca47  1  0.06866928  0.10169396  0.58890410  1
  Ca2+  Ca48  1  0.89711753  0.10272426  0.09399645  1
  Ca2+  Ca49  1  0.77500615  0.08639259  0.26894657  1
  Ca2+  Ca50  1  0.60213840  0.08491973  0.43647370  1
  Ca2+  Ca51  1  0.56987866  0.05838864  0.05275425  1
  Ca2+  Ca52  1  0.89994404  0.09306449  0.43403877  1
  Ca2+  Ca53  1  0.07584412  0.08421764  0.26628903  1
  Ca2+  Ca54  1  0.61896991  0.60859886  0.73659609  1
  Ca2+  Ca55  1  0.39900970  0.60608879  0.89540375  1
  Ca2+  Ca56  1  0.25287094  0.60852213  0.76241856  1
  Ca2+  Ca57  1  0.25092895  0.57988983  0.07819585  1
  Ca2+  Ca58  1  0.04691052  0.57598556  0.60447579  1
  Ca2+  Ca59  1  0.41024954  0.60691849  0.89623503  1
  Ca2+  Ca60  1  0.26034599  0.59198329  0.39989106  1
  Ca2+  Ca61  1  0.88228595  0.59988082  0.09328532  1
  Ca2+  Ca62  1  0.74905866  0.60653160  0.91093753  1
  Ca2+  Ca63  1  0.05651840  0.57347840  0.60706544  1
  Ca2+  Ca64  1  0.55740181  0.08468467  0.71813273  1
  Ca2+  Ca65  1  0.43866391  0.60405631  0.29311255  1
  Ca2+  Ca66  1  0.06968874  0.10181152  0.90652972  1
  Ca2+  Ca67  1  0.25861226  0.57745342  0.08445806  1
  Ca2+  Ca68  1  0.61488798  0.61129445  0.09677031  1
  Ca2+  Ca69  1  0.43557205  0.07839799  0.89744617  1
  Ca2+  Ca70  1  0.87194832  0.60131660  0.09271974  1
  Ca2+  Ca71  1  0.62644746  0.60598140  0.74290723  1
  Ca2+  Ca72  1  0.44936905  0.92340507  0.92056511  1
  Ca2+  Ca73  1  0.41568348  0.40365744  0.91955487  1
  Ca2+  Ca74  1  0.75612016  0.40148458  0.24801283  1
  Ca2+  Ca75  1  0.90050763  0.91701985  0.70758916  1
  Ca2+  Ca76  1  0.93246403  0.41991597  0.73049194  1
  Ca2+  Ca77  1  0.74292796  0.40514077  0.90584755  1
  Ca2+  Ca78  1  0.89895795  0.91308845  0.43537254  1
  Ca2+  Ca79  1  0.90903542  0.91280638  0.43166632  1
  Ca2+  Ca80  1  0.09273446  0.40878009  0.25467546  1
  Ca2+  Ca81  1  0.06886989  0.89258884  0.91248533  1
  Ca2+  Ca82  1  0.73184083  0.40526638  0.90378720  1
  Ca2+  Ca83  1  0.26011508  0.40853791  0.09564222  1
  Ca2+  Ca84  1  0.41787390  0.39036073  0.58436156  1
  Ca2+  Ca85  1  0.24609676  0.41835279  0.38655729  1
  Ca2+  Ca86  1  0.43906979  0.92302804  0.91841893  1
  Ca2+  Ca87  1  0.58627151  0.40843829  0.42443176  1
  Ca2+  Ca88  1  0.72363752  0.91287878  0.92721565  1
  Ca2+  Ca89  1  0.74792512  0.91341682  0.26631204  1
  Ca2+  Ca90  1  0.27018400  0.91037469  0.09411210  1
  Ca2+  Ca91  1  0.24399355  0.90734215  0.39175060  1
  Ca2+  Ca92  1  0.76244356  0.42489084  0.60263868  1
  Ca2+  Ca93  1  0.90522892  0.89763252  0.08945062  1
  Ca2+  Ca94  1  0.77174376  0.42855226  0.60157712  1
  Ca2+  Ca95  1  0.93944912  0.42587770  0.73012424  1
  Ca2+  Ca96  1  0.23699324  0.39898361  0.75034694  1
  Ca2+  Ca97  1  0.08171181  0.89247750  0.91326240  1
  Ca2+  Ca98  1  0.07771130  0.40501732  0.58174796  1
  Ca2+  Ca99  1  0.91913872  0.40124004  0.08867002  1
  Ca2+  Ca100  1  0.76906851  0.40088562  0.24816013  1
  Ca2+  Ca101  1  0.43403753  0.91804196  0.59728653  1
  Ca2+  Ca102  1  0.56957891  0.40721464  0.07289552  1
  Ca2+  Ca103  1  0.57342694  0.40800155  0.42448526  1
  Ca2+  Ca104  1  0.56844448  0.91829226  0.73621167  1
  Ca2+  Ca105  1  0.57965922  0.91071314  0.08645209  1
  Ca2+  Ca106  1  0.26828398  0.90617205  0.74319607  1
  Ca2+  Ca107  1  0.41680416  0.90859045  0.24855332  1
  Mn3.34+  Mn108  1  0.08369940  0.33737242  0.07925763  1
  Mn3.34+  Mn109  1  0.08136498  0.33121241  0.42032456  1
  Mn3.34+  Mn110  1  0.08210676  0.33604832  0.75146118  1
  Mn3.34+  Mn111  1  0.08212017  0.82885320  0.08858434  1
  Mn3.34+  Mn112  1  0.08570835  0.83537093  0.41697233  1
  Mn3.34+  Mn113  1  0.08417403  0.82951022  0.74562576  1
  Mn3.34+  Mn114  1  0.41716064  0.33289438  0.08371973  1
  Mn3.34+  Mn115  1  0.41551533  0.33249551  0.41846848  1
  Mn3.34+  Mn116  1  0.41469597  0.32426962  0.75068500  1
  Mn3.34+  Mn117  1  0.41945245  0.83733944  0.08473282  1
  Mn3.34+  Mn118  1  0.42302686  0.83677707  0.42444119  1
  Mn3.34+  Mn119  1  0.41796272  0.83565963  0.74889269  1
  Mn3.34+  Mn120  1  0.75067705  0.33086051  0.08216175  1
  Mn3.34+  Mn121  1  0.75111698  0.33406174  0.42383885  1
  Mn3.34+  Mn122  1  0.75085916  0.33424168  0.74920058  1
  Mn3.34+  Mn123  1  0.74619335  0.83504863  0.08704060  1
  Mn3.34+  Mn124  1  0.74027747  0.83782717  0.42232391  1
  Mn3.34+  Mn125  1  0.74477845  0.83187444  0.75302525  1
  Mn3.34+  Mn126  1  0.25100387  0.33587781  0.25061423  1
  Mn3.34+  Mn127  1  0.24750024  0.32490555  0.57927409  1
  Mn3.34+  Mn128  1  0.24736043  0.33512944  0.91685414  1
  Mn3.34+  Mn129  1  0.25074458  0.83247580  0.24691572  1
  Mn3.34+  Mn130  1  0.24999370  0.83682730  0.57865617  1
  Mn3.34+  Mn131  1  0.25437137  0.83208870  0.91690031  1
  Mn3.34+  Mn132  1  0.58235376  0.33377727  0.24839466  1
  Mn3.34+  Mn133  1  0.58748741  0.33299029  0.58881083  1
  Mn3.34+  Mn134  1  0.57898563  0.32973948  0.90964410  1
  Mn3.34+  Mn135  1  0.58540234  0.83496189  0.25359626  1
  Mn3.34+  Mn136  1  0.58903328  0.83916588  0.57840206  1
  Mn3.34+  Mn137  1  0.58513548  0.83042678  0.91319544  1
  Mn3.34+  Mn138  1  0.92508824  0.32776535  0.25526022  1
  Mn3.34+  Mn139  1  0.91569545  0.33317446  0.58004141  1
  Mn3.34+  Mn140  1  0.91717862  0.33381017  0.91440148  1
  Mn3.34+  Mn141  1  0.91467696  0.83303507  0.25273791  1
  Mn3.34+  Mn142  1  0.91376800  0.83247190  0.58302815  1
  Mn3.34+  Mn143  1  0.90765201  0.82673776  0.90995152  1
  Mn3.34+  Mn144  1  0.41675958  0.16748991  0.42975282  1
  Mn3.34+  Mn145  1  0.74921649  0.16514565  0.08318502  1
  Mn3.34+  Mn146  1  0.07838316  0.66462738  0.42340679  1
  Mn3.34+  Mn147  1  0.07920083  0.16699699  0.08354678  1
  Mn3.34+  Mn148  1  0.91143269  0.16803331  0.91001882  1
  Mn3.34+  Mn149  1  0.42408933  0.66572982  0.08847341  1
  Mn3.34+  Mn150  1  0.08084983  0.17588418  0.42336977  1
  Mn3.34+  Mn151  1  0.25838720  0.17022437  0.91158357  1
  Mn3.34+  Mn152  1  0.58468205  0.66853448  0.91505496  1
  Mn3.34+  Mn153  1  0.26501863  0.15497097  0.25438485  1
  Mn3.34+  Mn154  1  0.08784805  0.66857751  0.08496394  1
  Mn3.34+  Mn155  1  0.09057185  0.17089036  0.08053596  1
  Mn3.34+  Mn156  1  0.58763922  0.16271739  0.25132701  1
  Mn3.34+  Mn157  1  0.08220160  0.17043710  0.74762118  1
  Mn3.34+  Mn158  1  0.42783791  0.16489329  0.08197406  1
  Mn3.34+  Mn159  1  0.41587625  0.15779578  0.08442928  1
  Mn3.34+  Mn160  1  0.75209621  0.16422220  0.42115524  1
  Mn3.34+  Mn161  1  0.75380592  0.65950871  0.42075742  1
  Mn3.34+  Mn162  1  0.25295930  0.16250790  0.25429159  1
  Mn3.34+  Mn163  1  0.58856799  0.15728653  0.90925152  1
  Mn3.34+  Mn164  1  0.24843921  0.16473647  0.90924288  1
  Mn3.34+  Mn165  1  0.73984149  0.66418337  0.41397784  1
  Mn3.34+  Mn166  1  0.07380593  0.66175965  0.08165537  1
  Mn3.34+  Mn167  1  0.92004670  0.67168596  0.90410875  1
  Mn3.34+  Mn168  1  0.58423729  0.16170368  0.58464951  1
  Mn3.34+  Mn169  1  0.58900609  0.66956570  0.57986822  1
  Mn3.34+  Mn170  1  0.07813523  0.66490795  0.75227819  1
  Mn3.34+  Mn171  1  0.57533743  0.15733391  0.25018516  1
  Mn3.34+  Mn172  1  0.59751603  0.16304683  0.91187670  1
  Mn3.34+  Mn173  1  0.24380747  0.66607252  0.57832411  1
  Mn3.34+  Mn174  1  0.91155969  0.66909346  0.58002437  1
  Mn3.34+  Mn175  1  0.09239300  0.16995207  0.42600628  1
  Mn3.34+  Mn176  1  0.91329921  0.66621271  0.25563687  1
  Mn3.34+  Mn177  1  0.41446429  0.67150525  0.08563862  1
  Mn3.34+  Mn178  1  0.25380305  0.67126333  0.58076913  1
  Mn3.34+  Mn179  1  0.24557803  0.67332808  0.24887124  1
  Mn3.34+  Mn180  1  0.58642106  0.00104022  0.25755751  1
  Mn3.34+  Mn181  1  0.59451494  0.50591434  0.25594543  1
  Mn3.34+  Mn182  1  0.24690309  0.49278626  0.92283374  1
  Mn3.34+  Mn183  1  0.72065343  0.01286188  0.76466953  1
  Mn3.34+  Mn184  1  0.58159222  0.49882668  0.25384723  1
  Mn3.34+  Mn185  1  0.40662935  0.49869572  0.41472185  1
  Mn3.34+  Mn186  1  0.58669390  0.50522805  0.58545039  1
  Mn3.34+  Mn187  1  0.25344315  0.00257940  0.90791722  1
  Mn3.34+  Mn188  1  0.41485241  0.00274863  0.41320538  1
  Mn3.34+  Mn189  1  0.75424698  0.00663933  0.76236366  1
  Mn3.34+  Mn190  1  0.07137654  0.00144688  0.09040935  1
  Mn3.34+  Mn191  1  0.91896701  -0.00656710  0.26323208  1
  Mn3.34+  Mn192  1  0.08823554  0.00441480  0.74505581  1
  Mn3.34+  Mn193  1  0.91431761  -0.00198079  0.91014286  1
  Mn3.34+  Mn194  1  0.42761790  0.50168862  0.08937675  1
  Mn3.34+  Mn195  1  0.23768946  -0.00118257  0.90962125  1
  Mn3.34+  Mn196  1  0.91529305  0.49934660  0.26466136  1
  Mn3.34+  Mn197  1  0.90200810  0.00526665  0.91237498  1
  Mn3.34+  Mn198  1  0.09342827  0.00194372  0.41690183  1
  Mn3.34+  Mn199  1  0.25059057  0.00254996  0.58279023  1
  Mn3.34+  Mn200  1  0.92934979  0.50160561  0.91918505  1
  Mn3.34+  Mn201  1  0.58217521  0.50112311  0.91313464  1
  Mn3.34+  Mn202  1  0.26254953  0.49666550  0.57469361  1
  Mn3.34+  Mn203  1  0.74829747  0.00072776  0.08362060  1
  Mn3.34+  Mn204  1  0.08544548  -0.00477407  0.09107163  1
  Mn3.34+  Mn205  1  0.26168822  0.01036233  0.58539150  1
  Mn3.34+  Mn206  1  0.07924555  0.49779458  0.08593651  1
  Mn3.34+  Mn207  1  0.42895722  0.48975778  0.74136532  1
  Mn3.34+  Mn208  1  0.73980781  0.49603551  0.07993046  1
  Mn3.34+  Mn209  1  0.41678388  0.49730267  0.74492502  1
  Mn3.34+  Mn210  1  0.76612719  0.50204094  0.41127636  1
  Mn3.34+  Mn211  1  0.40401130  0.00963530  0.41052262  1
  Mn3.34+  Mn212  1  0.91538950  0.50780797  0.91911436  1
  Mn3.34+  Mn213  1  0.08042799  0.49880434  0.41964682  1
  Mn3.34+  Mn214  1  0.24776157  0.50223176  0.57355945  1
  Mn3.34+  Mn215  1  0.07424525  -0.00136692  0.74251259  1
  O2-  O216  1  -0.00536249  0.14658150  0.00436503  1
  O2-  O217  1  0.01042210  0.16046132  0.33463345  1
  O2-  O218  1  -0.00104160  0.16160236  0.67609160  1
  O2-  O219  1  0.00893856  0.65065562  -0.01698171  1
  O2-  O220  1  0.01164235  0.65858013  0.32393726  1
  O2-  O221  1  -0.00037855  0.66418533  0.66465585  1
  O2-  O222  1  0.33730346  0.14002041  -0.00819977  1
  O2-  O223  1  0.33650953  0.15717049  0.34140949  1
  O2-  O224  1  0.33306472  0.19224119  0.66774242  1
  O2-  O225  1  0.33499826  0.64479406  0.00971646  1
  O2-  O226  1  0.32658284  0.66815461  0.32590268  1
  O2-  O227  1  0.33199706  0.64693803  0.65741412  1
  O2-  O228  1  0.65772419  0.14536027  0.00662928  1
  O2-  O229  1  0.67096301  0.14527144  0.32914217  1
  O2-  O230  1  0.66605799  0.15744636  0.65976731  1
  O2-  O231  1  0.66746396  0.66071524  -0.00979732  1
  O2-  O232  1  0.66436669  0.66271157  0.33669744  1
  O2-  O233  1  0.66555106  0.68654603  0.66331750  1
  O2-  O234  1  0.17359304  0.14049557  -0.00225830  1
  O2-  O235  1  0.16459540  0.15814589  0.33598376  1
  O2-  O236  1  0.15796757  0.17237152  0.66767328  1
  O2-  O237  1  0.17357343  0.64599309  0.01064498  1
  O2-  O238  1  0.16666048  0.66151199  0.33988892  1
  O2-  O239  1  0.15917436  0.64848932  0.65709995  1
  O2-  O240  1  0.50166328  0.14742043  -0.00861059  1
  O2-  O241  1  0.50786081  0.14908284  0.34005992  1
  O2-  O242  1  0.50627097  0.17263428  0.66502305  1
  O2-  O243  1  0.49916920  0.64028619  0.00025783  1
  O2-  O244  1  0.48297520  0.68335545  0.33653145  1
  O2-  O245  1  0.51942011  0.65819013  0.66933639  1
  O2-  O246  1  0.83106981  0.15824056  -0.00282450  1
  O2-  O247  1  0.83472238  0.16404431  0.34031937  1
  O2-  O248  1  0.83002396  0.16402248  0.65590306  1
  O2-  O249  1  0.84633008  0.66701615  -0.00473034  1
  O2-  O250  1  0.83610273  0.65218744  0.34224512  1
  O2-  O251  1  0.83501304  0.66719510  0.66539470  1
  O2-  O252  1  -0.00448103  0.34453837  0.00129746  1
  O2-  O253  1  0.00043282  0.30264624  0.33809638  1
  O2-  O254  1  0.00114600  0.34367470  0.66299052  1
  O2-  O255  1  -0.00693211  0.83966938  -0.00352792  1
  O2-  O256  1  -0.00023262  0.83581094  0.33603580  1
  O2-  O257  1  -0.00398366  0.82821525  0.67077869  1
  O2-  O258  1  0.33198906  0.34499425  0.00171087  1
  O2-  O259  1  0.32850290  0.34144595  0.34085537  1
  O2-  O260  1  0.32713981  0.32573574  0.66904775  1
  O2-  O261  1  0.33862168  0.85758608  -0.00690811  1
  O2-  O262  1  0.33466920  0.82698969  0.33329259  1
  O2-  O263  1  0.34252119  0.85102782  0.65859350  1
  O2-  O264  1  0.66210428  0.35042071  0.00217447  1
  O2-  O265  1  0.66934641  0.35756174  0.33538495  1
  O2-  O266  1  0.67971326  0.35365687  0.65705158  1
  O2-  O267  1  0.66250537  0.84363630  0.00263197  1
  O2-  O268  1  0.67150138  0.84232656  0.32985310  1
  O2-  O269  1  0.66130538  0.81787491  0.66943347  1
  O2-  O270  1  0.17287329  0.35564784  0.00822941  1
  O2-  O271  1  0.15968655  0.33406765  0.33094409  1
  O2-  O272  1  0.16309318  0.33420341  0.66222060  1
  O2-  O273  1  0.17086578  0.84618393  0.00216438  1
  O2-  O274  1  0.17098789  0.81485139  0.33303097  1
  O2-  O275  1  0.17243026  0.83992287  0.67264549  1
  O2-  O276  1  0.49671134  0.34016516  -0.00563431  1
  O2-  O277  1  0.50233314  0.35090816  0.33420088  1
  O2-  O278  1  0.49678735  0.32902714  0.66416405  1
  O2-  O279  1  0.50232579  0.85209315  0.00019508  1
  O2-  O280  1  0.49575779  0.83573884  0.33084253  1
  O2-  O281  1  0.50411844  0.83628828  0.66960360  1
  O2-  O282  1  0.82972523  0.35502768  -0.00395446  1
  O2-  O283  1  0.83253933  0.33549928  0.33220630  1
  O2-  O284  1  0.84231427  0.35178670  0.67577028  1
  O2-  O285  1  0.82874690  0.84024664  -0.00192933  1
  O2-  O286  1  0.84098009  0.84821200  0.33964080  1
  O2-  O287  1  0.82934084  0.83088056  0.67069483  1
  O2-  O288  1  0.00248532  0.18287277  0.16864058  1
  O2-  O289  1  -0.00128238  0.18172804  0.49974599  1
  O2-  O290  1  0.00705736  0.18017077  0.84605234  1
  O2-  O291  1  -0.01308672  0.68043087  0.15362460  1
  O2-  O292  1  0.00202440  0.68486725  0.50241797  1
  O2-  O293  1  0.00336139  0.69644223  0.82748625  1
  O2-  O294  1  0.32558027  0.17287950  0.15364446  1
  O2-  O295  1  0.34093535  0.18852592  0.50203936  1
  O2-  O296  1  0.33749327  0.18546886  0.83303730  1
  O2-  O297  1  0.32477284  0.68935732  0.16234838  1
  O2-  O298  1  0.33417621  0.68251575  0.50048680  1
  O2-  O299  1  0.33365131  0.67324357  0.83723775  1
  O2-  O300  1  0.66283086  0.18163430  0.16899338  1
  O2-  O301  1  0.66228584  0.17385321  0.49399840  1
  O2-  O302  1  0.66878473  0.18184935  0.83063749  1
  O2-  O303  1  0.66613930  0.68626528  0.15920271  1
  O2-  O304  1  0.66781687  0.68822286  0.49769899  1
  O2-  O305  1  0.66105038  0.67989594  0.83181776  1
  O2-  O306  1  0.16792378  0.18435843  0.17127320  1
  O2-  O307  1  0.16417845  0.19754609  0.50115007  1
  O2-  O308  1  0.16129139  0.18435960  0.83846021  1
  O2-  O309  1  0.15411545  0.69114078  0.17900051  1
  O2-  O310  1  0.16823140  0.68976470  0.49780193  1
  O2-  O311  1  0.16476040  0.67972791  0.81968992  1
  O2-  O312  1  0.49661643  0.18767454  0.17300927  1
  O2-  O313  1  0.50525446  0.18127744  0.49824720  1
  O2-  O314  1  0.50376136  0.17708246  0.83828397  1
  O2-  O315  1  0.50285659  0.68494425  0.16143013  1
  O2-  O316  1  0.50403854  0.69486105  0.51873346  1
  O2-  O317  1  0.49817665  0.67339041  0.84156413  1
  O2-  O318  1  0.82945594  0.18023760  0.16021710  1
  O2-  O319  1  0.82716247  0.17440361  0.49915565  1
  O2-  O320  1  0.84621878  0.18245613  0.82824867  1
  O2-  O321  1  0.83414088  0.67342443  0.17444219  1
  O2-  O322  1  0.83182104  0.68138117  0.49859656  1
  O2-  O323  1  0.83325908  0.68213914  0.83659473  1
  O2-  O324  1  -0.00105444  0.31486923  0.16590781  1
  O2-  O325  1  0.00186699  0.31988494  0.50335595  1
  O2-  O326  1  -0.01208687  0.32893228  0.82249388  1
  O2-  O327  1  -0.01005357  0.81859817  0.16063964  1
  O2-  O328  1  -0.00560294  0.82223080  0.49280630  1
  O2-  O329  1  0.00736949  0.81550791  0.84147520  1
  O2-  O330  1  0.33268939  0.32344783  0.16531490  1
  O2-  O331  1  0.33990882  0.31836752  0.50577254  1
  O2-  O332  1  0.33119139  0.31119292  0.83452907  1
  O2-  O333  1  0.33333352  0.81693809  0.16366544  1
  O2-  O334  1  0.33479353  0.81587282  0.49730404  1
  O2-  O335  1  0.32971868  0.83020804  0.82938030  1
  O2-  O336  1  0.67577511  0.32109225  0.17489067  1
  O2-  O337  1  0.65435723  0.33063425  0.48778629  1
  O2-  O338  1  0.67104466  0.32314959  0.83792765  1
  O2-  O339  1  0.66216519  0.83601280  0.16397151  1
  O2-  O340  1  0.66533311  0.81394806  0.50348167  1
  O2-  O341  1  0.66592696  0.81068344  0.83610528  1
  O2-  O342  1  0.16622167  0.32287406  0.16654311  1
  O2-  O343  1  0.16766777  0.31142871  0.49746979  1
  O2-  O344  1  0.16704079  0.32407948  0.83017826  1
  O2-  O345  1  0.17032533  0.81413523  0.16731654  1
  O2-  O346  1  0.16716131  0.81465417  0.49589834  1
  O2-  O347  1  0.16349058  0.81808423  0.83756598  1
  O2-  O348  1  0.50640178  0.31878499  0.15755880  1
  O2-  O349  1  0.50251332  0.32801937  0.49956199  1
  O2-  O350  1  0.49789667  0.31149076  0.83090649  1
  O2-  O351  1  0.49984081  0.82365364  0.16400176  1
  O2-  O352  1  0.50155647  0.81581447  0.50775764  1
  O2-  O353  1  0.49599663  0.82358256  0.83831183  1
  O2-  O354  1  0.83649050  0.31907473  0.16981906  1
  O2-  O355  1  0.82091673  0.32338265  0.51272836  1
  O2-  O356  1  0.82414792  0.32386447  0.84355862  1
  O2-  O357  1  0.82802665  0.82353050  0.17270818  1
  O2-  O358  1  0.83694804  0.82623076  0.49460661  1
  O2-  O359  1  0.83065481  0.80202322  0.83354746  1
  O2-  O360  1  0.08239235  0.08063314  0.12731351  1
  O2-  O361  1  0.07672696  0.08270403  0.44924319  1
  O2-  O362  1  0.08891410  0.08392813  0.77632268  1
  O2-  O363  1  0.08961158  0.58232496  0.13059267  1
  O2-  O364  1  0.08223807  0.57735627  0.46635798  1
  O2-  O365  1  0.07908425  0.58651720  0.77061314  1
  O2-  O366  1  0.42389834  0.07765593  0.10635238  1
  O2-  O367  1  0.42674643  0.08269500  0.45509015  1
  O2-  O368  1  0.43539260  0.05562424  0.77200837  1
  O2-  O369  1  0.39560605  0.58395268  0.13763454  1
  O2-  O370  1  0.41200183  0.57945010  0.43475670  1
  O2-  O371  1  0.42521887  0.57608642  0.77035503  1
  O2-  O372  1  0.75665127  0.07973473  0.12020491  1
  O2-  O373  1  0.75085763  0.08188396  0.44133139  1
  O2-  O374  1  0.76867306  0.09225788  0.77008727  1
  O2-  O375  1  0.74530055  0.57720364  0.10575032  1
  O2-  O376  1  0.74271009  0.58160112  0.45028204  1
  O2-  O377  1  0.74276832  0.57388054  0.78374910  1
  O2-  O378  1  0.23000227  0.07960044  0.21525197  1
  O2-  O379  1  0.22095484  0.08063256  0.55237167  1
  O2-  O380  1  0.25504546  0.08185961  0.86973178  1
  O2-  O381  1  0.22862265  0.58392616  0.21434441  1
  O2-  O382  1  0.25673230  0.58155806  0.53647187  1
  O2-  O383  1  0.25774942  0.57109299  0.88598615  1
  O2-  O384  1  0.58015884  0.07732142  0.20387222  1
  O2-  O385  1  0.59157593  0.08214430  0.56994105  1
  O2-  O386  1  0.58791279  0.07798851  0.88246872  1
  O2-  O387  1  0.55682209  0.58195557  0.22150910  1
  O2-  O388  1  0.58392836  0.58598690  0.56777043  1
  O2-  O389  1  0.59006012  0.58153974  0.87692278  1
  O2-  O390  1  0.93729056  0.06678010  0.21346387  1
  O2-  O391  1  0.90511331  0.07680515  0.56535351  1
  O2-  O392  1  0.92299078  0.08232809  0.87627476  1
  O2-  O393  1  0.93428733  0.57771431  0.21832725  1
  O2-  O394  1  0.91768991  0.58543853  0.57931290  1
  O2-  O395  1  0.91690142  0.58049607  0.85959316  1
  O2-  O396  1  0.06824452  0.41729209  0.12003874  1
  O2-  O397  1  0.10259159  0.41846854  0.44199210  1
  O2-  O398  1  0.08225839  0.41784400  0.75353528  1
  O2-  O399  1  0.07638058  0.91380549  0.09426455  1
  O2-  O400  1  0.07857852  0.92256298  0.43402765  1
  O2-  O401  1  0.07807933  0.91969417  0.78180613  1
  O2-  O402  1  0.41952290  0.41632534  0.10080507  1
  O2-  O403  1  0.42599625  0.42019942  0.44888098  1
  O2-  O404  1  0.40263682  0.41293397  0.77345584  1
  O2-  O405  1  0.41460027  0.91735834  0.11197890  1
  O2-  O406  1  0.41199952  0.92592902  0.45701966  1
  O2-  O407  1  0.41911773  0.91876355  0.78322662  1
  O2-  O408  1  0.75968605  0.41607848  0.11465051  1
  O2-  O409  1  0.74319954  0.42264316  0.46209369  1
  O2-  O410  1  0.76158164  0.41917203  0.77704597  1
  O2-  O411  1  0.76168149  0.92163312  0.11484116  1
  O2-  O412  1  0.76303550  0.91833616  0.43018803  1
  O2-  O413  1  0.76722011  0.91274590  0.79511474  1
  O2-  O414  1  0.23520599  0.41711216  0.23732553  1
  O2-  O415  1  0.25233089  0.41516896  0.55774333  1
  O2-  O416  1  0.26866147  0.41663149  0.88402705  1
  O2-  O417  1  0.25890507  0.91147490  0.23297220  1
  O2-  O418  1  0.24998052  0.92733398  0.53495351  1
  O2-  O419  1  0.22089574  0.91774041  0.88197511  1
  O2-  O420  1  0.60600752  0.42454742  0.20529995  1
  O2-  O421  1  0.57873680  0.42305075  0.55825160  1
  O2-  O422  1  0.58406636  0.41837109  0.88957607  1
  O2-  O423  1  0.57392986  0.92325990  0.22608287  1
  O2-  O424  1  0.57745993  0.91524592  0.57791862  1
  O2-  O425  1  0.58573944  0.91376800  0.88244900  1
  O2-  O426  1  0.91033384  0.41882280  0.22675858  1
  O2-  O427  1  0.91535114  0.41970308  0.57785765  1
  O2-  O428  1  0.90918473  0.42240235  0.88230218  1
  O2-  O429  1  0.91055816  0.91798499  0.22450621  1
  O2-  O430  1  0.91823158  0.91420828  0.56811774  1
  O2-  O431  1  0.93175229  0.91829393  0.87916941  1
  O2-  O432  1  0.01186740  0.00389666  -0.01528839  1
  O2-  O433  1  -0.00892921  0.01453441  0.34948845  1
  O2-  O434  1  0.00885625  0.01891441  0.65652062  1
  O2-  O435  1  0.00442173  0.52376459  0.00065770  1
  O2-  O436  1  0.02502706  0.49656721  0.30266812  1
  O2-  O437  1  -0.01330666  0.51081692  0.68431663  1
  O2-  O438  1  0.32907717  -0.01043472  -0.00562518  1
  O2-  O439  1  0.32664685  -0.01746747  0.33775636  1
  O2-  O440  1  0.33700771  -0.01733969  0.65865548  1
  O2-  O441  1  0.32855976  0.50778080  0.01355832  1
  O2-  O442  1  0.33452769  0.51637274  0.33445314  1
  O2-  O443  1  0.31539289  0.49957654  0.68070748  1
  O2-  O444  1  0.65781618  -0.01492786  0.02065808  1
  O2-  O445  1  0.68556162  0.00694182  0.29823339  1
  O2-  O446  1  0.63146541  -0.00123661  0.68934470  1
  O2-  O447  1  0.68528060  0.49001040  -0.02741406  1
  O2-  O448  1  0.65493521  0.48383059  0.35152296  1
  O2-  O449  1  0.67951211  0.50320296  0.64624668  1
  O2-  O450  1  0.17477973  0.01262111  0.01321963  1
  O2-  O451  1  0.14958528  0.01221608  0.32423161  1
  O2-  O452  1  0.17445671  -0.00999097  0.66896537  1
  O2-  O453  1  0.17134272  0.51416356  0.01053801  1
  O2-  O454  1  0.17153148  0.51645620  0.35353772  1
  O2-  O455  1  0.14967686  0.50794726  0.63593377  1
  O2-  O456  1  0.49044039  0.00218014  -0.02521700  1
  O2-  O457  1  0.50133282  0.00080215  0.33614567  1
  O2-  O458  1  0.49064130  -0.00348755  0.67816095  1
  O2-  O459  1  0.49921288  0.50260075  -0.00750603  1
  O2-  O460  1  0.49553105  0.50098454  0.33515207  1
  O2-  O461  1  0.48097705  0.50014604  0.63902060  1
  O2-  O462  1  0.84472910  -0.00306601  0.01319181  1
  O2-  O463  1  0.83911781  -0.00084293  0.33432952  1
  O2-  O464  1  0.84083258  0.00303055  0.68147372  1
  O2-  O465  1  0.84721790  0.50662435  0.01729051  1
  O2-  O466  1  0.80404447  0.49158715  0.29376769  1
  O2-  O467  1  0.83848543  0.48866712  0.68427219  1
  O2-  O468  1  0.25769753  0.75092191  0.61901005  1
  O2-  O469  1  0.59080877  0.75620686  0.25708205  1
  O2-  O470  1  0.58822123  0.24374873  0.94617889  1
  O2-  O471  1  0.41373444  0.75114407  0.04590295  1
  O2-  O472  1  0.91636051  0.75003655  0.27240715  1
  O2-  O473  1  0.91262242  0.75043125  0.59437534  1
  O2-  O474  1  0.25973973  0.75445070  0.93751221  1
  O2-  O475  1  0.74418095  0.25013895  0.05201238  1
  O2-  O476  1  0.40819961  0.24440513  0.05447457  1
  O2-  O477  1  0.08635039  0.74805023  0.04767297  1
  O2-  O478  1  0.91108423  0.25461094  0.59790772  1
  O2-  O479  1  0.09515241  0.25402749  0.04853050  1
  O2-  O480  1  0.74532087  0.75544442  0.07377187  1
  O2-  O481  1  0.75077807  0.25641631  0.72885854  1
  O2-  O482  1  0.74017305  0.25244751  0.39780369  1
  O2-  O483  1  0.60087981  0.25284266  0.59374356  1
  O2-  O484  1  0.91825450  0.25099524  0.94261121  1
  O2-  O485  1  0.58490959  0.24611161  0.28089806  1
  O2-  O486  1  0.26253317  0.24578770  0.26850735  1
  O2-  O487  1  0.07226987  0.25304051  0.74063735  1
  O2-  O488  1  0.57007551  0.74938309  0.94532340  1
  O2-  O489  1  0.42668067  0.25120372  0.39287797  1
  O2-  O490  1  0.41250143  0.75565634  0.73755437  1
  O2-  O491  1  0.75800834  0.74727327  0.39280950  1
  O2-  O492  1  0.24064465  0.25040002  0.95056147  1
