# generated using pymatgen
data_Ca108Mn108O277
_symmetry_space_group_name_H-M   'P 1'
_cell_length_a   16.02997194
_cell_length_b   22.30907829
_cell_length_c   16.39177049
_cell_angle_alpha   89.99023853
_cell_angle_beta   89.99951620
_cell_angle_gamma   90.00432064
_symmetry_Int_Tables_number   1
_chemical_formula_structural   Ca108Mn108O277
_chemical_formula_sum   'Ca108 Mn108 O277'
_cell_volume   5861.92485765
_cell_formula_units_Z   1
loop_
 _symmetry_equiv_pos_site_id
 _symmetry_equiv_pos_as_xyz
  1  'x, y, z'
loop_
 _atom_type_symbol
 _atom_type_oxidation_number
  Ca2+  2.0
  Mn3.34+  3.34
  O2-  -2.0
loop_
 _atom_site_type_symbol
 _atom_site_label
 _atom_site_symmetry_multiplicity
 _atom_site_fract_x
 _atom_site_fract_y
 _atom_site_fract_z
 _atom_site_occupancy
  Ca2+  Ca0  1  0.10235398  0.25472522  0.25608337  1
  Ca2+  Ca1  1  0.09305503  0.25350141  0.56791252  1
  Ca2+  Ca2  1  0.07230490  0.24999054  0.92702371  1
  Ca2+  Ca3  1  0.07415228  0.76188067  0.25221991  1
  Ca2+  Ca4  1  0.08703254  0.76669934  0.58615045  1
  Ca2+  Ca5  1  0.07798766  0.76890253  0.91275599  1
  Ca2+  Ca6  1  0.42550513  0.23408336  0.25536472  1
  Ca2+  Ca7  1  0.43307672  0.24006261  0.59256630  1
  Ca2+  Ca8  1  0.43845588  0.23575095  0.90101549  1
  Ca2+  Ca9  1  0.40715975  0.75575804  0.25267802  1
  Ca2+  Ca10  1  0.41734405  0.76059609  0.57931139  1
  Ca2+  Ca11  1  0.42361878  0.76725382  0.91537707  1
  Ca2+  Ca12  1  0.73250596  0.24942133  0.25342828  1
  Ca2+  Ca13  1  0.72861279  0.25632155  0.57042670  1
  Ca2+  Ca14  1  0.73214931  0.23086494  0.93141300  1
  Ca2+  Ca15  1  0.76754314  0.75496320  0.25332626  1
  Ca2+  Ca16  1  0.74586803  0.75815786  0.58119098  1
  Ca2+  Ca17  1  0.75572650  0.75760379  0.91971891  1
  Ca2+  Ca18  1  0.23918613  0.24145509  0.10308197  1
  Ca2+  Ca19  1  0.25532261  0.24764287  0.40654995  1
  Ca2+  Ca20  1  0.27804833  0.24902294  0.74506739  1
  Ca2+  Ca21  1  0.24283148  0.75650594  0.08269822  1
  Ca2+  Ca22  1  0.24755461  0.75926709  0.42890367  1
  Ca2+  Ca23  1  0.24520257  0.75910856  0.74381497  1
  Ca2+  Ca24  1  0.59690174  0.23950239  0.08453894  1
  Ca2+  Ca25  1  0.58878218  0.23209884  0.40841640  1
  Ca2+  Ca26  1  0.57487960  0.23219446  0.75009902  1
  Ca2+  Ca27  1  0.59534878  0.75818660  0.07415890  1
  Ca2+  Ca28  1  0.59151598  0.75220246  0.43229453  1
  Ca2+  Ca29  1  0.59146318  0.75797145  0.75149233  1
  Ca2+  Ca30  1  0.89901502  0.23723228  0.06979089  1
  Ca2+  Ca31  1  0.89125809  0.24936205  0.41589900  1
  Ca2+  Ca32  1  0.90284013  0.25416764  0.76723753  1
  Ca2+  Ca33  1  0.90935275  0.75518626  0.07790230  1
  Ca2+  Ca34  1  0.90916891  0.75249983  0.41413350  1
  Ca2+  Ca35  1  0.91545428  0.75445458  0.76224357  1
  Ca2+  Ca36  1  0.04932717  0.56601825  0.60788431  1
  Ca2+  Ca37  1  0.26053818  0.09876947  0.09952043  1
  Ca2+  Ca38  1  0.46109999  0.08606255  0.93228239  1
  Ca2+  Ca39  1  0.25659609  0.58277591  0.07364721  1
  Ca2+  Ca40  1  0.72688880  0.10838666  0.24510820  1
  Ca2+  Ca41  1  0.40303109  0.57691037  0.26054433  1
  Ca2+  Ca42  1  0.89663488  0.61359150  0.08517649  1
  Ca2+  Ca43  1  0.58796858  0.60022769  0.08063278  1
  Ca2+  Ca44  1  0.25494699  0.57933568  0.40825519  1
  Ca2+  Ca45  1  0.09034442  0.59003362  0.25355176  1
  Ca2+  Ca46  1  0.28804675  0.09266043  0.73946384  1
  Ca2+  Ca47  1  0.72859082  0.09168923  0.92832656  1
  Ca2+  Ca48  1  0.09662879  0.10839654  0.23000618  1
  Ca2+  Ca49  1  0.07996539  0.58990771  0.92317390  1
  Ca2+  Ca50  1  0.57125153  0.10005944  0.76244094  1
  Ca2+  Ca51  1  0.43620142  0.11478325  0.56794128  1
  Ca2+  Ca52  1  0.40324489  0.58920050  0.59162178  1
  Ca2+  Ca53  1  0.76001524  0.60186202  0.92771171  1
  Ca2+  Ca54  1  0.41609986  0.58926393  0.59129391  1
  Ca2+  Ca55  1  0.75868335  0.59398619  0.25953816  1
  Ca2+  Ca56  1  0.59189079  0.09565094  0.08063642  1
  Ca2+  Ca57  1  0.60072575  0.60091131  0.08161563  1
  Ca2+  Ca58  1  0.90354067  0.08729849  0.77067137  1
  Ca2+  Ca59  1  0.27879978  0.10749524  0.40256314  1
  Ca2+  Ca60  1  0.41896726  0.58690781  0.91983591  1
  Ca2+  Ca61  1  0.23616571  0.57095458  0.73734862  1
  Ca2+  Ca62  1  0.78460018  0.56863360  0.59533768  1
  Ca2+  Ca63  1  0.10617063  0.11015069  0.23306155  1
  Ca2+  Ca64  1  0.61110313  0.58282519  0.41336401  1
  Ca2+  Ca65  1  0.10672137  0.08613744  0.57574872  1
  Ca2+  Ca66  1  0.89356502  0.57618279  0.41821841  1
  Ca2+  Ca67  1  0.58415936  0.58809598  0.74395353  1
  Ca2+  Ca68  1  0.71051662  0.11658486  0.56189137  1
  Ca2+  Ca69  1  0.05797920  0.08803408  0.95040406  1
  Ca2+  Ca70  1  0.40614988  0.58674117  0.91989108  1
  Ca2+  Ca71  1  0.71688504  0.11326385  0.55509923  1
  Ca2+  Ca72  1  0.24008189  0.39640217  0.08518042  1
  Ca2+  Ca73  1  0.40830927  0.90972052  0.59348222  1
  Ca2+  Ca74  1  0.39748122  0.39853111  0.91954601  1
  Ca2+  Ca75  1  0.22454292  0.41362857  0.76236630  1
  Ca2+  Ca76  1  0.90754006  0.40326344  0.40819092  1
  Ca2+  Ca77  1  0.56742394  0.93265013  0.05045585  1
  Ca2+  Ca78  1  0.40423903  0.40057236  0.57201291  1
  Ca2+  Ca79  1  0.91732210  0.91259509  0.39371014  1
  Ca2+  Ca80  1  0.92373531  0.90659711  0.76446429  1
  Ca2+  Ca81  1  0.58148278  0.39735306  0.40819327  1
  Ca2+  Ca82  1  0.24217259  0.90929693  0.41670649  1
  Ca2+  Ca83  1  0.56462246  0.93899440  0.04636795  1
  Ca2+  Ca84  1  0.57385051  0.90803094  0.76915819  1
  Ca2+  Ca85  1  0.75759760  0.91267724  0.92292085  1
  Ca2+  Ca86  1  0.91141021  0.90787903  0.76212104  1
  Ca2+  Ca87  1  0.25170956  0.39647341  0.08542062  1
  Ca2+  Ca88  1  0.25012000  0.91700242  0.07162534  1
  Ca2+  Ca89  1  0.75635390  0.38986386  0.91240665  1
  Ca2+  Ca90  1  0.74730017  0.39260028  0.91636959  1
  Ca2+  Ca91  1  0.91991234  0.43142054  0.72727308  1
  Ca2+  Ca92  1  0.26421389  0.40970173  0.40423902  1
  Ca2+  Ca93  1  0.08583865  0.41448485  0.58258584  1
  Ca2+  Ca94  1  0.77266334  0.41560766  0.57472307  1
  Ca2+  Ca95  1  0.59223886  0.39851641  0.75562517  1
  Ca2+  Ca96  1  0.25312448  0.90813486  0.75118176  1
  Ca2+  Ca97  1  0.92872855  0.91336074  0.39436510  1
  Ca2+  Ca98  1  0.07486243  0.41436753  0.58368578  1
  Ca2+  Ca99  1  0.76305080  0.41312623  0.58079375  1
  Ca2+  Ca100  1  0.41359964  0.39898543  0.57621897  1
  Ca2+  Ca101  1  0.59771621  0.90481727  0.41503052  1
  Ca2+  Ca102  1  0.92923984  0.42930324  0.73107467  1
  Ca2+  Ca103  1  0.26215757  0.91908980  0.06898517  1
  Ca2+  Ca104  1  0.40790182  0.40053664  0.92177026  1
  Ca2+  Ca105  1  0.41266311  0.91898223  0.24661256  1
  Ca2+  Ca106  1  0.58465274  0.90648700  0.41353431  1
  Ca2+  Ca107  1  0.42091231  0.91365661  0.24449372  1
  Mn3.34+  Mn108  1  0.07145451  0.32860172  0.09229610  1
  Mn3.34+  Mn109  1  0.08286512  0.33300083  0.41045305  1
  Mn3.34+  Mn110  1  0.07956861  0.33634918  0.75455189  1
  Mn3.34+  Mn111  1  0.07800809  0.84409749  0.08868335  1
  Mn3.34+  Mn112  1  0.08229899  0.83504054  0.41776023  1
  Mn3.34+  Mn113  1  0.08408306  0.83679381  0.74941148  1
  Mn3.34+  Mn114  1  0.42372132  0.33129088  0.09203565  1
  Mn3.34+  Mn115  1  0.41892944  0.33390182  0.41255593  1
  Mn3.34+  Mn116  1  0.41745401  0.33369876  0.75245511  1
  Mn3.34+  Mn117  1  0.41859382  0.83020690  0.08691217  1
  Mn3.34+  Mn118  1  0.41642515  0.83797264  0.41844733  1
  Mn3.34+  Mn119  1  0.41592047  0.83295743  0.75366629  1
  Mn3.34+  Mn120  1  0.75100225  0.32483977  0.09262775  1
  Mn3.34+  Mn121  1  0.74583561  0.33544724  0.40898424  1
  Mn3.34+  Mn122  1  0.75037033  0.33304395  0.74711221  1
  Mn3.34+  Mn123  1  0.75139769  0.84376538  0.09381135  1
  Mn3.34+  Mn124  1  0.75271118  0.83082663  0.41761647  1
  Mn3.34+  Mn125  1  0.74876036  0.83527897  0.74974511  1
  Mn3.34+  Mn126  1  0.25383610  0.33005184  0.25286098  1
  Mn3.34+  Mn127  1  0.24763069  0.33088454  0.58332843  1
  Mn3.34+  Mn128  1  0.23949316  0.33163964  0.91448576  1
  Mn3.34+  Mn129  1  0.24459582  0.83594067  0.24603381  1
  Mn3.34+  Mn130  1  0.24659677  0.83814317  0.58353230  1
  Mn3.34+  Mn131  1  0.24913271  0.83680882  0.91369051  1
  Mn3.34+  Mn132  1  0.58108137  0.32557057  0.24634969  1
  Mn3.34+  Mn133  1  0.58206203  0.33223949  0.58269239  1
  Mn3.34+  Mn134  1  0.58260172  0.32503014  0.92068286  1
  Mn3.34+  Mn135  1  0.59006548  0.83743452  0.23864426  1
  Mn3.34+  Mn136  1  0.58539011  0.83384037  0.58797005  1
  Mn3.34+  Mn137  1  0.58621116  0.83594295  0.91694090  1
  Mn3.34+  Mn138  1  0.91648530  0.32777992  0.24478181  1
  Mn3.34+  Mn139  1  0.91912212  0.33117397  0.57906439  1
  Mn3.34+  Mn140  1  0.92212970  0.32867397  0.92175453  1
  Mn3.34+  Mn141  1  0.91815071  0.83377543  0.24026184  1
  Mn3.34+  Mn142  1  0.91592551  0.83543324  0.57891128  1
  Mn3.34+  Mn143  1  0.91825396  0.84000066  0.92718215  1
  Mn3.34+  Mn144  1  0.25631390  0.16874581  0.57798602  1
  Mn3.34+  Mn145  1  0.41050678  0.66593410  0.41609888  1
  Mn3.34+  Mn146  1  0.08051250  0.66245125  0.74599685  1
  Mn3.34+  Mn147  1  0.92157155  0.16019949  0.57890645  1
  Mn3.34+  Mn148  1  0.91083281  0.16187905  0.92191390  1
  Mn3.34+  Mn149  1  0.24472978  0.66798951  0.58573245  1
  Mn3.34+  Mn150  1  0.25333727  0.67027042  0.91394276  1
  Mn3.34+  Mn151  1  0.74810063  0.16598216  0.75347800  1
  Mn3.34+  Mn152  1  0.59309500  0.68151015  0.25091542  1
  Mn3.34+  Mn153  1  0.08607405  0.16638349  0.41848954  1
  Mn3.34+  Mn154  1  0.08689802  0.66567257  0.41923468  1
  Mn3.34+  Mn155  1  0.24329658  0.66425507  0.91250096  1
  Mn3.34+  Mn156  1  0.75437807  0.66507492  0.42520730  1
  Mn3.34+  Mn157  1  0.41817788  0.67120714  0.75235811  1
  Mn3.34+  Mn158  1  0.07018890  0.65743558  0.74898208  1
  Mn3.34+  Mn159  1  0.25652492  0.16191135  0.91501681  1
  Mn3.34+  Mn160  1  0.91553380  0.66908599  0.24981242  1
  Mn3.34+  Mn161  1  0.24605238  0.66624808  0.24250537  1
  Mn3.34+  Mn162  1  0.74978177  0.66128889  0.74908154  1
  Mn3.34+  Mn163  1  0.42132210  0.66055511  0.41770428  1
  Mn3.34+  Mn164  1  0.76022124  0.65610139  0.75050581  1
  Mn3.34+  Mn165  1  0.91791808  0.67346983  0.92182755  1
  Mn3.34+  Mn166  1  0.58527538  0.67541379  0.24812413  1
  Mn3.34+  Mn167  1  0.41410758  0.67124912  0.09111393  1
  Mn3.34+  Mn168  1  0.24620770  0.16575036  0.91794446  1
  Mn3.34+  Mn169  1  0.91219805  0.16976983  0.58428737  1
  Mn3.34+  Mn170  1  0.90916881  0.16997656  0.24788806  1
  Mn3.34+  Mn171  1  0.07299682  0.66024251  0.42345814  1
  Mn3.34+  Mn172  1  0.91770952  0.16118687  0.24661553  1
  Mn3.34+  Mn173  1  0.42748273  0.15662341  0.09813942  1
  Mn3.34+  Mn174  1  0.07744465  0.16816072  0.74769537  1
  Mn3.34+  Mn175  1  0.58128289  0.67275204  0.91184584  1
  Mn3.34+  Mn176  1  0.91484250  0.66319186  0.57569811  1
  Mn3.34+  Mn177  1  0.09027839  0.16180667  0.75029840  1
  Mn3.34+  Mn178  1  0.58913213  0.66741922  0.58307900  1
  Mn3.34+  Mn179  1  0.08049748  0.67002812  0.08985084  1
  Mn3.34+  Mn180  1  0.91672331  -0.00102953  0.24429279  1
  Mn3.34+  Mn181  1  0.59589642  0.49984971  0.90956798  1
  Mn3.34+  Mn182  1  0.26115171  0.00242905  0.92252655  1
  Mn3.34+  Mn183  1  0.57513366  0.49614929  0.25242897  1
  Mn3.34+  Mn184  1  0.57592733  0.00380782  0.58580902  1
  Mn3.34+  Mn185  1  0.41949257  0.50122628  0.08898771  1
  Mn3.34+  Mn186  1  0.92300952  0.50092264  0.91230346  1
  Mn3.34+  Mn187  1  0.92169055  0.00337462  0.58613995  1
  Mn3.34+  Mn188  1  0.57974178  0.49803893  0.57321020  1
  Mn3.34+  Mn189  1  0.25345836  0.00377520  0.58724017  1
  Mn3.34+  Mn190  1  0.08550584  0.50151928  0.09162985  1
  Mn3.34+  Mn191  1  0.41274920  0.50011500  0.75205850  1
  Mn3.34+  Mn192  1  0.07517741  -0.00801337  0.06422754  1
  Mn3.34+  Mn193  1  0.75684497  -0.00030968  0.06712100  1
  Mn3.34+  Mn194  1  0.41693789  -0.00288968  0.75544708  1
  Mn3.34+  Mn195  1  0.59200607  0.50109650  0.57494916  1
  Mn3.34+  Mn196  1  0.59127594  0.49395920  0.25043443  1
  Mn3.34+  Mn197  1  0.08210641  0.00212495  0.40831880  1
  Mn3.34+  Mn198  1  0.24786612  0.50094408  0.57287583  1
  Mn3.34+  Mn199  1  0.90831249  -0.00257177  0.58668117  1
  Mn3.34+  Mn200  1  0.91281202  0.50592676  0.91495211  1
  Mn3.34+  Mn201  1  0.74576526  0.49568132  0.09760133  1
  Mn3.34+  Mn202  1  0.08355466  0.50058761  0.41103750  1
  Mn3.34+  Mn203  1  0.92253565  0.49784245  0.24544622  1
  Mn3.34+  Mn204  1  0.74999227  -0.00313177  0.40531869  1
  Mn3.34+  Mn205  1  0.74577242  0.00257046  0.75481289  1
  Mn3.34+  Mn206  1  0.24614054  -0.00252521  0.25858805  1
  Mn3.34+  Mn207  1  0.90630614  0.49648055  0.24350177  1
  Mn3.34+  Mn208  1  0.75999038  0.49055559  0.09511191  1
  Mn3.34+  Mn209  1  0.58681439  0.00028167  0.25357642  1
  Mn3.34+  Mn210  1  0.42340949  0.00305199  0.40640552  1
  Mn3.34+  Mn211  1  0.58480598  0.50318808  0.91162088  1
  Mn3.34+  Mn212  1  0.09052406  0.00203252  0.75408467  1
  Mn3.34+  Mn213  1  0.58649034  -0.00106950  0.58477694  1
  Mn3.34+  Mn214  1  0.07233065  0.49474897  0.08893059  1
  Mn3.34+  Mn215  1  0.24988093  0.49814664  0.25468708  1
  O2-  O216  1  -0.00152462  0.17401820  -0.00752833  1
  O2-  O217  1  0.00346342  0.16545973  0.32802768  1
  O2-  O218  1  0.00018080  0.13818077  0.66035073  1
  O2-  O219  1  0.00059960  0.66067058  0.00439428  1
  O2-  O220  1  0.00124507  0.64483017  0.33343234  1
  O2-  O221  1  -0.00566161  0.66770346  0.66044287  1
  O2-  O222  1  0.33317599  0.15513027  -0.00131302  1
  O2-  O223  1  0.34419405  0.18297753  0.34188239  1
  O2-  O224  1  0.33577022  0.16149457  0.65607715  1
  O2-  O225  1  0.33469730  0.65359585  0.00031828  1
  O2-  O226  1  0.33198215  0.65488623  0.32543734  1
  O2-  O227  1  0.33252343  0.65388171  0.67326231  1
  O2-  O228  1  0.66193794  0.15937883  0.00633617  1
  O2-  O229  1  0.66286250  0.17123897  0.32564531  1
  O2-  O230  1  0.66665450  0.15127666  0.67580120  1
  O2-  O231  1  0.66254041  0.65546965  -0.00799724  1
  O2-  O232  1  0.67073391  0.65456941  0.33345361  1
  O2-  O233  1  0.67281206  0.64060947  0.66362536  1
  O2-  O234  1  0.16973223  0.15232387  -0.00409287  1
  O2-  O235  1  0.16522196  0.15435548  0.34057691  1
  O2-  O236  1  0.16905862  0.14739049  0.66956423  1
  O2-  O237  1  0.16580310  0.65069778  0.00813634  1
  O2-  O238  1  0.16973427  0.65154710  0.33404417  1
  O2-  O239  1  0.15751901  0.63941070  0.66251469  1
  O2-  O240  1  0.48434786  0.17508911  0.01149480  1
  O2-  O241  1  0.48273774  0.17111996  0.35501664  1
  O2-  O242  1  0.50089802  0.16175073  0.67214372  1
  O2-  O243  1  0.49696978  0.65396052  -0.00206070  1
  O2-  O244  1  0.50183474  0.65175846  0.32691242  1
  O2-  O245  1  0.49998682  0.65234749  0.66771708  1
  O2-  O246  1  0.82772349  0.15893215  -0.01183289  1
  O2-  O247  1  0.83310931  0.17498528  0.32879891  1
  O2-  O248  1  0.83234670  0.14078894  0.66230299  1
  O2-  O249  1  0.83130281  0.67252575  -0.00277211  1
  O2-  O250  1  0.83895066  0.65271458  0.34072684  1
  O2-  O251  1  0.83373810  0.66400916  0.65915768  1
  O2-  O252  1  0.00012502  0.31873767  0.00379774  1
  O2-  O253  1  -0.00698657  0.32619774  0.33853762  1
  O2-  O254  1  -0.00120392  0.35296068  0.66343807  1
  O2-  O255  1  0.00428364  0.82223853  0.00608299  1
  O2-  O256  1  0.00022338  0.83994258  0.33354421  1
  O2-  O257  1  -0.00561555  0.83275984  0.66876051  1
  O2-  O258  1  0.32852308  0.33492654  0.00141753  1
  O2-  O259  1  0.33163653  0.33463007  0.33833179  1
  O2-  O260  1  0.32985887  0.34892175  0.67136742  1
  O2-  O261  1  0.33252000  0.83351031  0.00657523  1
  O2-  O262  1  0.33627676  0.84617652  0.32553070  1
  O2-  O263  1  0.33262236  0.83626337  0.66854432  1
  O2-  O264  1  0.66997679  0.33600509  -0.00449814  1
  O2-  O265  1  0.66612474  0.34467560  0.32965868  1
  O2-  O266  1  0.67330038  0.35716021  0.65661602  1
  O2-  O267  1  0.66474997  0.84329442  0.00914655  1
  O2-  O268  1  0.66040677  0.83765608  0.33666610  1
  O2-  O269  1  0.65689071  0.84759501  0.67874662  1
  O2-  O270  1  0.16422280  0.33220466  0.00688578  1
  O2-  O271  1  0.17071239  0.34743950  0.33499160  1
  O2-  O272  1  0.16263000  0.35563774  0.66318364  1
  O2-  O273  1  0.16842337  0.84410169  0.00940314  1
  O2-  O274  1  0.17522981  0.83350850  0.33772103  1
  O2-  O275  1  0.16857167  0.84652636  0.67090065  1
  O2-  O276  1  0.49126660  0.33811526  -0.00563606  1
  O2-  O277  1  0.50533819  0.32483084  0.34151335  1
  O2-  O278  1  0.49768525  0.35597806  0.66681544  1
  O2-  O279  1  0.50290096  0.83485556  0.00628557  1
  O2-  O280  1  0.50119866  0.85211036  0.32573183  1
  O2-  O281  1  0.49230780  0.83416677  0.66395838  1
  O2-  O282  1  0.83433019  0.33701056  -0.00355732  1
  O2-  O283  1  0.83754659  0.33166872  0.33724906  1
  O2-  O284  1  0.84068681  0.35448336  0.66903383  1
  O2-  O285  1  0.82426341  0.83188331  0.00079009  1
  O2-  O286  1  0.83705411  0.83982803  0.33875889  1
  O2-  O287  1  0.83861070  0.83654708  0.67043138  1
  O2-  O288  1  0.00329185  0.17815982  0.17405271  1
  O2-  O289  1  -0.00253854  0.18617186  0.49854480  1
  O2-  O290  1  0.00005164  0.18265234  0.82744717  1
  O2-  O291  1  -0.00510087  0.68555820  0.16526538  1
  O2-  O292  1  -0.00223053  0.69072486  0.50255661  1
  O2-  O293  1  0.00886747  0.68032575  0.84280250  1
  O2-  O294  1  0.34490131  0.18742105  0.14902898  1
  O2-  O295  1  0.33025729  0.18519538  0.50089592  1
  O2-  O296  1  0.33002231  0.17666187  0.83468943  1
  O2-  O297  1  0.32690248  0.69393369  0.16773923  1
  O2-  O298  1  0.33600254  0.68499614  0.50792476  1
  O2-  O299  1  0.34001729  0.69370571  0.83346516  1
  O2-  O300  1  0.66670842  0.17434791  0.16267011  1
  O2-  O301  1  0.65958909  0.18822523  0.50519676  1
  O2-  O302  1  0.67167802  0.17597636  0.82958391  1
  O2-  O303  1  0.66432702  0.68200125  0.15744200  1
  O2-  O304  1  0.66453873  0.68122332  0.49656130  1
  O2-  O305  1  0.66422908  0.67672057  0.82861302  1
  O2-  O306  1  0.16358217  0.17485659  0.16283867  1
  O2-  O307  1  0.16200432  0.17547041  0.50507197  1
  O2-  O308  1  0.16905751  0.18503438  0.83502961  1
  O2-  O309  1  0.15935266  0.69108170  0.17196780  1
  O2-  O310  1  0.16827844  0.68279264  0.49536429  1
  O2-  O311  1  0.17116170  0.67542766  0.82134100  1
  O2-  O312  1  0.50362134  0.17119222  0.16343940  1
  O2-  O313  1  0.49057725  0.18842887  0.48994083  1
  O2-  O314  1  0.50505426  0.16596466  0.83724502  1
  O2-  O315  1  0.50610783  0.69160787  0.16393001  1
  O2-  O316  1  0.49674569  0.68107679  0.50703652  1
  O2-  O317  1  0.49942057  0.68944774  0.83203605  1
  O2-  O318  1  0.82932240  0.17916910  0.17219150  1
  O2-  O319  1  0.82510755  0.18141598  0.51118873  1
  O2-  O320  1  0.83927967  0.17474212  0.82452453  1
  O2-  O321  1  0.83227646  0.67844488  0.17753928  1
  O2-  O322  1  0.83291248  0.68826740  0.50289866  1
  O2-  O323  1  0.83417399  0.67929805  0.83522747  1
  O2-  O324  1  -0.00065340  0.29845209  0.17136795  1
  O2-  O325  1  0.00373902  0.32011342  0.50415498  1
  O2-  O326  1  -0.00528152  0.32166590  0.82910881  1
  O2-  O327  1  -0.00173732  0.81525782  0.16260160  1
  O2-  O328  1  -0.00434418  0.81437858  0.49778686  1
  O2-  O329  1  -0.00411694  0.82664488  0.82771157  1
  O2-  O330  1  0.32676870  0.32305441  0.15752761  1
  O2-  O331  1  0.33605476  0.31942852  0.50578230  1
  O2-  O332  1  0.33827366  0.32338026  0.84001940  1
  O2-  O333  1  0.33206665  0.81471711  0.16721107  1
  O2-  O334  1  0.33400669  0.82299091  0.50200156  1
  O2-  O335  1  0.33250671  0.81451228  0.82987992  1
  O2-  O336  1  0.66372870  0.31957011  0.16517670  1
  O2-  O337  1  0.66417819  0.33706091  0.50055145  1
  O2-  O338  1  0.66520020  0.32420804  0.83072257  1
  O2-  O339  1  0.67231595  0.80522617  0.16962186  1
  O2-  O340  1  0.66468988  0.82456714  0.49700264  1
  O2-  O341  1  0.67114213  0.82518335  0.83802976  1
  O2-  O342  1  0.17007931  0.32216297  0.16379317  1
  O2-  O343  1  0.16362912  0.33458237  0.50411240  1
  O2-  O344  1  0.17198428  0.32341805  0.82239947  1
  O2-  O345  1  0.16464995  0.81457163  0.16698344  1
  O2-  O346  1  0.16819793  0.82706939  0.49718746  1
  O2-  O347  1  0.16839148  0.82510713  0.82803916  1
  O2-  O348  1  0.49855247  0.30381531  0.16592348  1
  O2-  O349  1  0.49116905  0.32247604  0.50902637  1
  O2-  O350  1  0.49899178  0.33319160  0.83762523  1
  O2-  O351  1  0.49813515  0.80799016  0.17058814  1
  O2-  O352  1  0.50613843  0.82096952  0.49585967  1
  O2-  O353  1  0.50679293  0.82039698  0.82806246  1
  O2-  O354  1  0.83415245  0.30627998  0.16998578  1
  O2-  O355  1  0.82895637  0.32128151  0.50817976  1
  O2-  O356  1  0.82831469  0.32719597  0.83557341  1
  O2-  O357  1  0.83478339  0.81514556  0.16461039  1
  O2-  O358  1  0.83263939  0.81445439  0.49994350  1
  O2-  O359  1  0.83410623  0.82294955  0.82953691  1
  O2-  O360  1  0.08549054  0.06109489  0.11262052  1
  O2-  O361  1  0.08169774  0.08118762  0.44178491  1
  O2-  O362  1  0.07486007  0.08328155  0.79356051  1
  O2-  O363  1  0.07278513  0.58145618  0.12007652  1
  O2-  O364  1  0.08602353  0.58071984  0.46525120  1
  O2-  O365  1  0.08472196  0.57639330  0.78150361  1
  O2-  O366  1  0.41062564  0.08362775  0.10357180  1
  O2-  O367  1  0.39793599  0.06824205  0.45651639  1
  O2-  O368  1  0.41741023  0.06885446  0.79799080  1
  O2-  O369  1  0.43728847  0.58162837  0.12620320  1
  O2-  O370  1  0.40749811  0.57881557  0.45735617  1
  O2-  O371  1  0.42045698  0.58253494  0.78559632  1
  O2-  O372  1  0.75371608  0.06186139  0.12319381  1
  O2-  O373  1  0.75199751  0.07014950  0.44548866  1
  O2-  O374  1  0.75662891  0.08114442  0.78788214  1
  O2-  O375  1  0.73440073  0.57638802  0.12203320  1
  O2-  O376  1  0.75163004  0.58454900  0.45638147  1
  O2-  O377  1  0.74295014  0.57707958  0.78926868  1
  O2-  O378  1  0.23702549  0.07654040  0.23133876  1
  O2-  O379  1  0.24982518  0.08282903  0.54860990  1
  O2-  O380  1  0.24688800  0.08074614  0.87987590  1
  O2-  O381  1  0.25183364  0.57709802  0.20915718  1
  O2-  O382  1  0.26446409  0.58418492  0.55215487  1
  O2-  O383  1  0.26877267  0.58245268  0.87670822  1
  O2-  O384  1  0.59955841  0.07108301  0.21361083  1
  O2-  O385  1  0.57808578  0.08267419  0.55010997  1
  O2-  O386  1  0.59206638  0.07103419  0.89059283  1
  O2-  O387  1  0.58822490  0.57990292  0.21334586  1
  O2-  O388  1  0.57375654  0.58403403  0.54714516  1
  O2-  O389  1  0.56492092  0.58419675  0.88052578  1
  O2-  O390  1  0.93529141  0.08133477  0.22536202  1
  O2-  O391  1  0.91805229  0.07925121  0.53815868  1
  O2-  O392  1  0.92649768  0.08414949  0.90020542  1
  O2-  O393  1  0.91593937  0.57941343  0.21221156  1
  O2-  O394  1  0.91796540  0.57950557  0.55127290  1
  O2-  O395  1  0.91975391  0.58840291  0.89881632  1
  O2-  O396  1  0.09494045  0.41513738  0.10495924  1
  O2-  O397  1  0.06987158  0.41905138  0.44507810  1
  O2-  O398  1  0.06776064  0.41850956  0.77163278  1
  O2-  O399  1  0.11393930  0.92879057  0.11888794  1
  O2-  O400  1  0.06583930  0.92110570  0.44096811  1
  O2-  O401  1  0.06370308  0.91951529  0.77113048  1
  O2-  O402  1  0.39328984  0.41978582  0.07329524  1
  O2-  O403  1  0.41331150  0.42146330  0.44484902  1
  O2-  O404  1  0.41636346  0.41981473  0.78477569  1
  O2-  O405  1  0.41698916  0.91773815  0.11103093  1
  O2-  O406  1  0.43425155  0.92677757  0.45615852  1
  O2-  O407  1  0.41577636  0.91724690  0.77370278  1
  O2-  O408  1  0.75912766  0.41044400  0.08686561  1
  O2-  O409  1  0.76073947  0.42164391  0.44464894  1
  O2-  O410  1  0.74585568  0.41901271  0.78402524  1
  O2-  O411  1  0.72651600  0.93169338  0.11197403  1
  O2-  O412  1  0.74257408  0.91621210  0.43915935  1
  O2-  O413  1  0.76533641  0.92108424  0.77979974  1
  O2-  O414  1  0.25520848  0.41957752  0.21977132  1
  O2-  O415  1  0.26764096  0.41873059  0.55119621  1
  O2-  O416  1  0.26229266  0.41679994  0.90312475  1
  O2-  O417  1  0.27337035  0.92334984  0.20404577  1
  O2-  O418  1  0.26531183  0.92306429  0.55501711  1
  O2-  O419  1  0.25658604  0.92172850  0.89141924  1
  O2-  O420  1  0.56461598  0.41345081  0.24048556  1
  O2-  O421  1  0.55883113  0.41832818  0.55089071  1
  O2-  O422  1  0.59924692  0.41613659  0.90063818  1
  O2-  O423  1  0.56356907  0.92662102  0.19518367  1
  O2-  O424  1  0.57523210  0.91948753  0.54868041  1
  O2-  O425  1  0.58921805  0.91808802  0.90709472  1
  O2-  O426  1  0.92188078  0.41511036  0.23470093  1
  O2-  O427  1  0.91578313  0.41275847  0.54632403  1
  O2-  O428  1  0.90170023  0.41858516  0.89442708  1
  O2-  O429  1  0.91611313  0.91626671  0.24250744  1
  O2-  O430  1  0.91256156  0.92220177  0.53408562  1
  O2-  O431  1  0.90262374  0.91890724  0.89334203  1
  O2-  O432  1  -0.00312924  -0.00246356  0.00047704  1
  O2-  O433  1  -0.00304680  -0.00497391  0.33470336  1
  O2-  O434  1  -0.00080981  0.00278699  0.67277620  1
  O2-  O435  1  0.01487267  0.50836100  -0.01426072  1
  O2-  O436  1  -0.00455239  0.51342920  0.32984867  1
  O2-  O437  1  0.00422328  0.48112905  0.64709218  1
  O2-  O438  1  0.32002152  -0.00235194  0.01870680  1
  O2-  O439  1  0.34014898  -0.02101019  0.33061945  1
  O2-  O440  1  0.33614362  -0.00009111  0.67317410  1
  O2-  O441  1  0.34938587  0.52132211  -0.00272688  1
  O2-  O442  1  0.32498900  0.50948327  0.33144751  1
  O2-  O443  1  0.33798093  0.50913044  0.65575634  1
  O2-  O444  1  0.66736004  0.00383983  0.00651588  1
  O2-  O445  1  0.65022300  -0.01453693  0.34863067  1
  O2-  O446  1  0.67215481  0.00984199  0.66352568  1
  O2-  O447  1  0.67422029  0.51363130  -0.00124400  1
  O2-  O448  1  0.66728923  0.51447675  0.32606621  1
  O2-  O449  1  0.67720899  0.50182999  0.64965719  1
  O2-  O450  1  0.16222371  0.00077916  -0.00368521  1
  O2-  O451  1  0.18309445  -0.00664215  0.35552617  1
  O2-  O452  1  0.17279271  0.01348016  0.67133470  1
  O2-  O453  1  0.18064119  0.50771820  0.02532541  1
  O2-  O454  1  0.16686994  0.51934853  0.32960720  1
  O2-  O455  1  0.16471260  0.49637056  0.65239617  1
  O2-  O456  1  0.51139185  0.01693885  0.02374109  1
  O2-  O457  1  0.49931117  -0.02313329  0.32614210  1
  O2-  O458  1  0.50534167  -0.01042042  0.67793340  1
  O2-  O459  1  0.51146435  0.51887698  0.00371166  1
  O2-  O460  1  0.50207767  0.52129296  0.32959729  1
  O2-  O461  1  0.50093513  0.51458588  0.66309748  1
  O2-  O462  1  0.82000705  0.00009618  -0.01322689  1
  O2-  O463  1  0.84398913  -0.00694039  0.34464675  1
  O2-  O464  1  0.84507512  -0.00116005  0.68680581  1
  O2-  O465  1  0.83449476  0.52116104  0.00570283  1
  O2-  O466  1  0.83078752  0.51292064  0.32216423  1
  O2-  O467  1  0.83419028  0.47948160  0.65654166  1
  O2-  O468  1  0.23509456  0.25104991  0.61099153  1
  O2-  O469  1  0.58101969  0.24811712  0.92722585  1
  O2-  O470  1  0.75747556  0.25062465  0.71795490  1
  O2-  O471  1  0.92571647  0.25022105  0.62043063  1
  O2-  O472  1  0.59038929  0.75180212  0.93716773  1
  O2-  O473  1  0.74535755  0.74854877  0.39263293  1
  O2-  O474  1  0.42222533  0.74935641  0.39038761  1
  O2-  O475  1  0.08869366  0.74662039  0.73151213  1
  O2-  O476  1  0.58510304  0.25804857  0.61364542  1
  O2-  O477  1  0.08331395  0.74658743  0.39074917  1
  O2-  O478  1  0.10231317  0.25061803  0.40187129  1
  O2-  O479  1  0.59293375  0.74764685  0.60871712  1
  O2-  O480  1  0.42396093  0.25579227  0.73566861  1
  O2-  O481  1  0.24394010  0.24808490  0.93692770  1
  O2-  O482  1  0.91952547  0.74946498  0.27746603  1
  O2-  O483  1  0.91814027  0.75349384  0.92420014  1
  O2-  O484  1  0.90730256  0.24942339  0.91949214  1
  O2-  O485  1  0.23125760  0.75125944  0.94169088  1
  O2-  O486  1  0.74437159  0.74551445  0.72900497  1
  O2-  O487  1  0.24814806  0.25179891  0.26350634  1
  O2-  O488  1  0.23803791  0.75013099  0.60582355  1
  O2-  O489  1  0.74235170  0.25644906  0.40798198  1
  O2-  O490  1  0.08345650  0.24940231  0.71701215  1
  O2-  O491  1  0.74697582  0.24910183  0.06692176  1
  O2-  O492  1  0.58846667  0.24668876  0.26499106  1
