# generated using pymatgen
data_Ca108Mn108O277
_symmetry_space_group_name_H-M   'P 1'
_cell_length_a   16.02376095
_cell_length_b   22.30094056
_cell_length_c   16.38618456
_cell_angle_alpha   89.99770738
_cell_angle_beta   90.00149187
_cell_angle_gamma   90.00252955
_symmetry_Int_Tables_number   1
_chemical_formula_structural   Ca108Mn108O277
_chemical_formula_sum   'Ca108 Mn108 O277'
_cell_volume   5855.52013337
_cell_formula_units_Z   1
loop_
 _symmetry_equiv_pos_site_id
 _symmetry_equiv_pos_as_xyz
  1  'x, y, z'
loop_
 _atom_type_symbol
 _atom_type_oxidation_number
  Ca2+  2.0
  Mn3.34+  3.34
  O2-  -2.0
loop_
 _atom_site_type_symbol
 _atom_site_label
 _atom_site_symmetry_multiplicity
 _atom_site_fract_x
 _atom_site_fract_y
 _atom_site_fract_z
 _atom_site_occupancy
  Ca2+  Ca0  1  0.06810781  0.25079628  0.25500660  1
  Ca2+  Ca1  1  0.07280284  0.24881989  0.58232492  1
  Ca2+  Ca2  1  0.06644377  0.25371334  0.91421405  1
  Ca2+  Ca3  1  0.06336437  0.74902781  0.25614050  1
  Ca2+  Ca4  1  0.09425410  0.74690114  0.57319005  1
  Ca2+  Ca5  1  0.09474284  0.75177808  0.92218794  1
  Ca2+  Ca6  1  0.42732897  0.25091318  0.25995194  1
  Ca2+  Ca7  1  0.42510502  0.24854643  0.57392397  1
  Ca2+  Ca8  1  0.41852787  0.26044924  0.91509668  1
  Ca2+  Ca9  1  0.43897011  0.74745580  0.26344724  1
  Ca2+  Ca10  1  0.39223742  0.74308385  0.58363319  1
  Ca2+  Ca11  1  0.41688779  0.75321046  0.90256675  1
  Ca2+  Ca12  1  0.75891439  0.25575568  0.26132214  1
  Ca2+  Ca13  1  0.75237577  0.24975606  0.58540857  1
  Ca2+  Ca14  1  0.76180636  0.25357706  0.90242143  1
  Ca2+  Ca15  1  0.75293093  0.74029055  0.24801448  1
  Ca2+  Ca16  1  0.76610727  0.74830836  0.57294861  1
  Ca2+  Ca17  1  0.73979035  0.74925118  0.92913115  1
  Ca2+  Ca18  1  0.24071792  0.25684037  0.08261222  1
  Ca2+  Ca19  1  0.24817662  0.25214913  0.41479538  1
  Ca2+  Ca20  1  0.23953085  0.24711603  0.75628578  1
  Ca2+  Ca21  1  0.23853539  0.76021534  0.07624417  1
  Ca2+  Ca22  1  0.24558965  0.74066582  0.43818130  1
  Ca2+  Ca23  1  0.25659041  0.75242420  0.73512057  1
  Ca2+  Ca24  1  0.57514355  0.26075033  0.08537062  1
  Ca2+  Ca25  1  0.57575630  0.24643424  0.41286904  1
  Ca2+  Ca26  1  0.59473547  0.24890413  0.75020195  1
  Ca2+  Ca27  1  0.59581462  0.75640718  0.10009524  1
  Ca2+  Ca28  1  0.58995812  0.74344556  0.40211607  1
  Ca2+  Ca29  1  0.57446548  0.75485281  0.76503486  1
  Ca2+  Ca30  1  0.93078114  0.25790848  0.08387220  1
  Ca2+  Ca31  1  0.92142277  0.25706142  0.40852442  1
  Ca2+  Ca32  1  0.91670269  0.24172191  0.76185471  1
  Ca2+  Ca33  1  0.91524679  0.74966186  0.10954567  1
  Ca2+  Ca34  1  0.91358236  0.73872546  0.40328509  1
  Ca2+  Ca35  1  0.91775944  0.76274959  0.74406569  1
  Ca2+  Ca36  1  0.41645864  0.59265516  0.91959937  1
  Ca2+  Ca37  1  0.09698864  0.58321660  0.92149821  1
  Ca2+  Ca38  1  0.58407687  0.59642443  0.09593413  1
  Ca2+  Ca39  1  0.10075374  0.58810751  0.57049173  1
  Ca2+  Ca40  1  0.75587082  0.59787772  0.54949816  1
  Ca2+  Ca41  1  0.75652962  0.10099804  0.90246881  1
  Ca2+  Ca42  1  0.09016298  0.09469180  0.25324312  1
  Ca2+  Ca43  1  0.57919336  0.59737338  0.75193015  1
  Ca2+  Ca44  1  0.74544468  0.07840454  0.27563265  1
  Ca2+  Ca45  1  0.42616341  0.08755074  0.91246934  1
  Ca2+  Ca46  1  0.25676790  0.58686395  0.70122865  1
  Ca2+  Ca47  1  0.08449800  0.10210741  0.59770794  1
  Ca2+  Ca48  1  0.91377920  0.09290364  0.41301329  1
  Ca2+  Ca49  1  0.06381829  0.59272705  0.25517716  1
  Ca2+  Ca50  1  0.76934792  0.10160544  0.90176696  1
  Ca2+  Ca51  1  0.06395785  0.11218212  0.90174485  1
  Ca2+  Ca52  1  0.07642157  0.59282606  0.25586428  1
  Ca2+  Ca53  1  0.90019372  0.59721777  0.41567649  1
  Ca2+  Ca54  1  0.26848511  0.10515341  0.41653151  1
  Ca2+  Ca55  1  0.24042899  0.08793380  0.09085968  1
  Ca2+  Ca56  1  0.92008481  0.10464900  0.09676861  1
  Ca2+  Ca57  1  0.92535865  0.09845275  0.08176036  1
  Ca2+  Ca58  1  0.58769289  0.08341384  0.73265096  1
  Ca2+  Ca59  1  0.08446784  0.58385937  0.92311526  1
  Ca2+  Ca60  1  0.72656191  0.59676012  0.29370183  1
  Ca2+  Ca61  1  0.06658947  0.11139423  0.89179335  1
  Ca2+  Ca62  1  0.23043333  0.09537562  0.73334054  1
  Ca2+  Ca63  1  0.92647738  0.56384057  0.69926266  1
  Ca2+  Ca64  1  0.93216967  0.10718604  0.74784445  1
  Ca2+  Ca65  1  0.42048121  0.10444141  0.55735087  1
  Ca2+  Ca66  1  0.42454161  0.09500992  0.28883370  1
  Ca2+  Ca67  1  0.91422421  0.59993724  0.09254682  1
  Ca2+  Ca68  1  0.07752196  0.09443691  0.25255486  1
  Ca2+  Ca69  1  0.25274891  0.57991948  0.70130863  1
  Ca2+  Ca70  1  0.90482137  0.60341848  0.09622807  1
  Ca2+  Ca71  1  0.59587573  0.59645415  0.09548819  1
  Ca2+  Ca72  1  0.58142241  0.91306024  0.40400970  1
  Ca2+  Ca73  1  0.59492313  0.41182651  0.40850388  1
  Ca2+  Ca74  1  0.77371082  0.41661735  0.57404983  1
  Ca2+  Ca75  1  0.75446792  0.91469728  0.57673898  1
  Ca2+  Ca76  1  0.08894085  0.90305510  0.58199069  1
  Ca2+  Ca77  1  0.42204859  0.41133888  0.92826526  1
  Ca2+  Ca78  1  0.08991478  0.40038481  0.25018056  1
  Ca2+  Ca79  1  0.56208124  0.91473064  0.74612611  1
  Ca2+  Ca80  1  0.22003031  0.41862526  0.72988126  1
  Ca2+  Ca81  1  0.58772662  0.40845088  0.08331707  1
  Ca2+  Ca82  1  0.27107888  0.91361690  0.73726021  1
  Ca2+  Ca83  1  0.92885028  0.41698178  0.73058105  1
  Ca2+  Ca84  1  0.08752943  0.40602463  0.91796238  1
  Ca2+  Ca85  1  0.41218437  0.40992000  0.57907163  1
  Ca2+  Ca86  1  0.74544310  0.90648693  0.26246794  1
  Ca2+  Ca87  1  0.08413307  0.90325871  0.92114492  1
  Ca2+  Ca88  1  0.74391162  0.39861164  0.92677554  1
  Ca2+  Ca89  1  0.10247267  0.90319130  0.24671532  1
  Ca2+  Ca90  1  0.91516484  0.91399838  0.74287740  1
  Ca2+  Ca91  1  0.91756685  0.89713531  0.09066331  1
  Ca2+  Ca92  1  0.90335739  0.90707636  0.40901460  1
  Ca2+  Ca93  1  0.39962649  0.41010422  0.57715589  1
  Ca2+  Ca94  1  0.59028946  0.40270007  0.75152305  1
  Ca2+  Ca95  1  0.42016055  0.40928910  0.25442864  1
  Ca2+  Ca96  1  0.42182750  0.89755395  0.91399919  1
  Ca2+  Ca97  1  0.94001904  0.41689247  0.73134368  1
  Ca2+  Ca98  1  0.74822228  0.90026657  0.91844535  1
  Ca2+  Ca99  1  0.41411211  0.90403211  0.25793628  1
  Ca2+  Ca100  1  0.07133576  0.90265823  0.92118665  1
  Ca2+  Ca101  1  0.76192046  0.41606069  0.57847273  1
  Ca2+  Ca102  1  0.25075826  0.40537304  0.08628620  1
  Ca2+  Ca103  1  0.74215050  0.91686178  0.57643161  1
  Ca2+  Ca104  1  0.06590922  0.41825928  0.57833832  1
  Ca2+  Ca105  1  0.26171617  0.90120119  0.40824186  1
  Ca2+  Ca106  1  0.23119704  0.41762800  0.73069213  1
  Ca2+  Ca107  1  0.57194581  0.91087073  0.74544150  1
  Mn3.34+  Mn108  1  0.08364288  0.33484951  0.08481353  1
  Mn3.34+  Mn109  1  0.08449253  0.33528063  0.41670890  1
  Mn3.34+  Mn110  1  0.08171507  0.32723693  0.75258906  1
  Mn3.34+  Mn111  1  0.08517253  0.83096943  0.08983279  1
  Mn3.34+  Mn112  1  0.08395490  0.83004578  0.41539092  1
  Mn3.34+  Mn113  1  0.08474731  0.83628454  0.74787003  1
  Mn3.34+  Mn114  1  0.41490697  0.33609146  0.08694107  1
  Mn3.34+  Mn115  1  0.41226322  0.33854136  0.41424604  1
  Mn3.34+  Mn116  1  0.41590436  0.33152139  0.75197040  1
  Mn3.34+  Mn117  1  0.41544719  0.83016297  0.08863968  1
  Mn3.34+  Mn118  1  0.41966030  0.83068138  0.42245206  1
  Mn3.34+  Mn119  1  0.41423333  0.83574327  0.74674407  1
  Mn3.34+  Mn120  1  0.75589870  0.33528317  0.08970366  1
  Mn3.34+  Mn121  1  0.75231116  0.34034191  0.41282813  1
  Mn3.34+  Mn122  1  0.75200395  0.33591600  0.75173045  1
  Mn3.34+  Mn123  1  0.74817403  0.83265031  0.08838481  1
  Mn3.34+  Mn124  1  0.74673794  0.83351770  0.41839232  1
  Mn3.34+  Mn125  1  0.74924097  0.83551500  0.75062931  1
  Mn3.34+  Mn126  1  0.25195492  0.33310583  0.25134349  1
  Mn3.34+  Mn127  1  0.24418434  0.33202922  0.57681384  1
  Mn3.34+  Mn128  1  0.24987565  0.33253887  0.91472258  1
  Mn3.34+  Mn129  1  0.25527627  0.83212976  0.24789979  1
  Mn3.34+  Mn130  1  0.25272146  0.83523403  0.57948788  1
  Mn3.34+  Mn131  1  0.25311625  0.83097037  0.91648602  1
  Mn3.34+  Mn132  1  0.58931925  0.33432047  0.24891562  1
  Mn3.34+  Mn133  1  0.58385043  0.33332828  0.57858440  1
  Mn3.34+  Mn134  1  0.58440804  0.33185382  0.91758543  1
  Mn3.34+  Mn135  1  0.58279611  0.83241374  0.24899282  1
  Mn3.34+  Mn136  1  0.57881784  0.83289628  0.57549752  1
  Mn3.34+  Mn137  1  0.58276087  0.83221543  0.92336773  1
  Mn3.34+  Mn138  1  0.91631749  0.32983233  0.24911520  1
  Mn3.34+  Mn139  1  0.91852802  0.33142826  0.57612235  1
  Mn3.34+  Mn140  1  0.91613449  0.32931429  0.91951554  1
  Mn3.34+  Mn141  1  0.91556161  0.83132262  0.25364878  1
  Mn3.34+  Mn142  1  0.91901488  0.83216710  0.57792112  1
  Mn3.34+  Mn143  1  0.91321777  0.82723318  0.91627187  1
  Mn3.34+  Mn144  1  0.08294099  0.66406430  0.42256327  1
  Mn3.34+  Mn145  1  0.06893209  0.66436966  0.75303867  1
  Mn3.34+  Mn146  1  0.08946242  0.66693209  0.08787311  1
  Mn3.34+  Mn147  1  0.41560025  0.67081166  0.75149264  1
  Mn3.34+  Mn148  1  0.56827037  0.66891115  0.57055562  1
  Mn3.34+  Mn149  1  0.74858027  0.66928888  0.74968112  1
  Mn3.34+  Mn150  1  0.41138678  0.16796213  0.08246538  1
  Mn3.34+  Mn151  1  0.76048690  0.66314839  0.75143569  1
  Mn3.34+  Mn152  1  0.74086251  0.17171639  0.08931159  1
  Mn3.34+  Mn153  1  0.58444723  0.66429337  0.91522673  1
  Mn3.34+  Mn154  1  0.08208443  0.17035263  0.42156095  1
  Mn3.34+  Mn155  1  0.24935284  0.16885187  0.91780858  1
  Mn3.34+  Mn156  1  0.74985297  0.16823804  0.74068371  1
  Mn3.34+  Mn157  1  0.41012316  0.16377859  0.74982537  1
  Mn3.34+  Mn158  1  0.74279582  0.15933434  0.42238122  1
  Mn3.34+  Mn159  1  0.58299912  0.16732676  0.57961200  1
  Mn3.34+  Mn160  1  0.91479362  0.66845557  0.91556509  1
  Mn3.34+  Mn161  1  0.42416788  0.16123559  0.08494268  1
  Mn3.34+  Mn162  1  0.58088255  0.16699709  0.25210682  1
  Mn3.34+  Mn163  1  0.58480713  0.16815184  0.91525887  1
  Mn3.34+  Mn164  1  0.42046816  0.15881688  0.74979558  1
  Mn3.34+  Mn165  1  0.08829633  0.17050649  0.08586804  1
  Mn3.34+  Mn166  1  0.24816242  0.17111097  0.57797950  1
  Mn3.34+  Mn167  1  0.08005660  0.66869423  0.75066999  1
  Mn3.34+  Mn168  1  0.40856413  0.66907873  0.08864513  1
  Mn3.34+  Mn169  1  0.25534587  0.66662959  0.25951242  1
  Mn3.34+  Mn170  1  0.58081916  0.66369365  0.57328875  1
  Mn3.34+  Mn171  1  0.41741756  0.67507127  0.08664715  1
  Mn3.34+  Mn172  1  0.75292675  0.16415865  0.42169224  1
  Mn3.34+  Mn173  1  0.75161443  0.17742846  0.08723214  1
  Mn3.34+  Mn174  1  0.25114098  0.66546007  0.91534636  1
  Mn3.34+  Mn175  1  0.74909454  0.66763584  0.08696709  1
  Mn3.34+  Mn176  1  0.91580349  0.66452632  0.57506687  1
  Mn3.34+  Mn177  1  0.91798597  0.16739989  0.58373920  1
  Mn3.34+  Mn178  1  0.26512116  0.66066079  0.26073807  1
  Mn3.34+  Mn179  1  0.25171796  0.16602832  0.24825737  1
  Mn3.34+  Mn180  1  0.90245272  0.48143116  0.27012893  1
  Mn3.34+  Mn181  1  0.74296775  -0.00164103  0.08753022  1
  Mn3.34+  Mn182  1  0.75477989  -0.00023278  0.74584265  1
  Mn3.34+  Mn183  1  0.08512620  -0.00125704  0.08405124  1
  Mn3.34+  Mn184  1  0.91608605  -0.00403573  0.25703316  1
  Mn3.34+  Mn185  1  0.25867258  0.00027860  0.59186098  1
  Mn3.34+  Mn186  1  0.58528715  0.49883855  0.57478446  1
  Mn3.34+  Mn187  1  0.58174437  0.00059074  0.25214978  1
  Mn3.34+  Mn188  1  0.41732195  -0.00509326  0.08687747  1
  Mn3.34+  Mn189  1  0.09209927  0.49730870  0.40722199  1
  Mn3.34+  Mn190  1  0.26319271  0.00008629  0.91251686  1
  Mn3.34+  Mn191  1  0.59059162  0.50115036  0.92637918  1
  Mn3.34+  Mn192  1  0.58958989  0.49577813  0.26955776  1
  Mn3.34+  Mn193  1  0.58286740  0.00279081  0.91415409  1
  Mn3.34+  Mn194  1  0.73076893  0.00269034  0.08587960  1
  Mn3.34+  Mn195  1  0.08816846  -0.00055189  0.42194491  1
  Mn3.34+  Mn196  1  0.91584161  0.00042608  0.91815410  1
  Mn3.34+  Mn197  1  0.74213758  0.49791202  0.74988775  1
  Mn3.34+  Mn198  1  0.43282612  0.49784695  0.75809557  1
  Mn3.34+  Mn199  1  0.24822621  0.00526763  0.91162172  1
  Mn3.34+  Mn200  1  0.43029079  0.00126361  0.08673948  1
  Mn3.34+  Mn201  1  0.08428018  -0.00203453  0.74333715  1
  Mn3.34+  Mn202  1  0.40963031  -0.00317146  0.40567133  1
  Mn3.34+  Mn203  1  0.89942850  0.50665839  0.91650500  1
  Mn3.34+  Mn204  1  0.25033792  0.49952378  0.25966083  1
  Mn3.34+  Mn205  1  0.74914353  0.49979117  0.09328698  1
  Mn3.34+  Mn206  1  0.41385273  0.50995574  0.40202506  1
  Mn3.34+  Mn207  1  0.57394545  0.00128424  0.58618386  1
  Mn3.34+  Mn208  1  0.41249185  0.50087343  0.08138148  1
  Mn3.34+  Mn209  1  0.09889756  0.00427391  0.41991092  1
  Mn3.34+  Mn210  1  0.89205173  0.48882806  0.26562215  1
  Mn3.34+  Mn211  1  0.90921396  0.50026899  0.91686051  1
  Mn3.34+  Mn212  1  0.25174798  0.49795011  0.91296768  1
  Mn3.34+  Mn213  1  0.08774630  0.49741435  0.08406466  1
  Mn3.34+  Mn214  1  0.91783168  0.00210304  0.58297457  1
  Mn3.34+  Mn215  1  0.42224508  0.50239032  0.75644044  1
  O2-  O216  1  0.00366680  0.15279064  0.00565718  1
  O2-  O217  1  0.00877692  0.14702954  0.33959784  1
  O2-  O218  1  0.00054077  0.16803447  0.65949298  1
  O2-  O219  1  -0.00212698  0.64759956  -0.00301231  1
  O2-  O220  1  0.00142333  0.65288024  0.33636964  1
  O2-  O221  1  -0.00410729  0.64991949  0.66524719  1
  O2-  O222  1  0.33334621  0.14282759  0.00119207  1
  O2-  O223  1  0.33139459  0.17351552  0.32555138  1
  O2-  O224  1  0.33057804  0.15714838  0.66406458  1
  O2-  O225  1  0.33230882  0.66330685  0.00352810  1
  O2-  O226  1  0.33410391  0.69685138  0.33788839  1
  O2-  O227  1  0.33116781  0.66561178  0.67799624  1
  O2-  O228  1  0.67217403  0.16013772  -0.00217488  1
  O2-  O229  1  0.66851149  0.15825663  0.33392427  1
  O2-  O230  1  0.65850484  0.15914046  0.67202079  1
  O2-  O231  1  0.66299457  0.65370565  0.00397826  1
  O2-  O232  1  0.68157308  0.68439532  0.33823653  1
  O2-  O233  1  0.66089910  0.66157312  0.66161403  1
  O2-  O234  1  0.16583328  0.14684928  -0.00189892  1
  O2-  O235  1  0.16804462  0.16263383  0.33524577  1
  O2-  O236  1  0.17162366  0.17853973  0.66318603  1
  O2-  O237  1  0.16181607  0.65292660  -0.00561548  1
  O2-  O238  1  0.16634977  0.66066168  0.33375174  1
  O2-  O239  1  0.16127812  0.65589136  0.66969023  1
  O2-  O240  1  0.49759825  0.14926925  -0.00415649  1
  O2-  O241  1  0.50034761  0.17041682  0.32828948  1
  O2-  O242  1  0.49868801  0.15412831  0.66357939  1
  O2-  O243  1  0.49455576  0.66059938  -0.00025929  1
  O2-  O244  1  0.50593208  0.67617050  0.33652975  1
  O2-  O245  1  0.50257082  0.66536540  0.66599385  1
  O2-  O246  1  0.82943454  0.15188738  0.00442759  1
  O2-  O247  1  0.82847042  0.15680222  0.33581338  1
  O2-  O248  1  0.83824548  0.15662292  0.66841915  1
  O2-  O249  1  0.83818713  0.66413290  0.00309064  1
  O2-  O250  1  0.81984213  0.67182216  0.33762746  1
  O2-  O251  1  0.82999260  0.65304981  0.66215025  1
  O2-  O252  1  0.00474384  0.34328809  -0.00530693  1
  O2-  O253  1  0.00391767  0.34603952  0.33072570  1
  O2-  O254  1  0.00284829  0.33824062  0.66500469  1
  O2-  O255  1  -0.00034370  0.83692646  -0.00179765  1
  O2-  O256  1  0.00215594  0.84963719  0.33158873  1
  O2-  O257  1  -0.00365034  0.85035414  0.66807295  1
  O2-  O258  1  0.33485942  0.34973470  -0.00221750  1
  O2-  O259  1  0.33567388  0.31337775  0.33181348  1
  O2-  O260  1  0.32950335  0.33600031  0.66829552  1
  O2-  O261  1  0.33832975  0.82519147  -0.00231257  1
  O2-  O262  1  0.33887106  0.82802823  0.33114738  1
  O2-  O263  1  0.33410480  0.84127288  0.66541788  1
  O2-  O264  1  0.66695929  0.32842643  0.00142791  1
  O2-  O265  1  0.66343237  0.33874859  0.33809701  1
  O2-  O266  1  0.67250294  0.35321172  0.66183950  1
  O2-  O267  1  0.67040705  0.84173722  -0.00101064  1
  O2-  O268  1  0.66198989  0.84192081  0.33986162  1
  O2-  O269  1  0.66279795  0.85377339  0.66471886  1
  O2-  O270  1  0.16985287  0.34593842  0.00072343  1
  O2-  O271  1  0.16642118  0.32748222  0.32913248  1
  O2-  O272  1  0.16690287  0.32716256  0.66977373  1
  O2-  O273  1  0.16390646  0.84450442  -0.00188694  1
  O2-  O274  1  0.17124154  0.83487590  0.33359954  1
  O2-  O275  1  0.17292776  0.85189182  0.66833444  1
  O2-  O276  1  0.50246127  0.34927883  0.00286658  1
  O2-  O277  1  0.49667693  0.34266897  0.33381888  1
  O2-  O278  1  0.49506601  0.35201053  0.66192607  1
  O2-  O279  1  0.49400368  0.82646886  -0.00106030  1
  O2-  O280  1  0.49934608  0.83735039  0.33464058  1
  O2-  O281  1  0.50829847  0.83694052  0.67256960  1
  O2-  O282  1  0.82735740  0.33143257  -0.00411455  1
  O2-  O283  1  0.83416556  0.33460538  0.33314276  1
  O2-  O284  1  0.83528170  0.35129059  0.67025193  1
  O2-  O285  1  0.83382796  0.83750808  0.00128078  1
  O2-  O286  1  0.82925672  0.83698977  0.33386694  1
  O2-  O287  1  0.82946974  0.84939968  0.66144485  1
  O2-  O288  1  0.00536840  0.17242329  0.16225593  1
  O2-  O289  1  -0.00342415  0.18013266  0.49751859  1
  O2-  O290  1  0.00374142  0.17956099  0.82951208  1
  O2-  O291  1  0.00089501  0.67159681  0.16226863  1
  O2-  O292  1  0.00005549  0.67784271  0.50073699  1
  O2-  O293  1  0.00441893  0.69189808  0.84430226  1
  O2-  O294  1  0.32958364  0.18453431  0.16188499  1
  O2-  O295  1  0.33045477  0.18685766  0.50274715  1
  O2-  O296  1  0.33467540  0.18161467  0.83685816  1
  O2-  O297  1  0.33168325  0.69009955  0.17081278  1
  O2-  O298  1  0.32872938  0.67379762  0.50240824  1
  O2-  O299  1  0.34032892  0.67297252  0.84167835  1
  O2-  O300  1  0.66728612  0.18811849  0.17141925  1
  O2-  O301  1  0.66827405  0.18090320  0.50331252  1
  O2-  O302  1  0.67336865  0.18037763  0.83686983  1
  O2-  O303  1  0.66615668  0.67001590  0.16028246  1
  O2-  O304  1  0.66530594  0.68844208  0.50613171  1
  O2-  O305  1  0.66739030  0.67566463  0.82720000  1
  O2-  O306  1  0.16649958  0.18656896  0.16968498  1
  O2-  O307  1  0.16437098  0.18618619  0.50015898  1
  O2-  O308  1  0.16567700  0.17975058  0.84394687  1
  O2-  O309  1  0.16800615  0.68448682  0.18122511  1
  O2-  O310  1  0.15927778  0.67454931  0.50097690  1
  O2-  O311  1  0.16290828  0.67807376  0.83266545  1
  O2-  O312  1  0.49983925  0.18197982  0.16561491  1
  O2-  O313  1  0.50247842  0.18289088  0.50566307  1
  O2-  O314  1  0.50291626  0.17488478  0.83072305  1
  O2-  O315  1  0.50618802  0.68173011  0.15797640  1
  O2-  O316  1  0.49266029  0.69258048  0.50098948  1
  O2-  O317  1  0.50307538  0.67975197  0.83065083  1
  O2-  O318  1  0.84158310  0.18015731  0.15724966  1
  O2-  O319  1  0.83559102  0.17699480  0.49855059  1
  O2-  O320  1  0.82597247  0.17322086  0.82807166  1
  O2-  O321  1  0.83534074  0.67497731  0.15986366  1
  O2-  O322  1  0.83663677  0.67954923  0.49997913  1
  O2-  O323  1  0.83790241  0.69410755  0.83650756  1
  O2-  O324  1  0.00678566  0.31951286  0.16773793  1
  O2-  O325  1  0.00420649  0.32480239  0.50307823  1
  O2-  O326  1  -0.00489844  0.32035862  0.82788757  1
  O2-  O327  1  -0.00147593  0.82317011  0.16855547  1
  O2-  O328  1  0.00413278  0.82810898  0.50158608  1
  O2-  O329  1  0.00150502  0.81795173  0.83981072  1
  O2-  O330  1  0.33122124  0.31573062  0.16596937  1
  O2-  O331  1  0.33706985  0.32011108  0.50501643  1
  O2-  O332  1  0.33153689  0.31960995  0.83194372  1
  O2-  O333  1  0.33260000  0.80558525  0.16849672  1
  O2-  O334  1  0.32900490  0.81741939  0.49303210  1
  O2-  O335  1  0.33164985  0.82461575  0.83006092  1
  O2-  O336  1  0.66786081  0.31771503  0.16250137  1
  O2-  O337  1  0.66875682  0.32473272  0.50435872  1
  O2-  O338  1  0.66753128  0.32046291  0.83191074  1
  O2-  O339  1  0.67408865  0.82559607  0.17645358  1
  O2-  O340  1  0.67210159  0.81300267  0.50556097  1
  O2-  O341  1  0.66182816  0.82860923  0.82801755  1
  O2-  O342  1  0.16775368  0.31833792  0.16741657  1
  O2-  O343  1  0.16421741  0.31210885  0.50167113  1
  O2-  O344  1  0.16182228  0.31124063  0.83524729  1
  O2-  O345  1  0.16410062  0.81675965  0.17547028  1
  O2-  O346  1  0.16422415  0.82324739  0.50100560  1
  O2-  O347  1  0.16063334  0.82991100  0.84024500  1
  O2-  O348  1  0.49998312  0.32687181  0.16711547  1
  O2-  O349  1  0.49615645  0.31981225  0.49817009  1
  O2-  O350  1  0.50309812  0.32513035  0.83171428  1
  O2-  O351  1  0.49767007  0.81510371  0.16925061  1
  O2-  O352  1  0.50139837  0.80783076  0.49883161  1
  O2-  O353  1  0.49891777  0.82659374  0.83393454  1
  O2-  O354  1  0.83528081  0.30881724  0.16395464  1
  O2-  O355  1  0.82696952  0.32685586  0.50696628  1
  O2-  O356  1  0.83494842  0.32275737  0.83123804  1
  O2-  O357  1  0.83615628  0.82332535  0.16605865  1
  O2-  O358  1  0.83506067  0.81698240  0.49442620  1
  O2-  O359  1  0.83098728  0.81891942  0.83508317  1
  O2-  O360  1  0.08986843  0.08264000  0.11755954  1
  O2-  O361  1  0.09679824  0.08477968  0.45535721  1
  O2-  O362  1  0.08754808  0.07913086  0.76861508  1
  O2-  O363  1  0.07794481  0.58098501  0.11837566  1
  O2-  O364  1  0.08160947  0.57872618  0.43582988  1
  O2-  O365  1  0.07364670  0.58315532  0.78848233  1
  O2-  O366  1  0.40537748  0.07785201  0.13328813  1
  O2-  O367  1  0.40510228  0.07390008  0.43285436  1
  O2-  O368  1  0.41741624  0.07888985  0.77918853  1
  O2-  O369  1  0.43954163  0.58222987  0.10521583  1
  O2-  O370  1  0.42057186  0.57475553  0.44932370  1
  O2-  O371  1  0.42595992  0.58548464  0.77139355  1
  O2-  O372  1  0.75972260  0.08180449  0.12817116  1
  O2-  O373  1  0.76024086  0.07832594  0.43063505  1
  O2-  O374  1  0.74239230  0.08135597  0.77135022  1
  O2-  O375  1  0.76283167  0.58198643  0.11915808  1
  O2-  O376  1  0.75866027  0.58096582  0.42475350  1
  O2-  O377  1  0.74116386  0.58184968  0.77023114  1
  O2-  O378  1  0.23098434  0.08545031  0.22511315  1
  O2-  O379  1  0.25350084  0.07878849  0.55460257  1
  O2-  O380  1  0.25312356  0.08449846  0.87467342  1
  O2-  O381  1  0.23981218  0.58105269  0.22480901  1
  O2-  O382  1  0.23081343  0.56913903  0.57843333  1
  O2-  O383  1  0.23782678  0.57979651  0.88145010  1
  O2-  O384  1  0.58386295  0.08182039  0.22794968  1
  O2-  O385  1  0.56805331  0.08161085  0.56628513  1
  O2-  O386  1  0.59872985  0.08315174  0.88206655  1
  O2-  O387  1  0.59827391  0.56557068  0.22034014  1
  O2-  O388  1  0.60379591  0.58094946  0.56331319  1
  O2-  O389  1  0.56402529  0.57920511  0.88653209  1
  O2-  O390  1  0.93935545  0.07192008  0.21703485  1
  O2-  O391  1  0.93566440  0.08270125  0.55744498  1
  O2-  O392  1  0.90804523  0.07966273  0.88399914  1
  O2-  O393  1  0.93631927  0.56279826  0.21384824  1
  O2-  O394  1  0.90761368  0.58246366  0.55885519  1
  O2-  O395  1  0.92931911  0.58138828  0.86984750  1
  O2-  O396  1  0.10099822  0.41575450  0.11185818  1
  O2-  O397  1  0.09609937  0.41796766  0.44375241  1
  O2-  O398  1  0.08734219  0.41293020  0.77774023  1
  O2-  O399  1  0.06948536  0.91548891  0.10393230  1
  O2-  O400  1  0.09337271  0.91663574  0.43705724  1
  O2-  O401  1  0.07661583  0.92141383  0.78783888  1
  O2-  O402  1  0.40515358  0.42078548  0.11618215  1
  O2-  O403  1  0.41498949  0.43201925  0.44875255  1
  O2-  O404  1  0.42012429  0.41758950  0.78592931  1
  O2-  O405  1  0.41606559  0.91669223  0.11714728  1
  O2-  O406  1  0.42115673  0.92021733  0.43660070  1
  O2-  O407  1  0.42371565  0.91716802  0.77618821  1
  O2-  O408  1  0.73331576  0.41966408  0.08103000  1
  O2-  O409  1  0.73869787  0.42075916  0.44583286  1
  O2-  O410  1  0.74697186  0.41905955  0.79002053  1
  O2-  O411  1  0.75754515  0.91816651  0.10956387  1
  O2-  O412  1  0.75117751  0.91977944  0.44360692  1
  O2-  O413  1  0.75884941  0.92116335  0.78587170  1
  O2-  O414  1  0.25357641  0.42114353  0.22331411  1
  O2-  O415  1  0.26041475  0.41699915  0.58694916  1
  O2-  O416  1  0.24142093  0.41766305  0.87461656  1
  O2-  O417  1  0.25911902  0.91068653  0.24003142  1
  O2-  O418  1  0.24533245  0.92341278  0.54993397  1
  O2-  O419  1  0.25840881  0.91762586  0.89365868  1
  O2-  O420  1  0.57796430  0.42366328  0.22200179  1
  O2-  O421  1  0.56331030  0.41866133  0.54706886  1
  O2-  O422  1  0.59702234  0.41847004  0.89539530  1
  O2-  O423  1  0.57134612  0.91887657  0.23448998  1
  O2-  O424  1  0.60113384  0.92414593  0.54222355  1
  O2-  O425  1  0.57830507  0.92073992  0.88691414  1
  O2-  O426  1  0.92431688  0.41432718  0.21292480  1
  O2-  O427  1  0.91370957  0.41573966  0.57413070  1
  O2-  O428  1  0.91656836  0.41896084  0.88543313  1
  O2-  O429  1  0.91054322  0.91738664  0.22838724  1
  O2-  O430  1  0.90213840  0.92044353  0.54664011  1
  O2-  O431  1  0.93186404  0.91900865  0.89430903  1
  O2-  O432  1  0.00221216  0.01673408  -0.00411211  1
  O2-  O433  1  -0.00878946  0.00984239  0.34935389  1
  O2-  O434  1  -0.00744555  -0.00634172  0.67387394  1
  O2-  O435  1  -0.00085476  0.51422089  -0.00618446  1
  O2-  O436  1  -0.01037751  0.50712784  0.34259459  1
  O2-  O437  1  0.00480627  0.48676507  0.67257784  1
  O2-  O438  1  0.32766526  0.01516955  0.01016627  1
  O2-  O439  1  0.32216860  -0.00358834  0.34656703  1
  O2-  O440  1  0.31575743  0.00581135  0.68126451  1
  O2-  O441  1  0.34295626  0.49791501  -0.01652019  1
  O2-  O442  1  0.34888424  0.49288212  0.31632941  1
  O2-  O443  1  0.33348593  0.49291868  0.68076555  1
  O2-  O444  1  0.68322527  0.00200157  -0.02235330  1
  O2-  O445  1  0.67904537  -0.00742049  0.30090739  1
  O2-  O446  1  0.66671444  -0.01569489  0.66770070  1
  O2-  O447  1  0.65168866  0.51593381  0.02917872  1
  O2-  O448  1  0.66764889  0.49541643  0.33508285  1
  O2-  O449  1  0.67553063  0.48185957  0.65030622  1
  O2-  O450  1  0.16421002  -0.00165687  -0.00817497  1
  O2-  O451  1  0.14789256  0.00434452  0.31470946  1
  O2-  O452  1  0.15758785  0.00333045  0.65035767  1
  O2-  O453  1  0.15112252  0.49977509  -0.02440371  1
  O2-  O454  1  0.13709235  0.50087700  0.29052157  1
  O2-  O455  1  0.17866975  0.50430491  0.71092742  1
  O2-  O456  1  0.48481459  0.00358358  -0.01976685  1
  O2-  O457  1  0.48945339  -0.00074569  0.32552224  1
  O2-  O458  1  0.51456664  -0.00456680  0.68251951  1
  O2-  O459  1  0.49962802  0.49104331  0.00167663  1
  O2-  O460  1  0.50461555  0.48617157  0.33849017  1
  O2-  O461  1  0.50643851  0.49447823  0.66633385  1
  O2-  O462  1  0.83912301  0.00952410  0.01270961  1
  O2-  O463  1  0.83383311  -0.00029129  0.32289681  1
  O2-  O464  1  0.82872022  -0.01477049  0.65749692  1
  O2-  O465  1  0.83605629  0.51250146  0.01316435  1
  O2-  O466  1  0.82695117  0.52387543  0.33963923  1
  O2-  O467  1  0.83821410  0.48549610  0.68387671  1
  O2-  O468  1  0.74761095  0.24753503  0.40454797  1
  O2-  O469  1  0.24581835  0.75519600  0.59771769  1
  O2-  O470  1  0.06986240  0.25051393  0.39579238  1
  O2-  O471  1  0.41444351  0.75200113  0.73844941  1
  O2-  O472  1  0.08470561  0.25023773  0.05506778  1
  O2-  O473  1  0.26167973  0.24852866  0.94612139  1
  O2-  O474  1  0.58525103  0.25274466  0.61040026  1
  O2-  O475  1  0.07430227  0.74851739  0.39757500  1
  O2-  O476  1  0.74913771  0.75016958  0.72011113  1
  O2-  O477  1  0.90717309  0.25056247  0.60221426  1
  O2-  O478  1  0.91646497  0.25145687  0.93455422  1
  O2-  O479  1  0.56927965  0.24900503  0.93824140  1
  O2-  O480  1  0.74921335  0.25300102  0.72630727  1
  O2-  O481  1  0.59374963  0.74864121  0.92730500  1
  O2-  O482  1  0.58881483  0.75271232  0.26151982  1
  O2-  O483  1  0.91957737  0.75261060  0.26421689  1
  O2-  O484  1  0.08318494  0.75015415  0.72103849  1
  O2-  O485  1  0.58048012  0.25189092  0.26955797  1
  O2-  O486  1  0.42267384  0.24534674  0.72885407  1
  O2-  O487  1  0.08573614  0.74887946  0.06109453  1
  O2-  O488  1  0.42371847  0.25208573  0.05444384  1
  O2-  O489  1  0.91821271  0.75016941  0.60839021  1
  O2-  O490  1  0.23994017  0.74901774  0.93074130  1
  O2-  O491  1  0.74378093  0.74985076  0.06810122  1
  O2-  O492  1  0.92361949  0.25222875  0.26969892  1
