# generated using pymatgen
data_Ca108Mn108O277
_symmetry_space_group_name_H-M   'P 1'
_cell_length_a   16.02701013
_cell_length_b   22.30659760
_cell_length_c   16.39069765
_cell_angle_alpha   90.00280214
_cell_angle_beta   90.00215105
_cell_angle_gamma   90.00002224
_symmetry_Int_Tables_number   1
_chemical_formula_structural   Ca108Mn108O277
_chemical_formula_sum   'Ca108 Mn108 O277'
_cell_volume   5859.80660016
_cell_formula_units_Z   1
loop_
 _symmetry_equiv_pos_site_id
 _symmetry_equiv_pos_as_xyz
  1  'x, y, z'
loop_
 _atom_type_symbol
 _atom_type_oxidation_number
  Ca2+  2.0
  Mn3.34+  3.34
  O2-  -2.0
loop_
 _atom_site_type_symbol
 _atom_site_label
 _atom_site_symmetry_multiplicity
 _atom_site_fract_x
 _atom_site_fract_y
 _atom_site_fract_z
 _atom_site_occupancy
  Ca2+  Ca0  1  0.09067898  0.25982647  0.25207370  1
  Ca2+  Ca1  1  0.08026541  0.25951709  0.58435593  1
  Ca2+  Ca2  1  0.08654247  0.26561492  0.91207679  1
  Ca2+  Ca3  1  0.09155656  0.73748287  0.25488457  1
  Ca2+  Ca4  1  0.10192247  0.74457077  0.59776103  1
  Ca2+  Ca5  1  0.10170648  0.75988124  0.90418932  1
  Ca2+  Ca6  1  0.43632598  0.23828172  0.23274405  1
  Ca2+  Ca7  1  0.41415638  0.26345079  0.58881352  1
  Ca2+  Ca8  1  0.41520014  0.25483475  0.92791438  1
  Ca2+  Ca9  1  0.40105014  0.72273247  0.25052234  1
  Ca2+  Ca10  1  0.40828963  0.73835842  0.59820939  1
  Ca2+  Ca11  1  0.41739569  0.75123663  0.90643200  1
  Ca2+  Ca12  1  0.72254886  0.25003595  0.24156058  1
  Ca2+  Ca13  1  0.75549922  0.25730029  0.58674043  1
  Ca2+  Ca14  1  0.75109475  0.25255748  0.91461984  1
  Ca2+  Ca15  1  0.75524497  0.73674763  0.24796194  1
  Ca2+  Ca16  1  0.74689289  0.75805812  0.58930199  1
  Ca2+  Ca17  1  0.72570622  0.74933501  0.90831117  1
  Ca2+  Ca18  1  0.25924881  0.25414265  0.08668367  1
  Ca2+  Ca19  1  0.24197227  0.26068481  0.42081776  1
  Ca2+  Ca20  1  0.25426992  0.26070274  0.74858861  1
  Ca2+  Ca21  1  0.26115485  0.73557531  0.08441099  1
  Ca2+  Ca22  1  0.24461338  0.73958741  0.41712042  1
  Ca2+  Ca23  1  0.25456695  0.72941993  0.74529899  1
  Ca2+  Ca24  1  0.57362187  0.24579475  0.09548360  1
  Ca2+  Ca25  1  0.58301703  0.26428858  0.39975449  1
  Ca2+  Ca26  1  0.57918549  0.25818442  0.75193552  1
  Ca2+  Ca27  1  0.56539533  0.74693307  0.07808423  1
  Ca2+  Ca28  1  0.57219310  0.73401798  0.40831126  1
  Ca2+  Ca29  1  0.56314170  0.75177287  0.75547654  1
  Ca2+  Ca30  1  0.91067339  0.26354018  0.07822170  1
  Ca2+  Ca31  1  0.92594865  0.26067894  0.43069730  1
  Ca2+  Ca32  1  0.91625191  0.25650062  0.74442807  1
  Ca2+  Ca33  1  0.90987214  0.74796257  0.11016258  1
  Ca2+  Ca34  1  0.92906898  0.73867171  0.39429199  1
  Ca2+  Ca35  1  0.92939528  0.76165328  0.74378401  1
  Ca2+  Ca36  1  0.28229750  0.59995535  0.40636545  1
  Ca2+  Ca37  1  0.77409403  0.07473183  0.59137673  1
  Ca2+  Ca38  1  0.09028719  0.61206248  0.89802199  1
  Ca2+  Ca39  1  0.74697940  0.59140638  0.58286299  1
  Ca2+  Ca40  1  0.43586986  0.61435614  0.91211712  1
  Ca2+  Ca41  1  0.55683332  0.10026839  0.38876666  1
  Ca2+  Ca42  1  0.76252852  0.07782937  0.59496410  1
  Ca2+  Ca43  1  0.73774960  0.58840010  0.25402043  1
  Ca2+  Ca44  1  0.09616783  0.60194405  0.25073297  1
  Ca2+  Ca45  1  0.10307158  0.61099898  0.89833777  1
  Ca2+  Ca46  1  0.25223266  0.09558552  0.40451892  1
  Ca2+  Ca47  1  0.58317565  0.07438666  0.75744898  1
  Ca2+  Ca48  1  0.57092286  0.59628616  0.08681388  1
  Ca2+  Ca49  1  0.92909316  0.59919823  0.10868025  1
  Ca2+  Ca50  1  0.73492838  0.59324078  0.58070623  1
  Ca2+  Ca51  1  0.43841297  0.08215720  0.92999934  1
  Ca2+  Ca52  1  0.55980124  0.61657734  0.76374065  1
  Ca2+  Ca53  1  0.28303014  0.10773269  0.09879780  1
  Ca2+  Ca54  1  0.93449644  0.08758206  0.42080653  1
  Ca2+  Ca55  1  0.23954156  0.09650524  0.40651207  1
  Ca2+  Ca56  1  0.56898996  0.10584157  0.09336546  1
  Ca2+  Ca57  1  0.92643914  0.07144933  0.72633353  1
  Ca2+  Ca58  1  0.91445237  0.08764443  0.07941346  1
  Ca2+  Ca59  1  0.07817084  0.08572254  0.92324859  1
  Ca2+  Ca60  1  0.72067122  0.08222141  0.92885697  1
  Ca2+  Ca61  1  0.57008827  0.09744927  0.38547422  1
  Ca2+  Ca62  1  0.09299053  0.11645022  0.23306193  1
  Ca2+  Ca63  1  0.09119006  0.08550337  0.92311625  1
  Ca2+  Ca64  1  0.07181759  0.08293369  0.58622178  1
  Ca2+  Ca65  1  0.93669312  0.58783309  0.73844636  1
  Ca2+  Ca66  1  0.10297832  0.59232250  0.59209386  1
  Ca2+  Ca67  1  0.44079576  0.08544578  0.94027812  1
  Ca2+  Ca68  1  0.57065234  0.07401140  0.75701209  1
  Ca2+  Ca69  1  0.26569686  0.07712595  0.74364234  1
  Ca2+  Ca70  1  0.72954971  0.09936060  0.23798378  1
  Ca2+  Ca71  1  0.91697415  0.59123597  0.38484332  1
  Ca2+  Ca72  1  0.24427432  0.40449219  0.08629818  1
  Ca2+  Ca73  1  0.92804250  0.41345521  0.73649051  1
  Ca2+  Ca74  1  0.07379645  0.91209200  0.59698322  1
  Ca2+  Ca75  1  0.91996872  0.90920967  0.42405297  1
  Ca2+  Ca76  1  0.74904611  0.41401328  0.57855609  1
  Ca2+  Ca77  1  0.08938365  0.41189996  0.25958515  1
  Ca2+  Ca78  1  0.75065507  0.90362869  0.24535623  1
  Ca2+  Ca79  1  0.42136527  0.88858687  0.24582894  1
  Ca2+  Ca80  1  0.90740689  0.90824883  0.42483481  1
  Ca2+  Ca81  1  0.42375225  0.90679470  0.90804744  1
  Ca2+  Ca82  1  0.75090695  0.41449509  0.24546689  1
  Ca2+  Ca83  1  0.43359895  0.42547224  0.27538356  1
  Ca2+  Ca84  1  0.75167388  0.41178749  0.93172205  1
  Ca2+  Ca85  1  0.74041357  0.41212885  0.93213269  1
  Ca2+  Ca86  1  0.73892750  0.41710863  0.24771095  1
  Ca2+  Ca87  1  0.92069067  0.89897384  0.07279779  1
  Ca2+  Ca88  1  0.24883037  0.40915138  0.74183511  1
  Ca2+  Ca89  1  0.41508657  0.41425026  0.57751297  1
  Ca2+  Ca90  1  0.57209522  0.90560735  0.74952079  1
  Ca2+  Ca91  1  0.58026840  0.88817046  0.42481620  1
  Ca2+  Ca92  1  0.24980834  0.89373819  0.42457097  1
  Ca2+  Ca93  1  0.58753485  0.41383044  0.09043714  1
  Ca2+  Ca94  1  0.41200280  0.88643398  0.24165393  1
  Ca2+  Ca95  1  0.57129205  0.41349188  0.74006788  1
  Ca2+  Ca96  1  0.41783798  0.40992228  0.92195567  1
  Ca2+  Ca97  1  0.08206216  0.89430557  0.24469506  1
  Ca2+  Ca98  1  0.08146212  0.41335998  0.58515261  1
  Ca2+  Ca99  1  0.57607869  0.41398165  0.09066884  1
  Ca2+  Ca100  1  0.92045754  0.41589175  0.41462088  1
  Ca2+  Ca101  1  0.76167108  0.41446517  0.57933569  1
  Ca2+  Ca102  1  0.76177446  0.90225232  0.24663688  1
  Ca2+  Ca103  1  0.08436053  0.91174078  0.59490187  1
  Ca2+  Ca104  1  0.90790369  0.89941549  0.07262867  1
  Ca2+  Ca105  1  0.74726309  0.91154699  0.60138873  1
  Ca2+  Ca106  1  0.25194697  0.89275933  0.07413635  1
  Ca2+  Ca107  1  0.26196311  0.41526969  0.40935638  1
  Mn3.34+  Mn108  1  0.08152440  0.33690816  0.08673412  1
  Mn3.34+  Mn109  1  0.08533464  0.33779067  0.41844299  1
  Mn3.34+  Mn110  1  0.08535430  0.33421213  0.75033243  1
  Mn3.34+  Mn111  1  0.08481131  0.82149423  0.07927015  1
  Mn3.34+  Mn112  1  0.08337680  0.82998787  0.42062765  1
  Mn3.34+  Mn113  1  0.08932182  0.83205274  0.75435825  1
  Mn3.34+  Mn114  1  0.41492331  0.33506686  0.08762680  1
  Mn3.34+  Mn115  1  0.41827412  0.33805277  0.41834038  1
  Mn3.34+  Mn116  1  0.41603562  0.33646626  0.75246513  1
  Mn3.34+  Mn117  1  0.42047655  0.82970982  0.07585426  1
  Mn3.34+  Mn118  1  0.41477878  0.82283516  0.42472515  1
  Mn3.34+  Mn119  1  0.41133739  0.83756703  0.74769773  1
  Mn3.34+  Mn120  1  0.75232054  0.33266777  0.08733933  1
  Mn3.34+  Mn121  1  0.74941399  0.33816584  0.41636328  1
  Mn3.34+  Mn122  1  0.74818662  0.33317809  0.75390746  1
  Mn3.34+  Mn123  1  0.73855835  0.83310505  0.07336030  1
  Mn3.34+  Mn124  1  0.74852316  0.82686548  0.42252295  1
  Mn3.34+  Mn125  1  0.74970739  0.83207646  0.75415040  1
  Mn3.34+  Mn126  1  0.25636459  0.33779131  0.24903033  1
  Mn3.34+  Mn127  1  0.25137076  0.33838701  0.58072179  1
  Mn3.34+  Mn128  1  0.24876156  0.33757586  0.91676997  1
  Mn3.34+  Mn129  1  0.24592181  0.82383543  0.25119083  1
  Mn3.34+  Mn130  1  0.25459670  0.83170085  0.58776931  1
  Mn3.34+  Mn131  1  0.25396703  0.83323500  0.91091851  1
  Mn3.34+  Mn132  1  0.57901203  0.33557779  0.25068929  1
  Mn3.34+  Mn133  1  0.58260761  0.33672124  0.57861071  1
  Mn3.34+  Mn134  1  0.57961219  0.33661795  0.91457615  1
  Mn3.34+  Mn135  1  0.58508557  0.82508249  0.24719323  1
  Mn3.34+  Mn136  1  0.57801602  0.83270684  0.58269411  1
  Mn3.34+  Mn137  1  0.58470115  0.84467252  0.91324952  1
  Mn3.34+  Mn138  1  0.91724796  0.33485362  0.24750631  1
  Mn3.34+  Mn139  1  0.91772765  0.33787873  0.58182555  1
  Mn3.34+  Mn140  1  0.92317055  0.33743109  0.91633822  1
  Mn3.34+  Mn141  1  0.91897875  0.83013886  0.24890883  1
  Mn3.34+  Mn142  1  0.91465197  0.83474518  0.58527265  1
  Mn3.34+  Mn143  1  0.91545355  0.83161728  0.90964069  1
  Mn3.34+  Mn144  1  0.25244635  0.16339345  0.58920684  1
  Mn3.34+  Mn145  1  0.08257108  0.17140801  0.41956085  1
  Mn3.34+  Mn146  1  0.24600535  0.16293558  0.91496859  1
  Mn3.34+  Mn147  1  0.57827648  0.16588054  0.58446014  1
  Mn3.34+  Mn148  1  0.74939335  0.16999752  0.41682899  1
  Mn3.34+  Mn149  1  0.25690334  0.66315655  0.58116726  1
  Mn3.34+  Mn150  1  0.90778785  0.16001985  0.91089443  1
  Mn3.34+  Mn151  1  0.56747184  0.16038190  0.58187436  1
  Mn3.34+  Mn152  1  0.08925898  0.66303403  0.41716583  1
  Mn3.34+  Mn153  1  0.76013212  0.16486957  0.41854951  1
  Mn3.34+  Mn154  1  0.25236667  0.18005010  0.24733947  1
  Mn3.34+  Mn155  1  0.92009307  0.16751330  0.91406155  1
  Mn3.34+  Mn156  1  0.57286197  0.66388458  0.57441772  1
  Mn3.34+  Mn157  1  0.74599719  0.16548382  0.75095230  1
  Mn3.34+  Mn158  1  0.57166735  0.65723346  0.25471378  1
  Mn3.34+  Mn159  1  0.08437741  0.16558880  0.74676665  1
  Mn3.34+  Mn160  1  0.41288686  0.66339747  0.08611406  1
  Mn3.34+  Mn161  1  0.26331814  0.15882301  0.58716426  1
  Mn3.34+  Mn162  1  0.74292695  0.67289615  0.75287626  1
  Mn3.34+  Mn163  1  0.41228211  0.18030165  0.41577085  1
  Mn3.34+  Mn164  1  0.91827740  0.67949134  0.91484175  1
  Mn3.34+  Mn165  1  0.75089953  0.65612002  0.08303037  1
  Mn3.34+  Mn166  1  0.42057302  0.16859269  0.75703436  1
  Mn3.34+  Mn167  1  0.74194636  0.66194285  0.08157900  1
  Mn3.34+  Mn168  1  0.91911623  0.16708647  0.58541363  1
  Mn3.34+  Mn169  1  0.26048959  0.67190764  0.91464380  1
  Mn3.34+  Mn170  1  0.91345211  0.66824135  0.57858813  1
  Mn3.34+  Mn171  1  0.91411916  0.17066422  0.24145162  1
  Mn3.34+  Mn172  1  0.74650263  0.16838617  0.08053292  1
  Mn3.34+  Mn173  1  0.08834348  0.66526118  0.08656207  1
  Mn3.34+  Mn174  1  0.74251461  0.66643528  0.41794626  1
  Mn3.34+  Mn175  1  0.90740655  0.67267734  0.91327845  1
  Mn3.34+  Mn176  1  0.25552887  0.16863711  0.91620599  1
  Mn3.34+  Mn177  1  0.58490563  0.17345436  0.91371970  1
  Mn3.34+  Mn178  1  0.92238190  0.17701246  0.24360069  1
  Mn3.34+  Mn179  1  0.92316187  0.66278151  0.57680559  1
  Mn3.34+  Mn180  1  0.26993432  -0.00711949  0.60207262  1
  Mn3.34+  Mn181  1  0.74091451  -0.00434786  0.41476117  1
  Mn3.34+  Mn182  1  0.26164696  -0.00082536  0.24243571  1
  Mn3.34+  Mn183  1  0.09148846  -0.00313285  0.08761377  1
  Mn3.34+  Mn184  1  0.91776255  0.49899504  0.25189806  1
  Mn3.34+  Mn185  1  0.42229964  0.00240076  0.43882013  1
  Mn3.34+  Mn186  1  0.08530949  0.49643718  0.73763634  1
  Mn3.34+  Mn187  1  0.41718255  -0.00305368  0.07412455  1
  Mn3.34+  Mn188  1  0.75056623  0.50767576  0.75532993  1
  Mn3.34+  Mn189  1  0.91509620  0.50580366  0.92494140  1
  Mn3.34+  Mn190  1  0.56477551  -0.00390197  0.23922127  1
  Mn3.34+  Mn191  1  0.41539309  0.50173309  0.74010588  1
  Mn3.34+  Mn192  1  0.08675711  0.50204479  0.08850240  1
  Mn3.34+  Mn193  1  0.73087616  0.50447276  0.40034877  1
  Mn3.34+  Mn194  1  0.25713641  0.50544865  0.91879210  1
  Mn3.34+  Mn195  1  0.92521655  0.50021009  0.92642370  1
  Mn3.34+  Mn196  1  0.56529755  -0.00424969  0.59155589  1
  Mn3.34+  Mn197  1  0.73895355  0.50249147  0.75592159  1
  Mn3.34+  Mn198  1  0.40825024  -0.00362643  0.43625916  1
  Mn3.34+  Mn199  1  0.92225673  0.00190034  0.25571096  1
  Mn3.34+  Mn200  1  0.08625495  0.50260374  0.41455209  1
  Mn3.34+  Mn201  1  0.08778385  -0.00112425  0.42001324  1
  Mn3.34+  Mn202  1  0.40978238  0.50183089  0.08929983  1
  Mn3.34+  Mn203  1  0.58337765  0.50173316  0.92890569  1
  Mn3.34+  Mn204  1  0.24610087  0.00356164  0.24124500  1
  Mn3.34+  Mn205  1  0.24706653  0.50028431  0.91749771  1
  Mn3.34+  Mn206  1  0.08620626  -0.00276223  0.74443971  1
  Mn3.34+  Mn207  1  0.25209120  -0.00453188  0.91185932  1
  Mn3.34+  Mn208  1  0.25555565  0.50280536  0.26339100  1
  Mn3.34+  Mn209  1  0.25962606  0.50456015  0.58598409  1
  Mn3.34+  Mn210  1  0.90836541  -0.00479201  0.91111942  1
  Mn3.34+  Mn211  1  0.57913976  0.00129580  0.23649192  1
  Mn3.34+  Mn212  1  0.74254577  0.00213017  0.06964002  1
  Mn3.34+  Mn213  1  0.56599783  0.50252917  0.57112251  1
  Mn3.34+  Mn214  1  0.75491072  -0.00492405  0.75650945  1
  Mn3.34+  Mn215  1  0.08106965  0.00279701  0.08969774  1
  O2-  O216  1  -0.00153327  0.14998442  -0.00521363  1
  O2-  O217  1  0.00011942  0.16109485  0.32911322  1
  O2-  O218  1  0.00002969  0.14870190  0.66763181  1
  O2-  O219  1  0.00048199  0.66180643  -0.00348381  1
  O2-  O220  1  0.01062292  0.65748939  0.33470597  1
  O2-  O221  1  0.00301987  0.65272648  0.65753396  1
  O2-  O222  1  0.34175039  0.15057529  -0.00997540  1
  O2-  O223  1  0.32330237  0.17206271  0.34161223  1
  O2-  O224  1  0.33917428  0.14960966  0.67499692  1
  O2-  O225  1  0.33529405  0.65648988  -0.00042124  1
  O2-  O226  1  0.34143657  0.68049244  0.35598167  1
  O2-  O227  1  0.33169780  0.66152138  0.65822754  1
  O2-  O228  1  0.66801377  0.16276677  -0.00448930  1
  O2-  O229  1  0.66733401  0.15134379  0.33523504  1
  O2-  O230  1  0.66512688  0.13457549  0.65984357  1
  O2-  O231  1  0.66418754  0.66745946  0.00281495  1
  O2-  O232  1  0.66756020  0.66543232  0.33128975  1
  O2-  O233  1  0.67215581  0.65923942  0.65962094  1
  O2-  O234  1  0.16982480  0.15392807  0.00095270  1
  O2-  O235  1  0.16834885  0.16434069  0.33523249  1
  O2-  O236  1  0.17011802  0.13834689  0.66716561  1
  O2-  O237  1  0.16040667  0.66768819  -0.00491449  1
  O2-  O238  1  0.17126923  0.65326937  0.34444761  1
  O2-  O239  1  0.17167258  0.66064689  0.65945445  1
  O2-  O240  1  0.50504375  0.16536083  -0.00700725  1
  O2-  O241  1  0.49492951  0.17659745  0.33936889  1
  O2-  O242  1  0.50757221  0.14772218  0.68306710  1
  O2-  O243  1  0.50201703  0.66872634  0.00889989  1
  O2-  O244  1  0.49624667  0.66956214  0.32942584  1
  O2-  O245  1  0.51370981  0.67820860  0.66277844  1
  O2-  O246  1  0.83181117  0.14611835  -0.00219223  1
  O2-  O247  1  0.83764715  0.15078386  0.32634993  1
  O2-  O248  1  0.83047682  0.14644828  0.66844754  1
  O2-  O249  1  0.83569788  0.66328187  0.00169590  1
  O2-  O250  1  0.82621261  0.66897614  0.34365737  1
  O2-  O251  1  0.83421034  0.64826484  0.66567467  1
  O2-  O252  1  0.00530282  0.31877045  0.00257349  1
  O2-  O253  1  0.00084052  0.34162746  0.33192767  1
  O2-  O254  1  0.00234945  0.34680479  0.66294240  1
  O2-  O255  1  -0.00753962  0.80815914  0.00703103  1
  O2-  O256  1  -0.00416216  0.85019246  0.33584755  1
  O2-  O257  1  0.00067446  0.84106957  0.66114550  1
  O2-  O258  1  0.33415864  0.35123958  0.00294173  1
  O2-  O259  1  0.33096524  0.32342618  0.33946518  1
  O2-  O260  1  0.33482071  0.34829521  0.66460068  1
  O2-  O261  1  0.33988316  0.84247396  -0.00095713  1
  O2-  O262  1  0.33511457  0.83919618  0.33290202  1
  O2-  O263  1  0.33656516  0.83534333  0.66255703  1
  O2-  O264  1  0.66287474  0.34492981  0.00054506  1
  O2-  O265  1  0.67125115  0.34796012  0.32521200  1
  O2-  O266  1  0.66859520  0.35563959  0.66806497  1
  O2-  O267  1  0.65749906  0.81547275  -0.00585785  1
  O2-  O268  1  0.67183871  0.84491930  0.33252887  1
  O2-  O269  1  0.66532271  0.83351009  0.66003422  1
  O2-  O270  1  0.16843123  0.33048479  0.00746639  1
  O2-  O271  1  0.17079393  0.34166678  0.33144633  1
  O2-  O272  1  0.16649394  0.34950893  0.66360243  1
  O2-  O273  1  0.16893238  0.82849292  0.00167248  1
  O2-  O274  1  0.16499724  0.84741630  0.33519986  1
  O2-  O275  1  0.16238976  0.84372463  0.65894593  1
  O2-  O276  1  0.50207703  0.35129472  0.00269296  1
  O2-  O277  1  0.49451947  0.33761352  0.33028541  1
  O2-  O278  1  0.49796186  0.34629938  0.66239770  1
  O2-  O279  1  0.50097867  0.83110897  -0.00583382  1
  O2-  O280  1  0.49731362  0.83049771  0.33366289  1
  O2-  O281  1  0.50485423  0.82983497  0.67042477  1
  O2-  O282  1  0.83312771  0.34913409  0.00134256  1
  O2-  O283  1  0.83834198  0.34313665  0.33802947  1
  O2-  O284  1  0.83339173  0.35037993  0.66537107  1
  O2-  O285  1  0.83507294  0.83058765  0.00347496  1
  O2-  O286  1  0.83279903  0.84509333  0.33301269  1
  O2-  O287  1  0.83026605  0.84327142  0.66149174  1
  O2-  O288  1  -0.00046921  0.19294242  0.16259430  1
  O2-  O289  1  -0.00152311  0.17598637  0.49842715  1
  O2-  O290  1  0.00311624  0.18186067  0.83536955  1
  O2-  O291  1  0.00540789  0.68537172  0.15418845  1
  O2-  O292  1  -0.00418005  0.68080536  0.49136581  1
  O2-  O293  1  0.00209316  0.68293033  0.83705286  1
  O2-  O294  1  0.32959677  0.18796255  0.16854010  1
  O2-  O295  1  0.33138551  0.18614378  0.49749654  1
  O2-  O296  1  0.33009626  0.17720530  0.83015091  1
  O2-  O297  1  0.33318287  0.66994782  0.16074499  1
  O2-  O298  1  0.32915906  0.67870797  0.49383969  1
  O2-  O299  1  0.33825720  0.67495900  0.84104794  1
  O2-  O300  1  0.66823303  0.17557208  0.15782354  1
  O2-  O301  1  0.66522910  0.17521668  0.50364581  1
  O2-  O302  1  0.66265633  0.18561415  0.82807627  1
  O2-  O303  1  0.66548313  0.67017686  0.16784854  1
  O2-  O304  1  0.66816331  0.68484979  0.50610476  1
  O2-  O305  1  0.65933636  0.68663828  0.82085996  1
  O2-  O306  1  0.16831384  0.19365255  0.17624384  1
  O2-  O307  1  0.17474599  0.17445236  0.50031766  1
  O2-  O308  1  0.16251872  0.17997972  0.83733883  1
  O2-  O309  1  0.16130115  0.68500266  0.15964070  1
  O2-  O310  1  0.16147814  0.67785284  0.50436037  1
  O2-  O311  1  0.16952691  0.68064963  0.84247127  1
  O2-  O312  1  0.50305841  0.17716139  0.15640270  1
  O2-  O313  1  0.49848357  0.18853115  0.49364732  1
  O2-  O314  1  0.49731592  0.19333087  0.83896936  1
  O2-  O315  1  0.50184611  0.67511625  0.16466814  1
  O2-  O316  1  0.50060437  0.69050747  0.50669411  1
  O2-  O317  1  0.50281799  0.68647529  0.84239770  1
  O2-  O318  1  0.82879577  0.18432741  0.16501553  1
  O2-  O319  1  0.83315765  0.18678455  0.50601071  1
  O2-  O320  1  0.83372830  0.17823534  0.83060431  1
  O2-  O321  1  0.83004175  0.66475418  0.16425874  1
  O2-  O322  1  0.82520582  0.68445198  0.50711934  1
  O2-  O323  1  0.83297479  0.68449133  0.82991701  1
  O2-  O324  1  0.00032829  0.31445963  0.17005408  1
  O2-  O325  1  0.00036199  0.32665154  0.50292305  1
  O2-  O326  1  -0.00297895  0.31869398  0.82584174  1
  O2-  O327  1  -0.00225622  0.82472793  0.16335853  1
  O2-  O328  1  -0.00590138  0.82484937  0.49457312  1
  O2-  O329  1  0.00256016  0.81743025  0.83622997  1
  O2-  O330  1  0.33352551  0.32202201  0.16649605  1
  O2-  O331  1  0.33632768  0.31758269  0.49913912  1
  O2-  O332  1  0.33453843  0.32307034  0.83465956  1
  O2-  O333  1  0.33265362  0.82531873  0.16648469  1
  O2-  O334  1  0.32158305  0.81851806  0.49195880  1
  O2-  O335  1  0.34159218  0.82970343  0.84154075  1
  O2-  O336  1  0.66110464  0.32403830  0.16170191  1
  O2-  O337  1  0.67726747  0.32650369  0.50917990  1
  O2-  O338  1  0.66361031  0.31462829  0.84060844  1
  O2-  O339  1  0.67368827  0.83695251  0.17272793  1
  O2-  O340  1  0.66254744  0.80978518  0.49602619  1
  O2-  O341  1  0.65985584  0.81901693  0.83060575  1
  O2-  O342  1  0.17053366  0.31941372  0.16893982  1
  O2-  O343  1  0.16627732  0.32429656  0.50226115  1
  O2-  O344  1  0.17019918  0.32021850  0.82821931  1
  O2-  O345  1  0.16148711  0.82485315  0.16983071  1
  O2-  O346  1  0.15939506  0.82656610  0.50437818  1
  O2-  O347  1  0.17622294  0.82347092  0.82860300  1
  O2-  O348  1  0.50543714  0.32642716  0.16098645  1
  O2-  O349  1  0.50090877  0.31520937  0.49690327  1
  O2-  O350  1  0.49795982  0.31994275  0.83743655  1
  O2-  O351  1  0.49601205  0.82402146  0.16856654  1
  O2-  O352  1  0.50286813  0.81038522  0.49688073  1
  O2-  O353  1  0.50290048  0.82280010  0.83855555  1
  O2-  O354  1  0.82531332  0.31380247  0.17723345  1
  O2-  O355  1  0.83347909  0.32141879  0.50282202  1
  O2-  O356  1  0.82731556  0.32601879  0.83792045  1
  O2-  O357  1  0.83175898  0.83044036  0.16860892  1
  O2-  O358  1  0.83920365  0.81584222  0.49309007  1
  O2-  O359  1  0.83242296  0.81028493  0.83675970  1
  O2-  O360  1  0.09350219  0.08239538  0.11096026  1
  O2-  O361  1  0.09813835  0.08406069  0.44014568  1
  O2-  O362  1  0.08145714  0.07529435  0.78923822  1
  O2-  O363  1  0.07470004  0.58318202  0.11498858  1
  O2-  O364  1  0.07453708  0.58063708  0.44993189  1
  O2-  O365  1  0.07285771  0.57048285  0.78188770  1
  O2-  O366  1  0.42424173  0.07237815  0.10771288  1
  O2-  O367  1  0.41349309  0.08618049  0.43663665  1
  O2-  O368  1  0.43263558  0.08544769  0.79700494  1
  O2-  O369  1  0.43208186  0.58053540  0.09214309  1
  O2-  O370  1  0.42428017  0.57610492  0.41726536  1
  O2-  O371  1  0.43022313  0.56888436  0.78848698  1
  O2-  O372  1  0.75784871  0.08090838  0.11067959  1
  O2-  O373  1  0.75918169  0.07828249  0.45473365  1
  O2-  O374  1  0.73096029  0.07664828  0.79101999  1
  O2-  O375  1  0.74712695  0.57574871  0.10601214  1
  O2-  O376  1  0.75640491  0.57875955  0.44999427  1
  O2-  O377  1  0.74866325  0.58862573  0.77460845  1
  O2-  O378  1  0.24426834  0.08699110  0.23269229  1
  O2-  O379  1  0.25845500  0.06857514  0.53422216  1
  O2-  O380  1  0.23163500  0.07633376  0.87629949  1
  O2-  O381  1  0.23262029  0.56912886  0.22294121  1
  O2-  O382  1  0.24489326  0.58024978  0.54613954  1
  O2-  O383  1  0.23727070  0.58633544  0.89279404  1
  O2-  O384  1  0.58139144  0.08261656  0.23099825  1
  O2-  O385  1  0.57525013  0.07153024  0.51863518  1
  O2-  O386  1  0.57588206  0.08208091  0.88971873  1
  O2-  O387  1  0.58944605  0.58145788  0.22878257  1
  O2-  O388  1  0.60071716  0.58289088  0.55499467  1
  O2-  O389  1  0.57259873  0.57207477  0.88791799  1
  O2-  O390  1  0.93042183  0.08368796  0.21447173  1
  O2-  O391  1  0.90851282  0.08247880  0.55287750  1
  O2-  O392  1  0.93019604  0.07859761  0.87201194  1
  O2-  O393  1  0.92374781  0.57679458  0.23735656  1
  O2-  O394  1  0.90305286  0.58230380  0.55094851  1
  O2-  O395  1  0.93530741  0.58475347  0.88238349  1
  O2-  O396  1  0.09925207  0.42278498  0.12172164  1
  O2-  O397  1  0.07994758  0.42154107  0.44626557  1
  O2-  O398  1  0.08734411  0.41864222  0.77148140  1
  O2-  O399  1  0.06395601  0.91524246  0.09380431  1
  O2-  O400  1  0.07317414  0.91751595  0.45112702  1
  O2-  O401  1  0.08153403  0.91814986  0.74702239  1
  O2-  O402  1  0.42892773  0.42326040  0.12734901  1
  O2-  O403  1  0.40626583  0.41707811  0.43437675  1
  O2-  O404  1  0.42324631  0.42547439  0.78610687  1
  O2-  O405  1  0.40580587  0.91918665  0.11258785  1
  O2-  O406  1  0.42407918  0.91446270  0.43465585  1
  O2-  O407  1  0.43169115  0.91552065  0.77307043  1
  O2-  O408  1  0.73333056  0.41650713  0.11229814  1
  O2-  O409  1  0.75921609  0.42490130  0.44443642  1
  O2-  O410  1  0.74310429  0.42285306  0.79280906  1
  O2-  O411  1  0.77230544  0.92607760  0.11120636  1
  O2-  O412  1  0.76629937  0.91666283  0.45536162  1
  O2-  O413  1  0.72863289  0.91519161  0.75629476  1
  O2-  O414  1  0.25734517  0.42891861  0.21976567  1
  O2-  O415  1  0.25731293  0.42454728  0.54581269  1
  O2-  O416  1  0.25620518  0.42151767  0.87828401  1
  O2-  O417  1  0.26203642  0.91633151  0.22672063  1
  O2-  O418  1  0.22787433  0.92314493  0.55439290  1
  O2-  O419  1  0.26210758  0.91682953  0.92532363  1
  O2-  O420  1  0.58838942  0.41999241  0.22408230  1
  O2-  O421  1  0.58855930  0.42000656  0.55202581  1
  O2-  O422  1  0.59323793  0.42719200  0.87616877  1
  O2-  O423  1  0.56444734  0.91400720  0.24104944  1
  O2-  O424  1  0.60216250  0.92040432  0.54995034  1
  O2-  O425  1  0.57518274  0.92041787  0.89007406  1
  O2-  O426  1  0.89017946  0.42116302  0.22301034  1
  O2-  O427  1  0.90328803  0.41839892  0.55503050  1
  O2-  O428  1  0.91699177  0.42451304  0.87352549  1
  O2-  O429  1  0.91635877  0.91986125  0.21211424  1
  O2-  O430  1  0.92732042  0.91885965  0.55676166  1
  O2-  O431  1  0.93032884  0.91467639  0.93920522  1
  O2-  O432  1  0.00286008  0.02127668  -0.00260045  1
  O2-  O433  1  -0.01989597  -0.00181132  0.36485635  1
  O2-  O434  1  0.01378916  0.00517643  0.65697971  1
  O2-  O435  1  -0.01109984  0.51145358  0.02167738  1
  O2-  O436  1  0.00224870  0.48976157  0.33237547  1
  O2-  O437  1  -0.00948318  0.49808917  0.68455954  1
  O2-  O438  1  0.33456886  0.02098705  -0.00702305  1
  O2-  O439  1  0.32901590  0.00980872  0.34455908  1
  O2-  O440  1  0.34192931  0.01582858  0.67196520  1
  O2-  O441  1  0.33607714  0.48273714  0.00049696  1
  O2-  O442  1  0.33353050  0.49716607  0.33391441  1
  O2-  O443  1  0.33167439  0.48031976  0.67125579  1
  O2-  O444  1  0.65339662  0.02103099  0.01642635  1
  O2-  O445  1  0.66127022  0.00787077  0.32575002  1
  O2-  O446  1  0.67132194  0.01660043  0.65493009  1
  O2-  O447  1  0.65867585  0.47598928  0.00265134  1
  O2-  O448  1  0.68388916  0.49604819  0.29931178  1
  O2-  O449  1  0.67057296  0.49699110  0.65251675  1
  O2-  O450  1  0.16146639  0.01003872  -0.00998312  1
  O2-  O451  1  0.17175793  0.00180431  0.33464595  1
  O2-  O452  1  0.17114373  0.00933961  0.66013445  1
  O2-  O453  1  0.16153042  0.50455694  -0.00298445  1
  O2-  O454  1  0.17106654  0.48655827  0.33318464  1
  O2-  O455  1  0.15320933  0.49642089  0.64469526  1
  O2-  O456  1  0.48972515  -0.00010048  -0.00777596  1
  O2-  O457  1  0.50161945  0.00856515  0.34473362  1
  O2-  O458  1  0.51902166  0.00023291  0.69570248  1
  O2-  O459  1  0.50434334  0.48555191  0.01068837  1
  O2-  O460  1  0.49594010  0.50767757  0.32970311  1
  O2-  O461  1  0.49934278  0.48850650  0.66757587  1
  O2-  O462  1  0.84277192  0.00693314  0.01429871  1
  O2-  O463  1  0.82320697  -0.01899602  0.32426687  1
  O2-  O464  1  0.83116988  0.00922961  0.66949672  1
  O2-  O465  1  0.81615200  0.48848579  -0.02133976  1
  O2-  O466  1  0.83767029  0.50317007  0.33858133  1
  O2-  O467  1  0.82337636  0.49524764  0.66054414  1
  O2-  O468  1  0.41208977  0.74902149  0.07247833  1
  O2-  O469  1  0.75585307  0.74457193  0.08709205  1
  O2-  O470  1  0.59719684  0.74762490  0.25711081  1
  O2-  O471  1  0.58500780  0.25542268  0.26200764  1
  O2-  O472  1  0.08340100  0.75013511  0.39364793  1
  O2-  O473  1  0.75500133  0.24800064  0.72154872  1
  O2-  O474  1  0.24666522  0.74767878  0.26977674  1
  O2-  O475  1  0.75979384  0.75061993  0.72441238  1
  O2-  O476  1  0.08781946  0.25070166  0.72210937  1
  O2-  O477  1  0.75504007  0.25118466  0.05493235  1
  O2-  O478  1  0.24801939  0.25018026  0.61023863  1
  O2-  O479  1  0.91765225  0.74857798  0.60722552  1
  O2-  O480  1  0.08258146  0.25357023  0.40167533  1
  O2-  O481  1  0.41226705  0.24886436  0.72437095  1
  O2-  O482  1  0.26126734  0.75200647  0.93723207  1
  O2-  O483  1  0.08468019  0.75509495  0.73404914  1
  O2-  O484  1  0.26105810  0.25194783  0.93968883  1
  O2-  O485  1  0.89968424  0.24763103  0.93729085  1
  O2-  O486  1  0.24685161  0.75013305  0.59979296  1
  O2-  O487  1  0.40982153  0.75389061  0.74628643  1
  O2-  O488  1  0.91239997  0.75223479  0.25981595  1
  O2-  O489  1  0.59315452  0.25166129  0.61313313  1
  O2-  O490  1  0.92106962  0.25141318  0.60696647  1
  O2-  O491  1  0.73874227  0.25337771  0.39076689  1
  O2-  O492  1  0.41851497  0.25767233  0.06408646  1
