# generated using pymatgen
data_Ca108Mn108O277
_symmetry_space_group_name_H-M   'P 1'
_cell_length_a   16.02643790
_cell_length_b   22.30429761
_cell_length_c   16.38618448
_cell_angle_alpha   89.99647533
_cell_angle_beta   89.99803608
_cell_angle_gamma   89.99434027
_symmetry_Int_Tables_number   1
_chemical_formula_structural   Ca108Mn108O277
_chemical_formula_sum   'Ca108 Mn108 O277'
_cell_volume   5857.37990675
_cell_formula_units_Z   1
loop_
 _symmetry_equiv_pos_site_id
 _symmetry_equiv_pos_as_xyz
  1  'x, y, z'
loop_
 _atom_type_symbol
 _atom_type_oxidation_number
  Ca2+  2.0
  Mn3.34+  3.34
  O2-  -2.0
loop_
 _atom_site_type_symbol
 _atom_site_label
 _atom_site_symmetry_multiplicity
 _atom_site_fract_x
 _atom_site_fract_y
 _atom_site_fract_z
 _atom_site_occupancy
  Ca2+  Ca0  1  0.08516962  0.24420082  0.25652031  1
  Ca2+  Ca1  1  0.08380856  0.25306033  0.56915150  1
  Ca2+  Ca2  1  0.08456216  0.24258060  0.91984794  1
  Ca2+  Ca3  1  0.07212091  0.74836938  0.24986632  1
  Ca2+  Ca4  1  0.06608703  0.74893440  0.58197615  1
  Ca2+  Ca5  1  0.07337291  0.75653291  0.92310461  1
  Ca2+  Ca6  1  0.41428866  0.25299162  0.25548376  1
  Ca2+  Ca7  1  0.41573049  0.24932175  0.58279445  1
  Ca2+  Ca8  1  0.41402796  0.24834052  0.91157375  1
  Ca2+  Ca9  1  0.39846304  0.75501562  0.25739511  1
  Ca2+  Ca10  1  0.42172609  0.76316604  0.58414331  1
  Ca2+  Ca11  1  0.40703333  0.76030797  0.91323799  1
  Ca2+  Ca12  1  0.74895208  0.25453866  0.24448978  1
  Ca2+  Ca13  1  0.75005040  0.24725421  0.58160290  1
  Ca2+  Ca14  1  0.75166375  0.25358376  0.92017869  1
  Ca2+  Ca15  1  0.76660303  0.75689540  0.24163394  1
  Ca2+  Ca16  1  0.75824686  0.75734710  0.58673312  1
  Ca2+  Ca17  1  0.76614820  0.75970517  0.91709921  1
  Ca2+  Ca18  1  0.24992864  0.25257176  0.08025084  1
  Ca2+  Ca19  1  0.25319289  0.25095053  0.42164147  1
  Ca2+  Ca20  1  0.27615660  0.23489452  0.74833957  1
  Ca2+  Ca21  1  0.25163284  0.73485636  0.11913569  1
  Ca2+  Ca22  1  0.24666639  0.72760796  0.41357124  1
  Ca2+  Ca23  1  0.26035380  0.75032054  0.73779673  1
  Ca2+  Ca24  1  0.57277137  0.25246903  0.08033046  1
  Ca2+  Ca25  1  0.57042520  0.25890460  0.42245921  1
  Ca2+  Ca26  1  0.55325052  0.23937032  0.75203901  1
  Ca2+  Ca27  1  0.58564282  0.75366977  0.09109926  1
  Ca2+  Ca28  1  0.57553808  0.75474015  0.43278550  1
  Ca2+  Ca29  1  0.58464905  0.75795596  0.73688246  1
  Ca2+  Ca30  1  0.92306452  0.24818836  0.08157126  1
  Ca2+  Ca31  1  0.92973781  0.25220882  0.41987521  1
  Ca2+  Ca32  1  0.92302921  0.25038688  0.74590117  1
  Ca2+  Ca33  1  0.91965126  0.75042053  0.09650339  1
  Ca2+  Ca34  1  0.92960797  0.74456404  0.41111852  1
  Ca2+  Ca35  1  0.90932569  0.74779892  0.73810299  1
  Ca2+  Ca36  1  0.79890715  0.58755295  0.59186290  1
  Ca2+  Ca37  1  0.57503032  0.57553496  0.07473882  1
  Ca2+  Ca38  1  0.41078094  0.08754257  0.59646655  1
  Ca2+  Ca39  1  0.42018727  0.09673643  0.91224258  1
  Ca2+  Ca40  1  0.41993274  0.08524143  0.59257512  1
  Ca2+  Ca41  1  0.78804645  0.58784091  0.59718318  1
  Ca2+  Ca42  1  0.09098249  0.08496213  0.59159149  1
  Ca2+  Ca43  1  0.58782715  0.57389082  0.07345482  1
  Ca2+  Ca44  1  0.41047605  0.09998800  0.90893454  1
  Ca2+  Ca45  1  0.07569681  0.61175330  0.56175094  1
  Ca2+  Ca46  1  0.78599723  0.07087478  0.93023731  1
  Ca2+  Ca47  1  0.24949397  0.09929124  0.08871382  1
  Ca2+  Ca48  1  0.38810103  0.61217612  0.57992204  1
  Ca2+  Ca49  1  0.07987434  0.59245243  0.90774934  1
  Ca2+  Ca50  1  0.10192169  0.61206931  0.28971779  1
  Ca2+  Ca51  1  0.57028568  0.08986774  0.41878522  1
  Ca2+  Ca52  1  0.09410492  0.60881911  0.29562703  1
  Ca2+  Ca53  1  0.91830892  0.60215672  0.08453169  1
  Ca2+  Ca54  1  0.39426796  0.60525694  0.23312604  1
  Ca2+  Ca55  1  0.57047939  0.08457929  0.74042168  1
  Ca2+  Ca56  1  0.07065080  0.59511429  0.91221449  1
  Ca2+  Ca57  1  0.94695215  0.60205491  0.42909487  1
  Ca2+  Ca58  1  0.93438993  0.07064345  0.74614666  1
  Ca2+  Ca59  1  0.76518854  0.59216932  0.23081925  1
  Ca2+  Ca60  1  0.39845132  0.60998438  0.58266293  1
  Ca2+  Ca61  1  0.38914179  0.61023083  0.23899765  1
  Ca2+  Ca62  1  0.23903627  0.09087939  0.41108069  1
  Ca2+  Ca63  1  0.93070603  0.59598199  0.73981766  1
  Ca2+  Ca64  1  0.06796774  0.08577994  0.91567426  1
  Ca2+  Ca65  1  0.41991477  0.58931757  0.92551040  1
  Ca2+  Ca66  1  0.75920238  0.58077364  0.92780585  1
  Ca2+  Ca67  1  0.25046954  0.09026315  0.41086437  1
  Ca2+  Ca68  1  0.58290042  0.09159366  0.42078586  1
  Ca2+  Ca69  1  0.24465721  0.08297592  0.74044852  1
  Ca2+  Ca70  1  0.08000374  0.08489668  0.59163306  1
  Ca2+  Ca71  1  0.75470576  0.59127512  0.22994327  1
  Ca2+  Ca72  1  0.40756430  0.90230427  0.24424361  1
  Ca2+  Ca73  1  0.25123131  0.91215983  0.73476470  1
  Ca2+  Ca74  1  0.91774395  0.90365655  0.41507909  1
  Ca2+  Ca75  1  0.41662532  0.90852944  0.91780965  1
  Ca2+  Ca76  1  0.08599392  0.40435860  0.91315699  1
  Ca2+  Ca77  1  0.42182947  0.40993806  0.92840575  1
  Ca2+  Ca78  1  0.24650211  0.91041095  0.41877648  1
  Ca2+  Ca79  1  0.06453850  0.91567938  0.89853302  1
  Ca2+  Ca80  1  0.08796632  0.39606298  0.26508446  1
  Ca2+  Ca81  1  0.74582289  0.42058163  0.93770747  1
  Ca2+  Ca82  1  0.08216570  0.92296460  0.60565154  1
  Ca2+  Ca83  1  0.57813805  0.90974133  0.06913746  1
  Ca2+  Ca84  1  0.41808835  0.40330563  0.57657595  1
  Ca2+  Ca85  1  0.43317068  0.40964553  0.92683838  1
  Ca2+  Ca86  1  0.89801946  0.40836751  0.07984039  1
  Ca2+  Ca87  1  0.25563326  0.90744283  0.42211456  1
  Ca2+  Ca88  1  0.95257315  0.42172701  0.43780618  1
  Ca2+  Ca89  1  0.58598172  0.90828439  0.42828047  1
  Ca2+  Ca90  1  0.24503018  0.39864945  0.41126862  1
  Ca2+  Ca91  1  0.91507264  0.41253273  0.73207570  1
  Ca2+  Ca92  1  0.75710320  0.40516470  0.58788187  1
  Ca2+  Ca93  1  0.24017794  0.40495186  0.74898063  1
  Ca2+  Ca94  1  0.09293570  0.92307328  0.60627428  1
  Ca2+  Ca95  1  0.07340576  0.40310781  0.91189679  1
  Ca2+  Ca96  1  0.91070406  0.91380382  0.06451707  1
  Ca2+  Ca97  1  0.75967430  0.90931885  0.25061271  1
  Ca2+  Ca98  1  0.59069420  0.40393327  0.74963383  1
  Ca2+  Ca99  1  0.58353412  0.91478102  0.73726939  1
  Ca2+  Ca100  1  0.59081927  0.90891431  0.06970930  1
  Ca2+  Ca101  1  0.25330907  0.40545466  0.75022174  1
  Ca2+  Ca102  1  0.74188457  0.91427006  0.59476500  1
  Ca2+  Ca103  1  0.07396346  0.91316288  0.90157819  1
  Ca2+  Ca104  1  0.73601408  0.40463637  0.24055087  1
  Ca2+  Ca105  1  0.76836306  0.40940708  0.58474775  1
  Ca2+  Ca106  1  0.58564727  0.41000020  0.08816785  1
  Ca2+  Ca107  1  0.07870948  0.90139590  0.25144609  1
  Mn3.34+  Mn108  1  0.08343124  0.33037020  0.09037549  1
  Mn3.34+  Mn109  1  0.08625442  0.33256189  0.41706127  1
  Mn3.34+  Mn110  1  0.08269473  0.32717533  0.74767271  1
  Mn3.34+  Mn111  1  0.08588089  0.83530750  0.08333191  1
  Mn3.34+  Mn112  1  0.08409390  0.83153365  0.42256372  1
  Mn3.34+  Mn113  1  0.08259556  0.83165833  0.74957910  1
  Mn3.34+  Mn114  1  0.41563742  0.33129065  0.09010926  1
  Mn3.34+  Mn115  1  0.41786010  0.33991307  0.41268852  1
  Mn3.34+  Mn116  1  0.41723925  0.33477836  0.74940121  1
  Mn3.34+  Mn117  1  0.41055199  0.83302579  0.08460860  1
  Mn3.34+  Mn118  1  0.41753413  0.83175669  0.41800397  1
  Mn3.34+  Mn119  1  0.41738469  0.83333960  0.74801333  1
  Mn3.34+  Mn120  1  0.74789510  0.33411496  0.08451917  1
  Mn3.34+  Mn121  1  0.74866499  0.33025100  0.41497086  1
  Mn3.34+  Mn122  1  0.74931541  0.33249475  0.75610793  1
  Mn3.34+  Mn123  1  0.75255171  0.83371323  0.08062459  1
  Mn3.34+  Mn124  1  0.75025247  0.83706695  0.41677982  1
  Mn3.34+  Mn125  1  0.75391504  0.83506768  0.75261683  1
  Mn3.34+  Mn126  1  0.25296411  0.32777690  0.24525786  1
  Mn3.34+  Mn127  1  0.24877000  0.33100537  0.58019961  1
  Mn3.34+  Mn128  1  0.24899928  0.33023103  0.91966658  1
  Mn3.34+  Mn129  1  0.24565958  0.83206578  0.24808327  1
  Mn3.34+  Mn130  1  0.24927546  0.82951688  0.57817891  1
  Mn3.34+  Mn131  1  0.24641497  0.83730650  0.91453165  1
  Mn3.34+  Mn132  1  0.57783652  0.34194351  0.25055312  1
  Mn3.34+  Mn133  1  0.58316345  0.33111675  0.58157583  1
  Mn3.34+  Mn134  1  0.58712990  0.32864833  0.91579229  1
  Mn3.34+  Mn135  1  0.58309821  0.83449174  0.25360558  1
  Mn3.34+  Mn136  1  0.58386670  0.84038762  0.58289378  1
  Mn3.34+  Mn137  1  0.58727078  0.83297381  0.90816056  1
  Mn3.34+  Mn138  1  0.91502682  0.32750589  0.24924690  1
  Mn3.34+  Mn139  1  0.92155178  0.33121679  0.58042040  1
  Mn3.34+  Mn140  1  0.91382693  0.33009259  0.91437521  1
  Mn3.34+  Mn141  1  0.91755116  0.83407142  0.24769123  1
  Mn3.34+  Mn142  1  0.91433977  0.83322314  0.58185567  1
  Mn3.34+  Mn143  1  0.91246060  0.83728918  0.91066551  1
  Mn3.34+  Mn144  1  0.92222064  0.15739694  0.24635424  1
  Mn3.34+  Mn145  1  0.08349290  0.66818723  0.09243528  1
  Mn3.34+  Mn146  1  0.07784977  0.16570968  0.41426192  1
  Mn3.34+  Mn147  1  0.58412972  0.16414223  0.91878814  1
  Mn3.34+  Mn148  1  0.57743970  0.66717226  0.25363281  1
  Mn3.34+  Mn149  1  0.09257512  0.66871684  0.74325822  1
  Mn3.34+  Mn150  1  0.08436667  0.16113255  0.75617546  1
  Mn3.34+  Mn151  1  0.58192410  0.16597196  0.58342722  1
  Mn3.34+  Mn152  1  0.75578847  0.15838086  0.75370764  1
  Mn3.34+  Mn153  1  0.74045824  0.66289912  0.41945024  1
  Mn3.34+  Mn154  1  0.74395219  0.16457144  0.08643940  1
  Mn3.34+  Mn155  1  0.41735129  0.66843054  0.75215071  1
  Mn3.34+  Mn156  1  0.58443008  0.66719499  0.58654821  1
  Mn3.34+  Mn157  1  0.91483542  0.67132613  0.91384713  1
  Mn3.34+  Mn158  1  0.58072439  0.17374519  0.24661346  1
  Mn3.34+  Mn159  1  0.75470437  0.15986944  0.08791447  1
  Mn3.34+  Mn160  1  0.08047684  0.16809338  0.08780617  1
  Mn3.34+  Mn161  1  0.25124250  0.16478592  0.58189461  1
  Mn3.34+  Mn162  1  0.75328985  0.16843352  0.41176520  1
  Mn3.34+  Mn163  1  0.76167778  0.16216142  0.40915916  1
  Mn3.34+  Mn164  1  0.24973498  0.16475562  0.24389701  1
  Mn3.34+  Mn165  1  0.75197845  0.66779372  0.75097872  1
  Mn3.34+  Mn166  1  0.91795845  0.16632187  0.58137370  1
  Mn3.34+  Mn167  1  0.57947707  0.67325442  0.91434432  1
  Mn3.34+  Mn168  1  0.25788376  0.66487649  0.91826739  1
  Mn3.34+  Mn169  1  0.59034723  0.67341174  0.90820164  1
  Mn3.34+  Mn170  1  0.75275119  0.66801401  0.41674524  1
  Mn3.34+  Mn171  1  0.75178351  0.66858423  0.07925865  1
  Mn3.34+  Mn172  1  0.24525289  0.16553363  0.91511751  1
  Mn3.34+  Mn173  1  0.41622896  0.17052816  0.41562588  1
  Mn3.34+  Mn174  1  0.74510559  0.16286168  0.75323334  1
  Mn3.34+  Mn175  1  0.24515978  0.67212454  0.92041831  1
  Mn3.34+  Mn176  1  0.58798373  0.66198843  0.25291675  1
  Mn3.34+  Mn177  1  0.41633916  0.66603718  0.42041606  1
  Mn3.34+  Mn178  1  0.41842203  0.16693714  0.09118289  1
  Mn3.34+  Mn179  1  0.92047010  0.16551302  0.91514384  1
  Mn3.34+  Mn180  1  0.07048086  0.00003777  0.41112106  1
  Mn3.34+  Mn181  1  0.59151664  0.00775231  0.24753043  1
  Mn3.34+  Mn182  1  0.08220574  0.50020835  0.08808487  1
  Mn3.34+  Mn183  1  0.90891103  0.00118058  0.58256545  1
  Mn3.34+  Mn184  1  0.24878374  0.00093741  0.91743250  1
  Mn3.34+  Mn185  1  0.24760794  0.49836419  0.57061987  1
  Mn3.34+  Mn186  1  0.07249431  0.00887902  0.08439138  1
  Mn3.34+  Mn187  1  0.07845612  0.50059609  0.73168728  1
  Mn3.34+  Mn188  1  0.92380286  0.49368554  0.25916455  1
  Mn3.34+  Mn189  1  0.25054673  0.50120847  0.91198119  1
  Mn3.34+  Mn190  1  0.58966630  0.00116280  0.91914126  1
  Mn3.34+  Mn191  1  0.75806443  -0.00053502  0.41388267  1
  Mn3.34+  Mn192  1  0.24983714  0.00025258  0.25548775  1
  Mn3.34+  Mn193  1  0.72836259  0.49848078  0.40196962  1
  Mn3.34+  Mn194  1  0.23572294  0.50467289  0.57360726  1
  Mn3.34+  Mn195  1  0.58849566  0.50062981  0.91082184  1
  Mn3.34+  Mn196  1  0.71257154  0.49798388  0.39717529  1
  Mn3.34+  Mn197  1  0.41811183  -0.00371514  0.42495829  1
  Mn3.34+  Mn198  1  0.91810939  0.00005687  0.25658897  1
  Mn3.34+  Mn199  1  0.93535587  0.49909449  0.25837156  1
  Mn3.34+  Mn200  1  0.24273940  0.50034081  0.23896775  1
  Mn3.34+  Mn201  1  0.41550389  0.00433401  0.07666560  1
  Mn3.34+  Mn202  1  0.39435950  0.49644884  0.07904624  1
  Mn3.34+  Mn203  1  0.57409325  0.49821153  0.57257256  1
  Mn3.34+  Mn204  1  0.09634440  0.49434888  0.08586120  1
  Mn3.34+  Mn205  1  0.42688040  0.50303515  0.39067118  1
  Mn3.34+  Mn206  1  0.08528584  0.00236262  0.08629939  1
  Mn3.34+  Mn207  1  0.74764081  -0.00388502  0.74644282  1
  Mn3.34+  Mn208  1  0.57781738  0.00249537  0.24690266  1
  Mn3.34+  Mn209  1  0.58575268  0.50501999  0.57481099  1
  Mn3.34+  Mn210  1  0.91413799  0.49840458  0.90779412  1
  Mn3.34+  Mn211  1  0.25501106  0.49323188  0.24016967  1
  Mn3.34+  Mn212  1  0.74604706  0.50138926  0.75145441  1
  Mn3.34+  Mn213  1  0.41419126  -0.00725209  0.73410175  1
  Mn3.34+  Mn214  1  0.41772654  0.50649897  0.74445044  1
  Mn3.34+  Mn215  1  0.75580947  -0.00101645  0.07974957  1
  O2-  O216  1  0.00391266  0.15538640  -0.00480447  1
  O2-  O217  1  -0.00308650  0.17520677  0.33204552  1
  O2-  O218  1  0.00367252  0.15552813  0.67161093  1
  O2-  O219  1  0.00223482  0.65051692  -0.00361282  1
  O2-  O220  1  -0.00425139  0.66718834  0.33188628  1
  O2-  O221  1  0.00742293  0.66645125  0.67215148  1
  O2-  O222  1  0.32999149  0.15128646  -0.00177756  1
  O2-  O223  1  0.32923588  0.16013861  0.33723295  1
  O2-  O224  1  0.32990572  0.14833182  0.66305580  1
  O2-  O225  1  0.34021447  0.66169614  -0.00546822  1
  O2-  O226  1  0.33855240  0.65852520  0.34010934  1
  O2-  O227  1  0.33603158  0.66910245  0.67330547  1
  O2-  O228  1  0.67482670  0.14953049  -0.00448753  1
  O2-  O229  1  0.66722285  0.18451086  0.33116196  1
  O2-  O230  1  0.66796794  0.15745722  0.66628968  1
  O2-  O231  1  0.66508770  0.65648591  -0.00158741  1
  O2-  O232  1  0.67250410  0.63984079  0.32892199  1
  O2-  O233  1  0.68202228  0.65018779  0.65449437  1
  O2-  O234  1  0.16227448  0.15108371  -0.00275560  1
  O2-  O235  1  0.17081152  0.16373373  0.33616696  1
  O2-  O236  1  0.16462828  0.15497389  0.66475486  1
  O2-  O237  1  0.16243282  0.64875461  -0.00109471  1
  O2-  O238  1  0.15323153  0.68964287  0.33596340  1
  O2-  O239  1  0.16145908  0.70025392  0.66856789  1
  O2-  O240  1  0.49851260  0.15040576  0.00041302  1
  O2-  O241  1  0.51003774  0.16385850  0.34448267  1
  O2-  O242  1  0.49996797  0.15249406  0.66165313  1
  O2-  O243  1  0.50687640  0.66641474  0.00037006  1
  O2-  O244  1  0.49882962  0.64901257  0.33544273  1
  O2-  O245  1  0.49774355  0.65070532  0.66822147  1
  O2-  O246  1  0.83300300  0.15391193  -0.00203397  1
  O2-  O247  1  0.83805593  0.18847535  0.32774894  1
  O2-  O248  1  0.83518841  0.16927820  0.67014422  1
  O2-  O249  1  0.83232759  0.65036832  -0.00348818  1
  O2-  O250  1  0.82639602  0.63865925  0.33829288  1
  O2-  O251  1  0.83847529  0.65659122  0.67897734  1
  O2-  O252  1  -0.00364718  0.35316482  0.00500278  1
  O2-  O253  1  -0.00237766  0.33180929  0.33392975  1
  O2-  O254  1  -0.00480759  0.33554521  0.67446640  1
  O2-  O255  1  0.00175137  0.84935387  -0.00346563  1
  O2-  O256  1  0.00351383  0.83688333  0.33284497  1
  O2-  O257  1  0.00745748  0.84190051  0.65876791  1
  O2-  O258  1  0.33864106  0.34653130  -0.00799503  1
  O2-  O259  1  0.32547236  0.32942732  0.33577650  1
  O2-  O260  1  0.33333584  0.35401234  0.66574444  1
  O2-  O261  1  0.34024276  0.84058526  -0.00843280  1
  O2-  O262  1  0.33228577  0.84437279  0.33450602  1
  O2-  O263  1  0.32770811  0.83357309  0.66510451  1
  O2-  O264  1  0.66723577  0.34722402  -0.00148888  1
  O2-  O265  1  0.66650581  0.32233505  0.32914151  1
  O2-  O266  1  0.67328782  0.34593581  0.66334705  1
  O2-  O267  1  0.66068674  0.83767945  0.00251728  1
  O2-  O268  1  0.66697287  0.85706886  0.33378937  1
  O2-  O269  1  0.66478695  0.84196489  0.66860232  1
  O2-  O270  1  0.15956321  0.34665212  -0.00225433  1
  O2-  O271  1  0.16795487  0.32247202  0.33157718  1
  O2-  O272  1  0.17142733  0.33662402  0.67119131  1
  O2-  O273  1  0.15422893  0.85551431  -0.01484787  1
  O2-  O274  1  0.16746598  0.84936324  0.34005580  1
  O2-  O275  1  0.16603335  0.83548648  0.66372330  1
  O2-  O276  1  0.50640955  0.34465626  0.00085792  1
  O2-  O277  1  0.50176336  0.32284910  0.32907945  1
  O2-  O278  1  0.50348128  0.35169008  0.67038331  1
  O2-  O279  1  0.50265726  0.82622665  0.00272832  1
  O2-  O280  1  0.49813358  0.85489078  0.33392429  1
  O2-  O281  1  0.50370032  0.84390567  0.67044050  1
  O2-  O282  1  0.82899484  0.34664235  -0.00664232  1
  O2-  O283  1  0.83090284  0.32054449  0.33163435  1
  O2-  O284  1  0.82919734  0.33681137  0.66565506  1
  O2-  O285  1  0.83287233  0.84385850  -0.00142816  1
  O2-  O286  1  0.83444288  0.84956632  0.33103231  1
  O2-  O287  1  0.82737513  0.84747679  0.65879849  1
  O2-  O288  1  -0.00040695  0.18751983  0.16872795  1
  O2-  O289  1  0.01071360  0.17233865  0.50973723  1
  O2-  O290  1  0.00295361  0.18734629  0.82992831  1
  O2-  O291  1  -0.00366357  0.67525645  0.15801028  1
  O2-  O292  1  0.00737421  0.68403759  0.49263109  1
  O2-  O293  1  0.00718561  0.67834073  0.83930352  1
  O2-  O294  1  0.32925933  0.18607650  0.16435196  1
  O2-  O295  1  0.33387556  0.16971922  0.49889417  1
  O2-  O296  1  0.33534596  0.17115220  0.84376093  1
  O2-  O297  1  0.35216978  0.68598697  0.17388660  1
  O2-  O298  1  0.34106139  0.68464720  0.50265164  1
  O2-  O299  1  0.33250611  0.68754239  0.83492451  1
  O2-  O300  1  0.66270325  0.19127793  0.16539210  1
  O2-  O301  1  0.66160341  0.18291271  0.49243863  1
  O2-  O302  1  0.66416780  0.18476399  0.83126944  1
  O2-  O303  1  0.67278952  0.68334722  0.17060553  1
  O2-  O304  1  0.66348723  0.68471908  0.49635168  1
  O2-  O305  1  0.66872891  0.68818391  0.83277055  1
  O2-  O306  1  0.17069281  0.18787602  0.16389875  1
  O2-  O307  1  0.17263209  0.17485194  0.49777129  1
  O2-  O308  1  0.16918245  0.18555299  0.82784446  1
  O2-  O309  1  0.15275293  0.67480741  0.17726707  1
  O2-  O310  1  0.14590873  0.68588223  0.49952984  1
  O2-  O311  1  0.16268257  0.67913322  0.84046048  1
  O2-  O312  1  0.49681990  0.19171023  0.17299663  1
  O2-  O313  1  0.49823166  0.17884795  0.50186825  1
  O2-  O314  1  0.49750890  0.17256788  0.84457853  1
  O2-  O315  1  0.50948499  0.68140336  0.16422577  1
  O2-  O316  1  0.49316179  0.67904402  0.51217212  1
  O2-  O317  1  0.49692090  0.68961683  0.83730428  1
  O2-  O318  1  0.83403435  0.18399313  0.16648778  1
  O2-  O319  1  0.83481694  0.18530212  0.49835977  1
  O2-  O320  1  0.83207441  0.18773475  0.83294913  1
  O2-  O321  1  0.82647631  0.67097563  0.16108260  1
  O2-  O322  1  0.83046338  0.67489354  0.50090856  1
  O2-  O323  1  0.83306669  0.68338854  0.83595169  1
  O2-  O324  1  -0.00057944  0.31399146  0.17027761  1
  O2-  O325  1  0.00008034  0.32933852  0.49666685  1
  O2-  O326  1  0.00948297  0.31822484  0.84138020  1
  O2-  O327  1  -0.00054381  0.82156160  0.16607487  1
  O2-  O328  1  -0.00346308  0.81785288  0.49390007  1
  O2-  O329  1  0.00449366  0.81810301  0.83409894  1
  O2-  O330  1  0.33345609  0.31101493  0.16607312  1
  O2-  O331  1  0.33291996  0.32681376  0.50297003  1
  O2-  O332  1  0.32672549  0.32589862  0.82751311  1
  O2-  O333  1  0.33306933  0.82301357  0.16961515  1
  O2-  O334  1  0.32752633  0.81660135  0.49247383  1
  O2-  O335  1  0.33171509  0.82618811  0.83098340  1
  O2-  O336  1  0.66429106  0.32063089  0.16623724  1
  O2-  O337  1  0.67149921  0.31474324  0.50329205  1
  O2-  O338  1  0.65924182  0.31396391  0.82611199  1
  O2-  O339  1  0.66434014  0.82309383  0.16455099  1
  O2-  O340  1  0.66721118  0.82155158  0.49858981  1
  O2-  O341  1  0.66804749  0.81160913  0.83311081  1
  O2-  O342  1  0.16367995  0.31331388  0.17155633  1
  O2-  O343  1  0.17099098  0.31797816  0.49718068  1
  O2-  O344  1  0.16583487  0.32177590  0.83164056  1
  O2-  O345  1  0.16010064  0.82121783  0.17254301  1
  O2-  O346  1  0.16769529  0.80540870  0.49718668  1
  O2-  O347  1  0.16440443  0.81238840  0.82884837  1
  O2-  O348  1  0.50288641  0.31904475  0.16682610  1
  O2-  O349  1  0.49567613  0.32513191  0.50784337  1
  O2-  O350  1  0.49145486  0.32610005  0.84077507  1
  O2-  O351  1  0.49794068  0.81580359  0.16747302  1
  O2-  O352  1  0.50205591  0.82796755  0.49749753  1
  O2-  O353  1  0.49915766  0.81839195  0.83611521  1
  O2-  O354  1  0.83420636  0.31670541  0.16311829  1
  O2-  O355  1  0.82996670  0.31671238  0.50213154  1
  O2-  O356  1  0.83637161  0.31298523  0.82851907  1
  O2-  O357  1  0.83226602  0.82798402  0.16419968  1
  O2-  O358  1  0.83569449  0.82205547  0.49379390  1
  O2-  O359  1  0.83836176  0.81691390  0.82779183  1
  O2-  O360  1  0.09097029  0.08644217  0.12082802  1
  O2-  O361  1  0.09882066  0.08083302  0.44837605  1
  O2-  O362  1  0.08234055  0.08042003  0.77482285  1
  O2-  O363  1  0.08257937  0.58019027  0.11382401  1
  O2-  O364  1  0.08931673  0.58283223  0.42996806  1
  O2-  O365  1  0.08250954  0.57958462  0.77428174  1
  O2-  O366  1  0.39911419  0.08277626  0.11016202  1
  O2-  O367  1  0.43029010  0.08032507  0.44974830  1
  O2-  O368  1  0.42005839  0.06413959  0.78411232  1
  O2-  O369  1  0.44572684  0.56979966  0.12259462  1
  O2-  O370  1  0.41350971  0.57707282  0.45340440  1
  O2-  O371  1  0.41432341  0.58709770  0.78639935  1
  O2-  O372  1  0.74905809  0.07863069  0.11336697  1
  O2-  O373  1  0.72074400  0.08026776  0.43371385  1
  O2-  O374  1  0.75786682  0.07475525  0.79264371  1
  O2-  O375  1  0.73063121  0.58285980  0.09917103  1
  O2-  O376  1  0.74657341  0.57104895  0.46386089  1
  O2-  O377  1  0.75907272  0.58244015  0.78160859  1
  O2-  O378  1  0.24564943  0.07883113  0.22633713  1
  O2-  O379  1  0.25327624  0.08148378  0.54805521  1
  O2-  O380  1  0.24773428  0.08115968  0.88198278  1
  O2-  O381  1  0.25522892  0.57940875  0.21859873  1
  O2-  O382  1  0.25086160  0.58568833  0.56451157  1
  O2-  O383  1  0.23820455  0.58462544  0.88770080  1
  O2-  O384  1  0.59168657  0.08892724  0.24418470  1
  O2-  O385  1  0.56722384  0.08286314  0.55300783  1
  O2-  O386  1  0.57805834  0.08054086  0.88337972  1
  O2-  O387  1  0.60186485  0.58494393  0.20731082  1
  O2-  O388  1  0.57686442  0.58437091  0.55279929  1
  O2-  O389  1  0.57930815  0.58325253  0.89533186  1
  O2-  O390  1  0.91937576  0.07409335  0.21847088  1
  O2-  O391  1  0.92936417  0.08262810  0.56538962  1
  O2-  O392  1  0.91994623  0.08647248  0.88088072  1
  O2-  O393  1  0.89363384  0.57010226  0.20780838  1
  O2-  O394  1  0.91930000  0.57002966  0.55370080  1
  O2-  O395  1  0.92911950  0.58159861  0.88442630  1
  O2-  O396  1  0.08103329  0.41578510  0.12483910  1
  O2-  O397  1  0.09405390  0.41279728  0.41161558  1
  O2-  O398  1  0.09440579  0.42194320  0.77888075  1
  O2-  O399  1  0.07409866  0.92290207  0.11859060  1
  O2-  O400  1  0.09113058  0.92084916  0.46073857  1
  O2-  O401  1  0.09995258  0.92068844  0.76545468  1
  O2-  O402  1  0.42848292  0.41452443  0.09368727  1
  O2-  O403  1  0.40500084  0.42808447  0.44102009  1
  O2-  O404  1  0.39976863  0.42420416  0.79177722  1
  O2-  O405  1  0.43935906  0.92273077  0.10760619  1
  O2-  O406  1  0.39491430  0.91547107  0.44039741  1
  O2-  O407  1  0.41729996  0.91989325  0.77776752  1
  O2-  O408  1  0.75244411  0.41493758  0.10724575  1
  O2-  O409  1  0.75650050  0.42306955  0.45027046  1
  O2-  O410  1  0.74824601  0.42137879  0.78860307  1
  O2-  O411  1  0.73648969  0.91898679  0.11107501  1
  O2-  O412  1  0.75576463  0.92167699  0.45606273  1
  O2-  O413  1  0.73349959  0.91738870  0.77249299  1
  O2-  O414  1  0.23484459  0.41433731  0.24244355  1
  O2-  O415  1  0.24068152  0.41777798  0.55011261  1
  O2-  O416  1  0.23048470  0.41804527  0.88359612  1
  O2-  O417  1  0.25520225  0.91924008  0.23715406  1
  O2-  O418  1  0.22657508  0.91545309  0.55404593  1
  O2-  O419  1  0.23647648  0.92137727  0.87899500  1
  O2-  O420  1  0.59648984  0.41865953  0.22709950  1
  O2-  O421  1  0.59966454  0.41771937  0.55104305  1
  O2-  O422  1  0.57559296  0.41820861  0.88776914  1
  O2-  O423  1  0.57877457  0.92455967  0.20430841  1
  O2-  O424  1  0.59786821  0.91953475  0.56565017  1
  O2-  O425  1  0.56905909  0.92040826  0.89525615  1
  O2-  O426  1  0.91630655  0.41523575  0.22096203  1
  O2-  O427  1  0.90248533  0.41410092  0.56455752  1
  O2-  O428  1  0.93353903  0.41673486  0.87885223  1
  O2-  O429  1  0.91569036  0.92503039  0.20799881  1
  O2-  O430  1  0.93097469  0.92172392  0.55284239  1
  O2-  O431  1  0.93081507  0.91587207  0.89052274  1
  O2-  O432  1  0.01466793  -0.00668066  -0.01678515  1
  O2-  O433  1  0.00089723  -0.02690322  0.32611172  1
  O2-  O434  1  0.00443590  0.00388842  0.64590222  1
  O2-  O435  1  -0.00524356  0.49757224  0.00464333  1
  O2-  O436  1  -0.00463563  0.51269894  0.35168007  1
  O2-  O437  1  -0.03084150  0.50092698  0.71519886  1
  O2-  O438  1  0.35508270  0.00493824  -0.03318641  1
  O2-  O439  1  0.32582022  0.00888498  0.35332726  1
  O2-  O440  1  0.32629054  0.00968021  0.67472702  1
  O2-  O441  1  0.35949643  0.49716778  -0.04326689  1
  O2-  O442  1  0.32121243  0.50345019  0.33321638  1
  O2-  O443  1  0.33723469  0.49193806  0.65111450  1
  O2-  O444  1  0.66321736  -0.00886905  0.01130480  1
  O2-  O445  1  0.66337135  -0.01119435  0.34073949  1
  O2-  O446  1  0.64756808  0.00378037  0.70407047  1
  O2-  O447  1  0.66347635  0.50295009  -0.00375982  1
  O2-  O448  1  0.69337146  0.50955184  0.28686028  1
  O2-  O449  1  0.66061870  0.49065386  0.66622588  1
  O2-  O450  1  0.17395430  0.00913708  0.00608085  1
  O2-  O451  1  0.17944961  -0.00225464  0.35761254  1
  O2-  O452  1  0.15430443  0.00734881  0.63769416  1
  O2-  O453  1  0.14664279  0.49946230  -0.02458572  1
  O2-  O454  1  0.14810146  0.50777891  0.29941588  1
  O2-  O455  1  0.17983347  0.48990732  0.67937741  1
  O2-  O456  1  0.50639246  -0.00436339  0.00378963  1
  O2-  O457  1  0.50702730  0.00298020  0.34579505  1
  O2-  O458  1  0.49017895  0.01139844  0.66128188  1
  O2-  O459  1  0.50694679  0.50205931  0.00327549  1
  O2-  O460  1  0.47913694  0.53150779  0.30559079  1
  O2-  O461  1  0.49710770  0.48652730  0.65788715  1
  O2-  O462  1  0.83866222  -0.00295212  0.01242312  1
  O2-  O463  1  0.83445906  -0.01772899  0.32855179  1
  O2-  O464  1  0.83114733  0.00026565  0.67096845  1
  O2-  O465  1  0.82691007  0.49761571  -0.02283752  1
  O2-  O466  1  0.83739620  0.49890633  0.34622347  1
  O2-  O467  1  0.81303964  0.49371288  0.65316485  1
  O2-  O468  1  0.41818801  0.24905848  0.05322830  1
  O2-  O469  1  0.57715684  0.24946784  0.61025387  1
  O2-  O470  1  0.58229140  0.24742539  0.94243526  1
  O2-  O471  1  0.08054270  0.24798966  0.41413987  1
  O2-  O472  1  0.58102323  0.75021893  0.60158058  1
  O2-  O473  1  0.90825546  0.75616687  0.26417759  1
  O2-  O474  1  0.08122288  0.25079168  0.05554187  1
  O2-  O475  1  0.74976440  0.24772494  0.05754175  1
  O2-  O476  1  0.41511830  0.25625005  0.72642884  1
  O2-  O477  1  0.59070689  0.74581998  0.28702449  1
  O2-  O478  1  0.25224542  0.24826282  0.94075765  1
  O2-  O479  1  0.42382430  0.75144424  0.72703381  1
  O2-  O480  1  0.08442654  0.74971070  0.06029615  1
  O2-  O481  1  0.91752723  0.75023400  0.94761643  1
  O2-  O482  1  0.75147534  0.75015195  0.06026962  1
  O2-  O483  1  0.25086062  0.75515157  0.26703576  1
  O2-  O484  1  0.24591154  0.75269741  0.94634273  1
  O2-  O485  1  0.91030633  0.75589345  0.60123692  1
  O2-  O486  1  0.75339457  0.75031364  0.72367532  1
  O2-  O487  1  0.43385726  0.74981780  0.39312981  1
  O2-  O488  1  0.41188622  0.25035363  0.40791437  1
  O2-  O489  1  0.93009258  0.24886999  0.60026316  1
  O2-  O490  1  0.91743576  0.25040392  0.94478315  1
  O2-  O491  1  0.74491520  0.75251888  0.38220187  1
  O2-  O492  1  0.26069940  0.24793111  0.60463362  1
