# generated using pymatgen
data_Ca108Mn108O277
_symmetry_space_group_name_H-M   'P 1'
_cell_length_a   16.02785192
_cell_length_b   22.30962003
_cell_length_c   16.39089781
_cell_angle_alpha   89.99934679
_cell_angle_beta   90.00196687
_cell_angle_gamma   89.99836173
_symmetry_Int_Tables_number   1
_chemical_formula_structural   Ca108Mn108O277
_chemical_formula_sum   'Ca108 Mn108 O277'
_cell_volume   5860.97997165
_cell_formula_units_Z   1
loop_
 _symmetry_equiv_pos_site_id
 _symmetry_equiv_pos_as_xyz
  1  'x, y, z'
loop_
 _atom_type_symbol
 _atom_type_oxidation_number
  Ca2+  2.0
  Mn3.34+  3.34
  O2-  -2.0
loop_
 _atom_site_type_symbol
 _atom_site_label
 _atom_site_symmetry_multiplicity
 _atom_site_fract_x
 _atom_site_fract_y
 _atom_site_fract_z
 _atom_site_occupancy
  Ca2+  Ca0  1  0.09593977  0.23145608  0.26506877  1
  Ca2+  Ca1  1  0.09529564  0.25832735  0.55933974  1
  Ca2+  Ca2  1  0.06991673  0.24794694  0.92670098  1
  Ca2+  Ca3  1  0.09043414  0.75345581  0.23837328  1
  Ca2+  Ca4  1  0.07555603  0.74993830  0.59231873  1
  Ca2+  Ca5  1  0.08745124  0.75736942  0.92230836  1
  Ca2+  Ca6  1  0.41766453  0.24596155  0.26606616  1
  Ca2+  Ca7  1  0.43039830  0.26149864  0.57137211  1
  Ca2+  Ca8  1  0.41987017  0.25580310  0.91278116  1
  Ca2+  Ca9  1  0.40884922  0.75678559  0.25506693  1
  Ca2+  Ca10  1  0.43295083  0.75146658  0.56811866  1
  Ca2+  Ca11  1  0.41223571  0.76684466  0.92505876  1
  Ca2+  Ca12  1  0.74154591  0.24800478  0.24842128  1
  Ca2+  Ca13  1  0.72121469  0.24366270  0.58942786  1
  Ca2+  Ca14  1  0.75000291  0.24698468  0.91523580  1
  Ca2+  Ca15  1  0.75343963  0.76211692  0.24674700  1
  Ca2+  Ca16  1  0.74095204  0.74365114  0.59169394  1
  Ca2+  Ca17  1  0.74572427  0.75316079  0.91044824  1
  Ca2+  Ca18  1  0.24608900  0.24795279  0.11653267  1
  Ca2+  Ca19  1  0.25612855  0.24366324  0.40052226  1
  Ca2+  Ca20  1  0.26405821  0.25792838  0.74817191  1
  Ca2+  Ca21  1  0.24569374  0.75269061  0.08536724  1
  Ca2+  Ca22  1  0.26046439  0.75609828  0.40952523  1
  Ca2+  Ca23  1  0.22450022  0.74698397  0.75855010  1
  Ca2+  Ca24  1  0.59324947  0.24533211  0.10782581  1
  Ca2+  Ca25  1  0.57131011  0.22005358  0.40293814  1
  Ca2+  Ca26  1  0.59052634  0.24315444  0.73990641  1
  Ca2+  Ca27  1  0.59358764  0.75942934  0.08132111  1
  Ca2+  Ca28  1  0.58194155  0.74774330  0.43756390  1
  Ca2+  Ca29  1  0.61302442  0.74374738  0.73037542  1
  Ca2+  Ca30  1  0.90800828  0.25234051  0.09352810  1
  Ca2+  Ca31  1  0.93235601  0.25012118  0.40071989  1
  Ca2+  Ca32  1  0.88861396  0.24293816  0.76124756  1
  Ca2+  Ca33  1  0.91275539  0.76478442  0.08354219  1
  Ca2+  Ca34  1  0.90792457  0.76247882  0.41783557  1
  Ca2+  Ca35  1  0.91412755  0.73547188  0.74606788  1
  Ca2+  Ca36  1  0.90935420  0.09355818  0.08502429  1
  Ca2+  Ca37  1  0.07872713  0.10462960  0.57492614  1
  Ca2+  Ca38  1  0.47534769  0.10642757  0.55986443  1
  Ca2+  Ca39  1  0.90183837  0.58812512  0.06911654  1
  Ca2+  Ca40  1  0.40774677  0.09395751  0.26606938  1
  Ca2+  Ca41  1  0.46754887  0.11054902  0.55633481  1
  Ca2+  Ca42  1  0.06403720  0.60569009  0.90966366  1
  Ca2+  Ca43  1  0.41786262  0.09404739  0.26713990  1
  Ca2+  Ca44  1  0.88977445  0.58561426  0.07010184  1
  Ca2+  Ca45  1  0.73937147  0.09170893  0.91680826  1
  Ca2+  Ca46  1  0.61194268  0.07390676  0.06375235  1
  Ca2+  Ca47  1  0.24482195  0.56587312  0.37747085  1
  Ca2+  Ca48  1  0.70895631  0.09976649  0.57689168  1
  Ca2+  Ca49  1  0.72875299  0.09587786  0.24347623  1
  Ca2+  Ca50  1  0.45250846  0.60377303  0.57167047  1
  Ca2+  Ca51  1  0.07995863  0.08696429  0.92879676  1
  Ca2+  Ca52  1  0.41785785  0.58516010  0.93722519  1
  Ca2+  Ca53  1  0.07335273  0.60727760  0.91426284  1
  Ca2+  Ca54  1  0.88548203  0.10186771  0.75814439  1
  Ca2+  Ca55  1  0.24816200  0.59346060  0.75156406  1
  Ca2+  Ca56  1  0.61095945  0.09946377  0.74427810  1
  Ca2+  Ca57  1  0.23481768  0.09312615  0.12562899  1
  Ca2+  Ca58  1  0.61656860  0.59979598  0.73085071  1
  Ca2+  Ca59  1  0.25238412  0.59141910  0.09731347  1
  Ca2+  Ca60  1  0.41360424  0.57799749  0.25700724  1
  Ca2+  Ca61  1  0.62310063  0.56917856  0.08875717  1
  Ca2+  Ca62  1  0.03876993  0.61176666  0.60625218  1
  Ca2+  Ca63  1  0.77412385  0.60494560  0.61544878  1
  Ca2+  Ca64  1  0.43797017  0.08245820  0.92806339  1
  Ca2+  Ca65  1  0.23562163  0.59341078  0.75353551  1
  Ca2+  Ca66  1  0.23613763  0.08753738  0.36573674  1
  Ca2+  Ca67  1  0.73920397  0.09490485  0.24402605  1
  Ca2+  Ca68  1  0.23381204  0.56502387  0.37942209  1
  Ca2+  Ca69  1  0.09190773  0.08696724  0.92899415  1
  Ca2+  Ca70  1  0.93563602  0.09572578  0.39820315  1
  Ca2+  Ca71  1  0.24136474  0.09784705  0.75864111  1
  Ca2+  Ca72  1  0.06994503  0.40453991  0.91744992  1
  Ca2+  Ca73  1  0.43657165  0.90949702  0.58022810  1
  Ca2+  Ca74  1  0.59350188  0.40717231  0.07840665  1
  Ca2+  Ca75  1  0.26090766  0.40475940  0.74192316  1
  Ca2+  Ca76  1  0.10312922  0.42111676  0.27713376  1
  Ca2+  Ca77  1  0.75169412  0.39547282  0.58485753  1
  Ca2+  Ca78  1  0.07446276  0.91055193  0.92729726  1
  Ca2+  Ca79  1  0.58337641  0.40396695  0.40965270  1
  Ca2+  Ca80  1  0.72910082  0.41238974  0.24515471  1
  Ca2+  Ca81  1  0.74948390  0.92556587  0.94373408  1
  Ca2+  Ca82  1  0.24810710  0.89916457  0.75656548  1
  Ca2+  Ca83  1  0.25320898  0.91569293  0.38608137  1
  Ca2+  Ca84  1  0.73177294  0.90961069  0.58003634  1
  Ca2+  Ca85  1  0.59378721  0.90866152  0.75162589  1
  Ca2+  Ca86  1  0.58588909  0.90538628  0.41647877  1
  Ca2+  Ca87  1  0.11358329  0.42134532  0.27610403  1
  Ca2+  Ca88  1  0.41362390  0.41373126  0.25017327  1
  Ca2+  Ca89  1  0.25406441  0.90787679  0.09772305  1
  Ca2+  Ca90  1  0.74430080  0.90984610  0.57949675  1
  Ca2+  Ca91  1  0.91494603  0.39475964  0.74650781  1
  Ca2+  Ca92  1  0.73868693  0.92538468  0.94198777  1
  Ca2+  Ca93  1  0.07532544  0.89247488  0.58125016  1
  Ca2+  Ca94  1  0.90268580  0.39398389  0.74966500  1
  Ca2+  Ca95  1  0.58281079  0.90993638  0.75287964  1
  Ca2+  Ca96  1  0.24227246  0.91674614  0.38506556  1
  Ca2+  Ca97  1  0.24500200  0.40583671  0.42559811  1
  Ca2+  Ca98  1  0.08286130  0.40379725  0.91789265  1
  Ca2+  Ca99  1  0.73960415  0.41312324  0.24529486  1
  Ca2+  Ca100  1  0.23517827  0.89855612  0.75702248  1
  Ca2+  Ca101  1  0.42998226  0.40200316  0.91723205  1
  Ca2+  Ca102  1  0.89886631  0.40854260  0.08397485  1
  Ca2+  Ca103  1  0.08043938  0.90640971  0.24745310  1
  Ca2+  Ca104  1  0.57291518  0.40478963  0.41074593  1
  Ca2+  Ca105  1  0.75495146  0.91313953  0.23693431  1
  Ca2+  Ca106  1  0.58869932  0.92442707  0.06723979  1
  Ca2+  Ca107  1  0.25169880  0.40324947  0.09239384  1
  Mn3.34+  Mn108  1  0.08023486  0.33318127  0.09350112  1
  Mn3.34+  Mn109  1  0.08110401  0.33477663  0.42010735  1
  Mn3.34+  Mn110  1  0.08521067  0.32161815  0.74952105  1
  Mn3.34+  Mn111  1  0.08079624  0.83512664  0.08334975  1
  Mn3.34+  Mn112  1  0.07863591  0.83297296  0.42035693  1
  Mn3.34+  Mn113  1  0.06716963  0.83332114  0.75524516  1
  Mn3.34+  Mn114  1  0.41829769  0.33495216  0.08308672  1
  Mn3.34+  Mn115  1  0.41285808  0.33448904  0.41893957  1
  Mn3.34+  Mn116  1  0.42504158  0.33540161  0.74641304  1
  Mn3.34+  Mn117  1  0.42122899  0.83689805  0.09106300  1
  Mn3.34+  Mn118  1  0.42010987  0.83341999  0.41247568  1
  Mn3.34+  Mn119  1  0.41525093  0.82954221  0.74982311  1
  Mn3.34+  Mn120  1  0.74761404  0.33290158  0.08078834  1
  Mn3.34+  Mn121  1  0.75656141  0.33017139  0.41982722  1
  Mn3.34+  Mn122  1  0.73740974  0.33030399  0.75351141  1
  Mn3.34+  Mn123  1  0.75016001  0.83565054  0.08526221  1
  Mn3.34+  Mn124  1  0.75224349  0.83688439  0.41119178  1
  Mn3.34+  Mn125  1  0.75976386  0.83320348  0.75573522  1
  Mn3.34+  Mn126  1  0.25499750  0.33472451  0.25144987  1
  Mn3.34+  Mn127  1  0.25333617  0.33778557  0.58236077  1
  Mn3.34+  Mn128  1  0.24940138  0.32776530  0.91872493  1
  Mn3.34+  Mn129  1  0.25073644  0.83196067  0.24469558  1
  Mn3.34+  Mn130  1  0.25067763  0.82833577  0.57917152  1
  Mn3.34+  Mn131  1  0.25159288  0.83430604  0.92350047  1
  Mn3.34+  Mn132  1  0.57895385  0.33213897  0.24526662  1
  Mn3.34+  Mn133  1  0.58112474  0.33230849  0.58356848  1
  Mn3.34+  Mn134  1  0.58769062  0.33710036  0.91323142  1
  Mn3.34+  Mn135  1  0.58057749  0.83757285  0.24589349  1
  Mn3.34+  Mn136  1  0.58334632  0.83346603  0.58009515  1
  Mn3.34+  Mn137  1  0.58032064  0.83458521  0.91454474  1
  Mn3.34+  Mn138  1  0.91627342  0.33539624  0.25091423  1
  Mn3.34+  Mn139  1  0.91724969  0.32620730  0.57745397  1
  Mn3.34+  Mn140  1  0.90848965  0.33141140  0.92120763  1
  Mn3.34+  Mn141  1  0.91755043  0.83806376  0.24982826  1
  Mn3.34+  Mn142  1  0.91200252  0.82935964  0.58416657  1
  Mn3.34+  Mn143  1  0.91492106  0.83612574  0.91307184  1
  Mn3.34+  Mn144  1  0.08010083  0.66134770  0.41759604  1
  Mn3.34+  Mn145  1  0.41449805  0.67360771  0.75171187  1
  Mn3.34+  Mn146  1  0.25212777  0.66560707  0.24551376  1
  Mn3.34+  Mn147  1  0.42668272  0.66646527  0.75549263  1
  Mn3.34+  Mn148  1  0.74421319  0.65879669  0.42253134  1
  Mn3.34+  Mn149  1  0.90856314  0.18098797  0.58083154  1
  Mn3.34+  Mn150  1  0.08068821  0.17098208  0.75623789  1
  Mn3.34+  Mn151  1  0.24722350  0.16554732  0.58303632  1
  Mn3.34+  Mn152  1  0.24224037  0.66477323  0.57306257  1
  Mn3.34+  Mn153  1  0.25324569  0.65949667  0.57203356  1
  Mn3.34+  Mn154  1  0.08264166  0.66677618  0.08789980  1
  Mn3.34+  Mn155  1  0.58904970  0.65248053  0.24572339  1
  Mn3.34+  Mn156  1  0.59390668  0.65932825  0.91696440  1
  Mn3.34+  Mn157  1  0.25324752  0.67031804  0.92251508  1
  Mn3.34+  Mn158  1  0.26064468  0.16896129  0.58076645  1
  Mn3.34+  Mn159  1  0.42313554  0.16201425  0.08360022  1
  Mn3.34+  Mn160  1  0.90747324  0.66926538  0.91201771  1
  Mn3.34+  Mn161  1  0.91843037  0.66323315  0.24894857  1
  Mn3.34+  Mn162  1  0.74898705  0.66986793  0.08417263  1
  Mn3.34+  Mn163  1  0.41655088  0.66606473  0.41474071  1
  Mn3.34+  Mn164  1  0.91812236  0.17104850  0.57919482  1
  Mn3.34+  Mn165  1  0.74930749  0.16723718  0.41535811  1
  Mn3.34+  Mn166  1  0.41745192  0.16999804  0.75799905  1
  Mn3.34+  Mn167  1  0.58004174  0.65839922  0.24887680  1
  Mn3.34+  Mn168  1  0.90722417  0.66790663  0.25012974  1
  Mn3.34+  Mn169  1  0.41373347  0.16760339  0.08225201  1
  Mn3.34+  Mn170  1  0.58036652  0.66605721  0.91762183  1
  Mn3.34+  Mn171  1  0.42090825  0.66736799  0.09004695  1
  Mn3.34+  Mn172  1  0.25006667  0.16998998  0.91596990  1
  Mn3.34+  Mn173  1  0.07044545  0.65415712  0.41951403  1
  Mn3.34+  Mn174  1  0.08006003  0.16948122  0.09013769  1
  Mn3.34+  Mn175  1  0.91352430  0.16699249  0.91865159  1
  Mn3.34+  Mn176  1  0.75838599  0.66473500  0.42038248  1
  Mn3.34+  Mn177  1  0.58483264  0.16218962  0.91096739  1
  Mn3.34+  Mn178  1  0.75021749  0.16581406  0.08297217  1
  Mn3.34+  Mn179  1  0.91909201  0.16662363  0.24796691  1
  Mn3.34+  Mn180  1  0.42572399  0.50241669  0.08452889  1
  Mn3.34+  Mn181  1  0.92753331  -0.00147863  0.57177781  1
  Mn3.34+  Mn182  1  0.26272904  0.50104459  0.59024967  1
  Mn3.34+  Mn183  1  0.75671384  -0.00440265  0.74882860  1
  Mn3.34+  Mn184  1  0.25144615  -0.00395482  0.57929257  1
  Mn3.34+  Mn185  1  0.42264730  0.49897430  0.75291962  1
  Mn3.34+  Mn186  1  0.08588895  0.49425343  0.73509083  1
  Mn3.34+  Mn187  1  0.25439593  0.00013690  0.92167487  1
  Mn3.34+  Mn188  1  0.59442398  0.49978061  0.92496184  1
  Mn3.34+  Mn189  1  0.41855025  0.00191401  0.76450699  1
  Mn3.34+  Mn190  1  0.07936518  -0.00040781  0.08355704  1
  Mn3.34+  Mn191  1  0.91662770  0.50100225  0.27320495  1
  Mn3.34+  Mn192  1  0.25944395  0.49430529  0.91853177  1
  Mn3.34+  Mn193  1  0.89615173  0.49776871  0.91768559  1
  Mn3.34+  Mn194  1  0.23673808  0.00140092  0.58220963  1
  Mn3.34+  Mn195  1  0.07163845  0.00025798  0.75077547  1
  Mn3.34+  Mn196  1  0.57841674  -0.00403281  0.25363212  1
  Mn3.34+  Mn197  1  0.42260587  -0.00158291  0.41419127  1
  Mn3.34+  Mn198  1  0.24608076  0.50179300  0.91917572  1
  Mn3.34+  Mn199  1  0.73977156  0.49880196  0.41662903  1
  Mn3.34+  Mn200  1  0.90543402  0.49555423  0.56465313  1
  Mn3.34+  Mn201  1  0.41866061  -0.00194579  0.07660204  1
  Mn3.34+  Mn202  1  0.42595487  0.50028787  0.40883137  1
  Mn3.34+  Mn203  1  0.91352581  0.00390356  0.56911057  1
  Mn3.34+  Mn204  1  0.41850328  0.00535278  0.75182387  1
  Mn3.34+  Mn205  1  0.07253930  0.50091070  0.73775510  1
  Mn3.34+  Mn206  1  0.58948756  0.50241112  0.58571064  1
  Mn3.34+  Mn207  1  0.75287710  0.00584710  0.40852461  1
  Mn3.34+  Mn208  1  0.91715869  0.00169121  0.91484285  1
  Mn3.34+  Mn209  1  0.57918903  0.49741582  0.58577596  1
  Mn3.34+  Mn210  1  0.92321400  0.50827926  0.27602733  1
  Mn3.34+  Mn211  1  0.07914750  -0.00188853  0.40997978  1
  Mn3.34+  Mn212  1  0.07636526  0.49937010  0.07961165  1
  Mn3.34+  Mn213  1  0.75567551  0.50072788  0.75189501  1
  Mn3.34+  Mn214  1  0.91872092  0.00019152  0.25139201  1
  Mn3.34+  Mn215  1  0.91850645  0.50129116  0.56239091  1
  O2-  O216  1  0.00244790  0.15246591  -0.00299306  1
  O2-  O217  1  -0.00371793  0.16554908  0.32629414  1
  O2-  O218  1  -0.00687326  0.16904318  0.66870439  1
  O2-  O219  1  -0.00616472  0.66289250  0.00582550  1
  O2-  O220  1  0.00260481  0.68009391  0.33199177  1
  O2-  O221  1  0.00654416  0.68976491  0.66908016  1
  O2-  O222  1  0.33866718  0.15152184  -0.00295028  1
  O2-  O223  1  0.33375423  0.16243662  0.33472039  1
  O2-  O224  1  0.33051873  0.14891476  0.67159865  1
  O2-  O225  1  0.33983528  0.66364976  0.00072205  1
  O2-  O226  1  0.32700881  0.64911946  0.33711633  1
  O2-  O227  1  0.34267550  0.64345097  0.66462830  1
  O2-  O228  1  0.66505969  0.16165500  -0.00183107  1
  O2-  O229  1  0.67216949  0.15394645  0.33565454  1
  O2-  O230  1  0.66247520  0.16685307  0.66523435  1
  O2-  O231  1  0.66447029  0.64992460  0.00844138  1
  O2-  O232  1  0.66253500  0.66390284  0.33804623  1
  O2-  O233  1  0.67984307  0.66798965  0.66247499  1
  O2-  O234  1  0.16343098  0.16337894  -0.00439985  1
  O2-  O235  1  0.18140511  0.17251846  0.33597561  1
  O2-  O236  1  0.16453661  0.15983879  0.66484884  1
  O2-  O237  1  0.16235424  0.64182262  0.00259010  1
  O2-  O238  1  0.16192298  0.65362520  0.33694204  1
  O2-  O239  1  0.17152895  0.65399105  0.66789317  1
  O2-  O240  1  0.50342668  0.15786937  0.00076174  1
  O2-  O241  1  0.48051540  0.16497873  0.32640401  1
  O2-  O242  1  0.49684921  0.14593584  0.68572445  1
  O2-  O243  1  0.50503659  0.65342823  0.00316269  1
  O2-  O244  1  0.49201213  0.66160527  0.32401507  1
  O2-  O245  1  0.50776815  0.66544850  0.67705871  1
  O2-  O246  1  0.83363926  0.14872496  -0.00103729  1
  O2-  O247  1  0.83266929  0.14719113  0.32574045  1
  O2-  O248  1  0.82953917  0.16441214  0.65907274  1
  O2-  O249  1  0.83666832  0.66619705  0.00419440  1
  O2-  O250  1  0.83351296  0.64531899  0.33820890  1
  O2-  O251  1  0.84246105  0.68489432  0.65245431  1
  O2-  O252  1  -0.00005866  0.35051002  0.00079839  1
  O2-  O253  1  0.00768405  0.34720775  0.32097654  1
  O2-  O254  1  -0.00728731  0.31833157  0.67383184  1
  O2-  O255  1  0.00000283  0.83054229  -0.00513977  1
  O2-  O256  1  0.00583571  0.82858146  0.33094722  1
  O2-  O257  1  -0.00401946  0.82110386  0.66505750  1
  O2-  O258  1  0.33287189  0.34641190  -0.00212424  1
  O2-  O259  1  0.33424481  0.35452304  0.33391368  1
  O2-  O260  1  0.33331445  0.34297736  0.67032340  1
  O2-  O261  1  0.33567700  0.82891198  0.01057735  1
  O2-  O262  1  0.33259597  0.84399772  0.33224682  1
  O2-  O263  1  0.33232681  0.84779786  0.66450958  1
  O2-  O264  1  0.65870969  0.32682105  0.00593269  1
  O2-  O265  1  0.66532153  0.34827845  0.33107994  1
  O2-  O266  1  0.66700561  0.34286109  0.66289825  1
  O2-  O267  1  0.66420496  0.84800009  -0.00178436  1
  O2-  O268  1  0.66727707  0.84442349  0.32801553  1
  O2-  O269  1  0.66614213  0.84877760  0.66832573  1
  O2-  O270  1  0.16419243  0.34323121  0.00143634  1
  O2-  O271  1  0.17379126  0.34105334  0.33405822  1
  O2-  O272  1  0.17060188  0.33105445  0.67391461  1
  O2-  O273  1  0.16567896  0.85365160  0.00185716  1
  O2-  O274  1  0.16619826  0.83800012  0.33654883  1
  O2-  O275  1  0.15926866  0.83639823  0.67196259  1
  O2-  O276  1  0.49946612  0.33715332  -0.00255421  1
  O2-  O277  1  0.49550611  0.35001652  0.32626578  1
  O2-  O278  1  0.49989913  0.34309575  0.66327031  1
  O2-  O279  1  0.50223456  0.82977999  0.00586526  1
  O2-  O280  1  0.50867039  0.82898684  0.33784937  1
  O2-  O281  1  0.50195012  0.84743227  0.66910309  1
  O2-  O282  1  0.83064296  0.34556058  0.00175287  1
  O2-  O283  1  0.82711315  0.35354100  0.32698011  1
  O2-  O284  1  0.83598349  0.33539624  0.66684135  1
  O2-  O285  1  0.82710724  0.83834741  -0.00484415  1
  O2-  O286  1  0.83094356  0.84964740  0.32717779  1
  O2-  O287  1  0.82584664  0.85201384  0.66081937  1
  O2-  O288  1  -0.01132651  0.17811682  0.15719258  1
  O2-  O289  1  0.00310094  0.18558247  0.50688173  1
  O2-  O290  1  -0.00385113  0.18692373  0.83632859  1
  O2-  O291  1  -0.00080245  0.68575042  0.16599164  1
  O2-  O292  1  -0.00008267  0.68596210  0.49679134  1
  O2-  O293  1  0.00298536  0.68466158  0.85324340  1
  O2-  O294  1  0.33262127  0.17176930  0.16254252  1
  O2-  O295  1  0.34590313  0.17150480  0.51540231  1
  O2-  O296  1  0.32952241  0.18904166  0.83584667  1
  O2-  O297  1  0.33720463  0.68771215  0.16538694  1
  O2-  O298  1  0.33521239  0.68468659  0.49727723  1
  O2-  O299  1  0.32557946  0.68773646  0.81951711  1
  O2-  O300  1  0.67386616  0.17341661  0.16581919  1
  O2-  O301  1  0.67485907  0.17761579  0.49381061  1
  O2-  O302  1  0.66034004  0.18024481  0.83932555  1
  O2-  O303  1  0.66949468  0.68300197  0.17172929  1
  O2-  O304  1  0.66956804  0.68122875  0.49745439  1
  O2-  O305  1  0.65754642  0.67656158  0.82824386  1
  O2-  O306  1  0.16187107  0.17561750  0.16321435  1
  O2-  O307  1  0.17039423  0.17883021  0.50293109  1
  O2-  O308  1  0.16886058  0.19146846  0.83293026  1
  O2-  O309  1  0.17158796  0.67474949  0.16089633  1
  O2-  O310  1  0.16079596  0.69762708  0.48964708  1
  O2-  O311  1  0.16872580  0.66938123  0.84106055  1
  O2-  O312  1  0.49725382  0.17350580  0.16655574  1
  O2-  O313  1  0.50184182  0.18994359  0.50823361  1
  O2-  O314  1  0.49684812  0.18684087  0.84231740  1
  O2-  O315  1  0.50600958  0.69215743  0.16674649  1
  O2-  O316  1  0.49310942  0.67985019  0.49310942  1
  O2-  O317  1  0.48886592  0.69135414  0.84643675  1
  O2-  O318  1  0.82913792  0.17335986  0.16762739  1
  O2-  O319  1  0.84079909  0.18809185  0.49048188  1
  O2-  O320  1  0.83216980  0.17226246  0.84303367  1
  O2-  O321  1  0.83502419  0.68469719  0.15922727  1
  O2-  O322  1  0.83078102  0.68479855  0.50028035  1
  O2-  O323  1  0.83445686  0.69340062  0.84442922  1
  O2-  O324  1  -0.01200033  0.32699941  0.15920737  1
  O2-  O325  1  -0.00388682  0.31434975  0.49677546  1
  O2-  O326  1  -0.00181063  0.32117034  0.83433875  1
  O2-  O327  1  0.00360257  0.81982085  0.17000609  1
  O2-  O328  1  -0.00027045  0.81142911  0.50414629  1
  O2-  O329  1  -0.00468129  0.80840483  0.83671088  1
  O2-  O330  1  0.33433738  0.32905725  0.16442822  1
  O2-  O331  1  0.33167941  0.32511485  0.49836942  1
  O2-  O332  1  0.33011810  0.31954671  0.83728302  1
  O2-  O333  1  0.33071962  0.81903309  0.16526429  1
  O2-  O334  1  0.33537394  0.82903876  0.49391850  1
  O2-  O335  1  0.32422611  0.81440464  0.82346339  1
  O2-  O336  1  0.67045272  0.32045683  0.17118105  1
  O2-  O337  1  0.66525050  0.32564392  0.49433491  1
  O2-  O338  1  0.66449440  0.31169446  0.83710219  1
  O2-  O339  1  0.66720343  0.81902859  0.16761924  1
  O2-  O340  1  0.66790197  0.82420498  0.49974746  1
  O2-  O341  1  0.66128698  0.82233756  0.82412818  1
  O2-  O342  1  0.16388273  0.32145182  0.17144610  1
  O2-  O343  1  0.17414694  0.32356528  0.49624107  1
  O2-  O344  1  0.15865321  0.31352312  0.84290274  1
  O2-  O345  1  0.16848436  0.82238077  0.16533315  1
  O2-  O346  1  0.16489141  0.81552763  0.50104229  1
  O2-  O347  1  0.16146972  0.81937224  0.82904790  1
  O2-  O348  1  0.50174341  0.32364892  0.16101019  1
  O2-  O349  1  0.50886885  0.32796207  0.48739703  1
  O2-  O350  1  0.49829124  0.31927009  0.83713406  1
  O2-  O351  1  0.49987214  0.81023272  0.17009231  1
  O2-  O352  1  0.49907767  0.82502427  0.49989114  1
  O2-  O353  1  0.50061777  0.81702958  0.82867276  1
  O2-  O354  1  0.82697578  0.33007683  0.16967190  1
  O2-  O355  1  0.82647638  0.31019399  0.50941261  1
  O2-  O356  1  0.83518632  0.32245155  0.82930216  1
  O2-  O357  1  0.83094044  0.82666079  0.16648313  1
  O2-  O358  1  0.82552870  0.82297296  0.50666074  1
  O2-  O359  1  0.83038445  0.81834476  0.84001432  1
  O2-  O360  1  0.08315551  0.08246179  0.09631654  1
  O2-  O361  1  0.07451135  0.06934338  0.45278718  1
  O2-  O362  1  0.09131684  0.08221072  0.79078396  1
  O2-  O363  1  0.05653455  0.58152467  0.09724432  1
  O2-  O364  1  0.10412323  0.58046012  0.46360667  1
  O2-  O365  1  0.09968011  0.57497454  0.78748053  1
  O2-  O366  1  0.41843260  0.07601113  0.12001535  1
  O2-  O367  1  0.40851354  0.07360308  0.44455946  1
  O2-  O368  1  0.39821283  0.08510535  0.79647231  1
  O2-  O369  1  0.40413855  0.58082814  0.11743812  1
  O2-  O370  1  0.41101812  0.57928025  0.44103004  1
  O2-  O371  1  0.40543308  0.58375178  0.79646016  1
  O2-  O372  1  0.75244867  0.08179212  0.10761880  1
  O2-  O373  1  0.77262013  0.08264539  0.44990996  1
  O2-  O374  1  0.75188800  0.07308191  0.77737822  1
  O2-  O375  1  0.76011212  0.58793415  0.10564651  1
  O2-  O376  1  0.75001516  0.57849286  0.45747261  1
  O2-  O377  1  0.74947034  0.57816207  0.75928522  1
  O2-  O378  1  0.28832542  0.06654661  0.23854057  1
  O2-  O379  1  0.23145855  0.08176302  0.55595750  1
  O2-  O380  1  0.23054171  0.08086195  0.88979810  1
  O2-  O381  1  0.25766388  0.58198425  0.23434879  1
  O2-  O382  1  0.25717933  0.57853446  0.52784239  1
  O2-  O383  1  0.26782471  0.58172550  0.88531295  1
  O2-  O384  1  0.59650093  0.06578025  0.20493963  1
  O2-  O385  1  0.58647411  0.06414229  0.56478672  1
  O2-  O386  1  0.57732158  0.08341031  0.88528426  1
  O2-  O387  1  0.55871866  0.57465306  0.21007355  1
  O2-  O388  1  0.59128332  0.58317478  0.56932496  1
  O2-  O389  1  0.57236469  0.57962427  0.87687416  1
  O2-  O390  1  0.91240431  0.07995234  0.21996440  1
  O2-  O391  1  0.92522562  0.08648306  0.54889558  1
  O2-  O392  1  0.93877020  0.08191873  0.88542780  1
  O2-  O393  1  0.91271993  0.57683460  0.20503793  1
  O2-  O394  1  0.91383579  0.58114988  0.55184023  1
  O2-  O395  1  0.92976333  0.58342640  0.90672202  1
  O2-  O396  1  0.09196471  0.41968183  0.11628571  1
  O2-  O397  1  0.09045841  0.41453735  0.42181057  1
  O2-  O398  1  0.07783340  0.41602970  0.77845519  1
  O2-  O399  1  0.09233199  0.92004823  0.11220913  1
  O2-  O400  1  0.10331865  0.92255702  0.45141212  1
  O2-  O401  1  0.09786873  0.91945674  0.78753937  1
  O2-  O402  1  0.41816279  0.42060019  0.10522955  1
  O2-  O403  1  0.43234042  0.42378166  0.44596452  1
  O2-  O404  1  0.40159349  0.41742582  0.78459994  1
  O2-  O405  1  0.40910625  0.92330164  0.11000359  1
  O2-  O406  1  0.43258962  0.91798088  0.44054471  1
  O2-  O407  1  0.39502081  0.91978162  0.77921072  1
  O2-  O408  1  0.74098244  0.41475280  0.10910086  1
  O2-  O409  1  0.74984299  0.41936620  0.45353211  1
  O2-  O410  1  0.77283223  0.41771216  0.76841060  1
  O2-  O411  1  0.74403651  0.91683577  0.09457439  1
  O2-  O412  1  0.73793312  0.92545452  0.44624858  1
  O2-  O413  1  0.74588546  0.92001106  0.79597206  1
  O2-  O414  1  0.23996448  0.41939610  0.22376587  1
  O2-  O415  1  0.24533038  0.41912313  0.56622190  1
  O2-  O416  1  0.22038477  0.41850251  0.88197509  1
  O2-  O417  1  0.23664890  0.91408074  0.23981056  1
  O2-  O418  1  0.23820741  0.91486029  0.55914890  1
  O2-  O419  1  0.25075620  0.91814885  0.88806222  1
  O2-  O420  1  0.59458098  0.41736575  0.21749501  1
  O2-  O421  1  0.59206338  0.41885734  0.54982146  1
  O2-  O422  1  0.57315432  0.42293265  0.89863065  1
  O2-  O423  1  0.59480147  0.92416441  0.21007812  1
  O2-  O424  1  0.59366306  0.91692543  0.55446411  1
  O2-  O425  1  0.59428451  0.91782638  0.88683267  1
  O2-  O426  1  0.91419556  0.42635971  0.21938979  1
  O2-  O427  1  0.91133266  0.41463989  0.57034518  1
  O2-  O428  1  0.93498726  0.41913376  0.87625300  1
  O2-  O429  1  0.92877947  0.92065582  0.22501850  1
  O2-  O430  1  0.92996664  0.91719755  0.55713794  1
  O2-  O431  1  0.90960461  0.92217227  0.89474444  1
  O2-  O432  1  0.01079717  0.00111808  -0.01808812  1
  O2-  O433  1  -0.00468154  0.00408453  0.33778313  1
  O2-  O434  1  0.01205093  0.01214874  0.64874422  1
  O2-  O435  1  0.02754428  0.49144189  -0.03278498  1
  O2-  O436  1  0.03200379  0.50425164  0.30958876  1
  O2-  O437  1  0.00032713  0.50265391  0.64771828  1
  O2-  O438  1  0.33257917  0.01126725  0.00841553  1
  O2-  O439  1  0.32329597  -0.00498786  0.36480815  1
  O2-  O440  1  0.33567988  0.00333148  0.66369171  1
  O2-  O441  1  0.33550705  0.50704504  0.00527850  1
  O2-  O442  1  0.34244273  0.50073397  0.33445951  1
  O2-  O443  1  0.30752181  0.51060284  0.70647928  1
  O2-  O444  1  0.66630171  -0.00452679  -0.00367664  1
  O2-  O445  1  0.66279025  0.00077646  0.32792022  1
  O2-  O446  1  0.66886659  -0.02322508  0.68185633  1
  O2-  O447  1  0.65532284  0.49197300  0.01324533  1
  O2-  O448  1  0.65951094  0.47391949  0.34546608  1
  O2-  O449  1  0.66624118  0.49540408  0.67150919  1
  O2-  O450  1  0.16213628  0.00362963  -0.00429207  1
  O2-  O451  1  0.16573363  -0.00502651  0.34334934  1
  O2-  O452  1  0.18023590  -0.00672722  0.68512527  1
  O2-  O453  1  0.17906479  0.50187278  0.01714374  1
  O2-  O454  1  0.18479515  0.48379141  0.35220077  1
  O2-  O455  1  0.16119687  0.52638771  0.65760350  1
  O2-  O456  1  0.50834318  0.00832491  0.01940359  1
  O2-  O457  1  0.48726124  0.01166071  0.31632059  1
  O2-  O458  1  0.50361815  -0.01895858  0.68203763  1
  O2-  O459  1  0.49611091  0.50910150  -0.00938334  1
  O2-  O460  1  0.50077175  0.49029743  0.33455953  1
  O2-  O461  1  0.48821161  0.51704128  0.65489937  1
  O2-  O462  1  0.81671698  0.01226357  -0.04147189  1
  O2-  O463  1  0.81570767  0.00529160  0.30496120  1
  O2-  O464  1  0.82829506  -0.00141345  0.65248130  1
  O2-  O465  1  0.86578609  0.49779581  0.03463727  1
  O2-  O466  1  0.80960154  0.49540496  0.31744747  1
  O2-  O467  1  0.83566831  0.49892191  0.65900821  1
  O2-  O468  1  0.74298349  0.75168366  0.05870274  1
  O2-  O469  1  0.76031646  0.24886586  0.06345407  1
  O2-  O470  1  0.26222692  0.25539395  0.26083088  1
  O2-  O471  1  0.91367443  0.24851042  0.94674560  1
  O2-  O472  1  0.26124065  0.74520912  0.61509619  1
  O2-  O473  1  0.74676282  0.25338834  0.73306304  1
  O2-  O474  1  0.08586214  0.25517320  0.39991282  1
  O2-  O475  1  0.41547125  0.24904587  0.72183947  1
  O2-  O476  1  0.59704769  0.74809821  0.94124386  1
  O2-  O477  1  0.26083307  0.25190017  0.60476420  1
  O2-  O478  1  0.40969368  0.25075773  0.06080858  1
  O2-  O479  1  0.09560642  0.74897492  0.06308336  1
  O2-  O480  1  0.58004019  0.25396144  0.26449939  1
  O2-  O481  1  0.07462660  0.25207885  0.06454541  1
  O2-  O482  1  0.41080646  0.25802689  0.40072439  1
  O2-  O483  1  0.75553581  0.25046706  0.38457732  1
  O2-  O484  1  0.24573650  0.74834524  0.27279837  1
  O2-  O485  1  0.57937072  0.25504507  0.60100902  1
  O2-  O486  1  0.89885361  0.75266869  0.27051715  1
  O2-  O487  1  0.75661133  0.74711862  0.38871835  1
  O2-  O488  1  0.57971386  0.75506179  0.59599370  1
  O2-  O489  1  0.90507519  0.25176827  0.26432588  1
  O2-  O490  1  0.23662163  0.75178148  0.94284356  1
  O2-  O491  1  0.40618449  0.75014760  0.39550870  1
  O2-  O492  1  0.75492499  0.75691411  0.73010832  1
