# generated using pymatgen
data_Ca108Mn108O277
_symmetry_space_group_name_H-M   'P 1'
_cell_length_a   16.03220394
_cell_length_b   22.31191969
_cell_length_c   16.39387503
_cell_angle_alpha   90.00060084
_cell_angle_beta   89.99542215
_cell_angle_gamma   89.99563384
_symmetry_Int_Tables_number   1
_chemical_formula_structural   Ca108Mn108O277
_chemical_formula_sum   'Ca108 Mn108 O277'
_cell_volume   5864.24065503
_cell_formula_units_Z   1
loop_
 _symmetry_equiv_pos_site_id
 _symmetry_equiv_pos_as_xyz
  1  'x, y, z'
loop_
 _atom_type_symbol
 _atom_type_oxidation_number
  Ca2+  2.0
  Mn3.34+  3.34
  O2-  -2.0
loop_
 _atom_site_type_symbol
 _atom_site_label
 _atom_site_symmetry_multiplicity
 _atom_site_fract_x
 _atom_site_fract_y
 _atom_site_fract_z
 _atom_site_occupancy
  Ca2+  Ca0  1  0.08322024  0.25415373  0.23881981  1
  Ca2+  Ca1  1  0.08556971  0.25450348  0.59356599  1
  Ca2+  Ca2  1  0.09345200  0.25808644  0.91990630  1
  Ca2+  Ca3  1  0.08009468  0.75559191  0.26003375  1
  Ca2+  Ca4  1  0.07609389  0.75189608  0.60240036  1
  Ca2+  Ca5  1  0.07829552  0.73843136  0.88595950  1
  Ca2+  Ca6  1  0.42614148  0.24753425  0.26736069  1
  Ca2+  Ca7  1  0.43886393  0.24197824  0.57061487  1
  Ca2+  Ca8  1  0.41179332  0.23857298  0.90187487  1
  Ca2+  Ca9  1  0.42545695  0.75307093  0.24290971  1
  Ca2+  Ca10  1  0.43660969  0.74707165  0.59851791  1
  Ca2+  Ca11  1  0.43344305  0.72513732  0.90720485  1
  Ca2+  Ca12  1  0.74269734  0.25412691  0.25082509  1
  Ca2+  Ca13  1  0.73377715  0.25481563  0.56956008  1
  Ca2+  Ca14  1  0.75533257  0.26672120  0.92520602  1
  Ca2+  Ca15  1  0.74556067  0.75528707  0.24794289  1
  Ca2+  Ca16  1  0.72974880  0.74119011  0.59212052  1
  Ca2+  Ca17  1  0.72910704  0.74831535  0.90890865  1
  Ca2+  Ca18  1  0.24100809  0.26571622  0.08429206  1
  Ca2+  Ca19  1  0.28017313  0.24647492  0.41301621  1
  Ca2+  Ca20  1  0.24747889  0.25326246  0.75395941  1
  Ca2+  Ca21  1  0.28477831  0.73886504  0.08623645  1
  Ca2+  Ca22  1  0.26596637  0.75745137  0.41176546  1
  Ca2+  Ca23  1  0.24603580  0.75933307  0.75473833  1
  Ca2+  Ca24  1  0.59057518  0.25492671  0.09397764  1
  Ca2+  Ca25  1  0.57289388  0.23094863  0.42199384  1
  Ca2+  Ca26  1  0.56772071  0.25111068  0.72818557  1
  Ca2+  Ca27  1  0.57139549  0.75593921  0.06569791  1
  Ca2+  Ca28  1  0.58001534  0.74544837  0.44375952  1
  Ca2+  Ca29  1  0.58811594  0.72362807  0.74880918  1
  Ca2+  Ca30  1  0.92001546  0.26781832  0.08933397  1
  Ca2+  Ca31  1  0.90527306  0.26190436  0.41491931  1
  Ca2+  Ca32  1  0.93539153  0.26203918  0.74919138  1
  Ca2+  Ca33  1  0.90025631  0.74377321  0.06716693  1
  Ca2+  Ca34  1  0.90658383  0.74555503  0.42050530  1
  Ca2+  Ca35  1  0.92541651  0.74283340  0.75176209  1
  Ca2+  Ca36  1  0.08506543  0.57878221  0.26353719  1
  Ca2+  Ca37  1  0.09806229  0.09079859  0.24273857  1
  Ca2+  Ca38  1  0.55766364  0.60474911  0.05828198  1
  Ca2+  Ca39  1  0.09447072  0.09351325  0.91106230  1
  Ca2+  Ca40  1  0.90740197  0.08834991  0.42677026  1
  Ca2+  Ca41  1  0.39607983  0.60227966  0.24019897  1
  Ca2+  Ca42  1  0.75901818  0.57191541  0.27136523  1
  Ca2+  Ca43  1  0.69700664  0.10147343  0.57856631  1
  Ca2+  Ca44  1  0.08723221  0.09415906  0.24829304  1
  Ca2+  Ca45  1  0.25032518  0.60812148  0.76186945  1
  Ca2+  Ca46  1  0.91504885  0.08602394  0.07815653  1
  Ca2+  Ca47  1  0.92154199  0.58569382  0.04809501  1
  Ca2+  Ca48  1  0.04682479  0.59745080  0.89503851  1
  Ca2+  Ca49  1  0.42136569  0.09150973  0.28026385  1
  Ca2+  Ca50  1  0.06821854  0.58427450  0.59470575  1
  Ca2+  Ca51  1  0.25506737  0.09933196  0.74907777  1
  Ca2+  Ca52  1  0.74498893  0.09898238  0.24643574  1
  Ca2+  Ca53  1  0.28004228  0.08770155  0.41857730  1
  Ca2+  Ca54  1  0.24164543  0.09019236  0.07887833  1
  Ca2+  Ca55  1  0.59563332  0.08663430  0.08123321  1
  Ca2+  Ca56  1  0.91992558  0.08610013  0.42530187  1
  Ca2+  Ca57  1  0.07866921  0.58457929  0.59333385  1
  Ca2+  Ca58  1  0.91625669  0.59460195  0.74560728  1
  Ca2+  Ca59  1  0.95449379  0.08111667  0.73285857  1
  Ca2+  Ca60  1  0.58284507  0.08680221  0.08059371  1
  Ca2+  Ca61  1  0.74020088  0.08305241  0.92813852  1
  Ca2+  Ca62  1  0.25059332  0.58383538  0.40792290  1
  Ca2+  Ca63  1  0.78314918  0.60260971  0.90131938  1
  Ca2+  Ca64  1  0.53990399  0.10465922  0.72951872  1
  Ca2+  Ca65  1  0.74928743  0.59133557  0.59781794  1
  Ca2+  Ca66  1  0.77376203  0.60499250  0.89821879  1
  Ca2+  Ca67  1  0.23978047  0.60810774  0.76178217  1
  Ca2+  Ca68  1  0.44310391  0.10112487  0.56206017  1
  Ca2+  Ca69  1  0.44607414  0.60859324  0.59121794  1
  Ca2+  Ca70  1  0.54759379  0.60522846  0.06101607  1
  Ca2+  Ca71  1  0.54997682  0.10309703  0.72667196  1
  Ca2+  Ca72  1  0.92221609  0.89928247  0.42252151  1
  Ca2+  Ca73  1  0.05663550  0.41809939  0.92107907  1
  Ca2+  Ca74  1  0.40697364  0.40298108  0.58402691  1
  Ca2+  Ca75  1  0.91482925  0.89964581  0.07135624  1
  Ca2+  Ca76  1  0.41922685  0.90484170  0.25477832  1
  Ca2+  Ca77  1  0.06122135  0.41366934  0.24360100  1
  Ca2+  Ca78  1  0.24620968  0.41671898  0.41813061  1
  Ca2+  Ca79  1  0.78861892  0.42634068  0.90239644  1
  Ca2+  Ca80  1  0.09472232  0.90530969  0.27229658  1
  Ca2+  Ca81  1  0.07099459  0.41055301  0.24635404  1
  Ca2+  Ca82  1  0.08139736  0.89378052  0.90317415  1
  Ca2+  Ca83  1  0.06125107  0.41887313  0.59111120  1
  Ca2+  Ca84  1  0.24405554  0.89912330  0.08709192  1
  Ca2+  Ca85  1  0.57765262  0.90601594  0.73965071  1
  Ca2+  Ca86  1  0.58722427  0.90848746  0.74456803  1
  Ca2+  Ca87  1  0.78181874  0.42371408  0.60292140  1
  Ca2+  Ca88  1  0.92648003  0.89986358  0.07028741  1
  Ca2+  Ca89  1  0.74879770  0.90076909  0.58508198  1
  Ca2+  Ca90  1  0.76606724  0.41345101  0.25808410  1
  Ca2+  Ca91  1  0.58037672  0.40209672  0.08306893  1
  Ca2+  Ca92  1  0.07128177  0.41596252  0.59372615  1
  Ca2+  Ca93  1  0.40854111  0.90636421  0.57456662  1
  Ca2+  Ca94  1  0.93427017  0.89943080  0.42437128  1
  Ca2+  Ca95  1  0.41560612  0.88954178  0.91516157  1
  Ca2+  Ca96  1  0.25657896  0.89789494  0.08933279  1
  Ca2+  Ca97  1  0.59943752  0.39962632  0.74459878  1
  Ca2+  Ca98  1  0.25892602  0.41654638  0.41793764  1
  Ca2+  Ca99  1  0.41716713  0.40755088  0.24766126  1
  Ca2+  Ca100  1  0.41904204  0.90776860  0.57342906  1
  Ca2+  Ca101  1  0.58724884  0.40324510  0.41240243  1
  Ca2+  Ca102  1  0.75325565  0.89770614  0.91550820  1
  Ca2+  Ca103  1  0.41547972  0.39873867  0.91968953  1
  Ca2+  Ca104  1  0.73675274  0.90278063  0.23923861  1
  Ca2+  Ca105  1  0.23989782  0.41442144  0.73691054  1
  Ca2+  Ca106  1  0.91307830  0.42533647  0.40503772  1
  Ca2+  Ca107  1  0.40374570  0.40017457  0.91872767  1
  Mn3.34+  Mn108  1  0.08252540  0.34112068  0.07888270  1
  Mn3.34+  Mn109  1  0.08043298  0.33223151  0.42066824  1
  Mn3.34+  Mn110  1  0.08220653  0.33505377  0.75642726  1
  Mn3.34+  Mn111  1  0.08593187  0.82104333  0.08492590  1
  Mn3.34+  Mn112  1  0.10167089  0.84011377  0.43625937  1
  Mn3.34+  Mn113  1  0.08377942  0.83530495  0.74476733  1
  Mn3.34+  Mn114  1  0.41339298  0.33371237  0.08938887  1
  Mn3.34+  Mn115  1  0.42012743  0.33595096  0.41893826  1
  Mn3.34+  Mn116  1  0.41546164  0.33143903  0.74895662  1
  Mn3.34+  Mn117  1  0.42501997  0.83325681  0.08690963  1
  Mn3.34+  Mn118  1  0.42056105  0.82890346  0.41448732  1
  Mn3.34+  Mn119  1  0.41261663  0.82280557  0.75351710  1
  Mn3.34+  Mn120  1  0.75224630  0.33550618  0.08417368  1
  Mn3.34+  Mn121  1  0.75014145  0.33851980  0.41963811  1
  Mn3.34+  Mn122  1  0.75864195  0.33808520  0.74942335  1
  Mn3.34+  Mn123  1  0.74214995  0.82924947  0.08276508  1
  Mn3.34+  Mn124  1  0.74635588  0.82966130  0.41656538  1
  Mn3.34+  Mn125  1  0.75495854  0.82884986  0.74951272  1
  Mn3.34+  Mn126  1  0.24984658  0.33581869  0.24781490  1
  Mn3.34+  Mn127  1  0.24796964  0.33617422  0.58066962  1
  Mn3.34+  Mn128  1  0.24523970  0.33596430  0.91679071  1
  Mn3.34+  Mn129  1  0.24983913  0.82907990  0.25466179  1
  Mn3.34+  Mn130  1  0.24596870  0.84084213  0.58244796  1
  Mn3.34+  Mn131  1  0.25164536  0.82483752  0.91619554  1
  Mn3.34+  Mn132  1  0.58603456  0.33539949  0.24998879  1
  Mn3.34+  Mn133  1  0.58599821  0.33306656  0.57919635  1
  Mn3.34+  Mn134  1  0.58561284  0.32753498  0.90973622  1
  Mn3.34+  Mn135  1  0.58303101  0.83579336  0.25513792  1
  Mn3.34+  Mn136  1  0.58350364  0.83419505  0.58137126  1
  Mn3.34+  Mn137  1  0.58305258  0.83427816  0.91423217  1
  Mn3.34+  Mn138  1  0.91308418  0.33567631  0.25065324  1
  Mn3.34+  Mn139  1  0.91114250  0.33442493  0.58330731  1
  Mn3.34+  Mn140  1  0.91718936  0.33811609  0.91635642  1
  Mn3.34+  Mn141  1  0.91669463  0.82851966  0.24751542  1
  Mn3.34+  Mn142  1  0.91870718  0.83559718  0.58788815  1
  Mn3.34+  Mn143  1  0.91618733  0.82605879  0.90840960  1
  Mn3.34+  Mn144  1  0.25165160  0.17087676  0.91215136  1
  Mn3.34+  Mn145  1  0.59222185  0.66407479  0.25776259  1
  Mn3.34+  Mn146  1  0.74764370  0.18145717  0.75397819  1
  Mn3.34+  Mn147  1  0.75217166  0.66613707  0.74717307  1
  Mn3.34+  Mn148  1  0.75176249  0.66372222  0.08754438  1
  Mn3.34+  Mn149  1  0.25153185  0.66660867  0.57198793  1
  Mn3.34+  Mn150  1  0.90788698  0.65653325  0.24696052  1
  Mn3.34+  Mn151  1  0.91533004  0.16661744  0.58460835  1
  Mn3.34+  Mn152  1  0.74940351  0.17048223  0.41697758  1
  Mn3.34+  Mn153  1  0.58289361  0.65823955  0.25593071  1
  Mn3.34+  Mn154  1  0.07955630  0.67090876  0.41986682  1
  Mn3.34+  Mn155  1  0.41922818  0.66581328  0.42118750  1
  Mn3.34+  Mn156  1  0.24259901  0.67264256  0.57435198  1
  Mn3.34+  Mn157  1  0.75046150  0.66357684  0.42482709  1
  Mn3.34+  Mn158  1  0.09795641  0.66355603  0.08754896  1
  Mn3.34+  Mn159  1  0.25399366  0.66201056  0.92284987  1
  Mn3.34+  Mn160  1  0.08564599  0.16890997  0.08118654  1
  Mn3.34+  Mn161  1  0.25261246  0.17075365  0.25233170  1
  Mn3.34+  Mn162  1  0.58662699  0.16506738  0.90836408  1
  Mn3.34+  Mn163  1  0.75105475  0.16925213  0.08424899  1
  Mn3.34+  Mn164  1  0.08813367  0.66867557  0.08476058  1
  Mn3.34+  Mn165  1  0.41930936  0.16860245  0.08019107  1
  Mn3.34+  Mn166  1  0.24918495  0.16099761  0.58445776  1
  Mn3.34+  Mn167  1  0.92121907  0.66308650  0.25061076  1
  Mn3.34+  Mn168  1  0.25731699  0.16746329  0.58550213  1
  Mn3.34+  Mn169  1  0.75937114  0.17348339  0.75438723  1
  Mn3.34+  Mn170  1  0.91616590  0.66181179  0.57492409  1
  Mn3.34+  Mn171  1  0.40980168  0.16258354  0.08214469  1
  Mn3.34+  Mn172  1  0.58463432  0.16760639  0.25497584  1
  Mn3.34+  Mn173  1  0.91334019  0.17025496  0.24626207  1
  Mn3.34+  Mn174  1  0.08592142  0.16760104  0.75133639  1
  Mn3.34+  Mn175  1  0.24707836  0.67038071  0.25597704  1
  Mn3.34+  Mn176  1  0.91208682  0.16798570  0.91556850  1
  Mn3.34+  Mn177  1  0.08999301  0.16286003  0.42487518  1
  Mn3.34+  Mn178  1  0.07982036  0.16969806  0.42161732  1
  Mn3.34+  Mn179  1  0.92311440  0.16310242  0.91500309  1
  Mn3.34+  Mn180  1  0.58657020  0.50639344  0.57198503  1
  Mn3.34+  Mn181  1  0.71579521  -0.00025777  0.41470616  1
  Mn3.34+  Mn182  1  0.40323740  0.49917564  0.07370521  1
  Mn3.34+  Mn183  1  0.42385975  -0.00603181  0.40521679  1
  Mn3.34+  Mn184  1  0.25831119  0.00300768  0.91074466  1
  Mn3.34+  Mn185  1  0.76360936  0.50186947  0.07847239  1
  Mn3.34+  Mn186  1  0.75250264  0.50262423  0.41459210  1
  Mn3.34+  Mn187  1  0.38892744  -0.00469057  0.75173939  1
  Mn3.34+  Mn188  1  0.41801219  -0.00127113  0.08405840  1
  Mn3.34+  Mn189  1  0.90751044  -0.00527241  0.25305278  1
  Mn3.34+  Mn190  1  0.58144955  0.49817639  0.25367883  1
  Mn3.34+  Mn191  1  0.25283408  0.49786099  0.93071507  1
  Mn3.34+  Mn192  1  0.57780945  0.50360436  0.90797488  1
  Mn3.34+  Mn193  1  0.93748326  -0.00360353  0.59969434  1
  Mn3.34+  Mn194  1  0.58006445  -0.00207762  0.24908022  1
  Mn3.34+  Mn195  1  0.24745487  -0.00260186  0.90864360  1
  Mn3.34+  Mn196  1  0.41095736  0.50078929  0.75410073  1
  Mn3.34+  Mn197  1  0.75022051  -0.00174851  0.07648845  1
  Mn3.34+  Mn198  1  0.75553754  0.00564796  0.75439776  1
  Mn3.34+  Mn199  1  0.57307896  0.00532682  0.91648754  1
  Mn3.34+  Mn200  1  0.58748361  0.49977461  0.58433925  1
  Mn3.34+  Mn201  1  0.42570874  0.50819351  0.41119167  1
  Mn3.34+  Mn202  1  0.92167168  0.00148089  0.25329051  1
  Mn3.34+  Mn203  1  0.07012120  0.50636375  0.41113690  1
  Mn3.34+  Mn204  1  0.25203442  0.50076726  0.25035586  1
  Mn3.34+  Mn205  1  0.24482833  -0.00043309  0.25754929  1
  Mn3.34+  Mn206  1  0.08698730  -0.00328582  0.08342969  1
  Mn3.34+  Mn207  1  0.92324778  -0.00040084  0.91770695  1
  Mn3.34+  Mn208  1  0.08607719  0.50469110  0.06144963  1
  Mn3.34+  Mn209  1  0.72704326  -0.00054253  0.41778723  1
  Mn3.34+  Mn210  1  0.08253812  0.49749254  0.74534737  1
  Mn3.34+  Mn211  1  0.40215583  -0.00231939  0.76161185  1
  Mn3.34+  Mn212  1  0.42307276  0.50893876  0.75412632  1
  Mn3.34+  Mn213  1  0.76632307  0.00076651  0.75408087  1
  Mn3.34+  Mn214  1  0.75232696  0.49798991  0.07753696  1
  Mn3.34+  Mn215  1  0.59130887  0.49693881  0.90517353  1
  O2-  O216  1  0.00140346  0.14235951  0.00134997  1
  O2-  O217  1  0.00060536  0.14516390  0.32737108  1
  O2-  O218  1  -0.01016754  0.17284250  0.67361533  1
  O2-  O219  1  0.00500717  0.66948289  0.00336321  1
  O2-  O220  1  0.00578343  0.65655261  0.33040803  1
  O2-  O221  1  0.00040731  0.66122122  0.65238450  1
  O2-  O222  1  0.33261296  0.14838049  -0.00228099  1
  O2-  O223  1  0.33034608  0.16071025  0.33010979  1
  O2-  O224  1  0.33168469  0.16270801  0.66824438  1
  O2-  O225  1  0.33313240  0.67961701  -0.00960037  1
  O2-  O226  1  0.32206990  0.65926093  0.34579573  1
  O2-  O227  1  0.32641135  0.66024619  0.65903818  1
  O2-  O228  1  0.66104919  0.15407611  0.00201918  1
  O2-  O229  1  0.67234496  0.15576738  0.33089391  1
  O2-  O230  1  0.65731425  0.16468112  0.68639759  1
  O2-  O231  1  0.67869574  0.63544932  0.01201781  1
  O2-  O232  1  0.67382104  0.64475780  0.33227886  1
  O2-  O233  1  0.67546162  0.65713334  0.67012998  1
  O2-  O234  1  0.16787380  0.15234620  -0.00003437  1
  O2-  O235  1  0.16858268  0.14108412  0.33965916  1
  O2-  O236  1  0.16809765  0.15666293  0.66543121  1
  O2-  O237  1  0.16987761  0.69115289  0.00045744  1
  O2-  O238  1  0.15941608  0.67743949  0.33475204  1
  O2-  O239  1  0.16452334  0.65704845  0.65917480  1
  O2-  O240  1  0.50336658  0.15420433  -0.00300655  1
  O2-  O241  1  0.50183454  0.16347157  0.32508795  1
  O2-  O242  1  0.48564611  0.17890110  0.66973887  1
  O2-  O243  1  0.50302816  0.67779513  0.00372941  1
  O2-  O244  1  0.49466789  0.64345909  0.33033439  1
  O2-  O245  1  0.49859430  0.67025931  0.67756920  1
  O2-  O246  1  0.83014105  0.14602502  -0.00405090  1
  O2-  O247  1  0.83744714  0.14576523  0.33509598  1
  O2-  O248  1  0.81781662  0.16903406  0.65513767  1
  O2-  O249  1  0.83447128  0.65837164  0.00734884  1
  O2-  O250  1  0.83525178  0.64324150  0.33515537  1
  O2-  O251  1  0.84116675  0.66847328  0.66278477  1
  O2-  O252  1  -0.00461715  0.34385541  0.00264105  1
  O2-  O253  1  -0.00004191  0.34864842  0.33702259  1
  O2-  O254  1  -0.00133960  0.34040964  0.66396935  1
  O2-  O255  1  0.00000816  0.82296378  0.00005960  1
  O2-  O256  1  -0.00081743  0.83033351  0.33223894  1
  O2-  O257  1  -0.00550594  0.82277585  0.66890336  1
  O2-  O258  1  0.32977806  0.34621908  0.00280503  1
  O2-  O259  1  0.32929588  0.34924627  0.33897714  1
  O2-  O260  1  0.32727823  0.34348965  0.67199009  1
  O2-  O261  1  0.33094389  0.83848542  0.00718033  1
  O2-  O262  1  0.33837984  0.83181750  0.32796607  1
  O2-  O263  1  0.33548152  0.82569922  0.66425797  1
  O2-  O264  1  0.65973571  0.33340165  -0.00064290  1
  O2-  O265  1  0.67440627  0.35317857  0.32752581  1
  O2-  O266  1  0.67696374  0.34053580  0.65859938  1
  O2-  O267  1  0.67016154  0.84261171  -0.00709710  1
  O2-  O268  1  0.67314242  0.84456431  0.32984373  1
  O2-  O269  1  0.66569558  0.84984513  0.66821120  1
  O2-  O270  1  0.15871726  0.34880479  -0.01103651  1
  O2-  O271  1  0.16174179  0.36208260  0.33238060  1
  O2-  O272  1  0.15720544  0.35259512  0.65777003  1
  O2-  O273  1  0.17058006  0.83171610  0.00403708  1
  O2-  O274  1  0.16664989  0.81934029  0.33784765  1
  O2-  O275  1  0.16955204  0.82431947  0.66434207  1
  O2-  O276  1  0.49875094  0.34377915  -0.00492163  1
  O2-  O277  1  0.49929541  0.35003914  0.33218869  1
  O2-  O278  1  0.50182356  0.34023754  0.66917433  1
  O2-  O279  1  0.50242150  0.84489389  0.00023334  1
  O2-  O280  1  0.50140240  0.84813511  0.33476512  1
  O2-  O281  1  0.49219567  0.84679876  0.66841435  1
  O2-  O282  1  0.82642642  0.34952186  -0.00643323  1
  O2-  O283  1  0.83921879  0.34934915  0.34198666  1
  O2-  O284  1  0.83449436  0.30275415  0.66620798  1
  O2-  O285  1  0.83860435  0.83071125  0.00041909  1
  O2-  O286  1  0.83653226  0.85873434  0.33005022  1
  O2-  O287  1  0.82514874  0.82940173  0.65612896  1
  O2-  O288  1  0.00367654  0.17416158  0.16947229  1
  O2-  O289  1  0.00035451  0.18829008  0.50347207  1
  O2-  O290  1  0.00546717  0.18437147  0.83798917  1
  O2-  O291  1  0.00157133  0.68791390  0.16685750  1
  O2-  O292  1  -0.00086532  0.69218342  0.49989088  1
  O2-  O293  1  -0.01101498  0.67397775  0.82707383  1
  O2-  O294  1  0.33085050  0.18135769  0.16371915  1
  O2-  O295  1  0.33667343  0.17632395  0.50459953  1
  O2-  O296  1  0.32173448  0.18706302  0.82965213  1
  O2-  O297  1  0.33432553  0.68668552  0.19115080  1
  O2-  O298  1  0.33404652  0.69321134  0.50221725  1
  O2-  O299  1  0.31669758  0.68137898  0.83363650  1
  O2-  O300  1  0.66435174  0.17738585  0.16309204  1
  O2-  O301  1  0.67500476  0.17879064  0.49701872  1
  O2-  O302  1  0.68692328  0.19055536  0.85075301  1
  O2-  O303  1  0.66678304  0.68101851  0.16821337  1
  O2-  O304  1  0.67289368  0.68015309  0.49574547  1
  O2-  O305  1  0.68462966  0.66675318  0.83798934  1
  O2-  O306  1  0.16418008  0.17723488  0.17232694  1
  O2-  O307  1  0.17338847  0.18655718  0.50423133  1
  O2-  O308  1  0.16319474  0.18245473  0.83882661  1
  O2-  O309  1  0.16847895  0.69273848  0.17013573  1
  O2-  O310  1  0.16586145  0.69272743  0.49438320  1
  O2-  O311  1  0.17097244  0.67279782  0.84073748  1
  O2-  O312  1  0.50502619  0.18082838  0.15937065  1
  O2-  O313  1  0.50389641  0.17251725  0.50019037  1
  O2-  O314  1  0.51639488  0.18678159  0.82818431  1
  O2-  O315  1  0.50734734  0.67228690  0.17242312  1
  O2-  O316  1  0.49085297  0.67927247  0.50239736  1
  O2-  O317  1  0.50123043  0.66048987  0.81785855  1
  O2-  O318  1  0.83126852  0.18029831  0.16634562  1
  O2-  O319  1  0.84464364  0.18035007  0.49113559  1
  O2-  O320  1  0.84616513  0.19654707  0.82236114  1
  O2-  O321  1  0.83339883  0.68621768  0.16665580  1
  O2-  O322  1  0.83060183  0.68655861  0.50412757  1
  O2-  O323  1  0.83334475  0.68593624  0.83195036  1
  O2-  O324  1  0.00340019  0.32582771  0.17555132  1
  O2-  O325  1  0.00035553  0.31095310  0.50454596  1
  O2-  O326  1  0.00696176  0.31715056  0.84251715  1
  O2-  O327  1  -0.00419152  0.81326784  0.15760788  1
  O2-  O328  1  0.00151092  0.82246437  0.49972441  1
  O2-  O329  1  0.00082027  0.81867833  0.83478138  1
  O2-  O330  1  0.33676260  0.31437624  0.17607905  1
  O2-  O331  1  0.33097483  0.32459140  0.49962609  1
  O2-  O332  1  0.34026440  0.32002715  0.83932698  1
  O2-  O333  1  0.32690270  0.82227749  0.16603885  1
  O2-  O334  1  0.33871250  0.81828642  0.50406626  1
  O2-  O335  1  0.34098343  0.80889911  0.84470922  1
  O2-  O336  1  0.66644097  0.32007952  0.16547649  1
  O2-  O337  1  0.65805126  0.32724667  0.48806384  1
  O2-  O338  1  0.66188434  0.30860049  0.82417005  1
  O2-  O339  1  0.66828858  0.82187518  0.17169769  1
  O2-  O340  1  0.67243565  0.82224258  0.50706033  1
  O2-  O341  1  0.66543687  0.83432518  0.82762043  1
  O2-  O342  1  0.16067493  0.32784042  0.17289552  1
  O2-  O343  1  0.16855253  0.32291120  0.49586713  1
  O2-  O344  1  0.17534837  0.32482731  0.82547198  1
  O2-  O345  1  0.16707909  0.81392724  0.17052729  1
  O2-  O346  1  0.17380750  0.80239648  0.50847141  1
  O2-  O347  1  0.16589183  0.81716700  0.84077667  1
  O2-  O348  1  0.50205070  0.31892175  0.16589624  1
  O2-  O349  1  0.49566974  0.33155257  0.50447429  1
  O2-  O350  1  0.49534708  0.31176521  0.83336150  1
  O2-  O351  1  0.49695955  0.82758078  0.17690987  1
  O2-  O352  1  0.49498675  0.82203064  0.50675381  1
  O2-  O353  1  0.50386519  0.83611541  0.82666736  1
  O2-  O354  1  0.82999125  0.31988264  0.17570379  1
  O2-  O355  1  0.82843887  0.31889913  0.50623989  1
  O2-  O356  1  0.83512315  0.31822347  0.83346917  1
  O2-  O357  1  0.83568093  0.82406447  0.16322477  1
  O2-  O358  1  0.84427096  0.82323939  0.48945120  1
  O2-  O359  1  0.82654554  0.81308822  0.83860362  1
  O2-  O360  1  0.08784790  0.07955871  0.11346794  1
  O2-  O361  1  0.06369644  0.08483869  0.44605990  1
  O2-  O362  1  0.08690261  0.08734646  0.77670766  1
  O2-  O363  1  0.08089130  0.57924033  0.12157367  1
  O2-  O364  1  0.09086385  0.58354108  0.45384036  1
  O2-  O365  1  0.10550303  0.57541735  0.76778258  1
  O2-  O366  1  0.42572866  0.08240045  0.12815871  1
  O2-  O367  1  0.41864813  0.07041458  0.43589529  1
  O2-  O368  1  0.41081304  0.07836541  0.78015131  1
  O2-  O369  1  0.43587024  0.57239030  0.12071390  1
  O2-  O370  1  0.39712368  0.58436972  0.45816594  1
  O2-  O371  1  0.38129253  0.58381643  0.76524974  1
  O2-  O372  1  0.73643283  0.08050426  0.11293087  1
  O2-  O373  1  0.76494167  0.07852477  0.45612682  1
  O2-  O374  1  0.76446006  0.08705769  0.78864262  1
  O2-  O375  1  0.76626353  0.57834253  0.13044689  1
  O2-  O376  1  0.75276783  0.57869815  0.45395159  1
  O2-  O377  1  0.77403557  0.58389486  0.76481313  1
  O2-  O378  1  0.24090689  0.08077309  0.21969296  1
  O2-  O379  1  0.25098949  0.08296721  0.55389778  1
  O2-  O380  1  0.24910875  0.08394085  0.88387013  1
  O2-  O381  1  0.23971944  0.58275175  0.23764375  1
  O2-  O382  1  0.22017714  0.58264944  0.55083124  1
  O2-  O383  1  0.24904080  0.57823605  0.89624857  1
  O2-  O384  1  0.58246289  0.08019188  0.21631601  1
  O2-  O385  1  0.57122728  0.07777497  0.60118193  1
  O2-  O386  1  0.59998355  0.08134845  0.85738971  1
  O2-  O387  1  0.60118966  0.57682541  0.20955536  1
  O2-  O388  1  0.58549599  0.58514351  0.56511530  1
  O2-  O389  1  0.59304490  0.58293799  0.91237804  1
  O2-  O390  1  0.90491251  0.07989929  0.21262988  1
  O2-  O391  1  0.92422105  0.07556095  0.55823233  1
  O2-  O392  1  0.92092675  0.08167994  0.87256044  1
  O2-  O393  1  0.92521555  0.58061012  0.20964788  1
  O2-  O394  1  0.93429885  0.58406180  0.55665503  1
  O2-  O395  1  0.91218647  0.57837951  0.88219340  1
  O2-  O396  1  0.08360641  0.42923220  0.11155540  1
  O2-  O397  1  0.08495670  0.42690897  0.45826484  1
  O2-  O398  1  0.08435155  0.41939521  0.78034595  1
  O2-  O399  1  0.09902006  0.91311282  0.10558500  1
  O2-  O400  1  0.06598855  0.91802983  0.41308187  1
  O2-  O401  1  0.08724505  0.91320681  0.77361615  1
  O2-  O402  1  0.42563812  0.41706653  0.10919958  1
  O2-  O403  1  0.40318474  0.42472986  0.44880573  1
  O2-  O404  1  0.43466123  0.42254683  0.78570770  1
  O2-  O405  1  0.39286063  0.91798423  0.11623387  1
  O2-  O406  1  0.41581359  0.91501200  0.44016883  1
  O2-  O407  1  0.39912321  0.91417008  0.77795335  1
  O2-  O408  1  0.74074424  0.42065851  0.12226428  1
  O2-  O409  1  0.75658789  0.42585909  0.45884321  1
  O2-  O410  1  0.73519237  0.41738624  0.77773232  1
  O2-  O411  1  0.78001451  0.91818252  0.10142401  1
  O2-  O412  1  0.75561329  0.91889844  0.45000388  1
  O2-  O413  1  0.76371611  0.91774414  0.77831136  1
  O2-  O414  1  0.25768244  0.42001258  0.22478788  1
  O2-  O415  1  0.24692740  0.41814865  0.55266646  1
  O2-  O416  1  0.26808097  0.42052691  0.87856518  1
  O2-  O417  1  0.24114953  0.91905680  0.22237063  1
  O2-  O418  1  0.27191902  0.91748723  0.56578097  1
  O2-  O419  1  0.25678641  0.91491375  0.90724389  1
  O2-  O420  1  0.58063138  0.41919559  0.21834819  1
  O2-  O421  1  0.57451949  0.41973725  0.56041829  1
  O2-  O422  1  0.56530775  0.41770867  0.88011657  1
  O2-  O423  1  0.59103173  0.91911592  0.22342459  1
  O2-  O424  1  0.56136043  0.91890168  0.58135738  1
  O2-  O425  1  0.58564682  0.92413086  0.88103125  1
  O2-  O426  1  0.92056863  0.41546471  0.23143996  1
  O2-  O427  1  0.92918677  0.41745607  0.55016730  1
  O2-  O428  1  0.92131521  0.41512631  0.88856074  1
  O2-  O429  1  0.93897170  0.91917759  0.20843993  1
  O2-  O430  1  0.90163245  0.92570226  0.55115845  1
  O2-  O431  1  0.92009874  0.91419026  0.92469918  1
  O2-  O432  1  -0.02060116  -0.00548128  0.03203952  1
  O2-  O433  1  -0.01718168  0.01266138  0.35135950  1
  O2-  O434  1  0.01421695  0.00552623  0.67012963  1
  O2-  O435  1  -0.00201652  0.51063731  0.00228354  1
  O2-  O436  1  0.01254205  0.49161109  0.31465179  1
  O2-  O437  1  0.00639153  0.50417544  0.65840029  1
  O2-  O438  1  0.30863282  0.00075812  0.02365062  1
  O2-  O439  1  0.32308839  0.00746233  0.33980890  1
  O2-  O440  1  0.35035653  0.00579440  0.64969832  1
  O2-  O441  1  0.36474982  0.49033932  -0.04125609  1
  O2-  O442  1  0.32026508  0.49942357  0.35110017  1
  O2-  O443  1  0.32892921  0.48475014  0.67907507  1
  O2-  O444  1  0.66265896  0.01669960  0.00001271  1
  O2-  O445  1  0.68670847  0.00549420  0.29888180  1
  O2-  O446  1  0.66774650  -0.01162471  0.68355817  1
  O2-  O447  1  0.67051711  0.47947414  -0.00630847  1
  O2-  O448  1  0.67044131  0.49144366  0.33209542  1
  O2-  O449  1  0.68889206  0.49494393  0.63571120  1
  O2-  O450  1  0.14889569  0.01068938  -0.02092182  1
  O2-  O451  1  0.12734581  0.00178446  0.27324234  1
  O2-  O452  1  0.17757751  0.01591669  0.70730417  1
  O2-  O453  1  0.14287177  0.49443533  -0.03883216  1
  O2-  O454  1  0.16846930  0.49766949  0.34103711  1
  O2-  O455  1  0.15593688  0.49051049  0.66296505  1
  O2-  O456  1  0.50689185  0.01943460  0.01347066  1
  O2-  O457  1  0.47756593  -0.00349867  0.29960494  1
  O2-  O458  1  0.50922625  -0.00504798  0.71546450  1
  O2-  O459  1  0.51677977  0.49867798  0.01038529  1
  O2-  O460  1  0.48110373  0.49274157  0.30872267  1
  O2-  O461  1  0.49789519  0.50392056  0.66206902  1
  O2-  O462  1  0.82793915  0.01407104  -0.00946086  1
  O2-  O463  1  0.83368960  0.00095645  0.35067860  1
  O2-  O464  1  0.84139363  0.01258147  0.66590938  1
  O2-  O465  1  0.82021757  0.51928048  -0.01937003  1
  O2-  O466  1  0.82938809  0.49485663  0.33797347  1
  O2-  O467  1  0.83559930  0.51314314  0.64751623  1
  O2-  O468  1  0.24519241  0.25172314  0.94605836  1
  O2-  O469  1  0.58444449  0.75499700  0.92061586  1
  O2-  O470  1  0.09268799  0.25322099  0.72956034  1
  O2-  O471  1  0.74161179  0.74443081  0.05783480  1
  O2-  O472  1  0.75491630  0.25221545  0.39044285  1
  O2-  O473  1  0.58359443  0.74798668  0.28082019  1
  O2-  O474  1  0.42933334  0.74751703  0.38674983  1
  O2-  O475  1  0.75545223  0.74741296  0.38627549  1
  O2-  O476  1  0.73141826  0.75069165  0.73244654  1
  O2-  O477  1  0.92198466  0.25026597  0.27714551  1
  O2-  O478  1  0.58343054  0.75482742  0.60339738  1
  O2-  O479  1  0.08648881  0.75100015  0.74263819  1
  O2-  O480  1  0.24187936  0.24999828  0.60789509  1
  O2-  O481  1  0.91591905  0.24859202  0.95214908  1
  O2-  O482  1  0.41541858  0.24982904  0.05089001  1
  O2-  O483  1  0.75746549  0.24962084  0.06002208  1
  O2-  O484  1  0.42303550  0.25665773  0.40391897  1
  O2-  O485  1  0.90245097  0.74220690  0.28054667  1
  O2-  O486  1  0.43359113  0.74634761  0.74235178  1
  O2-  O487  1  0.09425130  0.24500480  0.38224561  1
  O2-  O488  1  0.58806805  0.25201685  0.27354648  1
  O2-  O489  1  0.23862604  0.25341709  0.27846028  1
  O2-  O490  1  0.58657987  0.25490543  0.58830417  1
  O2-  O491  1  0.08355572  0.25137819  0.06328129  1
  O2-  O492  1  0.42676279  0.75572920  0.07906304  1
