# generated using pymatgen
data_Ca108Mn108O277
_symmetry_space_group_name_H-M   'P 1'
_cell_length_a   16.02647721
_cell_length_b   22.30620588
_cell_length_c   16.38845753
_cell_angle_alpha   89.99122973
_cell_angle_beta   89.99928479
_cell_angle_gamma   90.00510085
_symmetry_Int_Tables_number   1
_chemical_formula_structural   Ca108Mn108O277
_chemical_formula_sum   'Ca108 Mn108 O277'
_cell_volume   5858.70795439
_cell_formula_units_Z   1
loop_
 _symmetry_equiv_pos_site_id
 _symmetry_equiv_pos_as_xyz
  1  'x, y, z'
loop_
 _atom_type_symbol
 _atom_type_oxidation_number
  Ca2+  2.0
  Mn3.34+  3.34
  O2-  -2.0
loop_
 _atom_site_type_symbol
 _atom_site_label
 _atom_site_symmetry_multiplicity
 _atom_site_fract_x
 _atom_site_fract_y
 _atom_site_fract_z
 _atom_site_occupancy
  Ca2+  Ca0  1  0.07828874  0.24852265  0.24841079  1
  Ca2+  Ca1  1  0.07164278  0.25401090  0.57598148  1
  Ca2+  Ca2  1  0.05261480  0.24836005  0.92826078  1
  Ca2+  Ca3  1  0.07009307  0.72939891  0.23381692  1
  Ca2+  Ca4  1  0.10851342  0.74777245  0.59853712  1
  Ca2+  Ca5  1  0.09105876  0.74628715  0.91445456  1
  Ca2+  Ca6  1  0.41581166  0.25519908  0.25747837  1
  Ca2+  Ca7  1  0.40685368  0.25385821  0.58386064  1
  Ca2+  Ca8  1  0.43239044  0.26146114  0.91221054  1
  Ca2+  Ca9  1  0.42313530  0.73107787  0.24248693  1
  Ca2+  Ca10  1  0.39823296  0.74389885  0.58779125  1
  Ca2+  Ca11  1  0.40324689  0.74254699  0.92734904  1
  Ca2+  Ca12  1  0.75282874  0.26670666  0.23793063  1
  Ca2+  Ca13  1  0.77044255  0.25413105  0.59364669  1
  Ca2+  Ca14  1  0.76917255  0.24943107  0.91383326  1
  Ca2+  Ca15  1  0.76523278  0.74280177  0.24709963  1
  Ca2+  Ca16  1  0.73526901  0.75988145  0.58712210  1
  Ca2+  Ca17  1  0.75865537  0.75722303  0.91337232  1
  Ca2+  Ca18  1  0.22838456  0.24963236  0.09891265  1
  Ca2+  Ca19  1  0.23784983  0.24874146  0.41475387  1
  Ca2+  Ca20  1  0.25049671  0.27062137  0.74234611  1
  Ca2+  Ca21  1  0.24909984  0.75218576  0.07630912  1
  Ca2+  Ca22  1  0.25808226  0.75704835  0.43808891  1
  Ca2+  Ca23  1  0.24008556  0.73414035  0.74546771  1
  Ca2+  Ca24  1  0.60038291  0.25303239  0.08400452  1
  Ca2+  Ca25  1  0.57880811  0.25760494  0.41017185  1
  Ca2+  Ca26  1  0.59291904  0.25060750  0.75525358  1
  Ca2+  Ca27  1  0.56204107  0.74550507  0.08695495  1
  Ca2+  Ca28  1  0.56753091  0.74320415  0.42028576  1
  Ca2+  Ca29  1  0.56327225  0.74675232  0.74243958  1
  Ca2+  Ca30  1  0.91602179  0.23603489  0.07227891  1
  Ca2+  Ca31  1  0.92968934  0.25592492  0.42004621  1
  Ca2+  Ca32  1  0.91126483  0.25081689  0.75239895  1
  Ca2+  Ca33  1  0.93990599  0.73754636  0.08285534  1
  Ca2+  Ca34  1  0.91503416  0.74343339  0.39186340  1
  Ca2+  Ca35  1  0.93892288  0.75731674  0.75804704  1
  Ca2+  Ca36  1  0.09540408  0.59808235  0.92786408  1
  Ca2+  Ca37  1  0.08693234  0.09201811  0.57506172  1
  Ca2+  Ca38  1  0.57807116  0.58805881  0.37737262  1
  Ca2+  Ca39  1  0.95978977  0.59507527  0.75980927  1
  Ca2+  Ca40  1  0.73101013  0.08217723  0.59124983  1
  Ca2+  Ca41  1  0.77700166  0.10293676  0.92011070  1
  Ca2+  Ca42  1  0.40749133  0.59382263  0.93003599  1
  Ca2+  Ca43  1  0.24388271  0.06852018  0.71635450  1
  Ca2+  Ca44  1  0.25958316  0.08813956  0.40062612  1
  Ca2+  Ca45  1  0.92934709  0.58282716  0.35298494  1
  Ca2+  Ca46  1  0.74354659  0.08361395  0.59259179  1
  Ca2+  Ca47  1  0.41768920  0.08435117  0.93328778  1
  Ca2+  Ca48  1  0.90889376  0.09221477  0.74783396  1
  Ca2+  Ca49  1  0.07534058  0.09255957  0.57484251  1
  Ca2+  Ca50  1  0.52513065  0.59571569  0.12234427  1
  Ca2+  Ca51  1  0.41452556  0.60845298  0.58239542  1
  Ca2+  Ca52  1  0.24738615  0.60734042  0.09078384  1
  Ca2+  Ca53  1  0.56980621  0.08563840  0.41000404  1
  Ca2+  Ca54  1  0.05585181  0.07467326  0.96181328  1
  Ca2+  Ca55  1  0.25777464  0.60791752  0.09067153  1
  Ca2+  Ca56  1  0.41270594  0.08729094  0.57508775  1
  Ca2+  Ca57  1  0.94828955  0.59473068  0.75474758  1
  Ca2+  Ca58  1  0.40524966  0.08682011  0.26113548  1
  Ca2+  Ca59  1  0.23902646  0.61171790  0.42762865  1
  Ca2+  Ca60  1  0.74859698  0.10732946  0.24487925  1
  Ca2+  Ca61  1  0.98310479  0.58398717  0.11205445  1
  Ca2+  Ca62  1  0.11721382  0.60043614  0.59282936  1
  Ca2+  Ca63  1  0.92030958  0.10494606  0.42238244  1
  Ca2+  Ca64  1  0.21377717  0.07533349  0.10805628  1
  Ca2+  Ca65  1  0.74510831  0.57941274  0.93305031  1
  Ca2+  Ca66  1  0.74557718  0.57103025  0.25958723  1
  Ca2+  Ca67  1  0.24833271  0.61409683  0.43119805  1
  Ca2+  Ca68  1  0.51460269  0.59451773  0.12360681  1
  Ca2+  Ca69  1  0.58760389  0.09745365  0.08749962  1
  Ca2+  Ca70  1  0.56313218  0.59701756  0.74279956  1
  Ca2+  Ca71  1  0.90339938  0.09669018  0.75417934  1
  Ca2+  Ca72  1  0.08412813  0.40676938  0.58144710  1
  Ca2+  Ca73  1  0.39654352  0.90709548  0.24999666  1
  Ca2+  Ca74  1  0.92943794  0.40842940  0.74941562  1
  Ca2+  Ca75  1  0.58297841  0.41643664  0.08750167  1
  Ca2+  Ca76  1  0.24030915  0.41541501  0.07301105  1
  Ca2+  Ca77  1  0.58832248  0.91257470  0.42096474  1
  Ca2+  Ca78  1  0.08574166  0.41616450  0.92763710  1
  Ca2+  Ca79  1  0.91947413  0.89876416  0.42609636  1
  Ca2+  Ca80  1  0.10558728  0.90690848  0.24167729  1
  Ca2+  Ca81  1  0.94755161  0.90951138  0.06951956  1
  Ca2+  Ca82  1  0.61747732  0.42621524  0.37911786  1
  Ca2+  Ca83  1  0.93628937  0.90851240  0.07128465  1
  Ca2+  Ca84  1  0.24443563  0.40065644  0.42053247  1
  Ca2+  Ca85  1  0.42944702  0.41122373  0.25205687  1
  Ca2+  Ca86  1  0.74113811  0.90152135  0.25394462  1
  Ca2+  Ca87  1  0.10651375  0.91150947  0.60024413  1
  Ca2+  Ca88  1  0.88930880  0.42504091  0.39505579  1
  Ca2+  Ca89  1  0.92738332  0.41283180  0.09072398  1
  Ca2+  Ca90  1  0.57183488  0.41638265  0.08647418  1
  Ca2+  Ca91  1  0.59514785  0.91119353  0.72791416  1
  Ca2+  Ca92  1  0.75831580  0.89915566  0.91132336  1
  Ca2+  Ca93  1  0.91634710  0.41296424  0.09125807  1
  Ca2+  Ca94  1  0.58268091  0.91028808  0.72754584  1
  Ca2+  Ca95  1  0.57598661  0.39871892  0.75257512  1
  Ca2+  Ca96  1  0.24290713  0.91453343  0.07038224  1
  Ca2+  Ca97  1  0.41061938  0.40499288  0.59169332  1
  Ca2+  Ca98  1  0.11737660  0.90467263  0.23900984  1
  Ca2+  Ca99  1  0.40811091  0.90003805  0.92385799  1
  Ca2+  Ca100  1  0.39305573  0.91273471  0.57882732  1
  Ca2+  Ca101  1  0.57577680  0.91036662  0.42228315  1
  Ca2+  Ca102  1  0.57467407  0.89572199  0.08788349  1
  Ca2+  Ca103  1  0.06384872  0.41609703  0.25575954  1
  Ca2+  Ca104  1  0.90789464  0.89882190  0.42780326  1
  Ca2+  Ca105  1  0.25176110  0.41527104  0.07263758  1
  Ca2+  Ca106  1  0.41501962  0.41488410  0.92291984  1
  Ca2+  Ca107  1  0.91829697  0.40706121  0.74944074  1
  Mn3.34+  Mn108  1  0.08307208  0.33503496  0.08781382  1
  Mn3.34+  Mn109  1  0.08024506  0.33815171  0.41559911  1
  Mn3.34+  Mn110  1  0.08863411  0.33446481  0.75330475  1
  Mn3.34+  Mn111  1  0.09107701  0.82681205  0.07937864  1
  Mn3.34+  Mn112  1  0.08748488  0.82807084  0.41906096  1
  Mn3.34+  Mn113  1  0.08948478  0.83266014  0.75185909  1
  Mn3.34+  Mn114  1  0.41388678  0.33307936  0.08749874  1
  Mn3.34+  Mn115  1  0.41761731  0.33208051  0.42104722  1
  Mn3.34+  Mn116  1  0.41502891  0.33747308  0.75108016  1
  Mn3.34+  Mn117  1  0.41224623  0.82811698  0.08597404  1
  Mn3.34+  Mn118  1  0.41159901  0.83331683  0.41831680  1
  Mn3.34+  Mn119  1  0.40835308  0.83020194  0.75453344  1
  Mn3.34+  Mn120  1  0.75139396  0.33818166  0.08094653  1
  Mn3.34+  Mn121  1  0.75007691  0.33842472  0.42354720  1
  Mn3.34+  Mn122  1  0.74807367  0.33141882  0.74908460  1
  Mn3.34+  Mn123  1  0.74864991  0.83242200  0.08569505  1
  Mn3.34+  Mn124  1  0.74776830  0.82994356  0.42160175  1
  Mn3.34+  Mn125  1  0.75939105  0.83452695  0.74654788  1
  Mn3.34+  Mn126  1  0.24881197  0.33170692  0.25114384  1
  Mn3.34+  Mn127  1  0.24797854  0.33231336  0.58293462  1
  Mn3.34+  Mn128  1  0.24792463  0.33171283  0.91201442  1
  Mn3.34+  Mn129  1  0.25589553  0.82726287  0.24979217  1
  Mn3.34+  Mn130  1  0.25094145  0.83736423  0.58661851  1
  Mn3.34+  Mn131  1  0.24551611  0.83382734  0.91162325  1
  Mn3.34+  Mn132  1  0.58553636  0.33309733  0.24954553  1
  Mn3.34+  Mn133  1  0.58764582  0.33402636  0.57561098  1
  Mn3.34+  Mn134  1  0.58938970  0.33650456  0.91498387  1
  Mn3.34+  Mn135  1  0.58085279  0.83079213  0.24949752  1
  Mn3.34+  Mn136  1  0.57819935  0.83580569  0.57827777  1
  Mn3.34+  Mn137  1  0.58247328  0.83032017  0.91267768  1
  Mn3.34+  Mn138  1  0.91283629  0.33622163  0.25240384  1
  Mn3.34+  Mn139  1  0.91520247  0.33527842  0.57860837  1
  Mn3.34+  Mn140  1  0.91411844  0.33763210  0.91635972  1
  Mn3.34+  Mn141  1  0.91861662  0.83345946  0.24404994  1
  Mn3.34+  Mn142  1  0.92170250  0.82954794  0.58574095  1
  Mn3.34+  Mn143  1  0.92471278  0.83055734  0.91222274  1
  Mn3.34+  Mn144  1  0.73877462  0.66426540  0.75072409  1
  Mn3.34+  Mn145  1  0.74591293  0.66824398  0.08487354  1
  Mn3.34+  Mn146  1  0.24919549  0.67475135  0.25075957  1
  Mn3.34+  Mn147  1  0.91738974  0.66428783  0.92075887  1
  Mn3.34+  Mn148  1  0.75169229  0.66061131  0.42357647  1
  Mn3.34+  Mn149  1  0.42517853  0.16097740  0.75108782  1
  Mn3.34+  Mn150  1  0.42073490  0.67257686  0.41686292  1
  Mn3.34+  Mn151  1  0.41674122  0.16911739  0.41760397  1
  Mn3.34+  Mn152  1  0.58911966  0.17123235  0.91696412  1
  Mn3.34+  Mn153  1  0.24509789  0.16599431  0.25154683  1
  Mn3.34+  Mn154  1  0.09138371  0.16093530  0.75737018  1
  Mn3.34+  Mn155  1  0.75435975  0.17122714  0.08281837  1
  Mn3.34+  Mn156  1  0.74532703  0.16659225  0.75229666  1
  Mn3.34+  Mn157  1  0.58303462  0.16975225  0.25015478  1
  Mn3.34+  Mn158  1  0.73965394  0.66876965  0.42096921  1
  Mn3.34+  Mn159  1  0.40917050  0.17513898  0.08678135  1
  Mn3.34+  Mn160  1  0.40943669  0.66523261  0.75324459  1
  Mn3.34+  Mn161  1  0.24942398  0.16636031  0.57493476  1
  Mn3.34+  Mn162  1  0.58096890  0.66217129  0.91621488  1
  Mn3.34+  Mn163  1  0.91411070  0.66319622  0.57509974  1
  Mn3.34+  Mn164  1  0.41772299  0.16894198  0.08854391  1
  Mn3.34+  Mn165  1  0.23964752  0.16569541  0.91572367  1
  Mn3.34+  Mn166  1  0.75798307  0.66336749  0.08935260  1
  Mn3.34+  Mn167  1  0.58097582  0.16494024  0.57702546  1
  Mn3.34+  Mn168  1  0.91866651  0.17271679  0.24725370  1
  Mn3.34+  Mn169  1  0.24770353  0.66729326  0.91078277  1
  Mn3.34+  Mn170  1  0.75272501  0.66973178  0.74921084  1
  Mn3.34+  Mn171  1  0.75209545  0.17310136  0.42069031  1
  Mn3.34+  Mn172  1  0.07509565  0.16234705  0.08985174  1
  Mn3.34+  Mn173  1  0.92272233  0.66939066  0.57772849  1
  Mn3.34+  Mn174  1  0.08010676  0.16967742  0.75276695  1
  Mn3.34+  Mn175  1  0.08307551  0.16988459  0.41228072  1
  Mn3.34+  Mn176  1  0.07840719  0.67193643  0.41711651  1
  Mn3.34+  Mn177  1  0.41092469  0.16733775  0.74993779  1
  Mn3.34+  Mn178  1  0.74351418  0.17918494  0.41861675  1
  Mn3.34+  Mn179  1  0.24873708  0.16019011  0.91380341  1
  Mn3.34+  Mn180  1  0.74773694  0.50013702  0.09120714  1
  Mn3.34+  Mn181  1  0.40414973  -0.00242229  0.74322472  1
  Mn3.34+  Mn182  1  0.58175996  0.49678858  0.58237975  1
  Mn3.34+  Mn183  1  0.59359369  0.50416087  0.57951967  1
  Mn3.34+  Mn184  1  0.74599162  -0.00031762  0.74923862  1
  Mn3.34+  Mn185  1  0.76084993  0.00441507  0.08235715  1
  Mn3.34+  Mn186  1  0.75306927  -0.00096587  0.42201944  1
  Mn3.34+  Mn187  1  0.25371141  0.50118332  0.24745299  1
  Mn3.34+  Mn188  1  0.08156714  0.50028463  0.41702855  1
  Mn3.34+  Mn189  1  0.40938278  0.49734874  0.42407358  1
  Mn3.34+  Mn190  1  0.91217865  0.50010400  0.58590364  1
  Mn3.34+  Mn191  1  0.91871178  -0.00406643  0.59660819  1
  Mn3.34+  Mn192  1  0.42403286  0.50316093  0.42316928  1
  Mn3.34+  Mn193  1  0.10774431  -0.00560412  0.41068593  1
  Mn3.34+  Mn194  1  0.24385265  -0.00156890  0.92144423  1
  Mn3.34+  Mn195  1  0.58308373  0.00068043  0.25396012  1
  Mn3.34+  Mn196  1  0.08397747  -0.00160530  0.74951937  1
  Mn3.34+  Mn197  1  0.25152974  0.50099557  0.92333146  1
  Mn3.34+  Mn198  1  0.40470852  -0.00374795  0.40969399  1
  Mn3.34+  Mn199  1  0.92041637  0.50209312  0.93536561  1
  Mn3.34+  Mn200  1  0.41321804  -0.00157215  0.08402773  1
  Mn3.34+  Mn201  1  0.92016029  -0.00654841  0.91725195  1
  Mn3.34+  Mn202  1  0.91426432  0.00966682  0.24861577  1
  Mn3.34+  Mn203  1  0.40863059  0.50302504  0.74290189  1
  Mn3.34+  Mn204  1  0.25350850  0.49536658  0.59868058  1
  Mn3.34+  Mn205  1  0.57908326  0.50103529  0.92511030  1
  Mn3.34+  Mn206  1  0.73617532  0.49603147  0.75810935  1
  Mn3.34+  Mn207  1  0.24236619  0.50500516  0.24740590  1
  Mn3.34+  Mn208  1  0.92986986  0.00584195  0.24786643  1
  Mn3.34+  Mn209  1  0.59292393  0.00204207  0.90928989  1
  Mn3.34+  Mn210  1  0.75015451  0.50191659  0.75921817  1
  Mn3.34+  Mn211  1  0.74654571  -0.00118375  0.08360559  1
  Mn3.34+  Mn212  1  0.41597014  -0.00502543  0.74769322  1
  Mn3.34+  Mn213  1  0.09594093  -0.00566792  0.41684125  1
  Mn3.34+  Mn214  1  0.10330698  0.49599412  0.74051598  1
  Mn3.34+  Mn215  1  0.57761626  0.00691718  0.91011621  1
  O2-  O216  1  0.00688347  0.16454119  0.00369616  1
  O2-  O217  1  -0.00237693  0.15901437  0.33469250  1
  O2-  O218  1  0.00214133  0.14434091  0.67127116  1
  O2-  O219  1  -0.00648647  0.65128071  -0.00242935  1
  O2-  O220  1  0.00088366  0.67292273  0.33823513  1
  O2-  O221  1  0.00313083  0.65796404  0.66253440  1
  O2-  O222  1  0.33790370  0.16970778  -0.00633454  1
  O2-  O223  1  0.33693416  0.17017556  0.33226141  1
  O2-  O224  1  0.33203831  0.14421416  0.66449776  1
  O2-  O225  1  0.32939369  0.65794297  -0.00499197  1
  O2-  O226  1  0.32740992  0.66418937  0.33826202  1
  O2-  O227  1  0.33278376  0.65700162  0.67590975  1
  O2-  O228  1  0.66808112  0.15175329  0.00328682  1
  O2-  O229  1  0.66320027  0.15425601  0.34142177  1
  O2-  O230  1  0.66560171  0.16413972  0.65991341  1
  O2-  O231  1  0.66913129  0.66234189  0.00097722  1
  O2-  O232  1  0.66867292  0.66145291  0.33489806  1
  O2-  O233  1  0.65891244  0.67367093  0.67164542  1
  O2-  O234  1  0.17280557  0.15897249  0.01063560  1
  O2-  O235  1  0.17547685  0.15625577  0.34281062  1
  O2-  O236  1  0.16583732  0.14783053  0.66816476  1
  O2-  O237  1  0.17511932  0.65980678  -0.00247307  1
  O2-  O238  1  0.17057573  0.68212941  0.34078951  1
  O2-  O239  1  0.17139999  0.67006488  0.66675311  1
  O2-  O240  1  0.49887699  0.15777397  0.00277353  1
  O2-  O241  1  0.49722553  0.16077922  0.33162609  1
  O2-  O242  1  0.49542026  0.15955821  0.65688838  1
  O2-  O243  1  0.50668863  0.65289589  0.00096381  1
  O2-  O244  1  0.50198430  0.67046369  0.33994419  1
  O2-  O245  1  0.49306212  0.66330941  0.67366113  1
  O2-  O246  1  0.83141757  0.16580358  0.00527746  1
  O2-  O247  1  0.83074905  0.16222452  0.33563157  1
  O2-  O248  1  0.82152371  0.14621352  0.66551636  1
  O2-  O249  1  0.82876145  0.64497292  -0.00168207  1
  O2-  O250  1  0.82924502  0.65534125  0.34140979  1
  O2-  O251  1  0.83733242  0.64769596  0.66562344  1
  O2-  O252  1  0.00117426  0.35099651  0.00129249  1
  O2-  O253  1  -0.00666066  0.35124064  0.34001580  1
  O2-  O254  1  0.00169456  0.35321403  0.66614874  1
  O2-  O255  1  0.00079801  0.83615183  0.00274212  1
  O2-  O256  1  0.00298273  0.85098401  0.33080928  1
  O2-  O257  1  0.00777016  0.82373742  0.65918624  1
  O2-  O258  1  0.32999260  0.32889533  0.00331224  1
  O2-  O259  1  0.33449540  0.33718953  0.33260960  1
  O2-  O260  1  0.33332422  0.34032401  0.66306167  1
  O2-  O261  1  0.32954769  0.84496261  0.00783613  1
  O2-  O262  1  0.33345600  0.84029798  0.33306702  1
  O2-  O263  1  0.33817802  0.84776758  0.66707408  1
  O2-  O264  1  0.65820569  0.35277818  0.00832835  1
  O2-  O265  1  0.66808890  0.33232623  0.34008817  1
  O2-  O266  1  0.65999343  0.32610739  0.67015660  1
  O2-  O267  1  0.66637727  0.83672176  -0.00156332  1
  O2-  O268  1  0.66200907  0.84392616  0.33824432  1
  O2-  O269  1  0.66063491  0.83304477  0.66513996  1
  O2-  O270  1  0.16969785  0.34392813  0.00285404  1
  O2-  O271  1  0.16233196  0.35356611  0.32772503  1
  O2-  O272  1  0.16563008  0.34396147  0.66425101  1
  O2-  O273  1  0.17140751  0.84235916  0.00344019  1
  O2-  O274  1  0.16353788  0.82881085  0.32779102  1
  O2-  O275  1  0.16756116  0.83639659  0.66555792  1
  O2-  O276  1  0.49588923  0.34649149  0.00108962  1
  O2-  O277  1  0.49709829  0.33590060  0.33384607  1
  O2-  O278  1  0.50101912  0.34314705  0.66011126  1
  O2-  O279  1  0.49915271  0.83946660  -0.00136170  1
  O2-  O280  1  0.50220497  0.84687842  0.33744706  1
  O2-  O281  1  0.50124650  0.84269251  0.66757880  1
  O2-  O282  1  0.83798697  0.35562867  0.00383075  1
  O2-  O283  1  0.82927955  0.33013056  0.33925807  1
  O2-  O284  1  0.83701945  0.34868550  0.66924729  1
  O2-  O285  1  0.83575281  0.85253364  0.00732671  1
  O2-  O286  1  0.83764384  0.84884722  0.33160678  1
  O2-  O287  1  0.84094888  0.81431453  0.66184839  1
  O2-  O288  1  -0.00260177  0.18396291  0.16895818  1
  O2-  O289  1  0.00758391  0.16913439  0.49810071  1
  O2-  O290  1  -0.00425600  0.17616408  0.82833087  1
  O2-  O291  1  -0.00395141  0.67017492  0.16332160  1
  O2-  O292  1  -0.00092640  0.69702668  0.49955611  1
  O2-  O293  1  -0.00789113  0.67324629  0.83666773  1
  O2-  O294  1  0.33082938  0.19056602  0.16971199  1
  O2-  O295  1  0.33399538  0.18357497  0.49702978  1
  O2-  O296  1  0.33310909  0.18715454  0.83633168  1
  O2-  O297  1  0.32423127  0.68269644  0.16975583  1
  O2-  O298  1  0.33100339  0.67335421  0.49548489  1
  O2-  O299  1  0.33794451  0.67864540  0.84057632  1
  O2-  O300  1  0.66629028  0.17803586  0.16801444  1
  O2-  O301  1  0.66451419  0.19423752  0.50045490  1
  O2-  O302  1  0.67394538  0.18488900  0.83890124  1
  O2-  O303  1  0.67254428  0.68746654  0.16482439  1
  O2-  O304  1  0.66519532  0.68946545  0.49789571  1
  O2-  O305  1  0.66746215  0.68845916  0.84343310  1
  O2-  O306  1  0.16617902  0.17292160  0.16982200  1
  O2-  O307  1  0.15815885  0.18410746  0.50502684  1
  O2-  O308  1  0.16703098  0.19493372  0.83217754  1
  O2-  O309  1  0.17714494  0.68550409  0.16821912  1
  O2-  O310  1  0.16258429  0.67979945  0.49626642  1
  O2-  O311  1  0.16395454  0.67549160  0.84190283  1
  O2-  O312  1  0.50204996  0.18685332  0.16448446  1
  O2-  O313  1  0.50027968  0.18325595  0.49680546  1
  O2-  O314  1  0.49962856  0.18521598  0.83630299  1
  O2-  O315  1  0.51280612  0.68179188  0.17201698  1
  O2-  O316  1  0.48851006  0.68469206  0.50250252  1
  O2-  O317  1  0.50175793  0.68355360  0.83788911  1
  O2-  O318  1  0.82647087  0.18760427  0.17375223  1
  O2-  O319  1  0.83329637  0.18766199  0.49682035  1
  O2-  O320  1  0.83643710  0.16898166  0.82122650  1
  O2-  O321  1  0.83832913  0.67099867  0.16174325  1
  O2-  O322  1  0.82715889  0.69043972  0.50379624  1
  O2-  O323  1  0.83382411  0.66923401  0.82961206  1
  O2-  O324  1  0.00060972  0.32848054  0.16635198  1
  O2-  O325  1  0.00369548  0.32231330  0.50185145  1
  O2-  O326  1  -0.00500209  0.32330697  0.82689977  1
  O2-  O327  1  0.00148381  0.82728674  0.16269287  1
  O2-  O328  1  -0.01024651  0.81562170  0.48377915  1
  O2-  O329  1  0.00775946  0.81979476  0.83831477  1
  O2-  O330  1  0.33312983  0.31181832  0.16727623  1
  O2-  O331  1  0.32958288  0.31558301  0.49569817  1
  O2-  O332  1  0.33612917  0.31540036  0.83948532  1
  O2-  O333  1  0.33510233  0.81366719  0.17058421  1
  O2-  O334  1  0.33892804  0.82631725  0.50585234  1
  O2-  O335  1  0.34244544  0.82254803  0.84670648  1
  O2-  O336  1  0.66400776  0.32607635  0.15983478  1
  O2-  O337  1  0.67102025  0.30902593  0.49898272  1
  O2-  O338  1  0.66964024  0.31773147  0.83313486  1
  O2-  O339  1  0.66787058  0.81329709  0.17260179  1
  O2-  O340  1  0.65711980  0.81538655  0.49701037  1
  O2-  O341  1  0.66801930  0.82084334  0.83494975  1
  O2-  O342  1  0.17252860  0.32908537  0.16232681  1
  O2-  O343  1  0.16710698  0.32248172  0.49650922  1
  O2-  O344  1  0.16047924  0.31160189  0.84136214  1
  O2-  O345  1  0.16490923  0.81875820  0.17054752  1
  O2-  O346  1  0.16248669  0.81745998  0.50372478  1
  O2-  O347  1  0.17106197  0.81873104  0.83176939  1
  O2-  O348  1  0.49958069  0.31422959  0.16076235  1
  O2-  O349  1  0.49745173  0.30762743  0.50199118  1
  O2-  O350  1  0.50680771  0.32151649  0.82861418  1
  O2-  O351  1  0.49950187  0.81838435  0.16831894  1
  O2-  O352  1  0.49965559  0.81891241  0.49759536  1
  O2-  O353  1  0.50474558  0.81831301  0.82756072  1
  O2-  O354  1  0.84050538  0.32563272  0.15666192  1
  O2-  O355  1  0.83533366  0.31555890  0.49724363  1
  O2-  O356  1  0.84011279  0.32972900  0.82499444  1
  O2-  O357  1  0.83347035  0.83901856  0.16753876  1
  O2-  O358  1  0.83817655  0.81986495  0.49603986  1
  O2-  O359  1  0.83575763  0.82706260  0.83767964  1
  O2-  O360  1  0.07853013  0.08262909  0.10014201  1
  O2-  O361  1  0.09102883  0.07987032  0.43875879  1
  O2-  O362  1  0.09410206  0.07844207  0.79882333  1
  O2-  O363  1  0.12737084  0.56987892  0.10264979  1
  O2-  O364  1  0.10081029  0.58124388  0.44203073  1
  O2-  O365  1  0.08045472  0.56763474  0.79551335  1
  O2-  O366  1  0.42062328  0.08154788  0.11662110  1
  O2-  O367  1  0.41037721  0.07728823  0.44073132  1
  O2-  O368  1  0.41017194  0.07773180  0.79498297  1
  O2-  O369  1  0.38770414  0.57367166  0.11088980  1
  O2-  O370  1  0.40890857  0.58481071  0.43485642  1
  O2-  O371  1  0.42591268  0.58184749  0.78620316  1
  O2-  O372  1  0.74714410  0.08420688  0.11346754  1
  O2-  O373  1  0.75672452  0.08417937  0.45368568  1
  O2-  O374  1  0.75153673  0.07916815  0.78511564  1
  O2-  O375  1  0.74340830  0.58184649  0.11207037  1
  O2-  O376  1  0.73819699  0.58390524  0.44473946  1
  O2-  O377  1  0.73527935  0.58236707  0.78679490  1
  O2-  O378  1  0.26814000  0.08747137  0.23297352  1
  O2-  O379  1  0.23216086  0.08663635  0.54157536  1
  O2-  O380  1  0.25600856  0.07702134  0.87306966  1
  O2-  O381  1  0.24345766  0.58785374  0.23859920  1
  O2-  O382  1  0.25170864  0.56919501  0.54965584  1
  O2-  O383  1  0.25204067  0.57866788  0.89509240  1
  O2-  O384  1  0.58257279  0.08340094  0.22720265  1
  O2-  O385  1  0.60431047  0.08077421  0.54116395  1
  O2-  O386  1  0.57308347  0.08752840  0.89191262  1
  O2-  O387  1  0.60663203  0.55801889  0.21188559  1
  O2-  O388  1  0.56064789  0.57411591  0.53105456  1
  O2-  O389  1  0.59832254  0.57508444  0.87886614  1
  O2-  O390  1  0.89696843  0.08920580  0.22890243  1
  O2-  O391  1  0.91546652  0.06816481  0.54443443  1
  O2-  O392  1  0.92064498  0.07046330  0.88179087  1
  O2-  O393  1  0.89405917  0.55816180  0.22404616  1
  O2-  O394  1  0.93287588  0.58067587  0.54396365  1
  O2-  O395  1  0.90280889  0.57459731  0.88165510  1
  O2-  O396  1  0.09262246  0.41775664  0.11170696  1
  O2-  O397  1  0.09345963  0.42093617  0.44754479  1
  O2-  O398  1  0.07614993  0.41801933  0.78601862  1
  O2-  O399  1  0.07976913  0.91868537  0.11133689  1
  O2-  O400  1  0.06059359  0.91910183  0.45624963  1
  O2-  O401  1  0.07709451  0.91855267  0.74141211  1
  O2-  O402  1  0.41073072  0.41516812  0.11241513  1
  O2-  O403  1  0.41120700  0.41794151  0.45450760  1
  O2-  O404  1  0.42301379  0.42107632  0.77986425  1
  O2-  O405  1  0.41976686  0.91681935  0.11150440  1
  O2-  O406  1  0.43332878  0.91883851  0.44386535  1
  O2-  O407  1  0.42873569  0.91652926  0.78727822  1
  O2-  O408  1  0.74617489  0.42018094  0.11428481  1
  O2-  O409  1  0.74909379  0.41555213  0.43742807  1
  O2-  O410  1  0.73972771  0.41463325  0.77055889  1
  O2-  O411  1  0.72914981  0.92098920  0.11419836  1
  O2-  O412  1  0.75072651  0.91411497  0.44551237  1
  O2-  O413  1  0.73026364  0.91918703  0.77408621  1
  O2-  O414  1  0.26400194  0.41971301  0.21280621  1
  O2-  O415  1  0.25567827  0.41631259  0.55666830  1
  O2-  O416  1  0.25389907  0.42028970  0.89863923  1
  O2-  O417  1  0.24720891  0.91637148  0.20884782  1
  O2-  O418  1  0.24552337  0.91705131  0.56290999  1
  O2-  O419  1  0.25994676  0.91969568  0.90226257  1
  O2-  O420  1  0.56959536  0.41422836  0.22362088  1
  O2-  O421  1  0.57847793  0.42116507  0.53597341  1
  O2-  O422  1  0.57267612  0.42151257  0.88876456  1
  O2-  O423  1  0.58565263  0.92092507  0.22097257  1
  O2-  O424  1  0.57906437  0.91882142  0.55643387  1
  O2-  O425  1  0.58511965  0.92122290  0.87883203  1
  O2-  O426  1  0.92195239  0.41826230  0.22574562  1
  O2-  O427  1  0.92524091  0.42023209  0.54837161  1
  O2-  O428  1  0.92619453  0.42624647  0.88305681  1
  O2-  O429  1  0.93176434  0.92454114  0.21410439  1
  O2-  O430  1  0.92718697  0.91815152  0.55988787  1
  O2-  O431  1  0.91403690  0.91387692  0.91046857  1
  O2-  O432  1  -0.01543811  -0.00605925  0.00903901  1
  O2-  O433  1  -0.00753037  0.00437886  0.35016506  1
  O2-  O434  1  -0.01042348  0.02892348  0.68113333  1
  O2-  O435  1  -0.00273284  0.48546621  0.01072304  1
  O2-  O436  1  -0.00668663  0.49082093  0.35547380  1
  O2-  O437  1  -0.01348178  0.49940147  0.69861663  1
  O2-  O438  1  0.34020407  0.00787438  -0.00963265  1
  O2-  O439  1  0.34064809  0.00482632  0.32505185  1
  O2-  O440  1  0.34315064  0.01477247  0.64774225  1
  O2-  O441  1  0.33187368  0.48944598  -0.00388954  1
  O2-  O442  1  0.34489765  0.49116663  0.32381760  1
  O2-  O443  1  0.36512031  0.49960958  0.62795420  1
  O2-  O444  1  0.66187693  0.01126437  0.00379158  1
  O2-  O445  1  0.65997138  -0.00916850  0.34549442  1
  O2-  O446  1  0.66827901  0.00278583  0.67491366  1
  O2-  O447  1  0.66396501  0.49852438  0.00898277  1
  O2-  O448  1  0.66935388  0.51326664  0.34185668  1
  O2-  O449  1  0.67518840  0.50636699  0.66107585  1
  O2-  O450  1  0.17489500  0.00859662  0.00457398  1
  O2-  O451  1  0.15618950  -0.01340246  0.30955566  1
  O2-  O452  1  0.14573478  0.01705524  0.65172390  1
  O2-  O453  1  0.17072723  0.48845023  -0.00462136  1
  O2-  O454  1  0.17532967  0.49091219  0.34364199  1
  O2-  O455  1  0.13960349  0.49770326  0.62648789  1
  O2-  O456  1  0.50336367  0.00111455  0.00218287  1
  O2-  O457  1  0.50581754  0.00009072  0.34958447  1
  O2-  O458  1  0.50569712  -0.01398729  0.67537018  1
  O2-  O459  1  0.50428243  0.49034803  0.00961054  1
  O2-  O460  1  0.51044799  0.48924753  0.35263643  1
  O2-  O461  1  0.51927514  0.50180169  0.68403086  1
  O2-  O462  1  0.81789286  -0.00180451  -0.01969597  1
  O2-  O463  1  0.83447304  -0.01198641  0.33137335  1
  O2-  O464  1  0.83078536  0.01976842  0.67109271  1
  O2-  O465  1  0.83874560  0.50006347  0.01609234  1
  O2-  O466  1  0.83105216  0.50949580  0.33165729  1
  O2-  O467  1  0.83942697  0.50016983  0.68627838  1
  O2-  O468  1  0.25066500  0.24798223  0.60891483  1
  O2-  O469  1  0.40828370  0.75397624  0.39526735  1
  O2-  O470  1  0.07931776  0.25018564  0.71725173  1
  O2-  O471  1  0.41551505  0.75191676  0.06334916  1
  O2-  O472  1  0.90574107  0.74803950  0.93685401  1
  O2-  O473  1  0.91150195  0.75552798  0.25561098  1
  O2-  O474  1  0.08589204  0.75135888  0.74162897  1
  O2-  O475  1  0.77132790  0.74878605  0.05740372  1
  O2-  O476  1  0.92318432  0.25254727  0.27428104  1
  O2-  O477  1  0.74536947  0.25508727  0.05786899  1
  O2-  O478  1  0.91134769  0.25889287  0.93490634  1
  O2-  O479  1  0.41104502  0.75074016  0.72901296  1
  O2-  O480  1  0.58226468  0.25296600  0.94477730  1
  O2-  O481  1  0.08206652  0.25373001  0.39159144  1
  O2-  O482  1  0.25738225  0.75453666  0.59824237  1
  O2-  O483  1  0.75869719  0.74843486  0.38674837  1
  O2-  O484  1  0.76250992  0.24882172  0.73286335  1
  O2-  O485  1  0.41580690  0.25027152  0.72526110  1
  O2-  O486  1  0.22895785  0.25174610  0.27150367  1
  O2-  O487  1  0.75845877  0.75079078  0.74096995  1
  O2-  O488  1  0.92253320  0.25756259  0.61010614  1
  O2-  O489  1  0.08476751  0.25236577  0.06904570  1
  O2-  O490  1  0.59188650  0.24995241  0.27108671  1
  O2-  O491  1  0.25037747  0.75178746  0.93616623  1
  O2-  O492  1  0.08411403  0.74948450  0.06486386  1
