# generated using pymatgen
data_Ca108Mn108O277
_symmetry_space_group_name_H-M   'P 1'
_cell_length_a   16.02882742
_cell_length_b   22.30829458
_cell_length_c   16.39114322
_cell_angle_alpha   89.99945864
_cell_angle_beta   90.00434937
_cell_angle_gamma   89.99149109
_symmetry_Int_Tables_number   1
_chemical_formula_structural   Ca108Mn108O277
_chemical_formula_sum   'Ca108 Mn108 O277'
_cell_volume   5861.07613014
_cell_formula_units_Z   1
loop_
 _symmetry_equiv_pos_site_id
 _symmetry_equiv_pos_as_xyz
  1  'x, y, z'
loop_
 _atom_type_symbol
 _atom_type_oxidation_number
  Ca2+  2.0
  Mn3.34+  3.34
  O2-  -2.0
loop_
 _atom_site_type_symbol
 _atom_site_label
 _atom_site_symmetry_multiplicity
 _atom_site_fract_x
 _atom_site_fract_y
 _atom_site_fract_z
 _atom_site_occupancy
  Ca2+  Ca0  1  0.08153620  0.25975015  0.25703641  1
  Ca2+  Ca1  1  0.07485980  0.25133546  0.58701032  1
  Ca2+  Ca2  1  0.06089234  0.23529775  0.90866910  1
  Ca2+  Ca3  1  0.06890961  0.74484001  0.26586090  1
  Ca2+  Ca4  1  0.07323172  0.75301546  0.56640753  1
  Ca2+  Ca5  1  0.08258948  0.75803521  0.90765929  1
  Ca2+  Ca6  1  0.41441157  0.25853794  0.26059915  1
  Ca2+  Ca7  1  0.43579223  0.24637700  0.59713231  1
  Ca2+  Ca8  1  0.43371316  0.23798240  0.88455006  1
  Ca2+  Ca9  1  0.41846035  0.76195734  0.25500262  1
  Ca2+  Ca10  1  0.42673538  0.75074757  0.58818128  1
  Ca2+  Ca11  1  0.42893783  0.75031361  0.90850608  1
  Ca2+  Ca12  1  0.75509946  0.25953723  0.25983957  1
  Ca2+  Ca13  1  0.73723271  0.24080691  0.58476311  1
  Ca2+  Ca14  1  0.75084705  0.25289730  0.89857327  1
  Ca2+  Ca15  1  0.76355890  0.75778686  0.25346613  1
  Ca2+  Ca16  1  0.75611511  0.75778034  0.58182455  1
  Ca2+  Ca17  1  0.72778589  0.74922190  0.91991325  1
  Ca2+  Ca18  1  0.23979670  0.24405181  0.07989821  1
  Ca2+  Ca19  1  0.24705716  0.25413310  0.41781796  1
  Ca2+  Ca20  1  0.26537107  0.24760284  0.74630861  1
  Ca2+  Ca21  1  0.25176814  0.76061888  0.08367288  1
  Ca2+  Ca22  1  0.23498744  0.76697633  0.41601218  1
  Ca2+  Ca23  1  0.25057337  0.76063968  0.74860165  1
  Ca2+  Ca24  1  0.57820072  0.24567863  0.06486734  1
  Ca2+  Ca25  1  0.58294088  0.24436882  0.44430546  1
  Ca2+  Ca26  1  0.58425142  0.24169221  0.73905831  1
  Ca2+  Ca27  1  0.58090225  0.75222816  0.07048360  1
  Ca2+  Ca28  1  0.58627401  0.74896929  0.42020941  1
  Ca2+  Ca29  1  0.57933035  0.73473181  0.75761605  1
  Ca2+  Ca30  1  0.92545453  0.24254207  0.06305325  1
  Ca2+  Ca31  1  0.91411895  0.25482156  0.43115977  1
  Ca2+  Ca32  1  0.91697287  0.23973082  0.75292268  1
  Ca2+  Ca33  1  0.91563476  0.74900625  0.10857854  1
  Ca2+  Ca34  1  0.93443056  0.75436116  0.40735764  1
  Ca2+  Ca35  1  0.92963983  0.76789100  0.74046518  1
  Ca2+  Ca36  1  0.25513129  0.58526086  0.76660213  1
  Ca2+  Ca37  1  0.96467299  0.59908251  0.39903166  1
  Ca2+  Ca38  1  0.08327720  0.09646299  0.90665376  1
  Ca2+  Ca39  1  0.09971535  0.07406882  0.24306065  1
  Ca2+  Ca40  1  0.95298856  0.09371201  0.05832093  1
  Ca2+  Ca41  1  0.25712752  0.07147532  0.40423307  1
  Ca2+  Ca42  1  0.75411067  0.10752213  0.90222823  1
  Ca2+  Ca43  1  0.71442938  0.61262916  0.91317132  1
  Ca2+  Ca44  1  0.58603297  0.61275634  0.07306714  1
  Ca2+  Ca45  1  0.21762370  0.08552749  0.75310291  1
  Ca2+  Ca46  1  0.72174709  0.07478413  0.27547753  1
  Ca2+  Ca47  1  0.70818773  0.61193833  0.57621385  1
  Ca2+  Ca48  1  0.95995830  0.08912366  0.06286534  1
  Ca2+  Ca49  1  0.94536104  0.10435006  0.75298529  1
  Ca2+  Ca50  1  0.07187984  0.08512458  0.60712319  1
  Ca2+  Ca51  1  0.95786387  0.60353329  0.39442123  1
  Ca2+  Ca52  1  0.58093230  0.07913018  0.08218999  1
  Ca2+  Ca53  1  0.24237822  0.58510350  0.76524137  1
  Ca2+  Ca54  1  0.77821916  0.61342036  0.24447538  1
  Ca2+  Ca55  1  0.19040279  0.58587158  0.41618506  1
  Ca2+  Ca56  1  0.10238599  0.58318405  0.92500788  1
  Ca2+  Ca57  1  0.44080497  0.07534741  0.26752521  1
  Ca2+  Ca58  1  0.09001458  0.58084151  0.92572380  1
  Ca2+  Ca59  1  0.57392902  0.10612984  0.74388158  1
  Ca2+  Ca60  1  0.71635077  0.61387572  0.58219803  1
  Ca2+  Ca61  1  0.71202518  0.07253639  0.27277766  1
  Ca2+  Ca62  1  0.58059413  0.09724355  0.43362012  1
  Ca2+  Ca63  1  0.90949588  0.58073344  0.73831495  1
  Ca2+  Ca64  1  0.73978841  0.09639516  0.58417647  1
  Ca2+  Ca65  1  0.10990083  0.07417137  0.24458472  1
  Ca2+  Ca66  1  0.25671030  0.59749271  0.06096428  1
  Ca2+  Ca67  1  0.74489825  0.10558506  0.89788195  1
  Ca2+  Ca68  1  0.44427952  0.09999951  0.59771724  1
  Ca2+  Ca69  1  0.07533800  0.59152646  0.58454527  1
  Ca2+  Ca70  1  0.43388235  0.61310230  0.91569829  1
  Ca2+  Ca71  1  0.92057329  0.58149287  0.73703363  1
  Ca2+  Ca72  1  0.59511679  0.40198481  0.08728892  1
  Ca2+  Ca73  1  0.08936206  0.40573965  0.90939593  1
  Ca2+  Ca74  1  0.09968803  0.91778000  0.91974608  1
  Ca2+  Ca75  1  0.56063928  0.40540143  0.42279206  1
  Ca2+  Ca76  1  0.75470463  0.40606001  0.58182157  1
  Ca2+  Ca77  1  0.74296488  0.40686919  0.58192255  1
  Ca2+  Ca78  1  0.07808551  0.91412047  0.59225880  1
  Ca2+  Ca79  1  0.22792963  0.93061220  0.07895221  1
  Ca2+  Ca80  1  0.24645608  0.40964334  0.06915204  1
  Ca2+  Ca81  1  0.92309721  0.40137965  0.08220213  1
  Ca2+  Ca82  1  0.57520895  0.40039165  0.74786864  1
  Ca2+  Ca83  1  0.24689120  0.40534170  0.75810104  1
  Ca2+  Ca84  1  0.38892498  0.90759973  0.92396844  1
  Ca2+  Ca85  1  0.23749574  0.40592213  0.06327101  1
  Ca2+  Ca86  1  0.58226305  0.40205126  0.08693602  1
  Ca2+  Ca87  1  0.40991441  0.90696335  0.58003322  1
  Ca2+  Ca88  1  0.09157746  0.91042865  0.25027389  1
  Ca2+  Ca89  1  0.91170691  0.40196700  0.08310429  1
  Ca2+  Ca90  1  0.75266751  0.40469744  0.91303747  1
  Ca2+  Ca91  1  0.74134554  0.89795643  0.92256446  1
  Ca2+  Ca92  1  0.24967485  0.40439600  0.42038221  1
  Ca2+  Ca93  1  0.94178452  0.41594043  0.73822827  1
  Ca2+  Ca94  1  0.41748936  0.41350434  0.28531337  1
  Ca2+  Ca95  1  0.40855210  0.91808898  0.25903878  1
  Ca2+  Ca96  1  0.92692606  0.90018865  0.08821596  1
  Ca2+  Ca97  1  0.23410010  0.92121634  0.74837765  1
  Ca2+  Ca98  1  0.57839511  0.90391909  0.09746369  1
  Ca2+  Ca99  1  0.76171081  0.90663364  0.58152084  1
  Ca2+  Ca100  1  0.58787623  0.90546278  0.74331142  1
  Ca2+  Ca101  1  0.75421203  0.89783442  0.92201171  1
  Ca2+  Ca102  1  0.58507420  0.91746397  0.39322042  1
  Ca2+  Ca103  1  0.07139367  0.42711454  0.30118929  1
  Ca2+  Ca104  1  0.92907600  0.41557021  0.73857689  1
  Ca2+  Ca105  1  0.74930894  0.40635059  0.25549340  1
  Ca2+  Ca106  1  0.57535532  0.90525312  0.74406822  1
  Ca2+  Ca107  1  0.40783942  0.40251273  0.91059205  1
  Mn3.34+  Mn108  1  0.08125219  0.32509368  0.08452785  1
  Mn3.34+  Mn109  1  0.08315872  0.33429709  0.42449742  1
  Mn3.34+  Mn110  1  0.08728321  0.33271509  0.75070839  1
  Mn3.34+  Mn111  1  0.08588308  0.83686895  0.08782445  1
  Mn3.34+  Mn112  1  0.08386076  0.84171707  0.41741557  1
  Mn3.34+  Mn113  1  0.08312156  0.84039849  0.75005235  1
  Mn3.34+  Mn114  1  0.41582735  0.33076175  0.08330138  1
  Mn3.34+  Mn115  1  0.41139188  0.33141733  0.42546311  1
  Mn3.34+  Mn116  1  0.41345396  0.33479738  0.74402509  1
  Mn3.34+  Mn117  1  0.41419436  0.83861732  0.08783463  1
  Mn3.34+  Mn118  1  0.41358410  0.83278603  0.41772670  1
  Mn3.34+  Mn119  1  0.41043386  0.83481339  0.75007040  1
  Mn3.34+  Mn120  1  0.75103337  0.33152659  0.08330854  1
  Mn3.34+  Mn121  1  0.75051798  0.33107145  0.41726735  1
  Mn3.34+  Mn122  1  0.74971772  0.33524885  0.75071884  1
  Mn3.34+  Mn123  1  0.74935630  0.83235007  0.09277111  1
  Mn3.34+  Mn124  1  0.75239802  0.83718137  0.41585147  1
  Mn3.34+  Mn125  1  0.75302057  0.83134069  0.75018691  1
  Mn3.34+  Mn126  1  0.24736692  0.33512296  0.24806026  1
  Mn3.34+  Mn127  1  0.24868704  0.33096451  0.58476647  1
  Mn3.34+  Mn128  1  0.24895981  0.32994816  0.91054601  1
  Mn3.34+  Mn129  1  0.25053791  0.84068871  0.24910740  1
  Mn3.34+  Mn130  1  0.24841416  0.83764720  0.58265326  1
  Mn3.34+  Mn131  1  0.24843115  0.83343627  0.91531475  1
  Mn3.34+  Mn132  1  0.58184069  0.32831305  0.25242313  1
  Mn3.34+  Mn133  1  0.57824662  0.33430975  0.58294728  1
  Mn3.34+  Mn134  1  0.58100152  0.32947427  0.91054589  1
  Mn3.34+  Mn135  1  0.58582834  0.83637675  0.24904294  1
  Mn3.34+  Mn136  1  0.58410496  0.83178817  0.57388495  1
  Mn3.34+  Mn137  1  0.57546870  0.83028495  0.91501059  1
  Mn3.34+  Mn138  1  0.91942968  0.33484295  0.25658095  1
  Mn3.34+  Mn139  1  0.91851490  0.33100404  0.58088034  1
  Mn3.34+  Mn140  1  0.91814100  0.32972629  0.90887426  1
  Mn3.34+  Mn141  1  0.91745678  0.83589934  0.25580023  1
  Mn3.34+  Mn142  1  0.91848112  0.83708415  0.57821861  1
  Mn3.34+  Mn143  1  0.92075940  0.83022796  0.91614433  1
  Mn3.34+  Mn144  1  0.41425840  0.15717042  0.08251472  1
  Mn3.34+  Mn145  1  0.90788064  0.66282387  0.91698180  1
  Mn3.34+  Mn146  1  0.25505246  0.15886811  0.57891862  1
  Mn3.34+  Mn147  1  0.75115355  0.67303041  0.41615969  1
  Mn3.34+  Mn148  1  0.75310592  0.16851930  0.74332603  1
  Mn3.34+  Mn149  1  0.91047060  0.16164834  0.25871077  1
  Mn3.34+  Mn150  1  0.41818397  0.67680726  0.08966548  1
  Mn3.34+  Mn151  1  0.25886410  0.15939661  0.24689900  1
  Mn3.34+  Mn152  1  0.25176493  0.67649625  0.91554146  1
  Mn3.34+  Mn153  1  0.41655457  0.66071554  0.41557514  1
  Mn3.34+  Mn154  1  0.73985196  0.16417746  0.09438993  1
  Mn3.34+  Mn155  1  0.58717796  0.67397861  0.24648312  1
  Mn3.34+  Mn156  1  0.42324839  0.16332094  0.08071540  1
  Mn3.34+  Mn157  1  0.91567082  0.66815525  0.57781010  1
  Mn3.34+  Mn158  1  0.24925827  0.16468697  0.24976808  1
  Mn3.34+  Mn159  1  0.74841916  0.66977055  0.08840167  1
  Mn3.34+  Mn160  1  0.75166381  0.66833620  0.75067901  1
  Mn3.34+  Mn161  1  0.75557823  0.16677819  0.08832644  1
  Mn3.34+  Mn162  1  0.25931631  0.67057440  0.24882384  1
  Mn3.34+  Mn163  1  0.92497611  0.15909010  0.25019760  1
  Mn3.34+  Mn164  1  0.41781060  0.16524981  0.41901599  1
  Mn3.34+  Mn165  1  0.08443251  0.66969606  0.74983255  1
  Mn3.34+  Mn166  1  0.24808135  0.66862396  0.58226099  1
  Mn3.34+  Mn167  1  0.91716995  0.16458849  0.58067331  1
  Mn3.34+  Mn168  1  0.25747271  0.15938493  0.91523060  1
  Mn3.34+  Mn169  1  0.57968396  0.16924745  0.25029406  1
  Mn3.34+  Mn170  1  0.75153755  0.16528394  0.42284025  1
  Mn3.34+  Mn171  1  0.24619050  0.16825821  0.91569960  1
  Mn3.34+  Mn172  1  0.92126025  0.66880022  0.91949948  1
  Mn3.34+  Mn173  1  0.42144903  0.66762044  0.74470682  1
  Mn3.34+  Mn174  1  0.08371609  0.67375047  0.08463777  1
  Mn3.34+  Mn175  1  0.24562026  0.16431272  0.58059810  1
  Mn3.34+  Mn176  1  0.26150024  0.66262527  0.58025944  1
  Mn3.34+  Mn177  1  0.42969896  0.65558714  0.41695101  1
  Mn3.34+  Mn178  1  0.24675937  0.66524439  0.24671603  1
  Mn3.34+  Mn179  1  0.07984382  0.16179448  0.42400363  1
  Mn3.34+  Mn180  1  0.25443447  0.49974698  0.58852187  1
  Mn3.34+  Mn181  1  0.56267047  0.00463179  0.91752164  1
  Mn3.34+  Mn182  1  0.42932754  0.50240758  0.09546720  1
  Mn3.34+  Mn183  1  0.41359208  0.50643881  0.09481238  1
  Mn3.34+  Mn184  1  0.57617828  0.00696706  0.91837137  1
  Mn3.34+  Mn185  1  0.07397189  0.50724967  0.09956189  1
  Mn3.34+  Mn186  1  0.41545280  0.00025649  0.74699174  1
  Mn3.34+  Mn187  1  0.57386119  0.50232804  0.59096170  1
  Mn3.34+  Mn188  1  0.91603852  -0.00459381  0.89924169  1
  Mn3.34+  Mn189  1  0.93199463  0.49948347  0.57677050  1
  Mn3.34+  Mn190  1  0.57830409  0.50671927  0.25632839  1
  Mn3.34+  Mn191  1  0.57536431  0.50512060  0.90469989  1
  Mn3.34+  Mn192  1  0.92000063  0.50660081  0.25067289  1
  Mn3.34+  Mn193  1  0.56620398  0.51398343  0.26071063  1
  Mn3.34+  Mn194  1  0.92613809  0.00084908  0.89717374  1
  Mn3.34+  Mn195  1  0.76110751  -0.00258317  0.73816555  1
  Mn3.34+  Mn196  1  0.39984646  0.00158072  0.07940081  1
  Mn3.34+  Mn197  1  0.91556679  0.00056117  0.58958977  1
  Mn3.34+  Mn198  1  0.25999444  0.50977707  0.25798719  1
  Mn3.34+  Mn199  1  0.90437341  0.49913727  0.92294946  1
  Mn3.34+  Mn200  1  0.58654133  0.50018409  0.90434423  1
  Mn3.34+  Mn201  1  0.08478284  0.50177322  0.10096370  1
  Mn3.34+  Mn202  1  0.91355236  -0.00369987  0.26044053  1
  Mn3.34+  Mn203  1  0.73256730  0.50483725  0.74140161  1
  Mn3.34+  Mn204  1  0.74992472  0.50645366  0.41069258  1
  Mn3.34+  Mn205  1  0.75161807  0.50463073  0.08499070  1
  Mn3.34+  Mn206  1  0.24312697  0.49572934  0.58927884  1
  Mn3.34+  Mn207  1  0.76282959  0.49966313  0.41043148  1
  Mn3.34+  Mn208  1  0.75490251  0.00101962  0.08696789  1
  Mn3.34+  Mn209  1  0.24577324  0.50444699  0.25773260  1
  Mn3.34+  Mn210  1  0.41813246  -0.00152489  0.41037388  1
  Mn3.34+  Mn211  1  0.58567472  -0.00531468  0.58808461  1
  Mn3.34+  Mn212  1  0.42668068  0.50166948  0.74350708  1
  Mn3.34+  Mn213  1  0.75222831  -0.00260347  0.41906962  1
  Mn3.34+  Mn214  1  0.24714222  -0.00136660  0.59066832  1
  Mn3.34+  Mn215  1  0.08316311  0.00150051  0.41195605  1
  O2-  O216  1  0.00487869  0.16811399  0.00248315  1
  O2-  O217  1  0.01058242  0.13965852  0.32654540  1
  O2-  O218  1  0.00039050  0.16751494  0.65691499  1
  O2-  O219  1  0.00241552  0.64739498  -0.00156537  1
  O2-  O220  1  0.00742049  0.67640399  0.33812383  1
  O2-  O221  1  -0.00554340  0.64859960  0.66975773  1
  O2-  O222  1  0.32813784  0.14413812  0.00169322  1
  O2-  O223  1  0.33978749  0.14129076  0.32680123  1
  O2-  O224  1  0.32999863  0.14593715  0.66108505  1
  O2-  O225  1  0.33169507  0.67889656  0.00133457  1
  O2-  O226  1  0.33804187  0.64173804  0.33242288  1
  O2-  O227  1  0.32805815  0.64587418  0.66944343  1
  O2-  O228  1  0.66800513  0.14808457  0.00539523  1
  O2-  O229  1  0.66336581  0.15850856  0.33367289  1
  O2-  O230  1  0.67157379  0.16021968  0.66758142  1
  O2-  O231  1  0.66997947  0.67836318  0.00677107  1
  O2-  O232  1  0.67969136  0.68443508  0.32245180  1
  O2-  O233  1  0.67774753  0.68800693  0.66572628  1
  O2-  O234  1  0.16597726  0.17055544  -0.00600567  1
  O2-  O235  1  0.17133467  0.14502868  0.34069237  1
  O2-  O236  1  0.16738344  0.15600498  0.66272200  1
  O2-  O237  1  0.16129805  0.67102874  -0.00824219  1
  O2-  O238  1  0.17161057  0.65734130  0.32748661  1
  O2-  O239  1  0.17194427  0.64620909  0.66888485  1
  O2-  O240  1  0.50668762  0.14924411  0.00798343  1
  O2-  O241  1  0.50045235  0.15796060  0.33513693  1
  O2-  O242  1  0.50150412  0.17168285  0.66942563  1
  O2-  O243  1  0.49355381  0.67658905  0.00919031  1
  O2-  O244  1  0.50845752  0.66976106  0.33367463  1
  O2-  O245  1  0.49802467  0.67667768  0.66820196  1
  O2-  O246  1  0.83406436  0.13597615  0.01063360  1
  O2-  O247  1  0.81868334  0.14163433  0.32284769  1
  O2-  O248  1  0.83766640  0.15081563  0.66459352  1
  O2-  O249  1  0.82564809  0.66477437  -0.00365899  1
  O2-  O250  1  0.84282195  0.65478999  0.35348503  1
  O2-  O251  1  0.82713963  0.64455342  0.66272405  1
  O2-  O252  1  -0.00060541  0.34279658  -0.00207930  1
  O2-  O253  1  0.00496235  0.34059996  0.33228721  1
  O2-  O254  1  -0.00357195  0.33423934  0.67299833  1
  O2-  O255  1  0.00626096  0.84344609  -0.00068608  1
  O2-  O256  1  0.00648724  0.84616398  0.32829332  1
  O2-  O257  1  0.00171072  0.84550010  0.66382729  1
  O2-  O258  1  0.33120056  0.35029197  0.00086268  1
  O2-  O259  1  0.33027542  0.34442227  0.33276940  1
  O2-  O260  1  0.32338682  0.34796610  0.67277955  1
  O2-  O261  1  0.33408842  0.82248581  -0.00087580  1
  O2-  O262  1  0.33958215  0.84693190  0.32791993  1
  O2-  O263  1  0.32793955  0.85525984  0.67416554  1
  O2-  O264  1  0.66524190  0.34687768  -0.00176105  1
  O2-  O265  1  0.66421759  0.34070972  0.33401963  1
  O2-  O266  1  0.66758860  0.35071701  0.66575753  1
  O2-  O267  1  0.66500252  0.83247075  -0.00168910  1
  O2-  O268  1  0.66410275  0.82177845  0.33485189  1
  O2-  O269  1  0.66264637  0.83469494  0.66818571  1
  O2-  O270  1  0.16584474  0.33536659  0.00085989  1
  O2-  O271  1  0.16602814  0.34007274  0.33002860  1
  O2-  O272  1  0.16645665  0.32235898  0.67120125  1
  O2-  O273  1  0.16579436  0.82089836  -0.00149989  1
  O2-  O274  1  0.16820129  0.84760260  0.33213986  1
  O2-  O275  1  0.16894245  0.84877124  0.66983572  1
  O2-  O276  1  0.50193657  0.34934618  0.00018155  1
  O2-  O277  1  0.49695094  0.33216965  0.33117463  1
  O2-  O278  1  0.49886311  0.34249104  0.66632442  1
  O2-  O279  1  0.49589934  0.84824687  -0.00118593  1
  O2-  O280  1  0.50272320  0.83419843  0.33085932  1
  O2-  O281  1  0.49770385  0.84405470  0.66076625  1
  O2-  O282  1  0.83682805  0.35003602  -0.00411505  1
  O2-  O283  1  0.82869516  0.34657780  0.33160927  1
  O2-  O284  1  0.83314150  0.35333982  0.67211107  1
  O2-  O285  1  0.82896638  0.83288002  0.00176533  1
  O2-  O286  1  0.83341202  0.82766337  0.33723420  1
  O2-  O287  1  0.82938950  0.83301489  0.66424028  1
  O2-  O288  1  -0.00627847  0.17958910  0.16553257  1
  O2-  O289  1  -0.00191349  0.18368711  0.49870620  1
  O2-  O290  1  0.00914544  0.17627132  0.81973035  1
  O2-  O291  1  0.01195047  0.69316029  0.15832349  1
  O2-  O292  1  -0.00541474  0.67590047  0.50196780  1
  O2-  O293  1  0.00103067  0.67696862  0.83737245  1
  O2-  O294  1  0.33487056  0.18287248  0.15886051  1
  O2-  O295  1  0.32421242  0.17246647  0.48984325  1
  O2-  O296  1  0.33131579  0.17200262  0.83375829  1
  O2-  O297  1  0.33292011  0.68675203  0.16745928  1
  O2-  O298  1  0.33237333  0.68372471  0.49387154  1
  O2-  O299  1  0.32770141  0.67627387  0.83060778  1
  O2-  O300  1  0.66479731  0.19711425  0.17404957  1
  O2-  O301  1  0.66934131  0.17427922  0.49513259  1
  O2-  O302  1  0.67692840  0.17826353  0.82839586  1
  O2-  O303  1  0.66149132  0.69266712  0.16121660  1
  O2-  O304  1  0.67138696  0.68869285  0.49696479  1
  O2-  O305  1  0.67868756  0.68671915  0.82951930  1
  O2-  O306  1  0.16105121  0.17992428  0.17856805  1
  O2-  O307  1  0.16593710  0.18369169  0.50313561  1
  O2-  O308  1  0.17354239  0.18345207  0.83381193  1
  O2-  O309  1  0.17646705  0.68877780  0.15512206  1
  O2-  O310  1  0.16676656  0.67525333  0.50591363  1
  O2-  O311  1  0.16922468  0.68508341  0.83256114  1
  O2-  O312  1  0.49847552  0.19009376  0.16998102  1
  O2-  O313  1  0.49224938  0.17493519  0.49926325  1
  O2-  O314  1  0.51192351  0.17772843  0.81524226  1
  O2-  O315  1  0.50085744  0.69474490  0.16916889  1
  O2-  O316  1  0.49689751  0.68404852  0.49663687  1
  O2-  O317  1  0.48971467  0.67793954  0.82942764  1
  O2-  O318  1  0.83239361  0.18750359  0.17171288  1
  O2-  O319  1  0.83015590  0.17837631  0.50168063  1
  O2-  O320  1  0.82799638  0.17551812  0.83098535  1
  O2-  O321  1  0.82287240  0.68872350  0.16578972  1
  O2-  O322  1  0.82354140  0.68195480  0.51167437  1
  O2-  O323  1  0.84407036  0.68628179  0.82463392  1
  O2-  O324  1  -0.00816761  0.31431060  0.15792610  1
  O2-  O325  1  -0.00046251  0.31846940  0.50272000  1
  O2-  O326  1  0.00120796  0.31353413  0.82967794  1
  O2-  O327  1  0.00127009  0.82432275  0.16257440  1
  O2-  O328  1  -0.00047388  0.82566083  0.50068338  1
  O2-  O329  1  0.00276691  0.82387747  0.83397385  1
  O2-  O330  1  0.32803079  0.33314875  0.16020191  1
  O2-  O331  1  0.32499888  0.32141882  0.49684222  1
  O2-  O332  1  0.33241675  0.32713951  0.83323451  1
  O2-  O333  1  0.33651878  0.81600426  0.16662051  1
  O2-  O334  1  0.33734480  0.82333850  0.50852388  1
  O2-  O335  1  0.33648347  0.82020156  0.84190619  1
  O2-  O336  1  0.66314338  0.31980947  0.16757217  1
  O2-  O337  1  0.66918076  0.32468699  0.50509273  1
  O2-  O338  1  0.66844434  0.32361425  0.83204161  1
  O2-  O339  1  0.66370571  0.81501682  0.16554042  1
  O2-  O340  1  0.66959694  0.81206350  0.50015452  1
  O2-  O341  1  0.66636111  0.82352312  0.83403307  1
  O2-  O342  1  0.16830239  0.31340631  0.16012994  1
  O2-  O343  1  0.16747659  0.31336918  0.50102114  1
  O2-  O344  1  0.16549462  0.31297604  0.83412035  1
  O2-  O345  1  0.16677044  0.81806294  0.16633872  1
  O2-  O346  1  0.16307415  0.82496976  0.50884488  1
  O2-  O347  1  0.16950965  0.81529284  0.83371569  1
  O2-  O348  1  0.50614804  0.31725381  0.16184034  1
  O2-  O349  1  0.50184737  0.31936848  0.49738478  1
  O2-  O350  1  0.49625538  0.32739504  0.83271531  1
  O2-  O351  1  0.50452295  0.81797419  0.16275382  1
  O2-  O352  1  0.50018514  0.81257320  0.49988864  1
  O2-  O353  1  0.50622116  0.82623845  0.82085723  1
  O2-  O354  1  0.83630435  0.33371584  0.16644513  1
  O2-  O355  1  0.82461754  0.32597432  0.51022283  1
  O2-  O356  1  0.83392182  0.32861781  0.82993156  1
  O2-  O357  1  0.83770083  0.82631005  0.16497912  1
  O2-  O358  1  0.83147570  0.82010220  0.50068703  1
  O2-  O359  1  0.82480144  0.81536203  0.84066262  1
  O2-  O360  1  0.06194288  0.05975168  0.12474304  1
  O2-  O361  1  0.09059747  0.07795082  0.45836717  1
  O2-  O362  1  0.07526538  0.06919644  0.78135049  1
  O2-  O363  1  0.10143094  0.58801085  0.09800477  1
  O2-  O364  1  0.06889136  0.56432021  0.46080953  1
  O2-  O365  1  0.09335833  0.58445231  0.79181221  1
  O2-  O366  1  0.43221583  0.07786541  0.12824278  1
  O2-  O367  1  0.41913548  0.07646129  0.44978682  1
  O2-  O368  1  0.43318706  0.07394178  0.76554542  1
  O2-  O369  1  0.41006302  0.58845598  0.09056263  1
  O2-  O370  1  0.41376649  0.57967427  0.44637119  1
  O2-  O371  1  0.39843657  0.57879187  0.78522273  1
  O2-  O372  1  0.74063109  0.08183001  0.13506338  1
  O2-  O373  1  0.74328742  0.08014356  0.44266446  1
  O2-  O374  1  0.75464695  0.08113688  0.76868819  1
  O2-  O375  1  0.73222464  0.58600394  0.11040266  1
  O2-  O376  1  0.74771974  0.58273550  0.45143295  1
  O2-  O377  1  0.76827697  0.58095978  0.79180654  1
  O2-  O378  1  0.24254616  0.07921254  0.21662586  1
  O2-  O379  1  0.24743029  0.07553450  0.54418436  1
  O2-  O380  1  0.22903762  0.08292844  0.89094540  1
  O2-  O381  1  0.25757529  0.58230677  0.19870067  1
  O2-  O382  1  0.25091031  0.57825614  0.54063996  1
  O2-  O383  1  0.23597751  0.57959099  0.90052761  1
  O2-  O384  1  0.59147018  0.08067232  0.21664578  1
  O2-  O385  1  0.58444711  0.07309581  0.56658978  1
  O2-  O386  1  0.61281427  0.07620162  0.87030207  1
  O2-  O387  1  0.58552348  0.58714984  0.21012073  1
  O2-  O388  1  0.59342228  0.57409857  0.54358537  1
  O2-  O389  1  0.57872157  0.58738075  0.91468853  1
  O2-  O390  1  0.91324535  0.07867822  0.20748696  1
  O2-  O391  1  0.92436024  0.08029190  0.56107628  1
  O2-  O392  1  0.90972946  0.08280819  0.88822363  1
  O2-  O393  1  0.91250528  0.58254160  0.23863491  1
  O2-  O394  1  0.91631615  0.58290801  0.54940066  1
  O2-  O395  1  0.92588744  0.57944278  0.87872872  1
  O2-  O396  1  0.07690649  0.41799767  0.11019841  1
  O2-  O397  1  0.10061672  0.41250839  0.43275158  1
  O2-  O398  1  0.07747802  0.41634698  0.77632531  1
  O2-  O399  1  0.08649291  0.91672172  0.10277347  1
  O2-  O400  1  0.08034369  0.92625840  0.45004742  1
  O2-  O401  1  0.09602899  0.91702851  0.78055704  1
  O2-  O402  1  0.44389333  0.42289774  0.12419297  1
  O2-  O403  1  0.41802586  0.40974067  0.43349560  1
  O2-  O404  1  0.41442307  0.42319091  0.77838939  1
  O2-  O405  1  0.42388152  0.92546082  0.12187357  1
  O2-  O406  1  0.43262941  0.92088066  0.44247687  1
  O2-  O407  1  0.43126327  0.92284201  0.78986379  1
  O2-  O408  1  0.72829896  0.42262750  0.12216454  1
  O2-  O409  1  0.74033246  0.42111063  0.44615618  1
  O2-  O410  1  0.74389124  0.42113346  0.77761636  1
  O2-  O411  1  0.73784668  0.91813650  0.07597418  1
  O2-  O412  1  0.72986931  0.92031513  0.44847070  1
  O2-  O413  1  0.73427475  0.92065602  0.79094663  1
  O2-  O414  1  0.23771434  0.43055099  0.19859044  1
  O2-  O415  1  0.24137075  0.41526529  0.55821622  1
  O2-  O416  1  0.23803061  0.41294208  0.89935174  1
  O2-  O417  1  0.25069603  0.91759292  0.21545939  1
  O2-  O418  1  0.25029380  0.92164687  0.55932480  1
  O2-  O419  1  0.24508824  0.91346262  0.89415337  1
  O2-  O420  1  0.58260872  0.42491696  0.21912846  1
  O2-  O421  1  0.59285142  0.42147844  0.55519302  1
  O2-  O422  1  0.58224772  0.41850494  0.88455514  1
  O2-  O423  1  0.57539297  0.91528815  0.23442812  1
  O2-  O424  1  0.58511081  0.91816717  0.54944272  1
  O2-  O425  1  0.59722319  0.92066983  0.88795716  1
  O2-  O426  1  0.93229424  0.42815005  0.21171451  1
  O2-  O427  1  0.90034119  0.41707773  0.57355966  1
  O2-  O428  1  0.92904778  0.41985195  0.87581827  1
  O2-  O429  1  0.92659353  0.92075505  0.22089385  1
  O2-  O430  1  0.90776573  0.92015350  0.55935854  1
  O2-  O431  1  0.89307079  0.91379045  0.89932154  1
  O2-  O432  1  0.00802563  0.00812359  -0.02038525  1
  O2-  O433  1  0.02032200  0.00330983  0.30357732  1
  O2-  O434  1  0.00689871  -0.00177071  0.64574607  1
  O2-  O435  1  0.01004492  0.50434221  -0.00600828  1
  O2-  O436  1  -0.01048016  0.50707090  0.33476766  1
  O2-  O437  1  -0.01017137  0.50495418  0.68863259  1
  O2-  O438  1  0.32894329  -0.02238499  0.00383054  1
  O2-  O439  1  0.34566442  0.00521699  0.32989491  1
  O2-  O440  1  0.33200647  -0.00489786  0.66870534  1
  O2-  O441  1  0.32375708  0.48493479  0.02827350  1
  O2-  O442  1  0.33013490  0.48416123  0.33840006  1
  O2-  O443  1  0.32112295  0.50045844  0.69002810  1
  O2-  O444  1  0.66743735  0.01336427  -0.00111963  1
  O2-  O445  1  0.65540707  0.00779258  0.35840544  1
  O2-  O446  1  0.65296494  -0.01593409  0.68190256  1
  O2-  O447  1  0.65957300  0.49106323  -0.00014049  1
  O2-  O448  1  0.66685572  0.49704575  0.33129562  1
  O2-  O449  1  0.69265246  0.50083534  0.62238999  1
  O2-  O450  1  0.16287171  -0.00762086  -0.01230143  1
  O2-  O451  1  0.16770877  0.01208390  0.33643186  1
  O2-  O452  1  0.17028489  0.00641513  0.66493279  1
  O2-  O453  1  0.16693616  0.49719686  0.01229222  1
  O2-  O454  1  0.16402924  0.50423318  0.33564265  1
  O2-  O455  1  0.16897316  0.52335378  0.67061101  1
  O2-  O456  1  0.50226674  -0.00118261  0.01488879  1
  O2-  O457  1  0.50303870  0.00283557  0.34493010  1
  O2-  O458  1  0.49686494  -0.01654490  0.66623543  1
  O2-  O459  1  0.49019499  0.49408401  -0.00929818  1
  O2-  O460  1  0.50241267  0.48386114  0.34327051  1
  O2-  O461  1  0.53539483  0.49386631  0.70316711  1
  O2-  O462  1  0.84330798  0.00825930  -0.00061365  1
  O2-  O463  1  0.81332856  0.00601233  0.31432019  1
  O2-  O464  1  0.80837874  0.00241692  0.62757803  1
  O2-  O465  1  0.84079246  0.47175899  0.01578244  1
  O2-  O466  1  0.82020655  0.49398576  0.30874818  1
  O2-  O467  1  0.84365029  0.50192167  0.68336526  1
  O2-  O468  1  0.92196567  0.74950302  0.60556388  1
  O2-  O469  1  0.75720953  0.25332920  0.72456958  1
  O2-  O470  1  0.58135251  0.25230410  0.93034247  1
  O2-  O471  1  0.25688758  0.75143538  0.61062765  1
  O2-  O472  1  0.91112777  0.24352799  0.28599877  1
  O2-  O473  1  0.08235886  0.24379929  0.39214290  1
  O2-  O474  1  0.40250574  0.74413118  0.39152578  1
  O2-  O475  1  0.25645783  0.75254956  0.28006749  1
  O2-  O476  1  0.93061524  0.74919048  0.94344205  1
  O2-  O477  1  0.40395886  0.24588277  0.39578034  1
  O2-  O478  1  0.90499317  0.25016470  0.60295315  1
  O2-  O479  1  0.76032847  0.24618922  0.04737715  1
  O2-  O480  1  0.41107332  0.25554854  0.73559973  1
  O2-  O481  1  0.58675917  0.25583685  0.59795360  1
  O2-  O482  1  0.57251771  0.75323878  0.92567587  1
  O2-  O483  1  0.91845635  0.75640055  0.26265951  1
  O2-  O484  1  0.26534207  0.24501860  0.27482917  1
  O2-  O485  1  0.90500448  0.25303802  0.93035585  1
  O2-  O486  1  0.08803913  0.76131847  0.40828856  1
  O2-  O487  1  0.26772819  0.24668218  0.60452601  1
  O2-  O488  1  0.07939846  0.75000858  0.72194779  1
  O2-  O489  1  0.76011984  0.24732258  0.39490632  1
  O2-  O490  1  0.39967700  0.75217930  0.72856264  1
  O2-  O491  1  0.27252329  0.24703983  0.94095228  1
  O2-  O492  1  0.41164470  0.24427572  0.04941716  1
