# generated using pymatgen
data_Ca108Mn108O277
_symmetry_space_group_name_H-M   'P 1'
_cell_length_a   16.02819795
_cell_length_b   22.30741302
_cell_length_c   16.38996774
_cell_angle_alpha   89.99976234
_cell_angle_beta   89.99919463
_cell_angle_gamma   90.00032778
_symmetry_Int_Tables_number   1
_chemical_formula_structural   Ca108Mn108O277
_chemical_formula_sum   'Ca108 Mn108 O277'
_cell_volume   5860.19414858
_cell_formula_units_Z   1
loop_
 _symmetry_equiv_pos_site_id
 _symmetry_equiv_pos_as_xyz
  1  'x, y, z'
loop_
 _atom_type_symbol
 _atom_type_oxidation_number
  Ca2+  2.0
  Mn3.34+  3.34
  O2-  -2.0
loop_
 _atom_site_type_symbol
 _atom_site_label
 _atom_site_symmetry_multiplicity
 _atom_site_fract_x
 _atom_site_fract_y
 _atom_site_fract_z
 _atom_site_occupancy
  Ca2+  Ca0  1  0.07744325  0.26352615  0.24013509  1
  Ca2+  Ca1  1  0.08005155  0.25270532  0.57305779  1
  Ca2+  Ca2  1  0.08366610  0.25835285  0.93138883  1
  Ca2+  Ca3  1  0.07491797  0.74471660  0.25689536  1
  Ca2+  Ca4  1  0.10493607  0.73503180  0.58259975  1
  Ca2+  Ca5  1  0.10300085  0.74261353  0.91554329  1
  Ca2+  Ca6  1  0.42673608  0.25824055  0.24726376  1
  Ca2+  Ca7  1  0.42583210  0.25412461  0.58659803  1
  Ca2+  Ca8  1  0.42290496  0.24947766  0.92680156  1
  Ca2+  Ca9  1  0.43361894  0.74354080  0.26077424  1
  Ca2+  Ca10  1  0.39458225  0.71973281  0.59149460  1
  Ca2+  Ca11  1  0.38584464  0.73023927  0.91200847  1
  Ca2+  Ca12  1  0.74872714  0.25742810  0.24171430  1
  Ca2+  Ca13  1  0.74430501  0.26155452  0.58127044  1
  Ca2+  Ca14  1  0.73359289  0.25993368  0.92825020  1
  Ca2+  Ca15  1  0.73120277  0.73417920  0.25850640  1
  Ca2+  Ca16  1  0.75527922  0.74458205  0.56313432  1
  Ca2+  Ca17  1  0.76786326  0.75219109  0.92913123  1
  Ca2+  Ca18  1  0.25288028  0.24797938  0.07263862  1
  Ca2+  Ca19  1  0.25318641  0.26014110  0.42587571  1
  Ca2+  Ca20  1  0.26342996  0.25207594  0.75137350  1
  Ca2+  Ca21  1  0.26091474  0.74210799  0.07180355  1
  Ca2+  Ca22  1  0.26022786  0.74980170  0.43407865  1
  Ca2+  Ca23  1  0.25791056  0.74292241  0.74460470  1
  Ca2+  Ca24  1  0.57165165  0.24822178  0.07256092  1
  Ca2+  Ca25  1  0.57684936  0.25775113  0.42593640  1
  Ca2+  Ca26  1  0.56818585  0.24831245  0.76126064  1
  Ca2+  Ca27  1  0.57965095  0.74310902  0.11862946  1
  Ca2+  Ca28  1  0.58246029  0.74124527  0.40326740  1
  Ca2+  Ca29  1  0.55386172  0.74772979  0.73381782  1
  Ca2+  Ca30  1  0.92282614  0.26776690  0.08148438  1
  Ca2+  Ca31  1  0.92696658  0.26242147  0.42628348  1
  Ca2+  Ca32  1  0.90976237  0.26385510  0.74615346  1
  Ca2+  Ca33  1  0.90929603  0.74463205  0.08710621  1
  Ca2+  Ca34  1  0.91022475  0.74117239  0.41148119  1
  Ca2+  Ca35  1  0.92594193  0.75072664  0.74430872  1
  Ca2+  Ca36  1  0.56152362  0.11245489  0.07806494  1
  Ca2+  Ca37  1  0.53478469  0.59963633  0.74488242  1
  Ca2+  Ca38  1  0.59698619  0.58202393  0.39285838  1
  Ca2+  Ca39  1  0.07190087  0.11039695  0.23791371  1
  Ca2+  Ca40  1  0.75354877  0.09081421  0.57364173  1
  Ca2+  Ca41  1  0.77062800  0.57701490  0.94325294  1
  Ca2+  Ca42  1  0.73846638  0.10184844  0.25831271  1
  Ca2+  Ca43  1  0.90697619  0.57458227  0.39834282  1
  Ca2+  Ca44  1  0.26947931  0.59421540  0.76752710  1
  Ca2+  Ca45  1  0.25182427  0.57997275  0.03297083  1
  Ca2+  Ca46  1  0.54654427  0.59924107  0.73977477  1
  Ca2+  Ca47  1  0.70226341  0.10457815  0.92521729  1
  Ca2+  Ca48  1  0.91771982  0.10738829  0.09162259  1
  Ca2+  Ca49  1  0.43495951  0.11866434  0.90660855  1
  Ca2+  Ca50  1  0.74124825  0.09290628  0.57121506  1
  Ca2+  Ca51  1  0.23942654  0.08155545  0.73813703  1
  Ca2+  Ca52  1  0.44204541  0.58442978  0.26850767  1
  Ca2+  Ca53  1  0.24599239  0.60205496  0.43307678  1
  Ca2+  Ca54  1  0.24848726  0.08574227  0.73988156  1
  Ca2+  Ca55  1  0.08325645  0.06809020  0.60822404  1
  Ca2+  Ca56  1  0.43284007  0.58232361  0.27251920  1
  Ca2+  Ca57  1  0.43161101  0.11265732  0.23719881  1
  Ca2+  Ca58  1  0.25582037  0.58682461  0.03176031  1
  Ca2+  Ca59  1  0.59681483  0.59495221  0.11473765  1
  Ca2+  Ca60  1  0.89910730  0.57389390  0.10072672  1
  Ca2+  Ca61  1  0.75911254  0.57746309  0.94522705  1
  Ca2+  Ca62  1  0.06411087  0.56885927  0.28109623  1
  Ca2+  Ca63  1  0.09822172  0.09281842  0.91815293  1
  Ca2+  Ca64  1  0.08685570  0.09258395  0.91838656  1
  Ca2+  Ca65  1  0.58341529  0.10209725  0.41114337  1
  Ca2+  Ca66  1  0.74643181  0.58115869  0.25854490  1
  Ca2+  Ca67  1  0.08316642  0.11010631  0.23608048  1
  Ca2+  Ca68  1  0.92446692  0.09420486  0.42591467  1
  Ca2+  Ca69  1  0.58810828  0.57807113  0.39233811  1
  Ca2+  Ca70  1  0.91229678  0.09185267  0.42371444  1
  Ca2+  Ca71  1  0.94278257  0.07459717  0.73426362  1
  Ca2+  Ca72  1  0.26100928  0.41914853  0.40634657  1
  Ca2+  Ca73  1  0.08720621  0.91023207  0.90852228  1
  Ca2+  Ca74  1  0.24637403  0.40994612  0.75608554  1
  Ca2+  Ca75  1  0.75967687  0.41283711  0.93302903  1
  Ca2+  Ca76  1  0.59521366  0.40332678  0.09446370  1
  Ca2+  Ca77  1  0.40648803  0.39782876  0.91507123  1
  Ca2+  Ca78  1  0.58860342  0.89800987  0.75004179  1
  Ca2+  Ca79  1  0.74014632  0.89888602  0.24915663  1
  Ca2+  Ca80  1  0.05983301  0.42229147  0.26311463  1
  Ca2+  Ca81  1  0.24937576  0.41742831  0.40493042  1
  Ca2+  Ca82  1  0.39104570  0.90173549  0.57718069  1
  Ca2+  Ca83  1  0.94449299  0.92761561  0.73138077  1
  Ca2+  Ca84  1  0.90539635  0.43098549  0.39398253  1
  Ca2+  Ca85  1  0.75446021  0.90115698  0.58077895  1
  Ca2+  Ca86  1  0.91921653  0.90632881  0.07237548  1
  Ca2+  Ca87  1  0.10466730  0.92656240  0.59542397  1
  Ca2+  Ca88  1  0.09349486  0.89295704  0.25429686  1
  Ca2+  Ca89  1  0.92723786  0.90407480  0.43127692  1
  Ca2+  Ca90  1  0.43058457  0.41940505  0.27303628  1
  Ca2+  Ca91  1  0.22751719  0.92475691  0.73618619  1
  Ca2+  Ca92  1  0.07423609  0.41180167  0.57759304  1
  Ca2+  Ca93  1  0.08571872  0.41198231  0.57795691  1
  Ca2+  Ca94  1  0.91464864  0.90508826  0.43028715  1
  Ca2+  Ca95  1  0.59002402  0.42462068  0.38867365  1
  Ca2+  Ca96  1  0.90775309  0.90674623  0.07290585  1
  Ca2+  Ca97  1  0.40175624  0.90230151  0.57845131  1
  Ca2+  Ca98  1  0.94053246  0.92384796  0.73938607  1
  Ca2+  Ca99  1  0.24981023  0.89414483  0.08694845  1
  Ca2+  Ca100  1  0.58308756  0.90295058  0.41319381  1
  Ca2+  Ca101  1  0.75664669  0.40966714  0.57258158  1
  Ca2+  Ca102  1  0.26245688  0.89513287  0.08775285  1
  Ca2+  Ca103  1  0.75125238  0.43452956  0.25469723  1
  Ca2+  Ca104  1  0.91476161  0.41038223  0.74821343  1
  Ca2+  Ca105  1  0.41951338  0.89645354  0.92143535  1
  Ca2+  Ca106  1  0.74909004  0.90386109  0.91741789  1
  Ca2+  Ca107  1  0.57569455  0.89881350  0.75005466  1
  Mn3.34+  Mn108  1  0.08619555  0.33663376  0.08244785  1
  Mn3.34+  Mn109  1  0.08500977  0.33674164  0.41575697  1
  Mn3.34+  Mn110  1  0.08524526  0.33568350  0.76003178  1
  Mn3.34+  Mn111  1  0.08262254  0.82901151  0.07926517  1
  Mn3.34+  Mn112  1  0.09007117  0.83352647  0.42212502  1
  Mn3.34+  Mn113  1  0.08697524  0.83317360  0.74925546  1
  Mn3.34+  Mn114  1  0.41529252  0.33109666  0.08698136  1
  Mn3.34+  Mn115  1  0.41910899  0.33735994  0.41957701  1
  Mn3.34+  Mn116  1  0.42085185  0.33600755  0.75180864  1
  Mn3.34+  Mn117  1  0.42492651  0.82709150  0.08655192  1
  Mn3.34+  Mn118  1  0.41431817  0.82860682  0.41238386  1
  Mn3.34+  Mn119  1  0.41011548  0.83006072  0.75293778  1
  Mn3.34+  Mn120  1  0.75377903  0.33947081  0.08791063  1
  Mn3.34+  Mn121  1  0.75095924  0.33505053  0.41344940  1
  Mn3.34+  Mn122  1  0.74402394  0.34221498  0.75372751  1
  Mn3.34+  Mn123  1  0.74107887  0.82929274  0.08561584  1
  Mn3.34+  Mn124  1  0.75033797  0.83018716  0.41590022  1
  Mn3.34+  Mn125  1  0.75239159  0.82511129  0.74940377  1
  Mn3.34+  Mn126  1  0.25234144  0.33767156  0.23966803  1
  Mn3.34+  Mn127  1  0.25705965  0.33923036  0.58607964  1
  Mn3.34+  Mn128  1  0.24758268  0.33979304  0.91657104  1
  Mn3.34+  Mn129  1  0.25300670  0.82213578  0.25251870  1
  Mn3.34+  Mn130  1  0.24448294  0.83129311  0.58404377  1
  Mn3.34+  Mn131  1  0.24893751  0.83224751  0.90998523  1
  Mn3.34+  Mn132  1  0.58818311  0.33570382  0.24715675  1
  Mn3.34+  Mn133  1  0.58201427  0.33591563  0.58613653  1
  Mn3.34+  Mn134  1  0.58138106  0.33375458  0.91517105  1
  Mn3.34+  Mn135  1  0.57942568  0.83465076  0.25121933  1
  Mn3.34+  Mn136  1  0.58410722  0.83117700  0.57449020  1
  Mn3.34+  Mn137  1  0.58390726  0.82814097  0.91752728  1
  Mn3.34+  Mn138  1  0.91239958  0.33933257  0.24812814  1
  Mn3.34+  Mn139  1  0.91364439  0.33813555  0.58160217  1
  Mn3.34+  Mn140  1  0.91973582  0.33841830  0.91789192  1
  Mn3.34+  Mn141  1  0.91481178  0.82986059  0.24846527  1
  Mn3.34+  Mn142  1  0.92139415  0.83013671  0.58440741  1
  Mn3.34+  Mn143  1  0.91782095  0.83344354  0.90587886  1
  Mn3.34+  Mn144  1  0.75305627  0.66454466  0.09149640  1
  Mn3.34+  Mn145  1  0.41631893  0.66605722  0.09335805  1
  Mn3.34+  Mn146  1  0.58232738  0.66675260  0.57340997  1
  Mn3.34+  Mn147  1  0.25970828  0.15967726  0.57729969  1
  Mn3.34+  Mn148  1  0.07730825  0.65742574  0.74885504  1
  Mn3.34+  Mn149  1  0.24975218  0.16476072  0.57736664  1
  Mn3.34+  Mn150  1  0.92078322  0.66331424  0.57473368  1
  Mn3.34+  Mn151  1  0.75096868  0.17987347  0.41819310  1
  Mn3.34+  Mn152  1  0.74872744  0.66194517  0.74980991  1
  Mn3.34+  Mn153  1  0.08248827  0.17174014  0.75042821  1
  Mn3.34+  Mn154  1  0.92083453  0.66567108  0.91531376  1
  Mn3.34+  Mn155  1  0.58621194  0.67791754  0.92245765  1
  Mn3.34+  Mn156  1  0.58711679  0.17206410  0.24903029  1
  Mn3.34+  Mn157  1  0.73820404  0.16669407  0.75235765  1
  Mn3.34+  Mn158  1  0.75846332  0.65611442  0.74893684  1
  Mn3.34+  Mn159  1  0.25901962  0.17820110  0.25136897  1
  Mn3.34+  Mn160  1  0.08447819  0.66137459  0.08820939  1
  Mn3.34+  Mn161  1  0.91202253  0.17996299  0.25319927  1
  Mn3.34+  Mn162  1  0.41891117  0.66195808  0.42234009  1
  Mn3.34+  Mn163  1  0.24892830  0.66124935  0.24719759  1
  Mn3.34+  Mn164  1  0.74858171  0.17314455  0.08763775  1
  Mn3.34+  Mn165  1  0.08446844  0.16722918  0.42177252  1
  Mn3.34+  Mn166  1  0.91398659  0.66110516  0.25282873  1
  Mn3.34+  Mn167  1  0.07447780  0.65586147  0.08879357  1
  Mn3.34+  Mn168  1  0.57737386  0.67172359  0.92054896  1
  Mn3.34+  Mn169  1  0.42198347  0.17244585  0.41886559  1
  Mn3.34+  Mn170  1  0.25110010  0.17161709  0.24944547  1
  Mn3.34+  Mn171  1  0.25371771  0.16862791  0.91088948  1
  Mn3.34+  Mn172  1  0.91845486  0.16638932  0.91585728  1
  Mn3.34+  Mn173  1  0.75057587  0.65920382  0.42039152  1
  Mn3.34+  Mn174  1  0.08735458  0.66211760  0.75013902  1
  Mn3.34+  Mn175  1  0.74857930  0.17158490  0.75041072  1
  Mn3.34+  Mn176  1  0.91663895  0.16935933  0.58747143  1
  Mn3.34+  Mn177  1  0.08330748  0.66119835  0.41861717  1
  Mn3.34+  Mn178  1  0.90923035  0.16035787  0.91282334  1
  Mn3.34+  Mn179  1  0.57413634  0.16895427  0.58722301  1
  Mn3.34+  Mn180  1  0.24644665  0.00432765  0.24023897  1
  Mn3.34+  Mn181  1  0.73891477  -0.00129641  0.41248528  1
  Mn3.34+  Mn182  1  0.40697296  0.49013372  0.08009020  1
  Mn3.34+  Mn183  1  0.07963713  0.49673692  0.75039337  1
  Mn3.34+  Mn184  1  0.26260088  0.00099148  0.91696140  1
  Mn3.34+  Mn185  1  0.40923092  0.49607302  0.75555494  1
  Mn3.34+  Mn186  1  0.24949248  0.50426034  0.24900290  1
  Mn3.34+  Mn187  1  0.41610773  0.00255901  0.41619693  1
  Mn3.34+  Mn188  1  0.73644563  0.00063567  0.75722688  1
  Mn3.34+  Mn189  1  0.74832196  0.00433106  0.75846730  1
  Mn3.34+  Mn190  1  0.40627025  0.00783942  0.41811221  1
  Mn3.34+  Mn191  1  0.42872437  -0.00714336  0.08832720  1
  Mn3.34+  Mn192  1  0.08329554  0.49411491  0.07114759  1
  Mn3.34+  Mn193  1  0.41893689  0.49718865  0.08239890  1
  Mn3.34+  Mn194  1  0.58303009  0.00056614  0.24781274  1
  Mn3.34+  Mn195  1  0.58268475  0.50186812  0.90642903  1
  Mn3.34+  Mn196  1  0.91609813  0.50697135  0.59196647  1
  Mn3.34+  Mn197  1  0.74287643  0.00487555  0.08395816  1
  Mn3.34+  Mn198  1  0.43002185  0.00837747  0.75380707  1
  Mn3.34+  Mn199  1  0.93182165  0.49861219  0.92412178  1
  Mn3.34+  Mn200  1  0.10531220  0.00286858  0.41606782  1
  Mn3.34+  Mn201  1  0.42197771  0.00126935  0.75662647  1
  Mn3.34+  Mn202  1  0.08020723  0.00272610  0.08464005  1
  Mn3.34+  Mn203  1  0.41652475  0.00002949  0.08858400  1
  Mn3.34+  Mn204  1  0.57312870  0.49527178  0.58902240  1
  Mn3.34+  Mn205  1  0.92494081  -0.00247596  0.25074179  1
  Mn3.34+  Mn206  1  0.90975002  0.00304312  0.24999450  1
  Mn3.34+  Mn207  1  0.73228056  -0.00005591  0.08118200  1
  Mn3.34+  Mn208  1  0.25205739  0.50271366  0.60373361  1
  Mn3.34+  Mn209  1  0.26001158  -0.00178638  0.24130867  1
  Mn3.34+  Mn210  1  0.57805149  0.00123609  0.57599029  1
  Mn3.34+  Mn211  1  0.75694337  0.50074365  0.74366147  1
  Mn3.34+  Mn212  1  0.09630544  -0.00083617  0.08333929  1
  Mn3.34+  Mn213  1  0.57148543  0.49734607  0.90583574  1
  Mn3.34+  Mn214  1  0.57906084  0.00117589  0.91234514  1
  Mn3.34+  Mn215  1  0.58216821  0.50127449  0.58721682  1
  O2-  O216  1  -0.00189000  0.15055553  -0.00262098  1
  O2-  O217  1  -0.00231774  0.15551038  0.33457821  1
  O2-  O218  1  0.00223486  0.15210538  0.66640943  1
  O2-  O219  1  -0.00743642  0.64622890  0.01013771  1
  O2-  O220  1  -0.00151720  0.66468984  0.33458917  1
  O2-  O221  1  0.00086459  0.65658477  0.66712778  1
  O2-  O222  1  0.32575010  0.17500910  -0.01106092  1
  O2-  O223  1  0.33875082  0.16502128  0.33152856  1
  O2-  O224  1  0.32508682  0.16018076  0.67003133  1
  O2-  O225  1  0.33509980  0.66025353  0.01175530  1
  O2-  O226  1  0.33710643  0.65158777  0.32785215  1
  O2-  O227  1  0.33120431  0.66242650  0.68765205  1
  O2-  O228  1  0.66293731  0.16557066  0.01816680  1
  O2-  O229  1  0.66862760  0.17374485  0.33624734  1
  O2-  O230  1  0.66578235  0.14694868  0.66245116  1
  O2-  O231  1  0.67302412  0.65660436  -0.00422107  1
  O2-  O232  1  0.67119291  0.65610359  0.33801325  1
  O2-  O233  1  0.65399359  0.65070042  0.67566506  1
  O2-  O234  1  0.15994285  0.16801196  -0.02203553  1
  O2-  O235  1  0.16643522  0.15750855  0.32810652  1
  O2-  O236  1  0.16438427  0.16040580  0.66466871  1
  O2-  O237  1  0.16268497  0.65789573  0.00569627  1
  O2-  O238  1  0.16290891  0.67325872  0.32801897  1
  O2-  O239  1  0.16758847  0.65558401  0.67271849  1
  O2-  O240  1  0.49838807  0.17296394  -0.00191442  1
  O2-  O241  1  0.50469236  0.16738439  0.33388431  1
  O2-  O242  1  0.49894264  0.17914495  0.66360755  1
  O2-  O243  1  0.50839793  0.65555584  0.01137268  1
  O2-  O244  1  0.50449473  0.65843307  0.33858701  1
  O2-  O245  1  0.49815948  0.66236416  0.65240714  1
  O2-  O246  1  0.82400322  0.14142931  -0.00325872  1
  O2-  O247  1  0.83625722  0.16510028  0.33950332  1
  O2-  O248  1  0.82492028  0.14412665  0.67056711  1
  O2-  O249  1  0.83333570  0.65548210  -0.00027752  1
  O2-  O250  1  0.83158345  0.65141580  0.33213810  1
  O2-  O251  1  0.82968603  0.66815581  0.65977227  1
  O2-  O252  1  0.00252314  0.33839768  -0.00251450  1
  O2-  O253  1  -0.00188593  0.33779459  0.33334368  1
  O2-  O254  1  0.00521170  0.34539519  0.66649657  1
  O2-  O255  1  -0.00050275  0.85580426  -0.00861267  1
  O2-  O256  1  0.00368146  0.84321633  0.33617085  1
  O2-  O257  1  0.00507694  0.85065928  0.66392625  1
  O2-  O258  1  0.33384604  0.33227925  -0.00374331  1
  O2-  O259  1  0.33069705  0.33118355  0.32954019  1
  O2-  O260  1  0.33489944  0.32654335  0.67262164  1
  O2-  O261  1  0.33097963  0.84385251  -0.00041691  1
  O2-  O262  1  0.33318265  0.81471321  0.33153826  1
  O2-  O263  1  0.32700852  0.85326647  0.67652812  1
  O2-  O264  1  0.66866971  0.34678596  -0.00068349  1
  O2-  O265  1  0.66881687  0.31898567  0.33060507  1
  O2-  O266  1  0.67435932  0.35071251  0.65669228  1
  O2-  O267  1  0.67332494  0.82994712  -0.00970090  1
  O2-  O268  1  0.66717666  0.84340327  0.33721186  1
  O2-  O269  1  0.66741901  0.84173610  0.66598271  1
  O2-  O270  1  0.17223642  0.32499897  -0.00118994  1
  O2-  O271  1  0.17190475  0.34580344  0.33519355  1
  O2-  O272  1  0.16520490  0.34613489  0.66575682  1
  O2-  O273  1  0.16700971  0.84843225  -0.00205673  1
  O2-  O274  1  0.16166209  0.81587482  0.32968368  1
  O2-  O275  1  0.16424477  0.84848136  0.66609616  1
  O2-  O276  1  0.50032204  0.35300569  0.00574539  1
  O2-  O277  1  0.50614948  0.33848856  0.33387306  1
  O2-  O278  1  0.50099299  0.31998580  0.67252668  1
  O2-  O279  1  0.49922821  0.83523026  -0.00421295  1
  O2-  O280  1  0.50135316  0.84450262  0.33827946  1
  O2-  O281  1  0.49400742  0.85030692  0.66408432  1
  O2-  O282  1  0.83389808  0.34467409  0.00024941  1
  O2-  O283  1  0.83642172  0.31226882  0.33387868  1
  O2-  O284  1  0.83488667  0.35039139  0.66589779  1
  O2-  O285  1  0.83385597  0.84824353  -0.00503009  1
  O2-  O286  1  0.83669230  0.85178386  0.33725731  1
  O2-  O287  1  0.83960940  0.84837290  0.67566251  1
  O2-  O288  1  -0.00062773  0.18409119  0.18184803  1
  O2-  O289  1  -0.01074838  0.17988180  0.49434239  1
  O2-  O290  1  0.00423729  0.18862866  0.83419149  1
  O2-  O291  1  -0.00050597  0.67677579  0.17031074  1
  O2-  O292  1  0.00445980  0.68622983  0.49443330  1
  O2-  O293  1  0.00273371  0.68149375  0.83097194  1
  O2-  O294  1  0.33881498  0.18707269  0.17365085  1
  O2-  O295  1  0.33619031  0.18141843  0.49552201  1
  O2-  O296  1  0.32790098  0.18587636  0.83309621  1
  O2-  O297  1  0.33212397  0.68760108  0.17308824  1
  O2-  O298  1  0.33148481  0.67063456  0.48993619  1
  O2-  O299  1  0.32145758  0.67476084  0.82424219  1
  O2-  O300  1  0.67416028  0.18544378  0.17549196  1
  O2-  O301  1  0.67374953  0.17590278  0.50140031  1
  O2-  O302  1  0.67056236  0.18499882  0.83849105  1
  O2-  O303  1  0.67068489  0.67225782  0.16438427  1
  O2-  O304  1  0.66768386  0.68139822  0.49703695  1
  O2-  O305  1  0.66553148  0.69369930  0.83568964  1
  O2-  O306  1  0.16426864  0.18409937  0.17603812  1
  O2-  O307  1  0.16771072  0.17509770  0.50153497  1
  O2-  O308  1  0.17037358  0.18882414  0.82169497  1
  O2-  O309  1  0.16517556  0.68800266  0.16631604  1
  O2-  O310  1  0.16568465  0.68261444  0.48271573  1
  O2-  O311  1  0.16394355  0.67666541  0.82764439  1
  O2-  O312  1  0.50874693  0.18683393  0.17484401  1
  O2-  O313  1  0.50707360  0.18163780  0.49575444  1
  O2-  O314  1  0.48313079  0.19121833  0.83017036  1
  O2-  O315  1  0.49383241  0.66913132  0.17330814  1
  O2-  O316  1  0.50468844  0.68224211  0.49572967  1
  O2-  O317  1  0.50274815  0.68480918  0.83405556  1
  O2-  O318  1  0.83720110  0.18238060  0.16688511  1
  O2-  O319  1  0.82993312  0.18462871  0.50447507  1
  O2-  O320  1  0.84125963  0.18173772  0.82423365  1
  O2-  O321  1  0.83722690  0.67355229  0.16700019  1
  O2-  O322  1  0.83917173  0.67834880  0.49462986  1
  O2-  O323  1  0.83333439  0.68761689  0.83136178  1
  O2-  O324  1  -0.00173050  0.32956552  0.17354531  1
  O2-  O325  1  0.00665323  0.32689938  0.50557603  1
  O2-  O326  1  -0.00119533  0.31289943  0.82998119  1
  O2-  O327  1  -0.00096628  0.83034620  0.15979601  1
  O2-  O328  1  -0.00846993  0.81871501  0.48920075  1
  O2-  O329  1  -0.00255935  0.82163320  0.82470076  1
  O2-  O330  1  0.33254806  0.30995851  0.16670899  1
  O2-  O331  1  0.32543057  0.33337322  0.49116082  1
  O2-  O332  1  0.33269661  0.31501756  0.83857143  1
  O2-  O333  1  0.32446948  0.81875299  0.15598569  1
  O2-  O334  1  0.33913775  0.82156516  0.51004773  1
  O2-  O335  1  0.34082819  0.82230041  0.84182640  1
  O2-  O336  1  0.66265688  0.31511859  0.16240313  1
  O2-  O337  1  0.67080094  0.31964351  0.49091834  1
  O2-  O338  1  0.66578215  0.31946324  0.83328471  1
  O2-  O339  1  0.67293041  0.81712562  0.17610029  1
  O2-  O340  1  0.66998028  0.82042272  0.49649639  1
  O2-  O341  1  0.66099785  0.81356186  0.82465633  1
  O2-  O342  1  0.16815673  0.31702877  0.16775562  1
  O2-  O343  1  0.16388253  0.32919850  0.50495513  1
  O2-  O344  1  0.17150710  0.31222839  0.83286507  1
  O2-  O345  1  0.16879400  0.81823656  0.16701726  1
  O2-  O346  1  0.16434695  0.81451045  0.50415338  1
  O2-  O347  1  0.16253246  0.82050163  0.83412518  1
  O2-  O348  1  0.50482889  0.32182085  0.16994837  1
  O2-  O349  1  0.49762656  0.32403142  0.50334150  1
  O2-  O350  1  0.49233001  0.32049114  0.83981042  1
  O2-  O351  1  0.49852202  0.81829459  0.17071992  1
  O2-  O352  1  0.49307138  0.83837018  0.50190353  1
  O2-  O353  1  0.50598134  0.82072687  0.82529790  1
  O2-  O354  1  0.83373049  0.31872795  0.17079925  1
  O2-  O355  1  0.83086822  0.32110631  0.49739324  1
  O2-  O356  1  0.83345649  0.32361530  0.83191136  1
  O2-  O357  1  0.83804470  0.83272290  0.15274708  1
  O2-  O358  1  0.83384351  0.82292111  0.50009998  1
  O2-  O359  1  0.82851145  0.81210097  0.83447452  1
  O2-  O360  1  0.06893872  0.08379392  0.10976793  1
  O2-  O361  1  0.06356956  0.08191895  0.45584862  1
  O2-  O362  1  0.09700072  0.08420229  0.78502578  1
  O2-  O363  1  0.08805573  0.57319670  0.12733937  1
  O2-  O364  1  0.09103210  0.58472799  0.42248983  1
  O2-  O365  1  0.08889772  0.57742401  0.77795570  1
  O2-  O366  1  0.43032023  0.07899239  0.11176838  1
  O2-  O367  1  0.43008298  0.08831262  0.43757909  1
  O2-  O368  1  0.38382472  0.08056823  0.78680929  1
  O2-  O369  1  0.40562944  0.57650397  0.12476048  1
  O2-  O370  1  0.43573964  0.58256486  0.42123318  1
  O2-  O371  1  0.42040194  0.57167158  0.79589648  1
  O2-  O372  1  0.74722798  0.08432201  0.12277778  1
  O2-  O373  1  0.76837443  0.08279635  0.43947674  1
  O2-  O374  1  0.75237813  0.08420551  0.79752295  1
  O2-  O375  1  0.75202001  0.58028796  0.09969346  1
  O2-  O376  1  0.73618192  0.58121556  0.43687928  1
  O2-  O377  1  0.74151117  0.57748454  0.80598711  1
  O2-  O378  1  0.25189063  0.08569592  0.21829942  1
  O2-  O379  1  0.24348701  0.07890666  0.57896609  1
  O2-  O380  1  0.23641436  0.08335701  0.88001147  1
  O2-  O381  1  0.24716660  0.57511852  0.19456135  1
  O2-  O382  1  0.25264987  0.56977644  0.55889142  1
  O2-  O383  1  0.25528192  0.58224806  0.90046793  1
  O2-  O384  1  0.57946098  0.08218770  0.21866798  1
  O2-  O385  1  0.60299802  0.08166219  0.54321861  1
  O2-  O386  1  0.56914210  0.07943378  0.89616495  1
  O2-  O387  1  0.57045986  0.57078154  0.23675607  1
  O2-  O388  1  0.58018215  0.58018814  0.54049159  1
  O2-  O389  1  0.58401441  0.58480382  0.87450310  1
  O2-  O390  1  0.92312452  0.08445663  0.22524789  1
  O2-  O391  1  0.89567042  0.08131624  0.55638763  1
  O2-  O392  1  0.94305605  0.08083501  0.88105013  1
  O2-  O393  1  0.92254950  0.58125636  0.23424990  1
  O2-  O394  1  0.92064535  0.58007437  0.54216486  1
  O2-  O395  1  0.90180284  0.58085311  0.89121831  1
  O2-  O396  1  0.08862790  0.42307633  0.12059173  1
  O2-  O397  1  0.09558347  0.41914636  0.44005477  1
  O2-  O398  1  0.08843072  0.42031734  0.78565050  1
  O2-  O399  1  0.10928327  0.91928383  0.11732578  1
  O2-  O400  1  0.06593625  0.92305713  0.45288515  1
  O2-  O401  1  0.08027663  0.91631206  0.77408479  1
  O2-  O402  1  0.41914171  0.41610709  0.12925643  1
  O2-  O403  1  0.39843527  0.41816777  0.41177057  1
  O2-  O404  1  0.39934621  0.41738526  0.78010861  1
  O2-  O405  1  0.40210050  0.91316365  0.11243529  1
  O2-  O406  1  0.40603703  0.91958074  0.43971705  1
  O2-  O407  1  0.43919822  0.91970485  0.79004485  1
  O2-  O408  1  0.73715143  0.41701110  0.11540995  1
  O2-  O409  1  0.75289943  0.41428030  0.42341360  1
  O2-  O410  1  0.75592407  0.42459763  0.79232935  1
  O2-  O411  1  0.73907694  0.91716653  0.10789353  1
  O2-  O412  1  0.76057292  0.91722534  0.44428928  1
  O2-  O413  1  0.72632742  0.91746678  0.77975053  1
  O2-  O414  1  0.26932410  0.42427959  0.24301665  1
  O2-  O415  1  0.23956557  0.43452095  0.53943676  1
  O2-  O416  1  0.26093392  0.41473106  0.89145835  1
  O2-  O417  1  0.24462977  0.91611303  0.22356939  1
  O2-  O418  1  0.25643176  0.91657261  0.56420120  1
  O2-  O419  1  0.24753208  0.91880295  0.88275597  1
  O2-  O420  1  0.59367956  0.41511978  0.23800529  1
  O2-  O421  1  0.59591938  0.42025015  0.54007882  1
  O2-  O422  1  0.57446003  0.41675871  0.88458700  1
  O2-  O423  1  0.59868849  0.91968446  0.23484926  1
  O2-  O424  1  0.59626370  0.91749380  0.55384184  1
  O2-  O425  1  0.59011924  0.91969333  0.88256246  1
  O2-  O426  1  0.90195494  0.41694302  0.24933658  1
  O2-  O427  1  0.92537608  0.42803214  0.53982590  1
  O2-  O428  1  0.91983876  0.42125238  0.88489151  1
  O2-  O429  1  0.91795095  0.91760009  0.22082546  1
  O2-  O430  1  0.90971113  0.91664791  0.56191208  1
  O2-  O431  1  0.90301746  0.91739768  0.86844401  1
  O2-  O432  1  0.00003360  -0.01844616  0.00573083  1
  O2-  O433  1  -0.00669097  0.00907802  0.34738508  1
  O2-  O434  1  0.00343143  -0.00260709  0.66966402  1
  O2-  O435  1  -0.01426793  0.51357491  0.02588850  1
  O2-  O436  1  -0.00969694  0.49782557  0.33968156  1
  O2-  O437  1  -0.00041073  0.47868070  0.66383974  1
  O2-  O438  1  0.31994273  -0.01452954  0.01950199  1
  O2-  O439  1  0.32304316  0.00686900  0.33691562  1
  O2-  O440  1  0.33020779  -0.01014798  0.68736527  1
  O2-  O441  1  0.33694846  0.50630474  -0.00549165  1
  O2-  O442  1  0.33986300  0.51396343  0.31281711  1
  O2-  O443  1  0.30702569  0.50136054  0.70050763  1
  O2-  O444  1  0.68623298  0.00385749  -0.02915157  1
  O2-  O445  1  0.67751165  0.01614800  0.31440197  1
  O2-  O446  1  0.68300217  0.00467796  0.65018356  1
  O2-  O447  1  0.67161620  0.50754434  -0.01830759  1
  O2-  O448  1  0.67255358  0.50467185  0.33429493  1
  O2-  O449  1  0.66469875  0.51071150  0.66930571  1
  O2-  O450  1  0.15315294  0.00920588  -0.02109267  1
  O2-  O451  1  0.14401633  0.00347808  0.29794250  1
  O2-  O452  1  0.17020988  0.00917754  0.68109990  1
  O2-  O453  1  0.17042963  0.50514498  0.01236014  1
  O2-  O454  1  0.17141914  0.49472599  0.32592004  1
  O2-  O455  1  0.15767273  0.48038719  0.65860685  1
  O2-  O456  1  0.49577443  -0.00788672  -0.00705301  1
  O2-  O457  1  0.51180160  0.00274979  0.34720846  1
  O2-  O458  1  0.50794363  -0.01604434  0.67068166  1
  O2-  O459  1  0.50595679  0.49751402  0.00380985  1
  O2-  O460  1  0.50934946  0.50374025  0.34425872  1
  O2-  O461  1  0.49880589  0.51245923  0.67886910  1
  O2-  O462  1  0.84650890  -0.00881145  0.03116800  1
  O2-  O463  1  0.84320963  0.00175393  0.34669770  1
  O2-  O464  1  0.84562222  -0.00017170  0.69376058  1
  O2-  O465  1  0.83024161  0.49608809  -0.02360256  1
  O2-  O466  1  0.82205943  0.50659005  0.32782262  1
  O2-  O467  1  0.83183606  0.47965917  0.66004379  1
  O2-  O468  1  0.25144177  0.75246170  0.60579137  1
  O2-  O469  1  0.42948114  0.74841868  0.40398225  1
  O2-  O470  1  0.40976316  0.75437243  0.72624022  1
  O2-  O471  1  0.91358183  0.74908133  0.26539461  1
  O2-  O472  1  0.07261867  0.25715035  0.07327774  1
  O2-  O473  1  0.41691840  0.25259901  0.40309872  1
  O2-  O474  1  0.59982302  0.25052279  0.59496885  1
  O2-  O475  1  0.42564467  0.25505445  0.06644614  1
  O2-  O476  1  0.58885284  0.74954723  0.60085553  1
  O2-  O477  1  0.06815801  0.74452342  0.05598258  1
  O2-  O478  1  0.91999537  0.25096214  0.60914283  1
  O2-  O479  1  0.24646394  0.24688257  0.58880220  1
  O2-  O480  1  0.75724621  0.74951577  0.39499173  1
  O2-  O481  1  0.58287678  0.75468425  0.26602785  1
  O2-  O482  1  0.41935129  0.74764929  0.06075557  1
  O2-  O483  1  0.91689493  0.74959983  0.60607488  1
  O2-  O484  1  0.08975104  0.25076167  0.40146623  1
  O2-  O485  1  0.75972061  0.74824660  0.06760179  1
  O2-  O486  1  0.75586503  0.25276438  0.71953091  1
  O2-  O487  1  0.76311913  0.25186412  0.06177733  1
  O2-  O488  1  0.24652215  0.75389502  0.93485350  1
  O2-  O489  1  0.90352584  0.24657644  0.94361490  1
  O2-  O490  1  0.92171139  0.75094259  0.94478779  1
  O2-  O491  1  0.58306983  0.25656702  0.93497840  1
  O2-  O492  1  0.08114399  0.74746397  0.72566494  1
