# generated using pymatgen
data_Ca108Mn108O277
_symmetry_space_group_name_H-M   'P 1'
_cell_length_a   16.03092856
_cell_length_b   22.31016029
_cell_length_c   16.39296104
_cell_angle_alpha   89.99773585
_cell_angle_beta   89.99543226
_cell_angle_gamma   90.01158775
_symmetry_Int_Tables_number   1
_chemical_formula_structural   Ca108Mn108O277
_chemical_formula_sum   'Ca108 Mn108 O277'
_cell_volume   5862.98476506
_cell_formula_units_Z   1
loop_
 _symmetry_equiv_pos_site_id
 _symmetry_equiv_pos_as_xyz
  1  'x, y, z'
loop_
 _atom_type_symbol
 _atom_type_oxidation_number
  Ca2+  2.0
  Mn3.34+  3.34
  O2-  -2.0
loop_
 _atom_site_type_symbol
 _atom_site_label
 _atom_site_symmetry_multiplicity
 _atom_site_fract_x
 _atom_site_fract_y
 _atom_site_fract_z
 _atom_site_occupancy
  Ca2+  Ca0  1  0.07485371  0.24624326  0.23838986  1
  Ca2+  Ca1  1  0.08069945  0.26387561  0.58927709  1
  Ca2+  Ca2  1  0.07910210  0.24302528  0.92085828  1
  Ca2+  Ca3  1  0.07415225  0.76189968  0.25153591  1
  Ca2+  Ca4  1  0.06671261  0.75872819  0.58109694  1
  Ca2+  Ca5  1  0.06678488  0.74710517  0.92819846  1
  Ca2+  Ca6  1  0.41247813  0.24336699  0.25854363  1
  Ca2+  Ca7  1  0.42169281  0.25026113  0.55977488  1
  Ca2+  Ca8  1  0.40257587  0.24734310  0.92580399  1
  Ca2+  Ca9  1  0.40117875  0.74999699  0.24431143  1
  Ca2+  Ca10  1  0.43510730  0.75717809  0.59330101  1
  Ca2+  Ca11  1  0.42223081  0.76001597  0.90568237  1
  Ca2+  Ca12  1  0.75544753  0.25752063  0.24746056  1
  Ca2+  Ca13  1  0.74864399  0.26103328  0.57543975  1
  Ca2+  Ca14  1  0.75798579  0.25582961  0.92494322  1
  Ca2+  Ca15  1  0.76854748  0.75463651  0.24108969  1
  Ca2+  Ca16  1  0.74663019  0.73174975  0.59383731  1
  Ca2+  Ca17  1  0.76093170  0.74593629  0.92161513  1
  Ca2+  Ca18  1  0.24815710  0.25421714  0.08574017  1
  Ca2+  Ca19  1  0.26902748  0.24499025  0.42000193  1
  Ca2+  Ca20  1  0.23124115  0.24631202  0.75002297  1
  Ca2+  Ca21  1  0.23419948  0.74355678  0.08886039  1
  Ca2+  Ca22  1  0.23501769  0.75110734  0.41061147  1
  Ca2+  Ca23  1  0.25050755  0.75521321  0.75010442  1
  Ca2+  Ca24  1  0.58390039  0.23478780  0.09224667  1
  Ca2+  Ca25  1  0.57296937  0.23867786  0.41647714  1
  Ca2+  Ca26  1  0.58711393  0.25445662  0.74569696  1
  Ca2+  Ca27  1  0.61029973  0.76295217  0.07674720  1
  Ca2+  Ca28  1  0.59354712  0.74291210  0.45188482  1
  Ca2+  Ca29  1  0.60018640  0.74222322  0.73369633  1
  Ca2+  Ca30  1  0.91270939  0.24808640  0.08340592  1
  Ca2+  Ca31  1  0.90927510  0.26159159  0.41189457  1
  Ca2+  Ca32  1  0.92633516  0.25882692  0.75364691  1
  Ca2+  Ca33  1  0.89783038  0.75129558  0.07814330  1
  Ca2+  Ca34  1  0.91077912  0.75900626  0.41616729  1
  Ca2+  Ca35  1  0.88809876  0.74068851  0.74627182  1
  Ca2+  Ca36  1  0.27087079  0.10734307  0.41527912  1
  Ca2+  Ca37  1  0.09230296  0.61496037  0.22980155  1
  Ca2+  Ca38  1  0.10023238  0.61932190  0.22664528  1
  Ca2+  Ca39  1  0.61115337  0.59689437  0.43867609  1
  Ca2+  Ca40  1  0.43526947  0.09087649  0.95548104  1
  Ca2+  Ca41  1  0.08141145  0.60076751  0.93836853  1
  Ca2+  Ca42  1  0.26415994  0.10219823  0.41139459  1
  Ca2+  Ca43  1  0.77257222  0.58858016  0.27007942  1
  Ca2+  Ca44  1  0.92204511  0.09589129  0.08010866  1
  Ca2+  Ca45  1  0.91370817  0.61237032  0.08236798  1
  Ca2+  Ca46  1  0.58152969  0.07617146  0.76522612  1
  Ca2+  Ca47  1  0.07658932  0.09291889  0.90955532  1
  Ca2+  Ca48  1  0.26195334  0.57943603  0.75811470  1
  Ca2+  Ca49  1  0.78126785  0.59228760  0.27443794  1
  Ca2+  Ca50  1  0.23843464  0.08909158  0.75049315  1
  Ca2+  Ca51  1  0.40003248  0.10514697  0.56856960  1
  Ca2+  Ca52  1  0.73407544  0.08628876  0.24129341  1
  Ca2+  Ca53  1  0.22904789  0.60591263  0.07653885  1
  Ca2+  Ca54  1  0.41091168  0.10338210  0.56927342  1
  Ca2+  Ca55  1  0.58471874  0.07390806  0.75405469  1
  Ca2+  Ca56  1  0.42278353  0.10669466  0.23606549  1
  Ca2+  Ca57  1  0.24527508  0.11954587  0.09476468  1
  Ca2+  Ca58  1  0.72391490  0.08287060  0.23815313  1
  Ca2+  Ca59  1  0.10941297  0.08229904  0.59855569  1
  Ca2+  Ca60  1  0.44501410  0.60199034  0.58610723  1
  Ca2+  Ca61  1  0.73094711  0.07636537  0.94976621  1
  Ca2+  Ca62  1  0.56652442  0.08621726  0.40514808  1
  Ca2+  Ca63  1  0.25534084  0.12040078  0.09745456  1
  Ca2+  Ca64  1  0.41386074  0.11006839  0.23298972  1
  Ca2+  Ca65  1  0.11219387  0.08583781  0.60726589  1
  Ca2+  Ca66  1  0.60892483  0.59203287  0.07962706  1
  Ca2+  Ca67  1  0.09016870  0.11167226  0.23253247  1
  Ca2+  Ca68  1  0.91169987  0.09476604  0.08132452  1
  Ca2+  Ca69  1  0.43453745  0.60113488  0.58638054  1
  Ca2+  Ca70  1  0.62080278  0.59304793  0.08455193  1
  Ca2+  Ca71  1  0.61870184  0.59678429  0.73497501  1
  Ca2+  Ca72  1  0.08904938  0.90811483  0.58133018  1
  Ca2+  Ca73  1  0.25425375  0.89554607  0.07928372  1
  Ca2+  Ca74  1  0.07004157  0.90519386  0.90006382  1
  Ca2+  Ca75  1  0.24802347  0.41438651  0.06532665  1
  Ca2+  Ca76  1  0.40008153  0.40360674  0.24481835  1
  Ca2+  Ca77  1  0.57739542  0.90650970  0.41181071  1
  Ca2+  Ca78  1  0.25014831  0.41038902  0.74672287  1
  Ca2+  Ca79  1  0.42599679  0.91115130  0.25598696  1
  Ca2+  Ca80  1  0.58995525  0.90691100  0.41241762  1
  Ca2+  Ca81  1  0.24237191  0.90382384  0.74662247  1
  Ca2+  Ca82  1  0.42945209  0.91434357  0.92069241  1
  Ca2+  Ca83  1  0.91468885  0.39591890  0.08478510  1
  Ca2+  Ca84  1  0.60230122  0.41086627  0.75204931  1
  Ca2+  Ca85  1  0.08247059  0.90370895  0.90293270  1
  Ca2+  Ca86  1  0.76339777  0.90908347  0.24038009  1
  Ca2+  Ca87  1  0.22673169  0.40309364  0.42880022  1
  Ca2+  Ca88  1  0.76022078  0.41527660  0.58968109  1
  Ca2+  Ca89  1  0.59594470  0.90571531  0.76036842  1
  Ca2+  Ca90  1  0.23974551  0.41085180  0.74455847  1
  Ca2+  Ca91  1  0.41630246  0.90727815  0.25788991  1
  Ca2+  Ca92  1  0.58638810  0.40485935  0.07123636  1
  Ca2+  Ca93  1  0.40662460  0.41610575  0.59334631  1
  Ca2+  Ca94  1  0.60876503  0.40647754  0.43100704  1
  Ca2+  Ca95  1  0.58595259  0.90864016  0.75766853  1
  Ca2+  Ca96  1  0.23878785  0.40513175  0.42648052  1
  Ca2+  Ca97  1  0.41268704  0.40309829  0.24618705  1
  Ca2+  Ca98  1  0.41578133  0.41679956  0.92521523  1
  Ca2+  Ca99  1  0.60378478  0.93081301  0.06144541  1
  Ca2+  Ca100  1  0.07934104  0.39812017  0.91871810  1
  Ca2+  Ca101  1  0.23404644  0.90246177  0.42248766  1
  Ca2+  Ca102  1  0.60438934  0.40546872  0.42166588  1
  Ca2+  Ca103  1  0.90015415  0.42027589  0.40446166  1
  Ca2+  Ca104  1  0.40396038  0.41394064  0.92274565  1
  Ca2+  Ca105  1  0.75556655  0.89733275  0.58419792  1
  Ca2+  Ca106  1  0.61186098  0.41365696  0.75432784  1
  Ca2+  Ca107  1  0.59553312  0.40215424  0.07496939  1
  Mn3.34+  Mn108  1  0.08165571  0.32815365  0.08693814  1
  Mn3.34+  Mn109  1  0.07330621  0.33218985  0.41761104  1
  Mn3.34+  Mn110  1  0.07586734  0.33304469  0.75117648  1
  Mn3.34+  Mn111  1  0.07921497  0.82949020  0.08671181  1
  Mn3.34+  Mn112  1  0.07482487  0.84052148  0.41566682  1
  Mn3.34+  Mn113  1  0.07796750  0.83495874  0.74416838  1
  Mn3.34+  Mn114  1  0.41570258  0.32349577  0.08771426  1
  Mn3.34+  Mn115  1  0.41687160  0.33578410  0.42032569  1
  Mn3.34+  Mn116  1  0.42074900  0.33172973  0.75153754  1
  Mn3.34+  Mn117  1  0.42182813  0.83148833  0.08152145  1
  Mn3.34+  Mn118  1  0.41319931  0.82167628  0.41810242  1
  Mn3.34+  Mn119  1  0.41484150  0.83462995  0.74979659  1
  Mn3.34+  Mn120  1  0.75222198  0.32980093  0.08325217  1
  Mn3.34+  Mn121  1  0.75568048  0.33303413  0.41506374  1
  Mn3.34+  Mn122  1  0.76159701  0.33682427  0.75297898  1
  Mn3.34+  Mn123  1  0.75668578  0.84328946  0.07983915  1
  Mn3.34+  Mn124  1  0.75668908  0.83125856  0.41568321  1
  Mn3.34+  Mn125  1  0.75527071  0.83288546  0.75398006  1
  Mn3.34+  Mn126  1  0.23877719  0.33302081  0.24529033  1
  Mn3.34+  Mn127  1  0.24921449  0.33654430  0.58294444  1
  Mn3.34+  Mn128  1  0.24818090  0.33084565  0.91361844  1
  Mn3.34+  Mn129  1  0.24370140  0.83203766  0.24593022  1
  Mn3.34+  Mn130  1  0.25252038  0.82966882  0.57996359  1
  Mn3.34+  Mn131  1  0.25081253  0.82937593  0.91552256  1
  Mn3.34+  Mn132  1  0.58848372  0.33054927  0.25051297  1
  Mn3.34+  Mn133  1  0.58497663  0.33173757  0.58661720  1
  Mn3.34+  Mn134  1  0.58390749  0.32597303  0.91189456  1
  Mn3.34+  Mn135  1  0.58699603  0.83539722  0.24401713  1
  Mn3.34+  Mn136  1  0.58243200  0.83625749  0.58266784  1
  Mn3.34+  Mn137  1  0.58854764  0.83993652  0.91895754  1
  Mn3.34+  Mn138  1  0.91814494  0.33485030  0.24979263  1
  Mn3.34+  Mn139  1  0.92037412  0.34441838  0.58432451  1
  Mn3.34+  Mn140  1  0.91414190  0.33057826  0.91564629  1
  Mn3.34+  Mn141  1  0.92206996  0.84142633  0.24585030  1
  Mn3.34+  Mn142  1  0.91410961  0.83057056  0.58482479  1
  Mn3.34+  Mn143  1  0.90899055  0.83671252  0.91372684  1
  Mn3.34+  Mn144  1  0.08295603  0.66018725  0.42498195  1
  Mn3.34+  Mn145  1  0.58052414  0.66821608  0.91192731  1
  Mn3.34+  Mn146  1  0.41050558  0.66094399  0.08151607  1
  Mn3.34+  Mn147  1  0.08173376  0.66691878  0.74819225  1
  Mn3.34+  Mn148  1  0.58168555  0.16640526  0.92270666  1
  Mn3.34+  Mn149  1  0.76115159  0.66712667  0.42562506  1
  Mn3.34+  Mn150  1  0.74988711  0.16661838  0.41633561  1
  Mn3.34+  Mn151  1  0.41608254  0.67037026  0.75511970  1
  Mn3.34+  Mn152  1  0.24249621  0.64599350  0.57373515  1
  Mn3.34+  Mn153  1  0.90327210  0.15953555  0.57980502  1
  Mn3.34+  Mn154  1  0.90791843  0.66839389  0.91591879  1
  Mn3.34+  Mn155  1  0.07188972  0.66400030  0.42395172  1
  Mn3.34+  Mn156  1  0.75508588  0.16103107  0.75516511  1
  Mn3.34+  Mn157  1  0.07127329  0.66208579  0.75012797  1
  Mn3.34+  Mn158  1  0.58854080  0.16304108  0.57723869  1
  Mn3.34+  Mn159  1  0.07940844  0.16335093  0.75257614  1
  Mn3.34+  Mn160  1  0.91022006  0.65942298  0.58391619  1
  Mn3.34+  Mn161  1  0.59130910  0.66395249  0.91064386  1
  Mn3.34+  Mn162  1  0.58360489  0.16762412  0.25087081  1
  Mn3.34+  Mn163  1  0.24640090  0.16602481  0.91547817  1
  Mn3.34+  Mn164  1  0.41048735  0.67847633  0.41766290  1
  Mn3.34+  Mn165  1  0.57275225  0.67367162  0.25434942  1
  Mn3.34+  Mn166  1  0.41103832  0.16409414  0.75691376  1
  Mn3.34+  Mn167  1  0.74494834  0.16649330  0.75305131  1
  Mn3.34+  Mn168  1  0.91922059  0.67315902  0.24965308  1
  Mn3.34+  Mn169  1  0.91592486  0.16357734  0.91164186  1
  Mn3.34+  Mn170  1  0.91604470  0.16557730  0.58353222  1
  Mn3.34+  Mn171  1  0.74747624  0.16677496  0.08316702  1
  Mn3.34+  Mn172  1  0.08226894  0.16716240  0.41806640  1
  Mn3.34+  Mn173  1  0.24910809  0.66224377  0.90828065  1
  Mn3.34+  Mn174  1  0.42034088  0.66645298  0.07986092  1
  Mn3.34+  Mn175  1  0.58608568  0.67997053  0.25391933  1
  Mn3.34+  Mn176  1  0.42144713  0.16929374  0.75426834  1
  Mn3.34+  Mn177  1  0.91132880  0.16451779  0.25014037  1
  Mn3.34+  Mn178  1  0.24833610  0.65323091  0.57723385  1
  Mn3.34+  Mn179  1  0.07049492  0.16044488  0.41989497  1
  Mn3.34+  Mn180  1  0.41538806  -0.00642399  0.41349067  1
  Mn3.34+  Mn181  1  0.20451787  -0.00756867  0.26990462  1
  Mn3.34+  Mn182  1  0.90475779  0.00064194  0.92257148  1
  Mn3.34+  Mn183  1  0.93862957  -0.00050277  0.26884467  1
  Mn3.34+  Mn184  1  0.08154730  0.49885523  0.41710958  1
  Mn3.34+  Mn185  1  0.40286823  0.00066942  0.75169903  1
  Mn3.34+  Mn186  1  0.59085643  0.00113309  0.59446012  1
  Mn3.34+  Mn187  1  0.90973158  0.00151897  0.58326419  1
  Mn3.34+  Mn188  1  0.41094736  0.50205896  0.41521623  1
  Mn3.34+  Mn189  1  0.08644746  -0.00202380  0.09350496  1
  Mn3.34+  Mn190  1  0.60236964  0.49690446  0.92183628  1
  Mn3.34+  Mn191  1  0.59596779  0.50311235  0.59530654  1
  Mn3.34+  Mn192  1  0.06915161  0.50088655  0.08562079  1
  Mn3.34+  Mn193  1  0.42579514  0.50318504  0.74863759  1
  Mn3.34+  Mn194  1  0.26671861  -0.00597156  0.59312416  1
  Mn3.34+  Mn195  1  0.76408181  0.49259807  0.09720516  1
  Mn3.34+  Mn196  1  0.39738322  0.50838611  0.41179836  1
  Mn3.34+  Mn197  1  0.89637010  0.50848453  0.58908107  1
  Mn3.34+  Mn198  1  0.07305424  0.50562694  0.73470130  1
  Mn3.34+  Mn199  1  0.24838299  0.00152617  0.91765909  1
  Mn3.34+  Mn200  1  0.90747330  0.50303613  0.90698408  1
  Mn3.34+  Mn201  1  0.58852565  0.50328420  0.25770197  1
  Mn3.34+  Mn202  1  0.76918025  0.00017494  0.41780694  1
  Mn3.34+  Mn203  1  0.41062220  0.50124501  0.07979297  1
  Mn3.34+  Mn204  1  0.41622204  -0.00396215  0.07499281  1
  Mn3.34+  Mn205  1  0.89840433  0.49765694  0.90943805  1
  Mn3.34+  Mn206  1  0.21595074  -0.00724409  0.26541567  1
  Mn3.34+  Mn207  1  0.06338096  0.50006297  0.73667645  1
  Mn3.34+  Mn208  1  0.76972233  -0.00363345  0.75865582  1
  Mn3.34+  Mn209  1  0.60080615  0.49916860  0.25933239  1
  Mn3.34+  Mn210  1  0.23317303  0.49496207  0.25575012  1
  Mn3.34+  Mn211  1  0.75781803  0.00714485  0.42059592  1
  Mn3.34+  Mn212  1  0.91900454  -0.00409221  0.58479979  1
  Mn3.34+  Mn213  1  0.92208988  0.49629633  0.25369948  1
  Mn3.34+  Mn214  1  0.08381327  0.49529969  0.08724986  1
  Mn3.34+  Mn215  1  0.07362715  -0.00963702  0.09141364  1
  O2-  O216  1  -0.00583316  0.15480863  -0.00642318  1
  O2-  O217  1  -0.00107286  0.14858709  0.33139864  1
  O2-  O218  1  0.00268231  0.14443165  0.65916316  1
  O2-  O219  1  -0.00307152  0.66621677  -0.00440874  1
  O2-  O220  1  0.00525213  0.64891586  0.32794373  1
  O2-  O221  1  0.00259836  0.64665599  0.66298746  1
  O2-  O222  1  0.33132394  0.15954448  -0.00717031  1
  O2-  O223  1  0.33588218  0.15763063  0.32367753  1
  O2-  O224  1  0.33170200  0.15397105  0.67277386  1
  O2-  O225  1  0.32943826  0.65921951  -0.00617348  1
  O2-  O226  1  0.33658465  0.70684779  0.34257266  1
  O2-  O227  1  0.33503104  0.67110681  0.66475887  1
  O2-  O228  1  0.66491166  0.16743597  0.00066878  1
  O2-  O229  1  0.66352726  0.14548717  0.33879124  1
  O2-  O230  1  0.65924693  0.14335700  0.67575790  1
  O2-  O231  1  0.66569545  0.65924887  -0.00268524  1
  O2-  O232  1  0.66961857  0.65850395  0.32731876  1
  O2-  O233  1  0.67071996  0.66638642  0.66236413  1
  O2-  O234  1  0.16549376  0.15427484  -0.00793144  1
  O2-  O235  1  0.16734728  0.15561649  0.33935409  1
  O2-  O236  1  0.16619247  0.16045096  0.67252737  1
  O2-  O237  1  0.17128610  0.67859448  -0.01195979  1
  O2-  O238  1  0.16314225  0.66113152  0.34226389  1
  O2-  O239  1  0.17218320  0.64911884  0.67582676  1
  O2-  O240  1  0.50053169  0.19320095  -0.00766824  1
  O2-  O241  1  0.50143298  0.15585313  0.32805236  1
  O2-  O242  1  0.50008531  0.13853620  0.67188047  1
  O2-  O243  1  0.50835809  0.64447191  0.00838330  1
  O2-  O244  1  0.50369583  0.68862590  0.34215083  1
  O2-  O245  1  0.50212042  0.65534820  0.68194420  1
  O2-  O246  1  0.83073533  0.15096099  -0.00282877  1
  O2-  O247  1  0.81693427  0.14478240  0.31916954  1
  O2-  O248  1  0.82942601  0.14573139  0.66793181  1
  O2-  O249  1  0.83552457  0.66477471  -0.00212490  1
  O2-  O250  1  0.84166573  0.66428227  0.33703397  1
  O2-  O251  1  0.83517022  0.65975988  0.66040252  1
  O2-  O252  1  0.00158529  0.33419808  0.00198667  1
  O2-  O253  1  -0.00600245  0.34786848  0.33914917  1
  O2-  O254  1  0.00122479  0.33998307  0.66809759  1
  O2-  O255  1  0.01371821  0.84206902  -0.00890074  1
  O2-  O256  1  0.00399661  0.84193479  0.32732284  1
  O2-  O257  1  0.00582836  0.84846824  0.65713251  1
  O2-  O258  1  0.33607075  0.33880672  -0.00235725  1
  O2-  O259  1  0.32928890  0.34583704  0.33348228  1
  O2-  O260  1  0.33379955  0.34817864  0.66916026  1
  O2-  O261  1  0.33915018  0.84355014  -0.00679384  1
  O2-  O262  1  0.33538907  0.84032447  0.32525021  1
  O2-  O263  1  0.32941624  0.82655898  0.66948009  1
  O2-  O264  1  0.66272620  0.33330567  -0.00275117  1
  O2-  O265  1  0.66924470  0.34923597  0.33103812  1
  O2-  O266  1  0.67067878  0.34477779  0.66588841  1
  O2-  O267  1  0.66415192  0.84560334  0.00398489  1
  O2-  O268  1  0.66542698  0.85099531  0.33217980  1
  O2-  O269  1  0.66419520  0.85135538  0.66568812  1
  O2-  O270  1  0.16742930  0.34018423  0.00121264  1
  O2-  O271  1  0.17004871  0.33426969  0.34078410  1
  O2-  O272  1  0.17382204  0.33671655  0.67175457  1
  O2-  O273  1  0.17070546  0.81976802  0.00286900  1
  O2-  O274  1  0.17153038  0.83106577  0.33701282  1
  O2-  O275  1  0.16998111  0.83623831  0.66649819  1
  O2-  O276  1  0.50129176  0.34017903  0.00169887  1
  O2-  O277  1  0.50191269  0.36537768  0.34026186  1
  O2-  O278  1  0.50941604  0.35894068  0.67815795  1
  O2-  O279  1  0.50475095  0.85264933  0.00515628  1
  O2-  O280  1  0.50060333  0.82453872  0.32967379  1
  O2-  O281  1  0.50265497  0.85358411  0.67067837  1
  O2-  O282  1  0.83404388  0.34210324  0.00126709  1
  O2-  O283  1  0.83641831  0.34526729  0.33570915  1
  O2-  O284  1  0.83172770  0.34587630  0.66348630  1
  O2-  O285  1  0.83841204  0.84151324  0.00068201  1
  O2-  O286  1  0.83181824  0.84490583  0.32987499  1
  O2-  O287  1  0.83413576  0.84185001  0.66814988  1
  O2-  O288  1  -0.01006209  0.17615663  0.16870656  1
  O2-  O289  1  -0.00176008  0.18644028  0.50321112  1
  O2-  O290  1  -0.00100834  0.18091681  0.83458674  1
  O2-  O291  1  -0.00379088  0.67918606  0.17015846  1
  O2-  O292  1  -0.00164549  0.67955677  0.50411094  1
  O2-  O293  1  0.00013674  0.68152558  0.83523400  1
  O2-  O294  1  0.33994350  0.17779873  0.16501247  1
  O2-  O295  1  0.32912558  0.17289812  0.50045155  1
  O2-  O296  1  0.32751014  0.18875584  0.83096185  1
  O2-  O297  1  0.32884148  0.67869210  0.15717887  1
  O2-  O298  1  0.32936031  0.68763169  0.50450321  1
  O2-  O299  1  0.32822118  0.68832065  0.83116643  1
  O2-  O300  1  0.67727790  0.17863599  0.17744182  1
  O2-  O301  1  0.66710533  0.18597907  0.49926780  1
  O2-  O302  1  0.66139726  0.18884823  0.83497227  1
  O2-  O303  1  0.65349743  0.68052972  0.16242150  1
  O2-  O304  1  0.67689806  0.67234293  0.49650376  1
  O2-  O305  1  0.66333046  0.67586927  0.82644234  1
  O2-  O306  1  0.16761363  0.18407802  0.15858778  1
  O2-  O307  1  0.16229622  0.18322540  0.49816296  1
  O2-  O308  1  0.16251485  0.17922146  0.83425630  1
  O2-  O309  1  0.16133918  0.68726754  0.17085772  1
  O2-  O310  1  0.16063553  0.69178925  0.50835247  1
  O2-  O311  1  0.16363629  0.68562334  0.82924045  1
  O2-  O312  1  0.50080063  0.18114369  0.17591040  1
  O2-  O313  1  0.49855047  0.17419121  0.50896314  1
  O2-  O314  1  0.50321992  0.18454050  0.83297109  1
  O2-  O315  1  0.49506342  0.68832582  0.17153268  1
  O2-  O316  1  0.48863902  0.67932079  0.50471896  1
  O2-  O317  1  0.49366252  0.67852184  0.84334441  1
  O2-  O318  1  0.83704922  0.17544690  0.15919495  1
  O2-  O319  1  0.83510075  0.18870330  0.49399904  1
  O2-  O320  1  0.83019836  0.18508854  0.83566567  1
  O2-  O321  1  0.83024025  0.67101223  0.18086318  1
  O2-  O322  1  0.84028595  0.68599631  0.49892270  1
  O2-  O323  1  0.83108845  0.67950419  0.83916191  1
  O2-  O324  1  -0.00538027  0.31112458  0.16196422  1
  O2-  O325  1  -0.00320034  0.31907723  0.50013796  1
  O2-  O326  1  0.00792088  0.31838570  0.84413052  1
  O2-  O327  1  -0.00596813  0.81217958  0.15825278  1
  O2-  O328  1  -0.00328457  0.82354336  0.49915357  1
  O2-  O329  1  0.00775759  0.82701903  0.83594139  1
  O2-  O330  1  0.33384980  0.30971528  0.17430436  1
  O2-  O331  1  0.33083967  0.31606788  0.50076662  1
  O2-  O332  1  0.33248984  0.32035117  0.82954747  1
  O2-  O333  1  0.32957380  0.81582007  0.16243851  1
  O2-  O334  1  0.33003508  0.80819546  0.49558524  1
  O2-  O335  1  0.33017952  0.81651724  0.83171905  1
  O2-  O336  1  0.65710834  0.31897359  0.15201612  1
  O2-  O337  1  0.66048878  0.31969336  0.49030989  1
  O2-  O338  1  0.66205188  0.31878270  0.82559451  1
  O2-  O339  1  0.67214016  0.81942867  0.17499946  1
  O2-  O340  1  0.66218150  0.82839254  0.49323143  1
  O2-  O341  1  0.65546532  0.82319555  0.82497600  1
  O2-  O342  1  0.16233972  0.30814176  0.16556415  1
  O2-  O343  1  0.17124866  0.31531778  0.49825554  1
  O2-  O344  1  0.16958052  0.32478526  0.82991004  1
  O2-  O345  1  0.16437385  0.81129094  0.16653857  1
  O2-  O346  1  0.16482324  0.81816484  0.50248021  1
  O2-  O347  1  0.16484150  0.81618228  0.83649927  1
  O2-  O348  1  0.49428876  0.31877769  0.17807639  1
  O2-  O349  1  0.49998829  0.33683003  0.50433692  1
  O2-  O350  1  0.49569140  0.30727294  0.83985853  1
  O2-  O351  1  0.49960919  0.81298958  0.17130302  1
  O2-  O352  1  0.50289691  0.81981382  0.49460682  1
  O2-  O353  1  0.49754703  0.83400470  0.83499553  1
  O2-  O354  1  0.83405065  0.32225150  0.16323791  1
  O2-  O355  1  0.83220348  0.32264135  0.50005386  1
  O2-  O356  1  0.83624506  0.31383474  0.83296451  1
  O2-  O357  1  0.83356322  0.82768025  0.16947915  1
  O2-  O358  1  0.82546367  0.81575938  0.50668696  1
  O2-  O359  1  0.83173693  0.81697406  0.83508840  1
  O2-  O360  1  0.05941546  0.07726216  0.10938722  1
  O2-  O361  1  0.08426422  0.08385376  0.46682616  1
  O2-  O362  1  0.09477043  0.08191842  0.76593838  1
  O2-  O363  1  0.07543745  0.58339986  0.09506005  1
  O2-  O364  1  0.09228492  0.57991879  0.45157250  1
  O2-  O365  1  0.08320529  0.57938857  0.79518665  1
  O2-  O366  1  0.39049320  0.07368771  0.10524451  1
  O2-  O367  1  0.40077309  0.07273930  0.44217298  1
  O2-  O368  1  0.42700654  0.08243338  0.80562523  1
  O2-  O369  1  0.43231674  0.58150016  0.11473830  1
  O2-  O370  1  0.42039986  0.58813854  0.43579830  1
  O2-  O371  1  0.40259306  0.58434525  0.76050052  1
  O2-  O372  1  0.75727446  0.08471558  0.10907636  1
  O2-  O373  1  0.75050885  0.08406873  0.45471019  1
  O2-  O374  1  0.73575281  0.08107075  0.79835753  1
  O2-  O375  1  0.73425762  0.57062147  0.14369828  1
  O2-  O376  1  0.74856102  0.58554118  0.41030912  1
  O2-  O377  1  0.76062838  0.58137646  0.76166977  1
  O2-  O378  1  0.24062618  0.06857167  0.21272776  1
  O2-  O379  1  0.24747031  0.06954662  0.54260036  1
  O2-  O380  1  0.25464586  0.08217312  0.88595324  1
  O2-  O381  1  0.21377904  0.56740230  0.19848688  1
  O2-  O382  1  0.30569648  0.57188967  0.56812398  1
  O2-  O383  1  0.23098693  0.58494545  0.89533960  1
  O2-  O384  1  0.58479968  0.08417302  0.22665573  1
  O2-  O385  1  0.56724449  0.07948889  0.54638242  1
  O2-  O386  1  0.58088993  0.08219602  0.89361419  1
  O2-  O387  1  0.57861562  0.58418192  0.22172237  1
  O2-  O388  1  0.57075428  0.57849140  0.56156859  1
  O2-  O389  1  0.58445285  0.57983840  0.89290992  1
  O2-  O390  1  0.90999862  0.07693990  0.21660225  1
  O2-  O391  1  0.91662965  0.08063777  0.54329464  1
  O2-  O392  1  0.92288120  0.07895975  0.88559518  1
  O2-  O393  1  0.91716508  0.57905286  0.22192953  1
  O2-  O394  1  0.91060717  0.57768598  0.54520020  1
  O2-  O395  1  0.92492520  0.58376743  0.89171714  1
  O2-  O396  1  0.07760853  0.41549982  0.10431064  1
  O2-  O397  1  0.08984656  0.41575599  0.44713626  1
  O2-  O398  1  0.09335127  0.42135924  0.78223554  1
  O2-  O399  1  0.11164571  0.91317697  0.10119439  1
  O2-  O400  1  0.09641067  0.91695681  0.44089366  1
  O2-  O401  1  0.09838577  0.91640027  0.76972783  1
  O2-  O402  1  0.42416980  0.41752714  0.11523320  1
  O2-  O403  1  0.39041246  0.42224698  0.45042152  1
  O2-  O404  1  0.42923949  0.42272886  0.79065821  1
  O2-  O405  1  0.41042801  0.92003521  0.12078536  1
  O2-  O406  1  0.43574347  0.91194274  0.41268117  1
  O2-  O407  1  0.39263840  0.91776236  0.77997806  1
  O2-  O408  1  0.73189510  0.41064394  0.10303776  1
  O2-  O409  1  0.74646722  0.41374129  0.44620715  1
  O2-  O410  1  0.74308171  0.41531218  0.77596772  1
  O2-  O411  1  0.73542900  0.92205155  0.11094723  1
  O2-  O412  1  0.74786712  0.91951204  0.44649227  1
  O2-  O413  1  0.73516418  0.91597904  0.77919187  1
  O2-  O414  1  0.26752267  0.41777012  0.20187015  1
  O2-  O415  1  0.26092063  0.42220266  0.55611134  1
  O2-  O416  1  0.26402879  0.41587179  0.88421936  1
  O2-  O417  1  0.26153281  0.92110170  0.21374214  1
  O2-  O418  1  0.24607174  0.91927157  0.55700096  1
  O2-  O419  1  0.22446346  0.91987473  0.89524941  1
  O2-  O420  1  0.57319814  0.42324783  0.20798174  1
  O2-  O421  1  0.60615495  0.42337456  0.56018033  1
  O2-  O422  1  0.56413707  0.41758998  0.88249386  1
  O2-  O423  1  0.55976269  0.91806244  0.23434945  1
  O2-  O424  1  0.58945202  0.92246291  0.54455805  1
  O2-  O425  1  0.57692342  0.92181307  0.89335543  1
  O2-  O426  1  0.92468924  0.41921857  0.21731773  1
  O2-  O427  1  0.90010387  0.43605275  0.54167294  1
  O2-  O428  1  0.92574389  0.41608907  0.89431011  1
  O2-  O429  1  0.91665036  0.92387899  0.22516554  1
  O2-  O430  1  0.90685241  0.91636699  0.55332406  1
  O2-  O431  1  0.93299361  0.92295292  0.89199796  1
  O2-  O432  1  0.00471132  0.00275933  -0.00523301  1
  O2-  O433  1  0.06200686  0.00987002  0.26576638  1
  O2-  O434  1  0.03155074  0.00118209  0.61447947  1
  O2-  O435  1  0.01546949  0.49896381  -0.02333455  1
  O2-  O436  1  0.00480693  0.49973873  0.32970306  1
  O2-  O437  1  -0.01528890  0.49610289  0.65477624  1
  O2-  O438  1  0.34288783  -0.01093381  -0.01356404  1
  O2-  O439  1  0.33923340  -0.01050803  0.31527130  1
  O2-  O440  1  0.34537100  0.03486011  0.65593852  1
  O2-  O441  1  0.33787323  0.47794835  -0.00041791  1
  O2-  O442  1  0.34049224  0.48314481  0.31486923  1
  O2-  O443  1  0.33157737  0.48231190  0.70080869  1
  O2-  O444  1  0.66789605  0.00265693  0.00238404  1
  O2-  O445  1  0.65578153  -0.00182133  0.36067387  1
  O2-  O446  1  0.65392321  -0.00181380  0.70486698  1
  O2-  O447  1  0.65012086  0.50185650  0.03786558  1
  O2-  O448  1  0.64351218  0.49514178  0.36772744  1
  O2-  O449  1  0.64116926  0.49955545  0.70132627  1
  O2-  O450  1  0.16721087  0.00795913  0.00533465  1
  O2-  O451  1  0.19785636  0.02120926  0.37957929  1
  O2-  O452  1  0.18840996  0.00533306  0.66680203  1
  O2-  O453  1  0.17940973  0.50123975  0.02693247  1
  O2-  O454  1  0.18927623  0.48832399  0.36911409  1
  O2-  O455  1  0.18544502  0.50118907  0.70745491  1
  O2-  O456  1  0.49906511  -0.00030979  0.00881766  1
  O2-  O457  1  0.49888924  0.00259869  0.34424676  1
  O2-  O458  1  0.50801762  0.00304543  0.69225560  1
  O2-  O459  1  0.50414906  0.47439156  0.00371065  1
  O2-  O460  1  0.49152041  0.49098537  0.32625715  1
  O2-  O461  1  0.47981122  0.49890098  0.63718211  1
  O2-  O462  1  0.84277023  0.02260130  0.00749976  1
  O2-  O463  1  0.81664271  0.00363820  0.30623195  1
  O2-  O464  1  0.81379854  -0.00492000  0.64599603  1
  O2-  O465  1  0.84977213  0.50439789  0.01607539  1
  O2-  O466  1  0.81603809  0.49602744  0.29392331  1
  O2-  O467  1  0.80952298  0.50278702  0.64451076  1
  O2-  O468  1  0.57661961  0.24538004  0.60919564  1
  O2-  O469  1  0.43723053  0.75248880  0.73439103  1
  O2-  O470  1  0.06904290  0.74690790  0.39693090  1
  O2-  O471  1  0.42521150  0.74631872  0.04687877  1
  O2-  O472  1  0.58874029  0.25012595  0.28058402  1
  O2-  O473  1  0.58508192  0.75718428  0.59859244  1
  O2-  O474  1  0.75958775  0.24817240  0.06336431  1
  O2-  O475  1  0.91867126  0.75412921  0.93397831  1
  O2-  O476  1  0.91319471  0.24701547  0.94131928  1
  O2-  O477  1  0.75236308  0.75944994  0.06691030  1
  O2-  O478  1  0.91702889  0.75354942  0.27328899  1
  O2-  O479  1  0.90767016  0.24707512  0.27536392  1
  O2-  O480  1  0.74568597  0.75514200  0.73027843  1
  O2-  O481  1  0.92495884  0.74878089  0.60865761  1
  O2-  O482  1  0.91198544  0.24539247  0.61348807  1
  O2-  O483  1  0.07898808  0.24862716  0.72839978  1
  O2-  O484  1  0.74511687  0.75143330  0.38937474  1
  O2-  O485  1  0.75197346  0.24857435  0.38615700  1
  O2-  O486  1  0.74967358  0.24729492  0.71682569  1
  O2-  O487  1  0.06583716  0.24697502  0.38636012  1
  O2-  O488  1  0.42741431  0.25877839  0.39798414  1
  O2-  O489  1  0.42387501  0.24799624  0.70696419  1
  O2-  O490  1  0.24559056  0.24940425  0.93991575  1
  O2-  O491  1  0.07695098  0.74934701  0.72000349  1
  O2-  O492  1  0.57704458  0.75144486  0.93973563  1
