# generated using pymatgen
data_Ca108Mn108O277
_symmetry_space_group_name_H-M   'P 1'
_cell_length_a   16.03232139
_cell_length_b   22.31264225
_cell_length_c   16.39455651
_cell_angle_alpha   90.00441326
_cell_angle_beta   90.00144506
_cell_angle_gamma   90.00451578
_symmetry_Int_Tables_number   1
_chemical_formula_structural   Ca108Mn108O277
_chemical_formula_sum   'Ca108 Mn108 O277'
_cell_volume   5864.71730468
_cell_formula_units_Z   1
loop_
 _symmetry_equiv_pos_site_id
 _symmetry_equiv_pos_as_xyz
  1  'x, y, z'
loop_
 _atom_type_symbol
 _atom_type_oxidation_number
  Ca2+  2.0
  Mn3.34+  3.34
  O2-  -2.0
loop_
 _atom_site_type_symbol
 _atom_site_label
 _atom_site_symmetry_multiplicity
 _atom_site_fract_x
 _atom_site_fract_y
 _atom_site_fract_z
 _atom_site_occupancy
  Ca2+  Ca0  1  0.10018428  0.24211649  0.23021674  1
  Ca2+  Ca1  1  0.10078274  0.26185276  0.59202517  1
  Ca2+  Ca2  1  0.07352955  0.25178319  0.91689607  1
  Ca2+  Ca3  1  0.09438992  0.75300907  0.25022873  1
  Ca2+  Ca4  1  0.08486752  0.74014199  0.58330240  1
  Ca2+  Ca5  1  0.07888465  0.74529506  0.91257035  1
  Ca2+  Ca6  1  0.41626692  0.24568681  0.24365506  1
  Ca2+  Ca7  1  0.40956836  0.25499959  0.60242866  1
  Ca2+  Ca8  1  0.43090027  0.25716742  0.90211162  1
  Ca2+  Ca9  1  0.43210913  0.75161748  0.24719879  1
  Ca2+  Ca10  1  0.41717021  0.74175285  0.58380855  1
  Ca2+  Ca11  1  0.43541896  0.73413019  0.91995395  1
  Ca2+  Ca12  1  0.73277933  0.24953435  0.26958785  1
  Ca2+  Ca13  1  0.74747997  0.25468984  0.57771481  1
  Ca2+  Ca14  1  0.73380603  0.26012600  0.90622377  1
  Ca2+  Ca15  1  0.73073911  0.75212786  0.23096436  1
  Ca2+  Ca16  1  0.74902060  0.74610854  0.58865124  1
  Ca2+  Ca17  1  0.73970240  0.73346973  0.92803963  1
  Ca2+  Ca18  1  0.25058597  0.24452106  0.09010644  1
  Ca2+  Ca19  1  0.24964065  0.25740947  0.41978294  1
  Ca2+  Ca20  1  0.27051171  0.25475484  0.73952203  1
  Ca2+  Ca21  1  0.26089984  0.74578988  0.08214370  1
  Ca2+  Ca22  1  0.25443359  0.75896366  0.41053109  1
  Ca2+  Ca23  1  0.25176969  0.73993398  0.75810376  1
  Ca2+  Ca24  1  0.57277862  0.24854962  0.08681310  1
  Ca2+  Ca25  1  0.60205990  0.25117498  0.41189678  1
  Ca2+  Ca26  1  0.56537983  0.25719998  0.75330071  1
  Ca2+  Ca27  1  0.59377444  0.73365599  0.08211046  1
  Ca2+  Ca28  1  0.58222790  0.74757342  0.40338143  1
  Ca2+  Ca29  1  0.58410861  0.74184237  0.77181119  1
  Ca2+  Ca30  1  0.93193682  0.26120898  0.08180235  1
  Ca2+  Ca31  1  0.89176867  0.25628770  0.42101188  1
  Ca2+  Ca32  1  0.91860414  0.26896559  0.74778288  1
  Ca2+  Ca33  1  0.89448879  0.74630426  0.07571382  1
  Ca2+  Ca34  1  0.91686747  0.75977272  0.41953822  1
  Ca2+  Ca35  1  0.91616250  0.74901094  0.75562333  1
  Ca2+  Ca36  1  0.43348372  0.60709801  0.24837851  1
  Ca2+  Ca37  1  0.71927957  0.58217532  0.93225113  1
  Ca2+  Ca38  1  0.28907793  0.09847240  0.73896368  1
  Ca2+  Ca39  1  0.56904762  0.58856634  0.40069622  1
  Ca2+  Ca40  1  0.77013262  0.58239705  0.59962286  1
  Ca2+  Ca41  1  0.44205149  0.59357867  0.91771614  1
  Ca2+  Ca42  1  0.89650207  0.10667760  0.42022491  1
  Ca2+  Ca43  1  0.75537031  0.07107721  0.94361560  1
  Ca2+  Ca44  1  0.09389173  0.08377319  0.95528738  1
  Ca2+  Ca45  1  0.55552651  0.10396585  0.75401030  1
  Ca2+  Ca46  1  0.24579683  0.59082299  0.40888433  1
  Ca2+  Ca47  1  0.75830589  0.10787579  0.56933294  1
  Ca2+  Ca48  1  0.92763989  0.59308275  0.43185679  1
  Ca2+  Ca49  1  0.87448824  0.58705321  0.06688125  1
  Ca2+  Ca50  1  0.25618021  0.59343537  0.40960101  1
  Ca2+  Ca51  1  0.71942941  0.60411775  0.23260741  1
  Ca2+  Ca52  1  0.91054480  0.09475676  0.74628317  1
  Ca2+  Ca53  1  0.56624633  0.57857686  0.76306017  1
  Ca2+  Ca54  1  0.57134062  0.58345324  0.76883216  1
  Ca2+  Ca55  1  0.41656778  0.09552010  0.24309584  1
  Ca2+  Ca56  1  0.72593262  0.09605913  0.26349016  1
  Ca2+  Ca57  1  0.93657265  0.08001871  0.08154172  1
  Ca2+  Ca58  1  0.26100053  0.06555746  0.37745019  1
  Ca2+  Ca59  1  0.22635339  0.10557663  0.12700036  1
  Ca2+  Ca60  1  0.72178525  0.60317572  0.22279994  1
  Ca2+  Ca61  1  0.42927356  0.09453409  0.91836181  1
  Ca2+  Ca62  1  0.08574462  0.61095501  0.90189006  1
  Ca2+  Ca63  1  0.92380177  0.09575673  0.74679977  1
  Ca2+  Ca64  1  0.93922794  0.60467652  0.74919648  1
  Ca2+  Ca65  1  0.09912195  0.09225109  0.58426958  1
  Ca2+  Ca66  1  0.59650203  0.59226728  0.06575172  1
  Ca2+  Ca67  1  0.57543625  0.09763235  0.39533931  1
  Ca2+  Ca68  1  0.71372721  0.09731349  0.26111080  1
  Ca2+  Ca69  1  0.07958515  0.59539193  0.59865817  1
  Ca2+  Ca70  1  0.41679234  0.09462909  0.91965044  1
  Ca2+  Ca71  1  0.23839698  0.59917155  0.74935890  1
  Ca2+  Ca72  1  0.41906684  0.40329855  0.27106533  1
  Ca2+  Ca73  1  0.07567408  0.89735739  0.91889304  1
  Ca2+  Ca74  1  0.61293216  0.43158654  0.05639129  1
  Ca2+  Ca75  1  0.40744797  0.90549715  0.91411119  1
  Ca2+  Ca76  1  0.75366778  0.88725633  0.58426145  1
  Ca2+  Ca77  1  0.42986821  0.90528102  0.56428787  1
  Ca2+  Ca78  1  0.10799049  0.91982514  0.26638885  1
  Ca2+  Ca79  1  0.39413032  0.92433339  0.28113324  1
  Ca2+  Ca80  1  0.25357083  0.40570370  0.41677771  1
  Ca2+  Ca81  1  0.60738840  0.42524684  0.05742272  1
  Ca2+  Ca82  1  0.08221528  0.40395884  0.27033209  1
  Ca2+  Ca83  1  0.24751458  0.90079513  0.74222454  1
  Ca2+  Ca84  1  0.25952793  0.90134102  0.74290275  1
  Ca2+  Ca85  1  0.06906838  0.40528686  0.27012208  1
  Ca2+  Ca86  1  0.24512144  0.40151584  0.08934335  1
  Ca2+  Ca87  1  0.91773649  0.42208676  0.72076955  1
  Ca2+  Ca88  1  0.08660955  0.40680372  0.90589082  1
  Ca2+  Ca89  1  0.59643719  0.90983397  0.09073699  1
  Ca2+  Ca90  1  0.58833867  0.90040609  0.73675627  1
  Ca2+  Ca91  1  0.74781497  0.40328478  0.25185327  1
  Ca2+  Ca92  1  0.41823638  0.90583844  0.56481093  1
  Ca2+  Ca93  1  0.60712778  0.90741591  0.09242702  1
  Ca2+  Ca94  1  0.75556609  0.90206792  0.24536068  1
  Ca2+  Ca95  1  0.73958478  0.41032043  0.58860294  1
  Ca2+  Ca96  1  0.57141109  0.41711894  0.75967492  1
  Ca2+  Ca97  1  0.88568796  0.42307009  0.07667397  1
  Ca2+  Ca98  1  0.25807014  0.40152505  0.08966394  1
  Ca2+  Ca99  1  0.07390228  0.40786640  0.90671519  1
  Ca2+  Ca100  1  0.24490790  0.90508618  0.08895625  1
  Ca2+  Ca101  1  0.41863569  0.90434722  0.91383382  1
  Ca2+  Ca102  1  0.74847491  0.41421968  0.58715847  1
  Ca2+  Ca103  1  0.09755597  0.91987405  0.26536273  1
  Ca2+  Ca104  1  0.74611840  0.42420177  0.91916578  1
  Ca2+  Ca105  1  0.43668463  0.43570481  0.62000829  1
  Ca2+  Ca106  1  0.08079602  0.88769777  0.57919314  1
  Ca2+  Ca107  1  0.89640732  0.91455255  0.07644144  1
  Mn3.34+  Mn108  1  0.08067869  0.33325995  0.08502145  1
  Mn3.34+  Mn109  1  0.07543549  0.32879701  0.42790335  1
  Mn3.34+  Mn110  1  0.08781449  0.33569044  0.74246812  1
  Mn3.34+  Mn111  1  0.07785285  0.83248277  0.08847149  1
  Mn3.34+  Mn112  1  0.08199634  0.83146981  0.41746480  1
  Mn3.34+  Mn113  1  0.07874252  0.82369415  0.75144268  1
  Mn3.34+  Mn114  1  0.42180734  0.33098168  0.08251020  1
  Mn3.34+  Mn115  1  0.42503654  0.33274232  0.42663545  1
  Mn3.34+  Mn116  1  0.41232453  0.34242866  0.75306906  1
  Mn3.34+  Mn117  1  0.41887923  0.83611770  0.09032071  1
  Mn3.34+  Mn118  1  0.41641610  0.83441376  0.41054223  1
  Mn3.34+  Mn119  1  0.42051632  0.82639885  0.74922682  1
  Mn3.34+  Mn120  1  0.75055870  0.33030015  0.08629262  1
  Mn3.34+  Mn121  1  0.74750817  0.33424737  0.41814219  1
  Mn3.34+  Mn122  1  0.74779750  0.33358165  0.75187032  1
  Mn3.34+  Mn123  1  0.75424818  0.83352512  0.07925834  1
  Mn3.34+  Mn124  1  0.75106366  0.82732463  0.41240535  1
  Mn3.34+  Mn125  1  0.75124486  0.82505922  0.75351249  1
  Mn3.34+  Mn126  1  0.25252331  0.32650052  0.25164377  1
  Mn3.34+  Mn127  1  0.25408012  0.33974494  0.58434587  1
  Mn3.34+  Mn128  1  0.25424933  0.33964073  0.90818930  1
  Mn3.34+  Mn129  1  0.25276318  0.83183926  0.24822565  1
  Mn3.34+  Mn130  1  0.25111268  0.82868333  0.57612461  1
  Mn3.34+  Mn131  1  0.24705886  0.82776696  0.91854604  1
  Mn3.34+  Mn132  1  0.58042212  0.33402604  0.24801307  1
  Mn3.34+  Mn133  1  0.57874463  0.33877757  0.58179082  1
  Mn3.34+  Mn134  1  0.58168994  0.34085177  0.91486027  1
  Mn3.34+  Mn135  1  0.58185460  0.83424120  0.25584392  1
  Mn3.34+  Mn136  1  0.58555433  0.82735111  0.57584978  1
  Mn3.34+  Mn137  1  0.58948047  0.83275987  0.91496257  1
  Mn3.34+  Mn138  1  0.91429393  0.33130403  0.24996326  1
  Mn3.34+  Mn139  1  0.92619453  0.34728956  0.56873734  1
  Mn3.34+  Mn140  1  0.91016810  0.33985101  0.91546192  1
  Mn3.34+  Mn141  1  0.91826301  0.83534215  0.25042545  1
  Mn3.34+  Mn142  1  0.91703606  0.82461438  0.58372263  1
  Mn3.34+  Mn143  1  0.90914749  0.83213006  0.91314416  1
  Mn3.34+  Mn144  1  0.08828638  0.17089059  0.74722029  1
  Mn3.34+  Mn145  1  0.92033241  0.16361469  0.91713459  1
  Mn3.34+  Mn146  1  0.24844118  0.66868252  0.24101269  1
  Mn3.34+  Mn147  1  0.41575755  0.17069420  0.41962413  1
  Mn3.34+  Mn148  1  0.75006996  0.16858756  0.08338505  1
  Mn3.34+  Mn149  1  0.91330662  0.17457883  0.24453856  1
  Mn3.34+  Mn150  1  0.58567969  0.16651121  0.58393378  1
  Mn3.34+  Mn151  1  0.92553521  0.16712933  0.24307932  1
  Mn3.34+  Mn152  1  0.42149290  0.16915097  0.08919624  1
  Mn3.34+  Mn153  1  0.91452948  0.66865636  0.91390490  1
  Mn3.34+  Mn154  1  0.41421873  0.66963357  0.41610693  1
  Mn3.34+  Mn155  1  0.40570259  0.16568535  0.41916287  1
  Mn3.34+  Mn156  1  0.92011417  0.17483150  0.58401914  1
  Mn3.34+  Mn157  1  0.58848408  0.65959653  0.58037270  1
  Mn3.34+  Mn158  1  0.91694046  0.66554525  0.58030274  1
  Mn3.34+  Mn159  1  0.24919520  0.17842872  0.91292137  1
  Mn3.34+  Mn160  1  0.24791951  0.16682066  0.91825957  1
  Mn3.34+  Mn161  1  0.91897121  0.66718672  0.24953194  1
  Mn3.34+  Mn162  1  0.25427458  0.16771627  0.58306036  1
  Mn3.34+  Mn163  1  0.25402416  0.66652339  0.92003645  1
  Mn3.34+  Mn164  1  0.08249423  0.16895783  0.41741005  1
  Mn3.34+  Mn165  1  0.57826017  0.65444828  0.57864672  1
  Mn3.34+  Mn166  1  0.75470741  0.66626429  0.41905217  1
  Mn3.34+  Mn167  1  0.74277066  0.16907797  0.75171184  1
  Mn3.34+  Mn168  1  0.41351019  0.66059311  0.75201599  1
  Mn3.34+  Mn169  1  0.08382643  0.66779778  0.41647809  1
  Mn3.34+  Mn170  1  0.75051158  0.66263128  0.75553536  1
  Mn3.34+  Mn171  1  0.92963081  0.66259464  0.24678280  1
  Mn3.34+  Mn172  1  0.57525863  0.16208995  0.58147154  1
  Mn3.34+  Mn173  1  0.90840448  0.16892739  0.91954928  1
  Mn3.34+  Mn174  1  0.58384738  0.17006248  0.91772100  1
  Mn3.34+  Mn175  1  0.73928397  0.16411251  0.08502138  1
  Mn3.34+  Mn176  1  0.41781372  0.67007183  0.08444906  1
  Mn3.34+  Mn177  1  0.09249219  0.16387405  0.41554565  1
  Mn3.34+  Mn178  1  0.25274568  0.66198950  0.58093537  1
  Mn3.34+  Mn179  1  0.08490596  0.66916111  0.08363766  1
  Mn3.34+  Mn180  1  0.57283651  0.49805561  0.24620029  1
  Mn3.34+  Mn181  1  0.91704106  0.50448670  0.91219056  1
  Mn3.34+  Mn182  1  0.74520565  0.50153197  0.40881268  1
  Mn3.34+  Mn183  1  0.08234838  0.50051780  0.73458037  1
  Mn3.34+  Mn184  1  0.91053325  -0.00697608  0.92514250  1
  Mn3.34+  Mn185  1  0.07907090  -0.00217024  0.75406907  1
  Mn3.34+  Mn186  1  0.59109374  -0.00630632  0.92076192  1
  Mn3.34+  Mn187  1  0.91766184  0.00044647  0.25153648  1
  Mn3.34+  Mn188  1  0.60308310  0.00100695  0.92158233  1
  Mn3.34+  Mn189  1  0.25609475  0.00584982  0.58569062  1
  Mn3.34+  Mn190  1  0.07607015  0.50183081  0.08926829  1
  Mn3.34+  Mn191  1  0.07961978  0.49951994  0.42102047  1
  Mn3.34+  Mn192  1  0.25123306  0.50150506  0.91294850  1
  Mn3.34+  Mn193  1  0.75543060  -0.01186267  0.41780127  1
  Mn3.34+  Mn194  1  0.91150585  -0.00613223  0.57398971  1
  Mn3.34+  Mn195  1  0.08241274  -0.00405567  0.41713890  1
  Mn3.34+  Mn196  1  0.24893375  0.50383179  0.25574320  1
  Mn3.34+  Mn197  1  0.75649158  0.50591317  0.40811746  1
  Mn3.34+  Mn198  1  0.09272540  0.00466115  0.75314849  1
  Mn3.34+  Mn199  1  0.08560639  -0.00168964  0.08399817  1
  Mn3.34+  Mn200  1  0.74418476  -0.00083022  0.75346147  1
  Mn3.34+  Mn201  1  0.57066409  -0.00082005  0.25894208  1
  Mn3.34+  Mn202  1  0.24412642  -0.00023188  0.91366642  1
  Mn3.34+  Mn203  1  0.40894485  0.00106135  0.08235391  1
  Mn3.34+  Mn204  1  0.92562022  0.00004256  0.57234833  1
  Mn3.34+  Mn205  1  0.08799487  0.50899839  0.08633137  1
  Mn3.34+  Mn206  1  0.41971718  -0.00203977  0.73930150  1
  Mn3.34+  Mn207  1  0.74338312  -0.00536118  0.42144259  1
  Mn3.34+  Mn208  1  0.75258308  0.50022018  0.74765325  1
  Mn3.34+  Mn209  1  0.25401202  0.49866872  0.59662028  1
  Mn3.34+  Mn210  1  0.92339615  0.50244492  0.24732527  1
  Mn3.34+  Mn211  1  0.58509746  -0.00149396  0.57547377  1
  Mn3.34+  Mn212  1  0.40090156  0.50685591  0.08397498  1
  Mn3.34+  Mn213  1  0.41326023  0.50001254  0.08619853  1
  Mn3.34+  Mn214  1  0.41735102  0.49936595  0.41759895  1
  Mn3.34+  Mn215  1  0.75706308  -0.00722941  0.75080481  1
  O2-  O216  1  -0.00218497  0.15009679  -0.00487642  1
  O2-  O217  1  -0.00322321  0.16962784  0.33517129  1
  O2-  O218  1  0.00437988  0.14928573  0.66099856  1
  O2-  O219  1  -0.00098776  0.66569103  -0.00006189  1
  O2-  O220  1  0.00117204  0.64587270  0.33268688  1
  O2-  O221  1  -0.00334370  0.67419596  0.65776924  1
  O2-  O222  1  0.33383085  0.15563865  -0.00377930  1
  O2-  O223  1  0.33207975  0.18229531  0.33622975  1
  O2-  O224  1  0.33489018  0.16560223  0.65620562  1
  O2-  O225  1  0.34086779  0.64978411  -0.00550054  1
  O2-  O226  1  0.33183901  0.65664959  0.33423760  1
  O2-  O227  1  0.32773032  0.66685041  0.66922355  1
  O2-  O228  1  0.67253943  0.14527286  -0.01018107  1
  O2-  O229  1  0.66100270  0.16362800  0.33292657  1
  O2-  O230  1  0.66409319  0.13559049  0.66687829  1
  O2-  O231  1  0.66650685  0.66183408  -0.00054008  1
  O2-  O232  1  0.67320901  0.64135848  0.34721111  1
  O2-  O233  1  0.66838687  0.63846906  0.66526133  1
  O2-  O234  1  0.16842528  0.16507184  -0.00084633  1
  O2-  O235  1  0.16594135  0.19519397  0.33978604  1
  O2-  O236  1  0.17531778  0.14800525  0.67264491  1
  O2-  O237  1  0.16297281  0.67470358  -0.00277523  1
  O2-  O238  1  0.16826747  0.65325234  0.33606180  1
  O2-  O239  1  0.16993630  0.67117661  0.65875360  1
  O2-  O240  1  0.50290743  0.15136100  -0.00063536  1
  O2-  O241  1  0.49255505  0.17226267  0.33544291  1
  O2-  O242  1  0.49740636  0.16089332  0.66168688  1
  O2-  O243  1  0.49985169  0.65746834  0.00867722  1
  O2-  O244  1  0.49825286  0.66039323  0.34283377  1
  O2-  O245  1  0.50061176  0.64562674  0.66728868  1
  O2-  O246  1  0.83550843  0.13998231  0.01076927  1
  O2-  O247  1  0.83170333  0.16058886  0.32305326  1
  O2-  O248  1  0.83798935  0.15828181  0.67274717  1
  O2-  O249  1  0.82644984  0.65410192  -0.01604177  1
  O2-  O250  1  0.83746230  0.63760047  0.33161163  1
  O2-  O251  1  0.83400921  0.66249016  0.66289786  1
  O2-  O252  1  -0.00266325  0.36016002  0.00757965  1
  O2-  O253  1  -0.00228552  0.32219360  0.33600941  1
  O2-  O254  1  -0.00532837  0.34168258  0.66585409  1
  O2-  O255  1  -0.00247444  0.83959076  0.00431612  1
  O2-  O256  1  0.00914927  0.85258322  0.32614870  1
  O2-  O257  1  0.00436456  0.81022051  0.66394390  1
  O2-  O258  1  0.32841690  0.34312348  0.00382451  1
  O2-  O259  1  0.33400848  0.33147153  0.33620466  1
  O2-  O260  1  0.34108681  0.34543236  0.65829444  1
  O2-  O261  1  0.33339388  0.85540264  0.00193969  1
  O2-  O262  1  0.32875686  0.84138458  0.33426386  1
  O2-  O263  1  0.33596915  0.83938639  0.66535112  1
  O2-  O264  1  0.67177544  0.34561651  -0.00147643  1
  O2-  O265  1  0.66488587  0.33874586  0.32990542  1
  O2-  O266  1  0.66653869  0.35319971  0.67039812  1
  O2-  O267  1  0.66649286  0.85140144  -0.00141834  1
  O2-  O268  1  0.67085914  0.84703617  0.33064061  1
  O2-  O269  1  0.66516317  0.83914992  0.66084650  1
  O2-  O270  1  0.16453329  0.35154000  -0.00048394  1
  O2-  O271  1  0.16277971  0.32811488  0.32824361  1
  O2-  O272  1  0.17341699  0.33918406  0.66933188  1
  O2-  O273  1  0.16220736  0.84051523  0.00026209  1
  O2-  O274  1  0.16479395  0.84261968  0.33061802  1
  O2-  O275  1  0.17060446  0.82940760  0.66774165  1
  O2-  O276  1  0.51230530  0.35693770  0.01474983  1
  O2-  O277  1  0.49793068  0.31640436  0.33241861  1
  O2-  O278  1  0.50248340  0.34587937  0.66757876  1
  O2-  O279  1  0.50491012  0.86240928  0.00114624  1
  O2-  O280  1  0.49160148  0.84762304  0.32458350  1
  O2-  O281  1  0.49622402  0.84781974  0.66338235  1
  O2-  O282  1  0.82939432  0.35253652  -0.00176609  1
  O2-  O283  1  0.82731118  0.33457719  0.32670751  1
  O2-  O284  1  0.82869923  0.33971865  0.66652735  1
  O2-  O285  1  0.83520397  0.84696767  -0.00009201  1
  O2-  O286  1  0.83680850  0.84860118  0.33516582  1
  O2-  O287  1  0.83211066  0.82169356  0.66477847  1
  O2-  O288  1  -0.00152420  0.18770601  0.16349229  1
  O2-  O289  1  -0.00334309  0.17895978  0.49576707  1
  O2-  O290  1  -0.01077459  0.18226911  0.82028575  1
  O2-  O291  1  -0.00062677  0.69359713  0.16235708  1
  O2-  O292  1  -0.00419422  0.68283520  0.49556712  1
  O2-  O293  1  -0.00152195  0.68224320  0.83519901  1
  O2-  O294  1  0.33870074  0.18232196  0.16128567  1
  O2-  O295  1  0.33102049  0.19087486  0.49731545  1
  O2-  O296  1  0.33492991  0.18222021  0.83793408  1
  O2-  O297  1  0.33599218  0.68618663  0.17182407  1
  O2-  O298  1  0.32652415  0.68486719  0.49443353  1
  O2-  O299  1  0.33456917  0.67672640  0.83284431  1
  O2-  O300  1  0.67114003  0.18526052  0.17240327  1
  O2-  O301  1  0.66449169  0.17774818  0.50570873  1
  O2-  O302  1  0.65844556  0.17856629  0.82859115  1
  O2-  O303  1  0.66607536  0.67580018  0.16544290  1
  O2-  O304  1  0.66821978  0.68395005  0.50076291  1
  O2-  O305  1  0.66312514  0.66131293  0.82401884  1
  O2-  O306  1  0.18552944  0.18884274  0.17105014  1
  O2-  O307  1  0.16039977  0.18612489  0.50755609  1
  O2-  O308  1  0.16412645  0.19059549  0.83696888  1
  O2-  O309  1  0.16756003  0.68937146  0.16236350  1
  O2-  O310  1  0.16828658  0.67752957  0.49545306  1
  O2-  O311  1  0.17308260  0.68145092  0.83978164  1
  O2-  O312  1  0.49656753  0.18307246  0.16494038  1
  O2-  O313  1  0.49926152  0.18866023  0.49446290  1
  O2-  O314  1  0.49788983  0.17506185  0.84563466  1
  O2-  O315  1  0.49259431  0.68243035  0.16399494  1
  O2-  O316  1  0.49739001  0.67860911  0.50016804  1
  O2-  O317  1  0.49916832  0.66963287  0.82688110  1
  O2-  O318  1  0.83724100  0.19627097  0.16341360  1
  O2-  O319  1  0.83674457  0.18672397  0.51162990  1
  O2-  O320  1  0.83270322  0.18096830  0.83749374  1
  O2-  O321  1  0.83288078  0.67600886  0.17382028  1
  O2-  O322  1  0.83711702  0.68682173  0.49771666  1
  O2-  O323  1  0.83733409  0.67914474  0.82570118  1
  O2-  O324  1  0.01131637  0.32027924  0.17832873  1
  O2-  O325  1  -0.00232193  0.29669865  0.50462727  1
  O2-  O326  1  0.00303620  0.32566708  0.84247832  1
  O2-  O327  1  -0.00010947  0.81471623  0.16976313  1
  O2-  O328  1  0.00301214  0.81435094  0.50458685  1
  O2-  O329  1  0.00320499  0.81642145  0.83884210  1
  O2-  O330  1  0.33016597  0.31790964  0.16428265  1
  O2-  O331  1  0.33400966  0.31860217  0.49678288  1
  O2-  O332  1  0.33231512  0.31582282  0.83408026  1
  O2-  O333  1  0.33320115  0.82058831  0.16541968  1
  O2-  O334  1  0.34041201  0.81714416  0.50598679  1
  O2-  O335  1  0.33085464  0.82641544  0.82781004  1
  O2-  O336  1  0.66678816  0.31050915  0.16772582  1
  O2-  O337  1  0.67332390  0.32592736  0.50994018  1
  O2-  O338  1  0.66006652  0.32332257  0.82872395  1
  O2-  O339  1  0.66586217  0.82929487  0.16341127  1
  O2-  O340  1  0.66842000  0.81052787  0.49991725  1
  O2-  O341  1  0.65622701  0.82319794  0.82308863  1
  O2-  O342  1  0.17403420  0.32087976  0.15904137  1
  O2-  O343  1  0.16862470  0.32253287  0.49601919  1
  O2-  O344  1  0.15932658  0.31805416  0.84432994  1
  O2-  O345  1  0.16879709  0.81814161  0.16221115  1
  O2-  O346  1  0.16439939  0.81228834  0.50352276  1
  O2-  O347  1  0.16792123  0.81314967  0.82916672  1
  O2-  O348  1  0.49480510  0.31560280  0.17241290  1
  O2-  O349  1  0.50389081  0.30773903  0.50322290  1
  O2-  O350  1  0.50078431  0.32966582  0.83590832  1
  O2-  O351  1  0.51304517  0.82597545  0.15557563  1
  O2-  O352  1  0.49338022  0.81898246  0.50478360  1
  O2-  O353  1  0.49066588  0.82379163  0.84338292  1
  O2-  O354  1  0.83903627  0.31736252  0.16225137  1
  O2-  O355  1  0.83161159  0.32377963  0.50436197  1
  O2-  O356  1  0.82896948  0.31780050  0.83333803  1
  O2-  O357  1  0.83206932  0.82165589  0.16838650  1
  O2-  O358  1  0.82959244  0.81293768  0.50581353  1
  O2-  O359  1  0.82889438  0.81210877  0.83366930  1
  O2-  O360  1  0.08358807  0.07572452  0.10620409  1
  O2-  O361  1  0.07707722  0.07853870  0.44547271  1
  O2-  O362  1  0.06369723  0.08193309  0.79536902  1
  O2-  O363  1  0.07423534  0.58633894  0.11382067  1
  O2-  O364  1  0.07635986  0.58070129  0.45476071  1
  O2-  O365  1  0.08729698  0.57370207  0.77668012  1
  O2-  O366  1  0.40520645  0.08372309  0.10328080  1
  O2-  O367  1  0.40801661  0.08332307  0.42888929  1
  O2-  O368  1  0.42114277  0.07426510  0.78949531  1
  O2-  O369  1  0.41249648  0.58505567  0.11637157  1
  O2-  O370  1  0.39611060  0.58220137  0.43704685  1
  O2-  O371  1  0.41832130  0.58146777  0.77993815  1
  O2-  O372  1  0.74987700  0.08648112  0.12882756  1
  O2-  O373  1  0.76115091  0.07584972  0.44311987  1
  O2-  O374  1  0.77254240  0.07676643  0.79476995  1
  O2-  O375  1  0.75435712  0.56196994  0.11788840  1
  O2-  O376  1  0.76966605  0.58025254  0.46302614  1
  O2-  O377  1  0.76401686  0.57665127  0.78341586  1
  O2-  O378  1  0.27244018  0.07129527  0.24056956  1
  O2-  O379  1  0.24337897  0.08414745  0.54272274  1
  O2-  O380  1  0.25760545  0.08403518  0.88029524  1
  O2-  O381  1  0.26539286  0.58371202  0.23424036  1
  O2-  O382  1  0.24058565  0.57071901  0.54216937  1
  O2-  O383  1  0.24056458  0.58262736  0.88935059  1
  O2-  O384  1  0.58666245  0.07565564  0.22914960  1
  O2-  O385  1  0.58174105  0.08188316  0.53626597  1
  O2-  O386  1  0.57213157  0.07874165  0.88519267  1
  O2-  O387  1  0.57903712  0.57361140  0.20812099  1
  O2-  O388  1  0.59572898  0.57821340  0.53780307  1
  O2-  O389  1  0.57759042  0.56297661  0.89213222  1
  O2-  O390  1  0.90608649  0.08190666  0.21550347  1
  O2-  O391  1  0.91089393  0.08085031  0.54776116  1
  O2-  O392  1  0.91076533  0.07715046  0.88067363  1
  O2-  O393  1  0.91953343  0.58207615  0.20573868  1
  O2-  O394  1  0.92292806  0.58601890  0.56768795  1
  O2-  O395  1  0.93389384  0.58388093  0.89139787  1
  O2-  O396  1  0.10460480  0.42260012  0.12772714  1
  O2-  O397  1  0.09100702  0.41560310  0.41018545  1
  O2-  O398  1  0.07710543  0.42123633  0.77175917  1
  O2-  O399  1  0.08420279  0.92141802  0.12618194  1
  O2-  O400  1  0.08377491  0.91723749  0.45097247  1
  O2-  O401  1  0.10551972  0.91537848  0.76700542  1
  O2-  O402  1  0.39049072  0.42286790  0.13399601  1
  O2-  O403  1  0.41819430  0.41934471  0.44206574  1
  O2-  O404  1  0.42385536  0.42156353  0.76157924  1
  O2-  O405  1  0.41952003  0.92156376  0.12314122  1
  O2-  O406  1  0.41061495  0.91680437  0.43455560  1
  O2-  O407  1  0.40452234  0.91578166  0.77807799  1
  O2-  O408  1  0.74499897  0.41138910  0.11663359  1
  O2-  O409  1  0.74838338  0.42150342  0.44812793  1
  O2-  O410  1  0.76193619  0.42069807  0.77836140  1
  O2-  O411  1  0.74530024  0.91823606  0.11212413  1
  O2-  O412  1  0.75300988  0.91045069  0.45290514  1
  O2-  O413  1  0.74813498  0.91141954  0.75935038  1
  O2-  O414  1  0.23240222  0.42041310  0.22677408  1
  O2-  O415  1  0.25842947  0.42521766  0.55098389  1
  O2-  O416  1  0.22381954  0.42398279  0.88193184  1
  O2-  O417  1  0.23872388  0.91473661  0.22431930  1
  O2-  O418  1  0.26789502  0.92061586  0.57754724  1
  O2-  O419  1  0.24364812  0.91644969  0.87653253  1
  O2-  O420  1  0.57854961  0.42030666  0.20504595  1
  O2-  O421  1  0.59121185  0.41816900  0.56558156  1
  O2-  O422  1  0.59867484  0.41957239  0.90152644  1
  O2-  O423  1  0.59051729  0.92219035  0.22514909  1
  O2-  O424  1  0.57766513  0.91330823  0.55280172  1
  O2-  O425  1  0.56844487  0.92254882  0.86917139  1
  O2-  O426  1  0.93867152  0.42102150  0.21425492  1
  O2-  O427  1  0.88799814  0.42353435  0.57094056  1
  O2-  O428  1  0.92921911  0.42700683  0.87195760  1
  O2-  O429  1  0.91508608  0.92110653  0.21424979  1
  O2-  O430  1  0.92970467  0.91264606  0.57740945  1
  O2-  O431  1  0.93267631  0.91651064  0.89118769  1
  O2-  O432  1  0.00900633  0.00372488  -0.00625359  1
  O2-  O433  1  0.00962644  -0.00795700  0.32215107  1
  O2-  O434  1  -0.00939501  0.01642707  0.67402488  1
  O2-  O435  1  -0.00480606  0.48713735  0.00469761  1
  O2-  O436  1  0.01659064  0.49576947  0.31711836  1
  O2-  O437  1  -0.01669937  0.51057525  0.69229182  1
  O2-  O438  1  0.35197492  -0.00889753  -0.02947132  1
  O2-  O439  1  0.34295886  0.01399532  0.29711194  1
  O2-  O440  1  0.30063944  -0.00228924  0.70305766  1
  O2-  O441  1  0.32144443  0.48166693  0.00563884  1
  O2-  O442  1  0.33401503  0.48394614  0.33462681  1
  O2-  O443  1  0.33930359  0.50824416  0.65350408  1
  O2-  O444  1  0.66778446  -0.00285121  0.01304879  1
  O2-  O445  1  0.65623862  0.00720429  0.33976905  1
  O2-  O446  1  0.66227402  0.00182175  0.66957215  1
  O2-  O447  1  0.67860306  0.49633367  0.00071791  1
  O2-  O448  1  0.66753820  0.51133550  0.31976189  1
  O2-  O449  1  0.66203435  0.50064624  0.68664630  1
  O2-  O450  1  0.17604512  -0.00345314  0.01295207  1
  O2-  O451  1  0.16782950  -0.00846382  0.34886228  1
  O2-  O452  1  0.14824469  0.00447220  0.64638355  1
  O2-  O453  1  0.15735339  0.49225909  -0.00779021  1
  O2-  O454  1  0.18203357  0.50861857  0.35942362  1
  O2-  O455  1  0.16906931  0.51888964  0.66505226  1
  O2-  O456  1  0.49993310  0.00106036  -0.00370353  1
  O2-  O457  1  0.48266540  0.00991166  0.31492882  1
  O2-  O458  1  0.48531332  -0.01617523  0.64417597  1
  O2-  O459  1  0.51797117  0.50318460  0.03898212  1
  O2-  O460  1  0.49547278  0.51302347  0.32869596  1
  O2-  O461  1  0.52079706  0.50230219  0.70331225  1
  O2-  O462  1  0.84656670  0.01270722  0.01240093  1
  O2-  O463  1  0.81906820  0.00895694  0.31842340  1
  O2-  O464  1  0.83404290  0.02001410  0.66437604  1
  O2-  O465  1  0.83491777  0.49707460  -0.01758096  1
  O2-  O466  1  0.82915020  0.48912244  0.31808778  1
  O2-  O467  1  0.81290570  0.49434503  0.65593626  1
  O2-  O468  1  0.24773201  0.25216047  0.60484230  1
  O2-  O469  1  0.74935547  0.75510945  0.06476370  1
  O2-  O470  1  0.41991628  0.75101081  0.38996081  1
  O2-  O471  1  0.58407199  0.25196265  0.94234831  1
  O2-  O472  1  0.92040643  0.25150550  0.94618891  1
  O2-  O473  1  0.74422181  0.25232387  0.72449892  1
  O2-  O474  1  0.07148611  0.25290941  0.72511180  1
  O2-  O475  1  0.74656826  0.25528147  0.40674989  1
  O2-  O476  1  0.75322998  0.24656387  0.04345377  1
  O2-  O477  1  0.07554521  0.25868465  0.05377515  1
  O2-  O478  1  0.73092049  0.74320866  0.73000108  1
  O2-  O479  1  0.74993559  0.74584489  0.37756514  1
  O2-  O480  1  0.59600218  0.24853868  0.61493368  1
  O2-  O481  1  0.90610771  0.75059273  0.93921296  1
  O2-  O482  1  0.41429364  0.75498024  0.05537276  1
  O2-  O483  1  0.42441776  0.25061695  0.04726044  1
  O2-  O484  1  0.91794222  0.74806574  0.28344918  1
  O2-  O485  1  0.07693254  0.74873513  0.38728457  1
  O2-  O486  1  0.42156525  0.25953638  0.73735087  1
  O2-  O487  1  0.58390729  0.75599610  0.26838041  1
  O2-  O488  1  0.57807671  0.74023761  0.61377925  1
  O2-  O489  1  0.24559113  0.74937696  0.27466731  1
  O2-  O490  1  0.58486710  0.75542004  0.93627151  1
  O2-  O491  1  0.42653604  0.74740852  0.72737622  1
  O2-  O492  1  0.27337266  0.74967139  0.94051997  1
