# generated using pymatgen
data_Ca108Mn108O277
_symmetry_space_group_name_H-M   'P 1'
_cell_length_a   16.02092705
_cell_length_b   22.29913232
_cell_length_c   16.38405159
_cell_angle_alpha   89.99909718
_cell_angle_beta   90.00083533
_cell_angle_gamma   89.99545705
_symmetry_Int_Tables_number   1
_chemical_formula_structural   Ca108Mn108O277
_chemical_formula_sum   'Ca108 Mn108 O277'
_cell_volume   5853.24783065
_cell_formula_units_Z   1
loop_
 _symmetry_equiv_pos_site_id
 _symmetry_equiv_pos_as_xyz
  1  'x, y, z'
loop_
 _atom_type_symbol
 _atom_type_oxidation_number
  Ca2+  2.0
  Mn3.34+  3.34
  O2-  -2.0
loop_
 _atom_site_type_symbol
 _atom_site_label
 _atom_site_symmetry_multiplicity
 _atom_site_fract_x
 _atom_site_fract_y
 _atom_site_fract_z
 _atom_site_occupancy
  Ca2+  Ca0  1  0.07468281  0.24571820  0.25941214  1
  Ca2+  Ca1  1  0.07681070  0.24628258  0.57363373  1
  Ca2+  Ca2  1  0.08087119  0.23944044  0.91783245  1
  Ca2+  Ca3  1  0.09272346  0.74861310  0.23977196  1
  Ca2+  Ca4  1  0.07942707  0.75904808  0.58401224  1
  Ca2+  Ca5  1  0.08985377  0.75621571  0.93131192  1
  Ca2+  Ca6  1  0.42617387  0.25781800  0.24861211  1
  Ca2+  Ca7  1  0.44126132  0.24641268  0.59211208  1
  Ca2+  Ca8  1  0.41507341  0.24484471  0.90693361  1
  Ca2+  Ca9  1  0.39787205  0.73748550  0.23390095  1
  Ca2+  Ca10  1  0.39441256  0.75317005  0.56636333  1
  Ca2+  Ca11  1  0.39743393  0.75256959  0.94302368  1
  Ca2+  Ca12  1  0.74379941  0.25442947  0.24198084  1
  Ca2+  Ca13  1  0.73806563  0.25856278  0.58813507  1
  Ca2+  Ca14  1  0.75366107  0.25458311  0.91456379  1
  Ca2+  Ca15  1  0.75288306  0.75124830  0.25074179  1
  Ca2+  Ca16  1  0.77191862  0.75727882  0.57844283  1
  Ca2+  Ca17  1  0.76189083  0.75450694  0.92114602  1
  Ca2+  Ca18  1  0.23619953  0.24229474  0.06054309  1
  Ca2+  Ca19  1  0.23576079  0.25838564  0.41353402  1
  Ca2+  Ca20  1  0.24816760  0.24720321  0.77385530  1
  Ca2+  Ca21  1  0.24278025  0.73151396  0.08806744  1
  Ca2+  Ca22  1  0.24212041  0.75094278  0.39600808  1
  Ca2+  Ca23  1  0.23152169  0.75668854  0.75730065  1
  Ca2+  Ca24  1  0.58149920  0.25154169  0.07288700  1
  Ca2+  Ca25  1  0.57341440  0.24960466  0.42460577  1
  Ca2+  Ca26  1  0.57371532  0.25115660  0.75308698  1
  Ca2+  Ca27  1  0.56811437  0.74802108  0.09932022  1
  Ca2+  Ca28  1  0.58423662  0.75496163  0.39476781  1
  Ca2+  Ca29  1  0.59169493  0.75511841  0.75544880  1
  Ca2+  Ca30  1  0.93223415  0.24072163  0.07499342  1
  Ca2+  Ca31  1  0.93952078  0.24895174  0.41295823  1
  Ca2+  Ca32  1  0.92968420  0.25050162  0.76158343  1
  Ca2+  Ca33  1  0.94163729  0.74634055  0.08537884  1
  Ca2+  Ca34  1  0.92711479  0.75381998  0.41935002  1
  Ca2+  Ca35  1  0.92683008  0.74267012  0.75516054  1
  Ca2+  Ca36  1  0.26474146  0.58837090  0.40092454  1
  Ca2+  Ca37  1  0.26328482  0.10838527  0.76664541  1
  Ca2+  Ca38  1  0.94164733  0.10851530  0.41003026  1
  Ca2+  Ca39  1  0.08419823  0.61316168  0.23074641  1
  Ca2+  Ca40  1  0.07405277  0.58994926  0.58653316  1
  Ca2+  Ca41  1  0.94564329  0.08152167  0.73901860  1
  Ca2+  Ca42  1  0.93539137  0.08173145  0.74127766  1
  Ca2+  Ca43  1  0.24544388  0.59052144  0.75389246  1
  Ca2+  Ca44  1  0.25530061  0.59422186  0.40037188  1
  Ca2+  Ca45  1  0.40255338  0.10834151  0.90478504  1
  Ca2+  Ca46  1  0.58551172  0.08288801  0.08388787  1
  Ca2+  Ca47  1  0.93859626  0.61490848  0.10028540  1
  Ca2+  Ca48  1  0.75996117  0.08897164  0.25717393  1
  Ca2+  Ca49  1  0.73202332  0.08759547  0.92026772  1
  Ca2+  Ca50  1  0.92308095  0.59086805  0.40384268  1
  Ca2+  Ca51  1  0.06784695  0.08329723  0.58887355  1
  Ca2+  Ca52  1  0.06137476  0.61393256  0.93734875  1
  Ca2+  Ca53  1  0.41240360  0.57739493  0.58458458  1
  Ca2+  Ca54  1  0.91178687  0.59150403  0.40316134  1
  Ca2+  Ca55  1  0.04187825  0.11246863  0.24878890  1
  Ca2+  Ca56  1  0.25840310  0.59072135  0.75406228  1
  Ca2+  Ca57  1  0.76868844  0.08522483  0.58420462  1
  Ca2+  Ca58  1  0.54506044  0.11340585  0.75864795  1
  Ca2+  Ca59  1  0.44014405  0.10968316  0.58527949  1
  Ca2+  Ca60  1  0.23984866  0.09463521  0.41170111  1
  Ca2+  Ca61  1  0.06145259  0.59072734  0.58607529  1
  Ca2+  Ca62  1  0.73423380  0.58899042  0.25158723  1
  Ca2+  Ca63  1  0.57245814  0.09309776  0.40387000  1
  Ca2+  Ca64  1  0.06938911  0.60971789  0.93409195  1
  Ca2+  Ca65  1  0.55191278  0.10902814  0.76349514  1
  Ca2+  Ca66  1  0.78785788  0.56467429  0.61984430  1
  Ca2+  Ca67  1  0.78598292  0.60439078  0.90310456  1
  Ca2+  Ca68  1  0.10397636  0.10215164  0.91350142  1
  Ca2+  Ca69  1  0.72129444  0.08345039  0.91688449  1
  Ca2+  Ca70  1  0.61052452  0.57054162  0.74126426  1
  Ca2+  Ca71  1  0.59821959  0.57211477  0.73937300  1
  Ca2+  Ca72  1  0.58498937  0.40703842  0.74566712  1
  Ca2+  Ca73  1  0.58369384  0.91615135  0.39338625  1
  Ca2+  Ca74  1  0.56605653  0.41617894  0.09089035  1
  Ca2+  Ca75  1  0.41439683  0.39924149  0.57933370  1
  Ca2+  Ca76  1  0.41863128  0.89932301  0.24750484  1
  Ca2+  Ca77  1  0.41507368  0.90504249  0.58701424  1
  Ca2+  Ca78  1  0.21886107  0.91430824  0.75295637  1
  Ca2+  Ca79  1  0.59179021  0.90617934  0.76144634  1
  Ca2+  Ca80  1  0.25804251  0.39728225  0.74968908  1
  Ca2+  Ca81  1  0.25988742  0.40482010  0.08075365  1
  Ca2+  Ca82  1  0.07623093  0.39346149  0.24612722  1
  Ca2+  Ca83  1  0.57070939  0.41790198  0.40451075  1
  Ca2+  Ca84  1  0.74298056  0.40947216  0.25278835  1
  Ca2+  Ca85  1  0.25131973  0.90578179  0.41107357  1
  Ca2+  Ca86  1  0.07935855  0.89627460  0.24641675  1
  Ca2+  Ca87  1  0.75461622  0.90522655  0.24336200  1
  Ca2+  Ca88  1  0.25007461  0.89679636  0.08344159  1
  Ca2+  Ca89  1  0.09158671  0.40082145  0.91899938  1
  Ca2+  Ca90  1  0.59504026  0.91608240  0.39275617  1
  Ca2+  Ca91  1  0.91613815  0.90401650  0.41763275  1
  Ca2+  Ca92  1  0.40244640  0.90499343  0.58719254  1
  Ca2+  Ca93  1  0.41539015  0.41270650  0.92470324  1
  Ca2+  Ca94  1  0.91801360  0.39899885  0.08861161  1
  Ca2+  Ca95  1  0.93183977  0.91884911  0.73481960  1
  Ca2+  Ca96  1  0.06586051  0.92456874  0.61199983  1
  Ca2+  Ca97  1  0.76041062  0.41666366  0.58545804  1
  Ca2+  Ca98  1  0.73974513  0.41059381  0.91502201  1
  Ca2+  Ca99  1  0.90371814  0.41703232  0.72529357  1
  Ca2+  Ca100  1  0.89220221  0.41799448  0.72652565  1
  Ca2+  Ca101  1  0.07157894  0.39680318  0.57764806  1
  Ca2+  Ca102  1  0.77954164  0.91593448  0.59044307  1
  Ca2+  Ca103  1  0.57660125  0.41626695  0.09149565  1
  Ca2+  Ca104  1  0.57952818  0.90438124  0.76205582  1
  Ca2+  Ca105  1  0.42625581  0.41922722  0.25859874  1
  Ca2+  Ca106  1  0.58122069  0.41781348  0.40493032  1
  Ca2+  Ca107  1  0.74167175  0.90642609  0.92782385  1
  Mn3.34+  Mn108  1  0.08517181  0.33333333  0.08465862  1
  Mn3.34+  Mn109  1  0.08444238  0.32828744  0.41524109  1
  Mn3.34+  Mn110  1  0.08420638  0.33052943  0.74956780  1
  Mn3.34+  Mn111  1  0.08297924  0.83040099  0.08115219  1
  Mn3.34+  Mn112  1  0.08360436  0.83226836  0.41787874  1
  Mn3.34+  Mn113  1  0.07813811  0.83492183  0.75715619  1
  Mn3.34+  Mn114  1  0.41448987  0.33719795  0.08743096  1
  Mn3.34+  Mn115  1  0.40931346  0.34042920  0.42073345  1
  Mn3.34+  Mn116  1  0.41746597  0.33368270  0.75194050  1
  Mn3.34+  Mn117  1  0.41613357  0.82976442  0.08433853  1
  Mn3.34+  Mn118  1  0.41552033  0.83377766  0.41578889  1
  Mn3.34+  Mn119  1  0.41380053  0.82792517  0.75733622  1
  Mn3.34+  Mn120  1  0.75162239  0.33635619  0.08290999  1
  Mn3.34+  Mn121  1  0.75474678  0.33417123  0.41812474  1
  Mn3.34+  Mn122  1  0.74700750  0.33805712  0.75238783  1
  Mn3.34+  Mn123  1  0.75144085  0.83315378  0.08353464  1
  Mn3.34+  Mn124  1  0.75202531  0.83456843  0.41822617  1
  Mn3.34+  Mn125  1  0.75689378  0.82737508  0.75450424  1
  Mn3.34+  Mn126  1  0.25200398  0.33497010  0.25032011  1
  Mn3.34+  Mn127  1  0.24930687  0.33241261  0.58208501  1
  Mn3.34+  Mn128  1  0.25211719  0.33291732  0.91653830  1
  Mn3.34+  Mn129  1  0.24975788  0.83185621  0.24675030  1
  Mn3.34+  Mn130  1  0.24148514  0.83369756  0.58327745  1
  Mn3.34+  Mn131  1  0.24953240  0.83538141  0.91691478  1
  Mn3.34+  Mn132  1  0.58424095  0.33101667  0.24823017  1
  Mn3.34+  Mn133  1  0.58582837  0.33150485  0.58153148  1
  Mn3.34+  Mn134  1  0.58141525  0.33279911  0.91626475  1
  Mn3.34+  Mn135  1  0.58406874  0.83911903  0.24023915  1
  Mn3.34+  Mn136  1  0.58460601  0.82543570  0.58170268  1
  Mn3.34+  Mn137  1  0.57657621  0.84192934  0.92890468  1
  Mn3.34+  Mn138  1  0.91205565  0.33116333  0.25125062  1
  Mn3.34+  Mn139  1  0.91408146  0.33030193  0.57772246  1
  Mn3.34+  Mn140  1  0.91713912  0.33049015  0.91514762  1
  Mn3.34+  Mn141  1  0.91705084  0.83473538  0.24352588  1
  Mn3.34+  Mn142  1  0.92066269  0.83601631  0.58227996  1
  Mn3.34+  Mn143  1  0.92074832  0.83460148  0.91625587  1
  Mn3.34+  Mn144  1  0.08208224  0.66910618  0.41738855  1
  Mn3.34+  Mn145  1  0.58978462  0.67754966  0.58429980  1
  Mn3.34+  Mn146  1  0.92089447  0.16805011  0.57955936  1
  Mn3.34+  Mn147  1  0.24748539  0.66539256  0.57853250  1
  Mn3.34+  Mn148  1  0.42247175  0.66433727  0.40823392  1
  Mn3.34+  Mn149  1  0.25582401  0.17123714  0.58323285  1
  Mn3.34+  Mn150  1  0.25440759  0.66580486  0.92455383  1
  Mn3.34+  Mn151  1  0.76359831  0.16221431  0.08682488  1
  Mn3.34+  Mn152  1  0.74286526  0.66315141  0.09011356  1
  Mn3.34+  Mn153  1  0.58100409  0.16208982  0.24779282  1
  Mn3.34+  Mn154  1  0.41101029  0.67465189  0.75386916  1
  Mn3.34+  Mn155  1  0.43541294  0.65719772  0.40687576  1
  Mn3.34+  Mn156  1  0.74630607  0.16476033  0.74977642  1
  Mn3.34+  Mn157  1  0.25379431  0.16063725  0.24583420  1
  Mn3.34+  Mn158  1  0.75558665  0.67071934  0.08817454  1
  Mn3.34+  Mn159  1  0.07974469  0.67013075  0.75596462  1
  Mn3.34+  Mn160  1  0.41447369  0.64960553  0.09994696  1
  Mn3.34+  Mn161  1  0.75471317  0.67003712  0.75494925  1
  Mn3.34+  Mn162  1  0.24453780  0.16632303  0.24668955  1
  Mn3.34+  Mn163  1  0.07879921  0.16722673  0.08098689  1
  Mn3.34+  Mn164  1  0.75623967  0.16993283  0.74834135  1
  Mn3.34+  Mn165  1  0.24406215  0.16325905  0.58023785  1
  Mn3.34+  Mn166  1  0.74761852  0.17687967  0.41725138  1
  Mn3.34+  Mn167  1  0.42078647  0.16608001  0.08391863  1
  Mn3.34+  Mn168  1  0.41040842  0.16141618  0.08430571  1
  Mn3.34+  Mn169  1  0.57419813  0.66102587  0.92210214  1
  Mn3.34+  Mn170  1  0.41817550  0.68171408  0.75256243  1
  Mn3.34+  Mn171  1  0.58143574  0.67131430  0.58337923  1
  Mn3.34+  Mn172  1  0.73889350  0.66031093  0.41430699  1
  Mn3.34+  Mn173  1  0.91314674  0.66622542  0.58455228  1
  Mn3.34+  Mn174  1  0.58392806  0.66605449  0.92134785  1
  Mn3.34+  Mn175  1  0.75618967  0.17096792  0.41903554  1
  Mn3.34+  Mn176  1  0.08622873  0.16602103  0.75420320  1
  Mn3.34+  Mn177  1  0.74856598  0.16698640  0.08529979  1
  Mn3.34+  Mn178  1  0.41615730  0.16656288  0.41464945  1
  Mn3.34+  Mn179  1  0.74941741  0.66545456  0.41444439  1
  Mn3.34+  Mn180  1  0.74923177  0.50186017  0.08023912  1
  Mn3.34+  Mn181  1  0.09348596  0.00576567  0.08774932  1
  Mn3.34+  Mn182  1  0.08101323  -0.00066225  0.08772441  1
  Mn3.34+  Mn183  1  0.25519791  -0.00157751  0.25137044  1
  Mn3.34+  Mn184  1  0.25018268  -0.00475078  0.92017065  1
  Mn3.34+  Mn185  1  0.91445852  0.00104174  0.24949224  1
  Mn3.34+  Mn186  1  0.41432667  0.50199856  0.75693976  1
  Mn3.34+  Mn187  1  0.24907677  0.00125046  0.59043866  1
  Mn3.34+  Mn188  1  0.07838302  0.00208722  0.41902777  1
  Mn3.34+  Mn189  1  0.75404293  -0.00228771  0.75201952  1
  Mn3.34+  Mn190  1  0.58240540  0.49910460  0.58218703  1
  Mn3.34+  Mn191  1  0.26172858  0.51079306  0.23957122  1
  Mn3.34+  Mn192  1  0.25719262  0.50052328  0.93450328  1
  Mn3.34+  Mn193  1  0.91654482  -0.00095900  0.92255179  1
  Mn3.34+  Mn194  1  0.74341272  -0.00273660  0.08198627  1
  Mn3.34+  Mn195  1  0.58109968  0.00597964  0.57796716  1
  Mn3.34+  Mn196  1  0.57301907  0.50140809  0.93166986  1
  Mn3.34+  Mn197  1  0.25041838  0.50329316  0.23847884  1
  Mn3.34+  Mn198  1  0.92336000  0.49719431  0.91278971  1
  Mn3.34+  Mn199  1  0.41867829  0.00017393  0.07551686  1
  Mn3.34+  Mn200  1  0.41433249  0.00313071  0.41287430  1
  Mn3.34+  Mn201  1  0.75454743  0.00195730  0.41448679  1
  Mn3.34+  Mn202  1  0.92675282  -0.00606122  0.92160395  1
  Mn3.34+  Mn203  1  0.08410217  0.49814914  0.75325256  1
  Mn3.34+  Mn204  1  0.07308491  0.50321540  0.75324470  1
  Mn3.34+  Mn205  1  0.08859951  -0.00294200  0.42002610  1
  Mn3.34+  Mn206  1  0.91285541  0.50173979  0.24776295  1
  Mn3.34+  Mn207  1  0.42913521  -0.00455271  0.07373276  1
  Mn3.34+  Mn208  1  0.25245264  0.49664418  0.58069516  1
  Mn3.34+  Mn209  1  0.74397032  0.50097509  0.40770487  1
  Mn3.34+  Mn210  1  0.07959163  0.49579782  0.41398786  1
  Mn3.34+  Mn211  1  0.91343699  0.50258633  0.91078219  1
  Mn3.34+  Mn212  1  0.41053540  -0.00326428  0.75395204  1
  Mn3.34+  Mn213  1  0.09039402  0.49083120  0.41488180  1
  Mn3.34+  Mn214  1  0.59129589  0.00014781  0.57696124  1
  Mn3.34+  Mn215  1  0.08831082  0.49993578  0.08002211  1
  O2-  O216  1  0.00642317  0.16261002  0.00024036  1
  O2-  O217  1  -0.00673572  0.17887915  0.33138237  1
  O2-  O218  1  0.00183943  0.15446884  0.66344881  1
  O2-  O219  1  -0.00476528  0.67328954  -0.00000156  1
  O2-  O220  1  -0.00213992  0.66031422  0.34327165  1
  O2-  O221  1  0.00116326  0.65669255  0.66818806  1
  O2-  O222  1  0.33540088  0.16401479  0.00159878  1
  O2-  O223  1  0.32743084  0.16592663  0.33573162  1
  O2-  O224  1  0.33461236  0.16082720  0.65997100  1
  O2-  O225  1  0.33662420  0.66756288  -0.00294398  1
  O2-  O226  1  0.33596033  0.65868257  0.33456446  1
  O2-  O227  1  0.33421094  0.65326845  0.66226458  1
  O2-  O228  1  0.66668564  0.14778940  0.00840479  1
  O2-  O229  1  0.67169886  0.16210272  0.33261332  1
  O2-  O230  1  0.67116083  0.14594659  0.66999020  1
  O2-  O231  1  0.67584308  0.65240041  -0.00394729  1
  O2-  O232  1  0.66603121  0.67254473  0.32965569  1
  O2-  O233  1  0.65957764  0.67216849  0.68002891  1
  O2-  O234  1  0.16134928  0.16410797  0.00261632  1
  O2-  O235  1  0.16427608  0.15436380  0.32629393  1
  O2-  O236  1  0.16790747  0.14757707  0.66437798  1
  O2-  O237  1  0.16916789  0.65985566  -0.00709616  1
  O2-  O238  1  0.16709875  0.65575817  0.34759789  1
  O2-  O239  1  0.16482924  0.64352371  0.66881536  1
  O2-  O240  1  0.50027759  0.15227320  0.00502035  1
  O2-  O241  1  0.50093602  0.17085945  0.33506134  1
  O2-  O242  1  0.49909272  0.17216310  0.67071288  1
  O2-  O243  1  0.49832200  0.67903130  0.00387698  1
  O2-  O244  1  0.50482738  0.68362345  0.32738985  1
  O2-  O245  1  0.49626793  0.67796875  0.66506380  1
  O2-  O246  1  0.82154491  0.15162654  -0.00771169  1
  O2-  O247  1  0.83272694  0.17430927  0.33649520  1
  O2-  O248  1  0.83771310  0.14936164  0.66861040  1
  O2-  O249  1  0.83302282  0.66253875  0.00694022  1
  O2-  O250  1  0.83019033  0.65455727  0.33161016  1
  O2-  O251  1  0.82276721  0.66765098  0.65910035  1
  O2-  O252  1  0.00070604  0.34653956  -0.00024032  1
  O2-  O253  1  0.00050052  0.32757613  0.32844800  1
  O2-  O254  1  -0.00577366  0.34561943  0.67361929  1
  O2-  O255  1  -0.00109670  0.82041969  -0.00024756  1
  O2-  O256  1  -0.00328318  0.83337854  0.33593440  1
  O2-  O257  1  -0.00010855  0.83936382  0.66542556  1
  O2-  O258  1  0.33672478  0.34544057  -0.00178459  1
  O2-  O259  1  0.34018427  0.32465242  0.33256771  1
  O2-  O260  1  0.33645277  0.32864371  0.66829381  1
  O2-  O261  1  0.33371479  0.84069164  0.00124074  1
  O2-  O262  1  0.33291595  0.84492575  0.33348514  1
  O2-  O263  1  0.33502194  0.83984658  0.66601215  1
  O2-  O264  1  0.66005750  0.35463350  0.00513483  1
  O2-  O265  1  0.66686761  0.34383901  0.33426970  1
  O2-  O266  1  0.66949157  0.35307246  0.66240732  1
  O2-  O267  1  0.66918465  0.83242583  -0.00493069  1
  O2-  O268  1  0.66600035  0.83615110  0.33060918  1
  O2-  O269  1  0.66696409  0.82268486  0.66927342  1
  O2-  O270  1  0.17192854  0.34722462  0.00234826  1
  O2-  O271  1  0.16419051  0.34094030  0.32987000  1
  O2-  O272  1  0.16440776  0.34996271  0.66614270  1
  O2-  O273  1  0.16725847  0.84151573  0.00169246  1
  O2-  O274  1  0.16680535  0.84408131  0.33401125  1
  O2-  O275  1  0.16295304  0.84502083  0.66650480  1
  O2-  O276  1  0.50195917  0.34963336  0.00391698  1
  O2-  O277  1  0.50136152  0.33905502  0.33695584  1
  O2-  O278  1  0.50081316  0.34005979  0.66712258  1
  O2-  O279  1  0.50090084  0.81466621  0.00415462  1
  O2-  O280  1  0.50791280  0.83806420  0.33815545  1
  O2-  O281  1  0.49926365  0.82287366  0.66700776  1
  O2-  O282  1  0.82955124  0.34862155  -0.00540527  1
  O2-  O283  1  0.82821625  0.31063596  0.33144197  1
  O2-  O284  1  0.82829282  0.34216344  0.66558789  1
  O2-  O285  1  0.83065933  0.83244960  -0.00830222  1
  O2-  O286  1  0.83527934  0.83565791  0.33149171  1
  O2-  O287  1  0.83332732  0.83807153  0.66503213  1
  O2-  O288  1  0.00641827  0.18752794  0.16584861  1
  O2-  O289  1  -0.00294176  0.17758794  0.50404523  1
  O2-  O290  1  0.00053567  0.17385296  0.82298129  1
  O2-  O291  1  0.00293717  0.68512897  0.17831932  1
  O2-  O292  1  0.00008834  0.67247019  0.50136350  1
  O2-  O293  1  0.01331695  0.68382310  0.84181484  1
  O2-  O294  1  0.33782416  0.18233939  0.17024190  1
  O2-  O295  1  0.32996951  0.18377916  0.49667157  1
  O2-  O296  1  0.33768040  0.18134890  0.82880620  1
  O2-  O297  1  0.33192879  0.66590424  0.15871566  1
  O2-  O298  1  0.33557447  0.67331772  0.49304931  1
  O2-  O299  1  0.32323219  0.67848995  0.82805482  1
  O2-  O300  1  0.66841464  0.17914956  0.16454611  1
  O2-  O301  1  0.66895929  0.18664132  0.49488273  1
  O2-  O302  1  0.66574553  0.17461320  0.83274528  1
  O2-  O303  1  0.66841225  0.67838896  0.17066753  1
  O2-  O304  1  0.67181156  0.68493720  0.50316346  1
  O2-  O305  1  0.66716206  0.68942121  0.83854804  1
  O2-  O306  1  0.16779450  0.17592365  0.16480905  1
  O2-  O307  1  0.17045271  0.17295953  0.50035600  1
  O2-  O308  1  0.16579848  0.17479623  0.82980311  1
  O2-  O309  1  0.15872438  0.68035265  0.16859041  1
  O2-  O310  1  0.15780766  0.66820149  0.50716851  1
  O2-  O311  1  0.17252507  0.66921188  0.82637408  1
  O2-  O312  1  0.50107145  0.17775660  0.16146772  1
  O2-  O313  1  0.49043973  0.18406567  0.49233541  1
  O2-  O314  1  0.49383768  0.18019129  0.83445294  1
  O2-  O315  1  0.49276015  0.67449256  0.16243156  1
  O2-  O316  1  0.50197603  0.67919217  0.49727515  1
  O2-  O317  1  0.50233720  0.69412227  0.83379578  1
  O2-  O318  1  0.82975621  0.18526433  0.16893001  1
  O2-  O319  1  0.83052692  0.18524305  0.50456436  1
  O2-  O320  1  0.83054286  0.17907250  0.82985099  1
  O2-  O321  1  0.83325181  0.68359352  0.16716099  1
  O2-  O322  1  0.83791636  0.67414926  0.48879164  1
  O2-  O323  1  0.83008714  0.68839033  0.83056954  1
  O2-  O324  1  -0.00097537  0.32245923  0.16541739  1
  O2-  O325  1  0.00181091  0.31949191  0.50491544  1
  O2-  O326  1  0.00327274  0.32442290  0.83381284  1
  O2-  O327  1  0.00532519  0.81879847  0.17267909  1
  O2-  O328  1  -0.00030858  0.82295900  0.49802225  1
  O2-  O329  1  -0.00185273  0.81397457  0.83313846  1
  O2-  O330  1  0.33570486  0.32439179  0.16712251  1
  O2-  O331  1  0.33546421  0.31536856  0.50310176  1
  O2-  O332  1  0.33398253  0.32127524  0.83189340  1
  O2-  O333  1  0.33462875  0.82939532  0.17036284  1
  O2-  O334  1  0.33329590  0.83181000  0.50389713  1
  O2-  O335  1  0.33150696  0.81158076  0.83085243  1
  O2-  O336  1  0.66533413  0.32744938  0.16464284  1
  O2-  O337  1  0.66326355  0.31965152  0.49361745  1
  O2-  O338  1  0.66652971  0.32858264  0.83400028  1
  O2-  O339  1  0.66750311  0.81630610  0.17110932  1
  O2-  O340  1  0.66033801  0.82101927  0.49514921  1
  O2-  O341  1  0.66852261  0.81638262  0.83168480  1
  O2-  O342  1  0.16744950  0.33095318  0.16538492  1
  O2-  O343  1  0.16260501  0.32579558  0.50600325  1
  O2-  O344  1  0.16745530  0.32758864  0.83245019  1
  O2-  O345  1  0.16551426  0.82952021  0.16878180  1
  O2-  O346  1  0.16873363  0.82635133  0.49540006  1
  O2-  O347  1  0.16639809  0.82651115  0.83077014  1
  O2-  O348  1  0.50424767  0.32370868  0.16374048  1
  O2-  O349  1  0.49822363  0.31840173  0.50053875  1
  O2-  O350  1  0.49980096  0.31877675  0.83210600  1
  O2-  O351  1  0.49420253  0.81710306  0.17681211  1
  O2-  O352  1  0.49350523  0.82098105  0.50724100  1
  O2-  O353  1  0.50887857  0.82082093  0.82972569  1
  O2-  O354  1  0.83417151  0.31734110  0.16434553  1
  O2-  O355  1  0.82842095  0.31520152  0.50315293  1
  O2-  O356  1  0.83515203  0.32285277  0.82718086  1
  O2-  O357  1  0.83078729  0.81571289  0.17080502  1
  O2-  O358  1  0.83589321  0.82919886  0.50019713  1
  O2-  O359  1  0.83776143  0.80998502  0.83188858  1
  O2-  O360  1  0.07785527  0.08370811  0.11824085  1
  O2-  O361  1  0.08520166  0.08193539  0.44594307  1
  O2-  O362  1  0.07908370  0.08314398  0.77403049  1
  O2-  O363  1  0.07452836  0.57785128  0.09720350  1
  O2-  O364  1  0.08085077  0.57694982  0.44975764  1
  O2-  O365  1  0.08443879  0.58334167  0.78814354  1
  O2-  O366  1  0.41800227  0.07888657  0.12304364  1
  O2-  O367  1  0.41441217  0.08080302  0.44693435  1
  O2-  O368  1  0.41155170  0.07618449  0.77576745  1
  O2-  O369  1  0.41980490  0.57698797  0.09514686  1
  O2-  O370  1  0.40629898  0.58009758  0.44595144  1
  O2-  O371  1  0.41296485  0.58611023  0.77709292  1
  O2-  O372  1  0.75148275  0.08055334  0.12047887  1
  O2-  O373  1  0.75255259  0.08416089  0.44191558  1
  O2-  O374  1  0.76107188  0.07934609  0.78096467  1
  O2-  O375  1  0.76153501  0.58345223  0.11657106  1
  O2-  O376  1  0.75741576  0.57730329  0.46103027  1
  O2-  O377  1  0.73569214  0.58298968  0.77608507  1
  O2-  O378  1  0.25412811  0.08040323  0.22956504  1
  O2-  O379  1  0.25844501  0.08099964  0.55207439  1
  O2-  O380  1  0.25264455  0.07010605  0.88757014  1
  O2-  O381  1  0.23456340  0.58773981  0.24296108  1
  O2-  O382  1  0.25165274  0.57762107  0.53727381  1
  O2-  O383  1  0.24894940  0.57667245  0.88748991  1
  O2-  O384  1  0.59905292  0.08390005  0.23140130  1
  O2-  O385  1  0.58294454  0.08389939  0.54431450  1
  O2-  O386  1  0.61032947  0.06158063  0.85540225  1
  O2-  O387  1  0.59515549  0.56535858  0.24573645  1
  O2-  O388  1  0.57316911  0.58406979  0.57521133  1
  O2-  O389  1  0.58336499  0.57631236  0.87547538  1
  O2-  O390  1  0.90652233  0.07872789  0.23855493  1
  O2-  O391  1  0.91349269  0.08574834  0.55603146  1
  O2-  O392  1  0.90846557  0.07346474  0.87102866  1
  O2-  O393  1  0.91594535  0.57817509  0.22376658  1
  O2-  O394  1  0.92758295  0.57925871  0.54441619  1
  O2-  O395  1  0.92724837  0.58424449  0.89522419  1
  O2-  O396  1  0.08145867  0.42003755  0.11090632  1
  O2-  O397  1  0.07595498  0.41147848  0.43691029  1
  O2-  O398  1  0.08283949  0.41700460  0.77421565  1
  O2-  O399  1  0.08630115  0.91875283  0.10954385  1
  O2-  O400  1  0.07473487  0.91577142  0.43930495  1
  O2-  O401  1  0.07570998  0.91525865  0.76132053  1
  O2-  O402  1  0.42836205  0.41791061  0.11816955  1
  O2-  O403  1  0.43744433  0.42119307  0.44572818  1
  O2-  O404  1  0.41147707  0.42056124  0.77449510  1
  O2-  O405  1  0.42043688  0.91607079  0.11135440  1
  O2-  O406  1  0.42559838  0.92292429  0.45197928  1
  O2-  O407  1  0.44234225  0.91598045  0.75297030  1
  O2-  O408  1  0.75420742  0.42079241  0.11862069  1
  O2-  O409  1  0.73009604  0.42354447  0.44628773  1
  O2-  O410  1  0.75975118  0.41850776  0.77734696  1
  O2-  O411  1  0.74834678  0.91587308  0.10622688  1
  O2-  O412  1  0.73915934  0.92043018  0.44554380  1
  O2-  O413  1  0.73400877  0.91621279  0.77114103  1
  O2-  O414  1  0.26695766  0.42389055  0.22262057  1
  O2-  O415  1  0.26830927  0.41385474  0.57541787  1
  O2-  O416  1  0.25148921  0.42440218  0.88574161  1
  O2-  O417  1  0.25043065  0.91940060  0.22235974  1
  O2-  O418  1  0.26208421  0.92204856  0.55614947  1
  O2-  O419  1  0.25580435  0.91780386  0.88465401  1
  O2-  O420  1  0.58317299  0.41496906  0.22885388  1
  O2-  O421  1  0.57743486  0.41868089  0.54953432  1
  O2-  O422  1  0.57675781  0.42616462  0.88069291  1
  O2-  O423  1  0.58294403  0.91939186  0.25199514  1
  O2-  O424  1  0.56661153  0.91737908  0.56758601  1
  O2-  O425  1  0.60203653  0.92048267  0.89085895  1
  O2-  O426  1  0.91071632  0.41994801  0.22794566  1
  O2-  O427  1  0.91668134  0.41148563  0.57626942  1
  O2-  O428  1  0.91578007  0.41754144  0.88015793  1
  O2-  O429  1  0.91974631  0.91942920  0.23125890  1
  O2-  O430  1  0.91923893  0.91763976  0.56259007  1
  O2-  O431  1  0.90098770  0.91830551  0.87412759  1
  O2-  O432  1  0.00342711  0.00878941  0.00350527  1
  O2-  O433  1  -0.00810243  0.00425526  0.34096934  1
  O2-  O434  1  -0.00748606  0.00440354  0.67923616  1
  O2-  O435  1  -0.00639103  0.49495473  0.00584544  1
  O2-  O436  1  -0.00618329  0.51284811  0.33753518  1
  O2-  O437  1  0.01147259  0.50594495  0.65395330  1
  O2-  O438  1  0.33063699  -0.00464824  0.00170241  1
  O2-  O439  1  0.32392466  -0.01012489  0.34852906  1
  O2-  O440  1  0.34799864  -0.01059094  0.65232099  1
  O2-  O441  1  0.33268482  0.48102771  0.00328252  1
  O2-  O442  1  0.32796002  0.51208376  0.33246803  1
  O2-  O443  1  0.33103364  0.51799691  0.67263992  1
  O2-  O444  1  0.67027021  0.01925629  0.00324621  1
  O2-  O445  1  0.66316378  -0.00006887  0.35674735  1
  O2-  O446  1  0.67380528  -0.00295890  0.66072237  1
  O2-  O447  1  0.65989871  0.48415101  0.00204869  1
  O2-  O448  1  0.67021319  0.49280803  0.32828174  1
  O2-  O449  1  0.66585156  0.50480401  0.66597562  1
  O2-  O450  1  0.16631053  -0.00022768  -0.00106495  1
  O2-  O451  1  0.16693119  -0.00258599  0.33422477  1
  O2-  O452  1  0.15822549  -0.00310730  0.64909832  1
  O2-  O453  1  0.15253833  0.49969174  -0.02103120  1
  O2-  O454  1  0.16657572  0.50139297  0.32689078  1
  O2-  O455  1  0.16957028  0.51995335  0.67210958  1
  O2-  O456  1  0.50552840  0.02312192  0.00062232  1
  O2-  O457  1  0.51659562  0.00047743  0.37027645  1
  O2-  O458  1  0.51025752  0.00999523  0.67735428  1
  O2-  O459  1  0.50021481  0.48045342  0.00480651  1
  O2-  O460  1  0.50734271  0.48222303  0.33155370  1
  O2-  O461  1  0.50487049  0.50529804  0.67744902  1
  O2-  O462  1  0.82131706  0.00296587  -0.01152308  1
  O2-  O463  1  0.82152210  -0.00681192  0.32153473  1
  O2-  O464  1  0.83386116  -0.00019132  0.67608243  1
  O2-  O465  1  0.82359191  0.50115943  -0.01527877  1
  O2-  O466  1  0.83170838  0.51840374  0.33553406  1
  O2-  O467  1  0.83415105  0.48525297  0.66290269  1
  O2-  O468  1  0.24184832  0.75042692  0.92942776  1
  O2-  O469  1  0.40880014  0.74852571  0.41083642  1
  O2-  O470  1  0.58658828  0.24959062  0.26221045  1
  O2-  O471  1  0.23154505  0.24949585  0.60661499  1
  O2-  O472  1  0.74120826  0.24867163  0.05651860  1
  O2-  O473  1  0.08932761  0.25307733  0.06144373  1
  O2-  O474  1  0.59174717  0.25554499  0.60660256  1
  O2-  O475  1  0.73919859  0.74903444  0.06328266  1
  O2-  O476  1  0.24939946  0.75231483  0.26042344  1
  O2-  O477  1  0.74109039  0.25329826  0.72822608  1
  O2-  O478  1  0.91499520  0.25362870  0.93153353  1
  O2-  O479  1  0.42159561  0.25114775  0.06537896  1
  O2-  O480  1  0.24319070  0.24730914  0.26166722  1
  O2-  O481  1  0.40141142  0.75104900  0.08335806  1
  O2-  O482  1  0.09203884  0.25097737  0.40824778  1
  O2-  O483  1  0.59272609  0.25608167  0.93757475  1
  O2-  O484  1  0.91882763  0.75039209  0.59139139  1
  O2-  O485  1  0.24770930  0.74895184  0.60251818  1
  O2-  O486  1  0.91884791  0.24908146  0.61370259  1
  O2-  O487  1  0.08562469  0.25043926  0.72550321  1
  O2-  O488  1  0.24747897  0.25479417  0.92662286  1
  O2-  O489  1  0.09498856  0.75172719  0.07783777  1
  O2-  O490  1  0.08977526  0.75036500  0.40617053  1
  O2-  O491  1  0.75527539  0.75124872  0.40606015  1
  O2-  O492  1  0.08950452  0.74895842  0.72499514  1
