# generated using pymatgen
data_Ca108Mn108O277
_symmetry_space_group_name_H-M   'P 1'
_cell_length_a   16.02409578
_cell_length_b   22.30253306
_cell_length_c   16.38571491
_cell_angle_alpha   90.00323075
_cell_angle_beta   89.99995505
_cell_angle_gamma   90.00849729
_symmetry_Int_Tables_number   1
_chemical_formula_structural   Ca108Mn108O277
_chemical_formula_sum   'Ca108 Mn108 O277'
_cell_volume   5855.89273520
_cell_formula_units_Z   1
loop_
 _symmetry_equiv_pos_site_id
 _symmetry_equiv_pos_as_xyz
  1  'x, y, z'
loop_
 _atom_type_symbol
 _atom_type_oxidation_number
  Ca2+  2.0
  Mn3.34+  3.34
  O2-  -2.0
loop_
 _atom_site_type_symbol
 _atom_site_label
 _atom_site_symmetry_multiplicity
 _atom_site_fract_x
 _atom_site_fract_y
 _atom_site_fract_z
 _atom_site_occupancy
  Ca2+  Ca0  1  0.05917433  0.23557951  0.24445737  1
  Ca2+  Ca1  1  0.07029338  0.23661761  0.58670939  1
  Ca2+  Ca2  1  0.07623556  0.25272363  0.91728155  1
  Ca2+  Ca3  1  0.08298528  0.76216866  0.22939733  1
  Ca2+  Ca4  1  0.07574717  0.73455610  0.58879893  1
  Ca2+  Ca5  1  0.07600743  0.75667675  0.93149341  1
  Ca2+  Ca6  1  0.42815339  0.24441201  0.22716009  1
  Ca2+  Ca7  1  0.42479003  0.25576572  0.58813844  1
  Ca2+  Ca8  1  0.43762660  0.24315690  0.92119315  1
  Ca2+  Ca9  1  0.41059787  0.76038870  0.25567911  1
  Ca2+  Ca10  1  0.38958331  0.74323238  0.58412342  1
  Ca2+  Ca11  1  0.42361297  0.75830565  0.92278577  1
  Ca2+  Ca12  1  0.77723751  0.24580244  0.24840051  1
  Ca2+  Ca13  1  0.74840339  0.25096256  0.59960734  1
  Ca2+  Ca14  1  0.72765428  0.24272534  0.89095954  1
  Ca2+  Ca15  1  0.75646237  0.76904092  0.24201353  1
  Ca2+  Ca16  1  0.77844485  0.74396761  0.58212107  1
  Ca2+  Ca17  1  0.75284102  0.76135458  0.92565839  1
  Ca2+  Ca18  1  0.24762464  0.25298368  0.07872169  1
  Ca2+  Ca19  1  0.23188400  0.24933706  0.42391892  1
  Ca2+  Ca20  1  0.23617331  0.25444227  0.74634289  1
  Ca2+  Ca21  1  0.23018707  0.74262722  0.08188796  1
  Ca2+  Ca22  1  0.25751512  0.75782937  0.43171057  1
  Ca2+  Ca23  1  0.23336421  0.73448629  0.74143072  1
  Ca2+  Ca24  1  0.56513952  0.23031602  0.06106862  1
  Ca2+  Ca25  1  0.57590979  0.23892348  0.42734029  1
  Ca2+  Ca26  1  0.58688938  0.24171985  0.75705169  1
  Ca2+  Ca27  1  0.58875361  0.76027570  0.06804875  1
  Ca2+  Ca28  1  0.57381915  0.76400325  0.41510369  1
  Ca2+  Ca29  1  0.57497011  0.75898883  0.77061988  1
  Ca2+  Ca30  1  0.93424665  0.24200977  0.10477980  1
  Ca2+  Ca31  1  0.93592971  0.24010593  0.40280584  1
  Ca2+  Ca32  1  0.92249313  0.25554254  0.74416902  1
  Ca2+  Ca33  1  0.92636441  0.75035739  0.07512652  1
  Ca2+  Ca34  1  0.91834737  0.76632226  0.42506911  1
  Ca2+  Ca35  1  0.93017193  0.74016649  0.74475325  1
  Ca2+  Ca36  1  0.96009286  0.08118912  0.09069494  1
  Ca2+  Ca37  1  0.90292510  0.10216339  0.74898399  1
  Ca2+  Ca38  1  0.92016247  0.59484806  0.44890315  1
  Ca2+  Ca39  1  0.55965815  0.07648345  0.06846545  1
  Ca2+  Ca40  1  0.25566950  0.09269508  0.41572366  1
  Ca2+  Ca41  1  0.94975655  0.08133055  0.09233628  1
  Ca2+  Ca42  1  0.43882607  0.09715911  0.56208132  1
  Ca2+  Ca43  1  0.93931409  0.10446171  0.40540159  1
  Ca2+  Ca44  1  0.09515217  0.61164899  0.92115779  1
  Ca2+  Ca45  1  0.91442975  0.10091137  0.74910091  1
  Ca2+  Ca46  1  0.57680594  0.58880005  0.75922412  1
  Ca2+  Ca47  1  0.06846970  0.10112024  0.24840978  1
  Ca2+  Ca48  1  0.58588191  0.10320686  0.75915171  1
  Ca2+  Ca49  1  0.09810968  0.60629812  0.20371070  1
  Ca2+  Ca50  1  0.27895767  0.59912668  0.42991533  1
  Ca2+  Ca51  1  0.41908094  0.07741580  0.24304200  1
  Ca2+  Ca52  1  0.58208381  0.59402012  0.07250349  1
  Ca2+  Ca53  1  0.45042748  0.09047399  0.92092779  1
  Ca2+  Ca54  1  0.77948316  0.59045955  0.59725450  1
  Ca2+  Ca55  1  0.44633399  0.08789923  0.91244242  1
  Ca2+  Ca56  1  0.12037914  0.59469679  0.60985642  1
  Ca2+  Ca57  1  0.70711019  0.09058872  0.90435119  1
  Ca2+  Ca58  1  0.91782914  0.58898949  0.44121307  1
  Ca2+  Ca59  1  0.74322223  0.59214496  0.92510659  1
  Ca2+  Ca60  1  0.08574707  0.61285558  0.91687114  1
  Ca2+  Ca61  1  0.27371362  0.59394559  0.43555575  1
  Ca2+  Ca62  1  0.77682699  0.08974825  0.26537839  1
  Ca2+  Ca63  1  0.94264488  0.59806012  0.72360516  1
  Ca2+  Ca64  1  0.73257692  0.10109639  0.58320058  1
  Ca2+  Ca65  1  0.75574373  0.59176971  0.92399952  1
  Ca2+  Ca66  1  0.55983680  0.58394893  0.40295815  1
  Ca2+  Ca67  1  0.24656795  0.09496036  0.41185413  1
  Ca2+  Ca68  1  0.23490078  0.08945498  0.08150190  1
  Ca2+  Ca69  1  0.08426900  0.07790350  0.94216501  1
  Ca2+  Ca70  1  0.93721177  0.59187070  0.72569029  1
  Ca2+  Ca71  1  0.74094876  0.10367361  0.58844977  1
  Ca2+  Ca72  1  0.08507921  0.40864576  0.59006321  1
  Ca2+  Ca73  1  0.08067316  0.89842098  0.57832648  1
  Ca2+  Ca74  1  0.91841563  0.91634135  0.07489914  1
  Ca2+  Ca75  1  0.58127735  0.39501131  0.41787774  1
  Ca2+  Ca76  1  0.27141561  0.91472713  0.40021848  1
  Ca2+  Ca77  1  0.58632691  0.40424354  0.08084290  1
  Ca2+  Ca78  1  0.75053706  0.39898497  0.24803578  1
  Ca2+  Ca79  1  0.25001950  0.91055669  0.08097230  1
  Ca2+  Ca80  1  0.41391505  0.40048898  0.25508339  1
  Ca2+  Ca81  1  0.41453014  0.39594811  0.91024846  1
  Ca2+  Ca82  1  0.25331801  0.41407106  0.73244202  1
  Ca2+  Ca83  1  0.57135532  0.40100884  0.75033631  1
  Ca2+  Ca84  1  0.42664196  0.40115237  0.25462669  1
  Ca2+  Ca85  1  0.23968358  0.90997728  0.08243011  1
  Ca2+  Ca86  1  0.91497677  0.91228422  0.40028948  1
  Ca2+  Ca87  1  0.43959444  0.92526108  0.92977222  1
  Ca2+  Ca88  1  0.08882050  0.39972122  0.24756258  1
  Ca2+  Ca89  1  0.91411306  0.90082001  0.76495530  1
  Ca2+  Ca90  1  0.55763564  0.92086403  0.39658960  1
  Ca2+  Ca91  1  0.08500795  0.40335689  0.91758231  1
  Ca2+  Ca92  1  0.26423826  0.40614067  0.42597358  1
  Ca2+  Ca93  1  0.42533777  0.90962868  0.58996485  1
  Ca2+  Ca94  1  0.43581600  0.90846889  0.59290370  1
  Ca2+  Ca95  1  0.73917408  0.89993017  0.58486971  1
  Ca2+  Ca96  1  0.91520581  0.40870523  0.08461730  1
  Ca2+  Ca97  1  0.09348649  0.89816582  0.57767824  1
  Ca2+  Ca98  1  0.92102254  0.41250372  0.73913132  1
  Ca2+  Ca99  1  0.26984047  0.90452360  0.75843267  1
  Ca2+  Ca100  1  0.25195409  0.40495804  0.42371735  1
  Ca2+  Ca101  1  0.92768139  0.40915380  0.08570376  1
  Ca2+  Ca102  1  0.90167589  0.90025425  0.76635898  1
  Ca2+  Ca103  1  0.72759430  0.89847819  0.58487767  1
  Ca2+  Ca104  1  0.07029713  0.92989314  0.95190544  1
  Ca2+  Ca105  1  0.91377201  0.39859884  0.42296243  1
  Ca2+  Ca106  1  0.75536139  0.40065641  0.58197487  1
  Ca2+  Ca107  1  0.74852937  0.40551309  0.91735775  1
  Mn3.34+  Mn108  1  0.08824005  0.32961153  0.08258156  1
  Mn3.34+  Mn109  1  0.08262800  0.32859053  0.41827523  1
  Mn3.34+  Mn110  1  0.08279615  0.33139737  0.74930800  1
  Mn3.34+  Mn111  1  0.08302388  0.83458183  0.08412759  1
  Mn3.34+  Mn112  1  0.08728061  0.83997792  0.40477783  1
  Mn3.34+  Mn113  1  0.08862115  0.83005691  0.75925534  1
  Mn3.34+  Mn114  1  0.41413414  0.32945390  0.08061129  1
  Mn3.34+  Mn115  1  0.41836857  0.32147405  0.41994106  1
  Mn3.34+  Mn116  1  0.41434549  0.32979063  0.74773807  1
  Mn3.34+  Mn117  1  0.41932138  0.83966016  0.08848612  1
  Mn3.34+  Mn118  1  0.41773039  0.83759870  0.41621079  1
  Mn3.34+  Mn119  1  0.41947709  0.83655471  0.75975895  1
  Mn3.34+  Mn120  1  0.74956735  0.33194011  0.08044028  1
  Mn3.34+  Mn121  1  0.75012693  0.32289369  0.41914502  1
  Mn3.34+  Mn122  1  0.74993440  0.32999273  0.75031389  1
  Mn3.34+  Mn123  1  0.74812056  0.84027435  0.08338208  1
  Mn3.34+  Mn124  1  0.74461918  0.83850380  0.40835526  1
  Mn3.34+  Mn125  1  0.74291359  0.82833724  0.75650745  1
  Mn3.34+  Mn126  1  0.24910901  0.32927189  0.24720551  1
  Mn3.34+  Mn127  1  0.25167771  0.33795573  0.58545626  1
  Mn3.34+  Mn128  1  0.25146213  0.33177484  0.91223259  1
  Mn3.34+  Mn129  1  0.25340843  0.83444991  0.24619470  1
  Mn3.34+  Mn130  1  0.25034034  0.83077653  0.58356142  1
  Mn3.34+  Mn131  1  0.25198880  0.82979051  0.91350646  1
  Mn3.34+  Mn132  1  0.58877723  0.33069673  0.24633881  1
  Mn3.34+  Mn133  1  0.58286396  0.33383525  0.58412084  1
  Mn3.34+  Mn134  1  0.58276312  0.33364009  0.91561464  1
  Mn3.34+  Mn135  1  0.58052368  0.83773212  0.23941018  1
  Mn3.34+  Mn136  1  0.58106198  0.82207673  0.58598666  1
  Mn3.34+  Mn137  1  0.58787860  0.84451335  0.91967418  1
  Mn3.34+  Mn138  1  0.91792118  0.33332227  0.25089132  1
  Mn3.34+  Mn139  1  0.91673987  0.33487739  0.58046155  1
  Mn3.34+  Mn140  1  0.91467150  0.33557340  0.91268162  1
  Mn3.34+  Mn141  1  0.91637285  0.83719978  0.24429229  1
  Mn3.34+  Mn142  1  0.91727589  0.83119792  0.58307281  1
  Mn3.34+  Mn143  1  0.91523701  0.83520489  0.92155722  1
  Mn3.34+  Mn144  1  0.92054520  0.16302913  0.91545004  1
  Mn3.34+  Mn145  1  0.74995519  0.16843208  0.42107547  1
  Mn3.34+  Mn146  1  0.74303793  0.15532794  0.08724809  1
  Mn3.34+  Mn147  1  0.25370554  0.17051751  0.58846308  1
  Mn3.34+  Mn148  1  0.75304855  0.16035252  0.08510646  1
  Mn3.34+  Mn149  1  0.57801695  0.67053321  0.91788701  1
  Mn3.34+  Mn150  1  0.57792986  0.17192263  0.58429942  1
  Mn3.34+  Mn151  1  0.08220939  0.67315428  0.41179921  1
  Mn3.34+  Mn152  1  0.91402170  0.66940839  0.91479698  1
  Mn3.34+  Mn153  1  0.58579832  0.15714616  0.25643598  1
  Mn3.34+  Mn154  1  0.25613164  0.17051736  0.24570612  1
  Mn3.34+  Mn155  1  0.40200213  0.65850842  0.75537746  1
  Mn3.34+  Mn156  1  0.25919936  0.66642337  0.24329139  1
  Mn3.34+  Mn157  1  0.57653519  0.16313126  0.25593961  1
  Mn3.34+  Mn158  1  0.92164296  0.66747032  0.24378730  1
  Mn3.34+  Mn159  1  0.58341239  0.67288762  0.24199763  1
  Mn3.34+  Mn160  1  0.09424483  0.66560511  0.41365451  1
  Mn3.34+  Mn161  1  0.74139376  0.66636996  0.41407185  1
  Mn3.34+  Mn162  1  0.24333663  0.16930988  0.90915738  1
  Mn3.34+  Mn163  1  0.25277860  0.16413577  0.90822708  1
  Mn3.34+  Mn164  1  0.57306382  0.66807661  0.24086571  1
  Mn3.34+  Mn165  1  0.90692686  0.16958430  0.91779023  1
  Mn3.34+  Mn166  1  0.24703184  0.17605543  0.24686747  1
  Mn3.34+  Mn167  1  0.74742067  0.67392316  0.75538139  1
  Mn3.34+  Mn168  1  0.90949156  0.65995043  0.24130301  1
  Mn3.34+  Mn169  1  0.58603120  0.66094417  0.58304496  1
  Mn3.34+  Mn170  1  0.75237123  0.67088850  0.41217234  1
  Mn3.34+  Mn171  1  0.25259802  0.67612912  0.92032547  1
  Mn3.34+  Mn172  1  0.57554556  0.66569449  0.58437748  1
  Mn3.34+  Mn173  1  0.24287974  0.16688882  0.58966313  1
  Mn3.34+  Mn174  1  0.41706559  0.16264665  0.75018774  1
  Mn3.34+  Mn175  1  0.74956188  0.67151677  0.08228035  1
  Mn3.34+  Mn176  1  0.40868839  0.67141989  0.08263528  1
  Mn3.34+  Mn177  1  0.41888041  0.67342419  0.41804929  1
  Mn3.34+  Mn178  1  0.41234570  0.66335979  0.75369281  1
  Mn3.34+  Mn179  1  0.91738012  0.17113505  0.57728435  1
  Mn3.34+  Mn180  1  0.74869584  -0.00219539  0.06654120  1
  Mn3.34+  Mn181  1  0.27067814  0.00481861  0.58564396  1
  Mn3.34+  Mn182  1  0.41362042  0.50813361  0.08537257  1
  Mn3.34+  Mn183  1  0.09625629  0.00799749  0.75478905  1
  Mn3.34+  Mn184  1  0.75154298  0.50540033  0.08156138  1
  Mn3.34+  Mn185  1  0.08658052  0.00425896  0.41028271  1
  Mn3.34+  Mn186  1  0.74870645  0.49488030  0.42344695  1
  Mn3.34+  Mn187  1  0.57999045  -0.00034735  0.26042385  1
  Mn3.34+  Mn188  1  0.08926438  0.49673435  0.74279975  1
  Mn3.34+  Mn189  1  0.91426561  0.00714731  0.57627321  1
  Mn3.34+  Mn190  1  0.92115936  0.50195429  0.91763562  1
  Mn3.34+  Mn191  1  0.25563587  0.50261344  0.25398875  1
  Mn3.34+  Mn192  1  0.74839213  0.50213409  0.75117938  1
  Mn3.34+  Mn193  1  0.25193594  0.00068597  0.91839721  1
  Mn3.34+  Mn194  1  0.41212138  0.49698239  0.73258317  1
  Mn3.34+  Mn195  1  0.74025965  -0.00117547  0.75059226  1
  Mn3.34+  Mn196  1  0.08895537  0.49908670  0.42829073  1
  Mn3.34+  Mn197  1  0.25498280  0.00103748  0.25530064  1
  Mn3.34+  Mn198  1  0.91677528  -0.00644334  0.26108981  1
  Mn3.34+  Mn199  1  0.08379201  0.00045413  0.75497437  1
  Mn3.34+  Mn200  1  0.08920900  0.50018352  0.07402737  1
  Mn3.34+  Mn201  1  0.25891202  0.50690456  0.90442485  1
  Mn3.34+  Mn202  1  0.25651311  0.00267151  0.57972585  1
  Mn3.34+  Mn203  1  0.57635189  0.50037455  0.92017192  1
  Mn3.34+  Mn204  1  0.73847228  0.49653829  0.74892761  1
  Mn3.34+  Mn205  1  0.24907917  0.50141349  0.90453709  1
  Mn3.34+  Mn206  1  0.09884363  0.50352458  0.42572089  1
  Mn3.34+  Mn207  1  0.42103743  0.49800823  0.42367850  1
  Mn3.34+  Mn208  1  0.58066712  0.50125084  0.24861900  1
  Mn3.34+  Mn209  1  0.74323490  0.00268684  0.41292720  1
  Mn3.34+  Mn210  1  0.58567253  0.00358353  0.58988575  1
  Mn3.34+  Mn211  1  0.56797359  0.49652036  0.58969788  1
  Mn3.34+  Mn212  1  0.39970678  0.50281252  0.08650404  1
  Mn3.34+  Mn213  1  0.91728189  0.50187925  0.25557859  1
  Mn3.34+  Mn214  1  0.92694084  0.00202650  0.57384085  1
  Mn3.34+  Mn215  1  0.73788809  0.49965333  0.42571713  1
  O2-  O216  1  -0.00128466  0.15158914  -0.00430774  1
  O2-  O217  1  0.00149040  0.16508679  0.32681618  1
  O2-  O218  1  -0.01432024  0.15577048  0.66437069  1
  O2-  O219  1  -0.00499035  0.66138095  -0.01031870  1
  O2-  O220  1  0.00222933  0.64868344  0.33172110  1
  O2-  O221  1  0.00798630  0.66480867  0.66887886  1
  O2-  O222  1  0.32868892  0.16374081  -0.00766197  1
  O2-  O223  1  0.32691752  0.17460510  0.33649791  1
  O2-  O224  1  0.33623989  0.15134982  0.66155378  1
  O2-  O225  1  0.33520766  0.69569051  0.00042396  1
  O2-  O226  1  0.33099232  0.66420881  0.33910374  1
  O2-  O227  1  0.32789253  0.66146668  0.67221301  1
  O2-  O228  1  0.66149251  0.15309821  0.00991449  1
  O2-  O229  1  0.66567642  0.16731421  0.33808233  1
  O2-  O230  1  0.66064986  0.15921979  0.66386407  1
  O2-  O231  1  0.66583680  0.66025146  -0.00386896  1
  O2-  O232  1  0.65764677  0.66207480  0.33238879  1
  O2-  O233  1  0.66785563  0.67290865  0.66873050  1
  O2-  O234  1  0.17018579  0.16104784  -0.00408296  1
  O2-  O235  1  0.17180744  0.15771079  0.32954870  1
  O2-  O236  1  0.16681773  0.16758269  0.66760504  1
  O2-  O237  1  0.17013882  0.67555142  -0.00399326  1
  O2-  O238  1  0.17555952  0.66264422  0.33502567  1
  O2-  O239  1  0.15033624  0.67775981  0.67067501  1
  O2-  O240  1  0.49797009  0.15457318  -0.00272742  1
  O2-  O241  1  0.49153947  0.16394903  0.33153419  1
  O2-  O242  1  0.49918706  0.15212197  0.66707098  1
  O2-  O243  1  0.50133590  0.66517657  0.00618419  1
  O2-  O244  1  0.50093411  0.66900718  0.33350553  1
  O2-  O245  1  0.49966292  0.65125784  0.67163844  1
  O2-  O246  1  0.83065299  0.14001522  -0.00435248  1
  O2-  O247  1  0.83013745  0.16879605  0.34284439  1
  O2-  O248  1  0.82887461  0.15019930  0.65764986  1
  O2-  O249  1  0.82680326  0.65659456  -0.00476622  1
  O2-  O250  1  0.84298341  0.64362662  0.33452804  1
  O2-  O251  1  0.83440238  0.66357702  0.67943744  1
  O2-  O252  1  -0.00033204  0.35042476  0.00009278  1
  O2-  O253  1  0.00157714  0.34891292  0.33316513  1
  O2-  O254  1  -0.00024542  0.35014785  0.66648782  1
  O2-  O255  1  0.00298588  0.84578317  -0.00115072  1
  O2-  O256  1  -0.00552640  0.84337403  0.33486907  1
  O2-  O257  1  -0.00028669  0.84456089  0.67378825  1
  O2-  O258  1  0.33460417  0.32765496  -0.00422889  1
  O2-  O259  1  0.33606970  0.32277903  0.33102600  1
  O2-  O260  1  0.32925284  0.34107179  0.67108264  1
  O2-  O261  1  0.32963304  0.82491694  0.00177543  1
  O2-  O262  1  0.32959237  0.83444631  0.33609850  1
  O2-  O263  1  0.33719178  0.84578686  0.66169955  1
  O2-  O264  1  0.66753977  0.34819231  -0.00240683  1
  O2-  O265  1  0.66684842  0.33562659  0.33441358  1
  O2-  O266  1  0.66907835  0.34896131  0.66499197  1
  O2-  O267  1  0.66815901  0.83517007  -0.00106389  1
  O2-  O268  1  0.65906599  0.82231250  0.32854547  1
  O2-  O269  1  0.67142308  0.81697751  0.66246416  1
  O2-  O270  1  0.16575077  0.33041934  -0.00576578  1
  O2-  O271  1  0.17609576  0.34681547  0.33956062  1
  O2-  O272  1  0.16626631  0.34770020  0.66810773  1
  O2-  O273  1  0.17031786  0.83633457  -0.00097849  1
  O2-  O274  1  0.17424943  0.82411879  0.32975428  1
  O2-  O275  1  0.16432212  0.84256823  0.66686843  1
  O2-  O276  1  0.49980748  0.34859319  0.00178574  1
  O2-  O277  1  0.49855913  0.33759313  0.33148412  1
  O2-  O278  1  0.49860806  0.34341810  0.66622901  1
  O2-  O279  1  0.49535385  0.83458605  0.00213675  1
  O2-  O280  1  0.50306010  0.83408321  0.33418193  1
  O2-  O281  1  0.50037134  0.83821734  0.66767126  1
  O2-  O282  1  0.83673016  0.35366900  0.00078396  1
  O2-  O283  1  0.83189764  0.33748514  0.33212103  1
  O2-  O284  1  0.83525497  0.34331866  0.66868506  1
  O2-  O285  1  0.83711620  0.84393424  0.00300452  1
  O2-  O286  1  0.83532265  0.84617700  0.33282471  1
  O2-  O287  1  0.83013924  0.83855616  0.66524248  1
  O2-  O288  1  -0.00342082  0.16465109  0.16228940  1
  O2-  O289  1  -0.00899688  0.17949679  0.49772732  1
  O2-  O290  1  -0.00957294  0.18474090  0.83264738  1
  O2-  O291  1  0.00303101  0.68176233  0.16988879  1
  O2-  O292  1  -0.00139397  0.67354979  0.49172237  1
  O2-  O293  1  -0.00659348  0.66866101  0.83266968  1
  O2-  O294  1  0.33154944  0.18533582  0.16601340  1
  O2-  O295  1  0.32717636  0.17782908  0.50292902  1
  O2-  O296  1  0.33111883  0.18657492  0.83082718  1
  O2-  O297  1  0.33462584  0.69562360  0.16714467  1
  O2-  O298  1  0.33555994  0.67403956  0.49496082  1
  O2-  O299  1  0.33153598  0.69007646  0.83700508  1
  O2-  O300  1  0.67394120  0.17466201  0.18208929  1
  O2-  O301  1  0.66804950  0.18216502  0.50675090  1
  O2-  O302  1  0.65960563  0.17082424  0.83178101  1
  O2-  O303  1  0.66021821  0.68632774  0.15781002  1
  O2-  O304  1  0.66922548  0.69209024  0.50826006  1
  O2-  O305  1  0.66445143  0.68344749  0.83512841  1
  O2-  O306  1  0.16925648  0.18113358  0.16685972  1
  O2-  O307  1  0.17309627  0.17689233  0.50063615  1
  O2-  O308  1  0.16399264  0.19317570  0.83964055  1
  O2-  O309  1  0.17103220  0.68977140  0.18380089  1
  O2-  O310  1  0.17149284  0.67133720  0.49749906  1
  O2-  O311  1  0.16096780  0.68729246  0.84922307  1
  O2-  O312  1  0.50343303  0.16526890  0.16879595  1
  O2-  O313  1  0.49519407  0.18366707  0.50929886  1
  O2-  O314  1  0.49463903  0.17590211  0.82863559  1
  O2-  O315  1  0.49526672  0.69307222  0.16336262  1
  O2-  O316  1  0.50497474  0.68722115  0.49549043  1
  O2-  O317  1  0.49973952  0.67083666  0.82758649  1
  O2-  O318  1  0.83235864  0.16856027  0.16389032  1
  O2-  O319  1  0.82253173  0.18510643  0.50713321  1
  O2-  O320  1  0.83556468  0.17814129  0.83150066  1
  O2-  O321  1  0.82799477  0.68437871  0.16607946  1
  O2-  O322  1  0.83686278  0.66920003  0.49726610  1
  O2-  O323  1  0.82565231  0.68263819  0.83754192  1
  O2-  O324  1  -0.00203673  0.33029763  0.16441540  1
  O2-  O325  1  0.00047749  0.32308235  0.49994522  1
  O2-  O326  1  -0.00021642  0.32450564  0.83436484  1
  O2-  O327  1  -0.00327572  0.82571421  0.16180475  1
  O2-  O328  1  0.00225926  0.83296827  0.50449225  1
  O2-  O329  1  -0.00474586  0.81732690  0.82698656  1
  O2-  O330  1  0.33617864  0.31652019  0.17117653  1
  O2-  O331  1  0.32714059  0.31883481  0.49296192  1
  O2-  O332  1  0.33487407  0.31421023  0.83408286  1
  O2-  O333  1  0.33321406  0.81730905  0.16387473  1
  O2-  O334  1  0.33438946  0.83221070  0.50401349  1
  O2-  O335  1  0.33019692  0.81629391  0.82943543  1
  O2-  O336  1  0.67053622  0.32946949  0.16726053  1
  O2-  O337  1  0.66730716  0.31246971  0.50018976  1
  O2-  O338  1  0.66344436  0.32791168  0.83062734  1
  O2-  O339  1  0.66452246  0.81851532  0.16319240  1
  O2-  O340  1  0.66878195  0.82048362  0.50556208  1
  O2-  O341  1  0.66678693  0.81744956  0.83722087  1
  O2-  O342  1  0.16189015  0.31640438  0.17424922  1
  O2-  O343  1  0.16870744  0.32260417  0.49916313  1
  O2-  O344  1  0.16442838  0.32031093  0.83396535  1
  O2-  O345  1  0.17409084  0.82365082  0.15945781  1
  O2-  O346  1  0.16361243  0.82794070  0.50069919  1
  O2-  O347  1  0.16901477  0.80788010  0.83415685  1
  O2-  O348  1  0.49542445  0.33245428  0.17113500  1
  O2-  O349  1  0.50463225  0.31628438  0.49545277  1
  O2-  O350  1  0.49729058  0.32489704  0.83446405  1
  O2-  O351  1  0.49833465  0.80997588  0.16459645  1
  O2-  O352  1  0.49771402  0.82280405  0.50683697  1
  O2-  O353  1  0.49714718  0.82536677  0.83991233  1
  O2-  O354  1  0.83680923  0.32567199  0.16363849  1
  O2-  O355  1  0.83426301  0.31583173  0.49947352  1
  O2-  O356  1  0.83002042  0.32047900  0.83751772  1
  O2-  O357  1  0.83790690  0.82209457  0.16117052  1
  O2-  O358  1  0.83016505  0.83629146  0.50590815  1
  O2-  O359  1  0.83858204  0.81982424  0.82493700  1
  O2-  O360  1  0.08652062  0.06884598  0.12076054  1
  O2-  O361  1  0.10548249  0.07871085  0.43628257  1
  O2-  O362  1  0.05878475  0.08073208  0.79229260  1
  O2-  O363  1  0.09232909  0.57881534  0.07458478  1
  O2-  O364  1  0.06282108  0.58408700  0.44364504  1
  O2-  O365  1  0.07237682  0.56787170  0.79282605  1
  O2-  O366  1  0.41495201  0.06566058  0.10462702  1
  O2-  O367  1  0.35266070  0.05206869  0.47737093  1
  O2-  O368  1  0.42097962  0.08237025  0.78270809  1
  O2-  O369  1  0.42486367  0.58638307  0.11387900  1
  O2-  O370  1  0.42199964  0.58418191  0.43653722  1
  O2-  O371  1  0.41866972  0.57605334  0.77844690  1
  O2-  O372  1  0.74146178  0.07170626  0.12568154  1
  O2-  O373  1  0.75486653  0.08018180  0.45194065  1
  O2-  O374  1  0.76435452  0.07601498  0.77673719  1
  O2-  O375  1  0.73274902  0.58665791  0.09230583  1
  O2-  O376  1  0.75192081  0.58064158  0.45552005  1
  O2-  O377  1  0.72902693  0.58209299  0.78551830  1
  O2-  O378  1  0.25813338  0.08231138  0.22050114  1
  O2-  O379  1  0.23406140  0.08568116  0.55863296  1
  O2-  O380  1  0.23659236  0.07956015  0.88488435  1
  O2-  O381  1  0.23791045  0.58148035  0.23039024  1
  O2-  O382  1  0.19627070  0.54492569  0.51154378  1
  O2-  O383  1  0.23329417  0.58853395  0.89678285  1
  O2-  O384  1  0.57929455  0.07490955  0.21402724  1
  O2-  O385  1  0.59470499  0.08440536  0.55856785  1
  O2-  O386  1  0.57726027  0.06667043  0.88116053  1
  O2-  O387  1  0.57992743  0.58226934  0.21692970  1
  O2-  O388  1  0.58731948  0.57819181  0.53820452  1
  O2-  O389  1  0.60011971  0.58266976  0.89576192  1
  O2-  O390  1  0.90951742  0.06865805  0.22215902  1
  O2-  O391  1  0.90608291  0.08552987  0.54434727  1
  O2-  O392  1  0.91536609  0.08258300  0.88293398  1
  O2-  O393  1  0.93749307  0.58101748  0.21585355  1
  O2-  O394  1  0.91172358  0.56954462  0.56653244  1
  O2-  O395  1  0.89474161  0.58162001  0.87769232  1
  O2-  O396  1  0.07389343  0.42135115  0.11395938  1
  O2-  O397  1  0.09558842  0.41564259  0.44838681  1
  O2-  O398  1  0.08847491  0.42234550  0.78212464  1
  O2-  O399  1  0.10535293  0.91654184  0.08887838  1
  O2-  O400  1  0.07587880  0.92591670  0.44879480  1
  O2-  O401  1  0.08838544  0.92040408  0.78253379  1
  O2-  O402  1  0.41265173  0.42178892  0.12042214  1
  O2-  O403  1  0.40177407  0.41434368  0.41998923  1
  O2-  O404  1  0.41213521  0.41929168  0.77659595  1
  O2-  O405  1  0.38521834  0.91648706  0.08297537  1
  O2-  O406  1  0.42216510  0.91936431  0.44913547  1
  O2-  O407  1  0.40979700  0.91512664  0.77661830  1
  O2-  O408  1  0.76246335  0.42546126  0.11368156  1
  O2-  O409  1  0.74923720  0.41293258  0.44283153  1
  O2-  O410  1  0.75613600  0.41644308  0.77495576  1
  O2-  O411  1  0.76072055  0.92460992  0.10556787  1
  O2-  O412  1  0.73967540  0.92309839  0.45056739  1
  O2-  O413  1  0.76444259  0.91657818  0.75285884  1
  O2-  O414  1  0.27871507  0.42007462  0.24198726  1
  O2-  O415  1  0.24239816  0.41766278  0.55605480  1
  O2-  O416  1  0.26046436  0.41971558  0.87856658  1
  O2-  O417  1  0.25245901  0.92310657  0.21887341  1
  O2-  O418  1  0.22905685  0.92219626  0.55003297  1
  O2-  O419  1  0.24435800  0.92086880  0.89402804  1
  O2-  O420  1  0.57976578  0.41878247  0.22535335  1
  O2-  O421  1  0.59412073  0.41635698  0.54895868  1
  O2-  O422  1  0.57890665  0.42064013  0.88774137  1
  O2-  O423  1  0.58224846  0.92309824  0.24326110  1
  O2-  O424  1  0.59086912  0.92052758  0.55999136  1
  O2-  O425  1  0.57795080  0.91915107  0.90258442  1
  O2-  O426  1  0.91020500  0.41997011  0.22068293  1
  O2-  O427  1  0.90808262  0.41571463  0.55824549  1
  O2-  O428  1  0.91728356  0.42135487  0.88142471  1
  O2-  O429  1  0.91958904  0.91872590  0.22089712  1
  O2-  O430  1  0.92562749  0.91927890  0.56851365  1
  O2-  O431  1  0.92792169  0.91812761  0.89298736  1
  O2-  O432  1  0.00224260  0.01036331  0.00492189  1
  O2-  O433  1  -0.00636158  0.01039570  0.34599995  1
  O2-  O434  1  0.00978104  0.00101080  0.66053021  1
  O2-  O435  1  -0.01023000  0.48571839  0.01138818  1
  O2-  O436  1  -0.00641970  0.49668626  0.35442988  1
  O2-  O437  1  -0.00404482  0.50116511  0.68785113  1
  O2-  O438  1  0.33537343  0.00451343  -0.01833006  1
  O2-  O439  1  0.33357505  0.01185417  0.32686948  1
  O2-  O440  1  0.33471178  -0.02688909  0.66206655  1
  O2-  O441  1  0.33922127  0.49717652  -0.01183243  1
  O2-  O442  1  0.31133524  0.50759041  0.36663637  1
  O2-  O443  1  0.31599101  0.49783947  0.68697088  1
  O2-  O444  1  0.67230800  0.01632210  0.00124577  1
  O2-  O445  1  0.66790354  0.01058654  0.32526729  1
  O2-  O446  1  0.69744565  0.00080704  0.63126706  1
  O2-  O447  1  0.67073252  0.49989895  -0.00835128  1
  O2-  O448  1  0.65698405  0.50101678  0.34113755  1
  O2-  O449  1  0.68287566  0.50619235  0.64626781  1
  O2-  O450  1  0.17598148  0.00110837  -0.00126191  1
  O2-  O451  1  0.18409719  -0.00198966  0.34988212  1
  O2-  O452  1  0.16958632  -0.00282341  0.66458446  1
  O2-  O453  1  0.15374196  0.49074266  -0.02645667  1
  O2-  O454  1  0.15876936  0.48616204  0.32396066  1
  O2-  O455  1  0.15640659  0.49558964  0.66386710  1
  O2-  O456  1  0.49038595  0.01046659  -0.01078287  1
  O2-  O457  1  0.49842621  0.00654043  0.32551796  1
  O2-  O458  1  0.47590534  0.00246423  0.61456685  1
  O2-  O459  1  0.50910464  0.49574330  0.01868786  1
  O2-  O460  1  0.49211498  0.48867435  0.32923952  1
  O2-  O461  1  0.52511038  0.49877056  0.70545079  1
  O2-  O462  1  0.84900235  0.01135349  0.03444786  1
  O2-  O463  1  0.83721471  0.00379572  0.34395310  1
  O2-  O464  1  0.85409107  0.00390498  0.68207503  1
  O2-  O465  1  0.82497060  0.50113474  -0.01327462  1
  O2-  O466  1  0.83488912  0.50106654  0.34566142  1
  O2-  O467  1  0.84688646  0.51828337  0.69401470  1
  O2-  O468  1  0.42888723  0.25253222  0.07089266  1
  O2-  O469  1  0.91552110  0.75149065  0.93659316  1
  O2-  O470  1  0.91263386  0.74828327  0.27656610  1
  O2-  O471  1  0.08574557  0.25317689  0.39269760  1
  O2-  O472  1  0.75250283  0.24413730  0.06561726  1
  O2-  O473  1  0.91925627  0.25439961  0.25799098  1
  O2-  O474  1  0.24955114  0.75301551  0.59295169  1
  O2-  O475  1  0.42619592  0.74706463  0.72942419  1
  O2-  O476  1  0.07620552  0.75482895  0.07162929  1
  O2-  O477  1  0.58497492  0.25502810  0.93025265  1
  O2-  O478  1  0.77037109  0.75420482  0.40337827  1
  O2-  O479  1  0.92033127  0.75343234  0.59143721  1
  O2-  O480  1  0.07297748  0.25324839  0.06580558  1
  O2-  O481  1  0.74610061  0.25251031  0.73804239  1
  O2-  O482  1  0.42061458  0.24842904  0.72405388  1
  O2-  O483  1  0.57427223  0.75090697  0.92704977  1
  O2-  O484  1  0.91761001  0.25142395  0.60846828  1
  O2-  O485  1  0.25244434  0.25317813  0.60455531  1
  O2-  O486  1  0.57726748  0.24872052  0.25693307  1
  O2-  O487  1  0.07580562  0.25589790  0.72583010  1
  O2-  O488  1  0.41197749  0.75382418  0.40398892  1
  O2-  O489  1  0.91766184  0.24914435  0.95013858  1
  O2-  O490  1  0.07278685  0.75396558  0.40915077  1
  O2-  O491  1  0.75280188  0.75264585  0.06231859  1
  O2-  O492  1  0.58260631  0.25229308  0.61381171  1
