# generated using pymatgen
data_Ca108Mn108O277
_symmetry_space_group_name_H-M   'P 1'
_cell_length_a   16.01659511
_cell_length_b   22.29198747
_cell_length_c   16.38060629
_cell_angle_alpha   90.00494939
_cell_angle_beta   89.99802011
_cell_angle_gamma   90.00209598
_symmetry_Int_Tables_number   1
_chemical_formula_structural   Ca108Mn108O277
_chemical_formula_sum   'Ca108 Mn108 O277'
_cell_volume   5848.56010322
_cell_formula_units_Z   1
loop_
 _symmetry_equiv_pos_site_id
 _symmetry_equiv_pos_as_xyz
  1  'x, y, z'
loop_
 _atom_type_symbol
 _atom_type_oxidation_number
  Ca2+  2.0
  Mn3.34+  3.34
  O2-  -2.0
loop_
 _atom_site_type_symbol
 _atom_site_label
 _atom_site_symmetry_multiplicity
 _atom_site_fract_x
 _atom_site_fract_y
 _atom_site_fract_z
 _atom_site_occupancy
  Ca2+  Ca0  1  0.08199965  0.25467676  0.23110338  1
  Ca2+  Ca1  1  0.09139508  0.24909286  0.60702002  1
  Ca2+  Ca2  1  0.08754163  0.23823857  0.91049944  1
  Ca2+  Ca3  1  0.09033211  0.75127220  0.26601943  1
  Ca2+  Ca4  1  0.06595026  0.74208184  0.56380107  1
  Ca2+  Ca5  1  0.06777069  0.74630307  0.91718203  1
  Ca2+  Ca6  1  0.42097155  0.26148319  0.24658132  1
  Ca2+  Ca7  1  0.41606800  0.25490217  0.57776746  1
  Ca2+  Ca8  1  0.40954026  0.25566772  0.92337486  1
  Ca2+  Ca9  1  0.42561240  0.75619727  0.25184698  1
  Ca2+  Ca10  1  0.42754986  0.75278218  0.59046130  1
  Ca2+  Ca11  1  0.42933499  0.75414238  0.91083601  1
  Ca2+  Ca12  1  0.74840283  0.25259878  0.23128557  1
  Ca2+  Ca13  1  0.73879225  0.23951898  0.59175303  1
  Ca2+  Ca14  1  0.75076292  0.24572104  0.92472961  1
  Ca2+  Ca15  1  0.73456297  0.74618686  0.23550827  1
  Ca2+  Ca16  1  0.75834899  0.75044789  0.56778986  1
  Ca2+  Ca17  1  0.74775119  0.74202694  0.93782514  1
  Ca2+  Ca18  1  0.23695178  0.23917553  0.06200548  1
  Ca2+  Ca19  1  0.25772026  0.26657882  0.41031278  1
  Ca2+  Ca20  1  0.22577001  0.24254507  0.76859557  1
  Ca2+  Ca21  1  0.25124981  0.76088268  0.08157698  1
  Ca2+  Ca22  1  0.23179700  0.75412360  0.41627059  1
  Ca2+  Ca23  1  0.26333137  0.75659917  0.75042738  1
  Ca2+  Ca24  1  0.60829409  0.25238687  0.07631679  1
  Ca2+  Ca25  1  0.59312947  0.26088116  0.41059183  1
  Ca2+  Ca26  1  0.60694567  0.24458502  0.76097714  1
  Ca2+  Ca27  1  0.60561265  0.74248086  0.07701764  1
  Ca2+  Ca28  1  0.59114417  0.75127674  0.41662568  1
  Ca2+  Ca29  1  0.56805840  0.75094390  0.75270283  1
  Ca2+  Ca30  1  0.89677594  0.24428822  0.07554881  1
  Ca2+  Ca31  1  0.90196063  0.26081359  0.40846553  1
  Ca2+  Ca32  1  0.91284051  0.24229188  0.76483432  1
  Ca2+  Ca33  1  0.89839072  0.74487696  0.06967774  1
  Ca2+  Ca34  1  0.92842111  0.73436608  0.43733850  1
  Ca2+  Ca35  1  0.92090347  0.75073664  0.73549488  1
  Ca2+  Ca36  1  0.21608577  0.58828412  0.42102789  1
  Ca2+  Ca37  1  0.89740599  0.59276622  0.03507147  1
  Ca2+  Ca38  1  0.92049124  0.60432374  0.77887066  1
  Ca2+  Ca39  1  0.22923077  0.10788159  0.76068983  1
  Ca2+  Ca40  1  0.61681487  0.10125125  0.08323549  1
  Ca2+  Ca41  1  0.40673549  0.08725719  0.25107578  1
  Ca2+  Ca42  1  0.75319314  0.58793060  0.93545853  1
  Ca2+  Ca43  1  0.28247102  0.56587293  0.74786714  1
  Ca2+  Ca44  1  0.61722362  0.58144435  0.06537488  1
  Ca2+  Ca45  1  0.74061051  0.59584077  0.22130718  1
  Ca2+  Ca46  1  0.24143061  0.58592404  0.07833102  1
  Ca2+  Ca47  1  0.09052519  0.10204280  0.90899874  1
  Ca2+  Ca48  1  0.09895479  0.08221192  0.23998227  1
  Ca2+  Ca49  1  0.08007637  0.59254891  0.29875350  1
  Ca2+  Ca50  1  0.27026112  0.56727885  0.74734543  1
  Ca2+  Ca51  1  0.89973164  0.10340520  0.06483890  1
  Ca2+  Ca52  1  0.59919225  0.10486772  0.42663196  1
  Ca2+  Ca53  1  0.76757897  0.10890495  0.91070133  1
  Ca2+  Ca54  1  0.92554280  0.60774086  0.77118713  1
  Ca2+  Ca55  1  0.90252319  0.08329836  0.40471765  1
  Ca2+  Ca56  1  0.91369033  0.10540545  0.77108629  1
  Ca2+  Ca57  1  0.58982597  0.59345068  0.40739692  1
  Ca2+  Ca58  1  0.43038716  0.10174140  0.59093484  1
  Ca2+  Ca59  1  0.05061299  0.59754347  0.56184739  1
  Ca2+  Ca60  1  0.08702251  0.08347517  0.24068193  1
  Ca2+  Ca61  1  0.10027268  0.09895451  0.61169857  1
  Ca2+  Ca62  1  0.25432949  0.58539559  0.07887881  1
  Ca2+  Ca63  1  0.23877608  0.08112062  0.40133809  1
  Ca2+  Ca64  1  0.41755387  0.10172439  0.59162351  1
  Ca2+  Ca65  1  0.91199464  0.08014433  0.40116118  1
  Ca2+  Ca66  1  0.36717291  0.09118175  0.91136208  1
  Ca2+  Ca67  1  0.74895625  0.10364758  0.23920141  1
  Ca2+  Ca68  1  0.22740937  0.08113813  0.40362228  1
  Ca2+  Ca69  1  0.77671936  0.60476018  0.57789594  1
  Ca2+  Ca70  1  0.09694015  0.09408961  0.60455407  1
  Ca2+  Ca71  1  0.41650702  0.58032924  0.60616563  1
  Ca2+  Ca72  1  0.08761804  0.90589826  0.57633825  1
  Ca2+  Ca73  1  0.90650504  0.91008401  0.75228560  1
  Ca2+  Ca74  1  0.38548601  0.42000666  0.59602381  1
  Ca2+  Ca75  1  0.42502681  0.42089947  0.90346900  1
  Ca2+  Ca76  1  0.75191833  0.90613059  0.59486211  1
  Ca2+  Ca77  1  0.91908887  0.90978565  0.40856367  1
  Ca2+  Ca78  1  0.89503989  0.91274225  0.75536278  1
  Ca2+  Ca79  1  0.43662169  0.42264507  0.90063614  1
  Ca2+  Ca80  1  0.07486215  0.90636770  0.57725190  1
  Ca2+  Ca81  1  0.93293080  0.40764995  0.41362687  1
  Ca2+  Ca82  1  0.39742982  0.41722071  0.59808103  1
  Ca2+  Ca83  1  0.72776022  0.42328401  0.94227925  1
  Ca2+  Ca84  1  0.74190109  0.39779823  0.58372561  1
  Ca2+  Ca85  1  0.59922374  0.90150575  0.75064824  1
  Ca2+  Ca86  1  0.75718483  0.90537691  0.24640684  1
  Ca2+  Ca87  1  0.26344305  0.40704791  0.07516154  1
  Ca2+  Ca88  1  0.40105181  0.90566773  0.91498004  1
  Ca2+  Ca89  1  0.10720856  0.41437749  0.57314576  1
  Ca2+  Ca90  1  0.75369905  0.39826500  0.58416639  1
  Ca2+  Ca91  1  0.08051822  0.40211084  0.26474506  1
  Ca2+  Ca92  1  0.25893899  0.40689556  0.75221219  1
  Ca2+  Ca93  1  0.58609835  0.89984203  0.08333958  1
  Ca2+  Ca94  1  0.93161918  0.91007804  0.40824168  1
  Ca2+  Ca95  1  0.25222228  0.40650102  0.07416574  1
  Ca2+  Ca96  1  0.23602860  0.91092573  0.07932840  1
  Ca2+  Ca97  1  0.74453680  0.90680384  0.24732314  1
  Ca2+  Ca98  1  0.40525988  0.90074357  0.25001792  1
  Ca2+  Ca99  1  0.07853111  0.39921617  0.91686226  1
  Ca2+  Ca100  1  0.09330508  0.91121701  0.92424917  1
  Ca2+  Ca101  1  0.91426383  0.40650504  0.75813664  1
  Ca2+  Ca102  1  0.25244247  0.90490885  0.76126472  1
  Ca2+  Ca103  1  0.42860922  0.40493508  0.25023786  1
  Ca2+  Ca104  1  0.90263478  0.40563183  0.75866075  1
  Ca2+  Ca105  1  0.42056401  0.89737814  0.58547797  1
  Ca2+  Ca106  1  0.89880539  0.40848377  0.07144775  1
  Ca2+  Ca107  1  0.58316337  0.90047395  0.41509682  1
  Mn3.34+  Mn108  1  0.07915935  0.33143914  0.08376638  1
  Mn3.34+  Mn109  1  0.08666278  0.33624691  0.42064791  1
  Mn3.34+  Mn110  1  0.08263882  0.32939095  0.75133364  1
  Mn3.34+  Mn111  1  0.07490262  0.83254349  0.09014007  1
  Mn3.34+  Mn112  1  0.08787213  0.83458203  0.41140371  1
  Mn3.34+  Mn113  1  0.08304686  0.83091426  0.75481951  1
  Mn3.34+  Mn114  1  0.42666742  0.33719533  0.08437312  1
  Mn3.34+  Mn115  1  0.42081616  0.34053303  0.41757665  1
  Mn3.34+  Mn116  1  0.42104014  0.33157736  0.75106102  1
  Mn3.34+  Mn117  1  0.41544975  0.83255141  0.08316945  1
  Mn3.34+  Mn118  1  0.41127144  0.82985227  0.41620851  1
  Mn3.34+  Mn119  1  0.41806305  0.83424676  0.75283693  1
  Mn3.34+  Mn120  1  0.74623541  0.33741050  0.08446361  1
  Mn3.34+  Mn121  1  0.74822716  0.33310304  0.41015970  1
  Mn3.34+  Mn122  1  0.74566703  0.32862413  0.75701598  1
  Mn3.34+  Mn123  1  0.75444098  0.83216255  0.07889321  1
  Mn3.34+  Mn124  1  0.75135424  0.83283306  0.41779441  1
  Mn3.34+  Mn125  1  0.74933147  0.83142899  0.75723106  1
  Mn3.34+  Mn126  1  0.25166228  0.33142697  0.24901585  1
  Mn3.34+  Mn127  1  0.24714774  0.33126748  0.58125443  1
  Mn3.34+  Mn128  1  0.25289497  0.33410805  0.91103319  1
  Mn3.34+  Mn129  1  0.24469919  0.84454029  0.24688151  1
  Mn3.34+  Mn130  1  0.25096024  0.83023125  0.58239959  1
  Mn3.34+  Mn131  1  0.24590594  0.83375815  0.91738195  1
  Mn3.34+  Mn132  1  0.58902040  0.33745323  0.24746065  1
  Mn3.34+  Mn133  1  0.58049504  0.32749164  0.58382055  1
  Mn3.34+  Mn134  1  0.58450353  0.33555625  0.91496703  1
  Mn3.34+  Mn135  1  0.58079611  0.83219301  0.24771200  1
  Mn3.34+  Mn136  1  0.58617565  0.83228902  0.58232008  1
  Mn3.34+  Mn137  1  0.58655199  0.83085549  0.91720853  1
  Mn3.34+  Mn138  1  0.91204820  0.33103728  0.24602257  1
  Mn3.34+  Mn139  1  0.92214572  0.33488623  0.57938902  1
  Mn3.34+  Mn140  1  0.91409116  0.33698629  0.91718131  1
  Mn3.34+  Mn141  1  0.92341749  0.83036716  0.24199844  1
  Mn3.34+  Mn142  1  0.91494504  0.83005769  0.58166855  1
  Mn3.34+  Mn143  1  0.91594503  0.83358245  0.91846210  1
  Mn3.34+  Mn144  1  0.73702005  0.66787229  0.75448941  1
  Mn3.34+  Mn145  1  0.91124940  0.67514828  0.24859633  1
  Mn3.34+  Mn146  1  0.91568914  0.16794861  0.24301444  1
  Mn3.34+  Mn147  1  0.58295259  0.66789707  0.58171296  1
  Mn3.34+  Mn148  1  0.58619193  0.16878872  0.24645775  1
  Mn3.34+  Mn149  1  0.59094384  0.16861453  0.91393128  1
  Mn3.34+  Mn150  1  0.41684473  0.66737771  0.08672011  1
  Mn3.34+  Mn151  1  0.07927545  0.67376676  0.08473497  1
  Mn3.34+  Mn152  1  0.24708709  0.67047140  0.24626300  1
  Mn3.34+  Mn153  1  0.42183721  0.66380061  0.41155172  1
  Mn3.34+  Mn154  1  0.91373577  0.16828878  0.58601283  1
  Mn3.34+  Mn155  1  0.74826446  0.67598952  0.75356433  1
  Mn3.34+  Mn156  1  0.41635646  0.17866592  0.75240521  1
  Mn3.34+  Mn157  1  0.42270487  0.16756200  0.41581943  1
  Mn3.34+  Mn158  1  0.40983234  0.65802757  0.41155553  1
  Mn3.34+  Mn159  1  0.92067617  0.67000004  0.24952606  1
  Mn3.34+  Mn160  1  0.24094191  0.66560342  0.58313475  1
  Mn3.34+  Mn161  1  0.58298720  0.65823297  0.91600369  1
  Mn3.34+  Mn162  1  0.41282638  0.16408361  0.08214178  1
  Mn3.34+  Mn163  1  0.25309170  0.66029642  0.90990097  1
  Mn3.34+  Mn164  1  0.42722884  0.66223132  0.75353442  1
  Mn3.34+  Mn165  1  0.90136736  0.16085800  0.58464797  1
  Mn3.34+  Mn166  1  0.75054562  0.66866081  0.41806567  1
  Mn3.34+  Mn167  1  0.08071398  0.16523190  0.07822147  1
  Mn3.34+  Mn168  1  0.24967151  0.65719759  0.58213466  1
  Mn3.34+  Mn169  1  0.42792109  0.66092380  0.08812075  1
  Mn3.34+  Mn170  1  0.24834570  0.16717795  0.24141609  1
  Mn3.34+  Mn171  1  0.08612038  0.17930149  0.42037510  1
  Mn3.34+  Mn172  1  0.58793606  0.66320487  0.24592797  1
  Mn3.34+  Mn173  1  0.42301787  0.16894182  0.08144688  1
  Mn3.34+  Mn174  1  0.24276265  0.66577328  0.91094533  1
  Mn3.34+  Mn175  1  0.08136147  0.67393715  0.75157926  1
  Mn3.34+  Mn176  1  0.42524975  0.17281729  0.75356142  1
  Mn3.34+  Mn177  1  0.74509992  0.17003416  0.41876900  1
  Mn3.34+  Mn178  1  0.41201304  0.17222266  0.41480692  1
  Mn3.34+  Mn179  1  0.07844216  0.17228402  0.42242490  1
  Mn3.34+  Mn180  1  0.39702179  0.00117420  0.07665236  1
  Mn3.34+  Mn181  1  0.08016294  0.00126540  0.75202349  1
  Mn3.34+  Mn182  1  0.60622109  0.00744466  0.59364604  1
  Mn3.34+  Mn183  1  0.08740015  0.50327627  0.75589520  1
  Mn3.34+  Mn184  1  0.91491082  -0.00105220  0.92619188  1
  Mn3.34+  Mn185  1  0.07667564  0.49913095  0.75747056  1
  Mn3.34+  Mn186  1  0.74130016  0.00126424  0.41851170  1
  Mn3.34+  Mn187  1  0.73975049  0.49635504  0.41170019  1
  Mn3.34+  Mn188  1  0.42643821  0.49759033  0.41306374  1
  Mn3.34+  Mn189  1  0.40948685  -0.00306654  0.07720988  1
  Mn3.34+  Mn190  1  0.07882028  0.50495175  0.07707701  1
  Mn3.34+  Mn191  1  0.75250437  0.50274175  0.41353668  1
  Mn3.34+  Mn192  1  0.06523889  0.50094216  0.08343224  1
  Mn3.34+  Mn193  1  0.08935223  -0.00119239  0.06588313  1
  Mn3.34+  Mn194  1  0.91244954  0.50143561  0.58626603  1
  Mn3.34+  Mn195  1  0.42816917  0.50115247  0.07459390  1
  Mn3.34+  Mn196  1  0.58069051  0.49948974  0.24844489  1
  Mn3.34+  Mn197  1  0.41992926  -0.00110897  0.41740354  1
  Mn3.34+  Mn198  1  0.92297656  0.50187989  0.24394361  1
  Mn3.34+  Mn199  1  0.90371491  0.00415640  0.59415529  1
  Mn3.34+  Mn200  1  0.74426126  0.50006419  0.75700419  1
  Mn3.34+  Mn201  1  0.58363758  0.00190743  0.24618837  1
  Mn3.34+  Mn202  1  0.25913315  0.50294415  0.25833142  1
  Mn3.34+  Mn203  1  0.92281164  -0.00095002  0.24667023  1
  Mn3.34+  Mn204  1  0.24533460  0.49737554  0.26137068  1
  Mn3.34+  Mn205  1  0.40877365  -0.00602204  0.41602608  1
  Mn3.34+  Mn206  1  0.59687109  -0.00101171  0.91197992  1
  Mn3.34+  Mn207  1  0.75615921  -0.00195564  0.07713662  1
  Mn3.34+  Mn208  1  0.91246635  0.49682009  0.24403065  1
  Mn3.34+  Mn209  1  0.59083483  0.00329916  0.59230786  1
  Mn3.34+  Mn210  1  0.58413562  0.00461277  0.91132423  1
  Mn3.34+  Mn211  1  0.58993128  0.49800024  0.58678368  1
  Mn3.34+  Mn212  1  0.25269475  0.00018623  0.57748290  1
  Mn3.34+  Mn213  1  0.42121909  0.00089367  0.75511688  1
  Mn3.34+  Mn214  1  0.57988061  0.50241267  0.58329409  1
  Mn3.34+  Mn215  1  0.26355038  -0.00429394  0.57697478  1
  O2-  O216  1  -0.00212109  0.16563360  0.00641567  1
  O2-  O217  1  -0.00019397  0.15310503  0.33872925  1
  O2-  O218  1  -0.00419033  0.15230600  0.66295771  1
  O2-  O219  1  -0.00128468  0.68389193  0.00900441  1
  O2-  O220  1  -0.00185598  0.67632283  0.32930502  1
  O2-  O221  1  0.00110883  0.66456592  0.67476810  1
  O2-  O222  1  0.33648218  0.16600920  -0.00077719  1
  O2-  O223  1  0.32864168  0.15073974  0.33677067  1
  O2-  O224  1  0.34217074  0.17098342  0.66324385  1
  O2-  O225  1  0.32909465  0.65158821  0.00507131  1
  O2-  O226  1  0.33113830  0.67072219  0.32909355  1
  O2-  O227  1  0.33111148  0.65484109  0.66743194  1
  O2-  O228  1  0.66723288  0.16221800  -0.00661380  1
  O2-  O229  1  0.66753253  0.15855253  0.33196457  1
  O2-  O230  1  0.65826121  0.18065320  0.66506134  1
  O2-  O231  1  0.66337267  0.66448328  -0.00508484  1
  O2-  O232  1  0.66858509  0.65565733  0.33020501  1
  O2-  O233  1  0.67104800  0.66854916  0.66162564  1
  O2-  O234  1  0.15869783  0.16372723  0.00245077  1
  O2-  O235  1  0.16549052  0.16587410  0.33429309  1
  O2-  O236  1  0.16744641  0.16645448  0.65787000  1
  O2-  O237  1  0.16979129  0.66073269  0.00456189  1
  O2-  O238  1  0.17156358  0.66983278  0.32744796  1
  O2-  O239  1  0.16660742  0.66472738  0.67178838  1
  O2-  O240  1  0.50123678  0.15250826  -0.00020170  1
  O2-  O241  1  0.49790612  0.15174318  0.33051213  1
  O2-  O242  1  0.49865134  0.17450307  0.66493852  1
  O2-  O243  1  0.50033214  0.65777090  0.00134652  1
  O2-  O244  1  0.50536085  0.65607349  0.33231258  1
  O2-  O245  1  0.49476499  0.66249796  0.65852441  1
  O2-  O246  1  0.83565805  0.17545843  -0.00790096  1
  O2-  O247  1  0.83794523  0.15325071  0.33269780  1
  O2-  O248  1  0.83064944  0.15924714  0.66991809  1
  O2-  O249  1  0.83255625  0.67215231  -0.00848968  1
  O2-  O250  1  0.83118828  0.66851049  0.32944371  1
  O2-  O251  1  0.83244329  0.66755480  0.67627229  1
  O2-  O252  1  -0.00035869  0.33429376  -0.00241844  1
  O2-  O253  1  0.00326144  0.33303132  0.33721685  1
  O2-  O254  1  -0.00087934  0.34968448  0.66796836  1
  O2-  O255  1  0.00212602  0.82016332  -0.00353931  1
  O2-  O256  1  -0.00472180  0.83598616  0.33594990  1
  O2-  O257  1  -0.00226032  0.84490232  0.66829219  1
  O2-  O258  1  0.33624216  0.34422757  -0.00263219  1
  O2-  O259  1  0.33702152  0.34256221  0.32754295  1
  O2-  O260  1  0.33451306  0.32872185  0.66453597  1
  O2-  O261  1  0.32766516  0.84432940  0.00386290  1
  O2-  O262  1  0.33141112  0.82592340  0.32552517  1
  O2-  O263  1  0.33219799  0.84163930  0.67045223  1
  O2-  O264  1  0.66750220  0.33707905  -0.00323284  1
  O2-  O265  1  0.66786368  0.33087971  0.33157280  1
  O2-  O266  1  0.67175248  0.33392545  0.66227219  1
  O2-  O267  1  0.66239375  0.83795629  0.00563502  1
  O2-  O268  1  0.66943935  0.84659349  0.33092889  1
  O2-  O269  1  0.67217464  0.83444905  0.66609634  1
  O2-  O270  1  0.16994095  0.34844523  -0.00045089  1
  O2-  O271  1  0.16197998  0.32600268  0.33171949  1
  O2-  O272  1  0.16611176  0.33429054  0.66603735  1
  O2-  O273  1  0.16347039  0.83200802  0.00236751  1
  O2-  O274  1  0.16969274  0.82510763  0.33088105  1
  O2-  O275  1  0.16216865  0.83814057  0.66797423  1
  O2-  O276  1  0.49017605  0.34240437  -0.01107646  1
  O2-  O277  1  0.49934235  0.33917272  0.33159342  1
  O2-  O278  1  0.49614855  0.31694877  0.66400791  1
  O2-  O279  1  0.49572725  0.84699166  -0.00461678  1
  O2-  O280  1  0.49958110  0.84261631  0.33130864  1
  O2-  O281  1  0.50327612  0.84289490  0.66806591  1
  O2-  O282  1  0.83505442  0.32974406  -0.00259332  1
  O2-  O283  1  0.84120223  0.34324513  0.34044088  1
  O2-  O284  1  0.83550856  0.34776373  0.66716013  1
  O2-  O285  1  0.83348825  0.82357796  -0.00394396  1
  O2-  O286  1  0.83388981  0.84114399  0.33527088  1
  O2-  O287  1  0.83415172  0.83585286  0.66860043  1
  O2-  O288  1  0.00752588  0.17116567  0.17600622  1
  O2-  O289  1  -0.00350237  0.18166686  0.50447254  1
  O2-  O290  1  -0.00680028  0.17869729  0.83975513  1
  O2-  O291  1  0.00306808  0.68074047  0.17255857  1
  O2-  O292  1  0.00322221  0.67119554  0.49869953  1
  O2-  O293  1  -0.00477210  0.68772634  0.82419728  1
  O2-  O294  1  0.34157937  0.17257448  0.17214404  1
  O2-  O295  1  0.33771591  0.17426325  0.50296872  1
  O2-  O296  1  0.33265447  0.18024638  0.82817947  1
  O2-  O297  1  0.32918966  0.67889692  0.16145171  1
  O2-  O298  1  0.33426712  0.67400701  0.50045860  1
  O2-  O299  1  0.32982818  0.67336861  0.82365476  1
  O2-  O300  1  0.66500026  0.17576897  0.17089692  1
  O2-  O301  1  0.66374831  0.18226004  0.49151213  1
  O2-  O302  1  0.67065457  0.17469299  0.84015000  1
  O2-  O303  1  0.66440545  0.67290389  0.16813761  1
  O2-  O304  1  0.66337481  0.67690938  0.49709597  1
  O2-  O305  1  0.66043628  0.68426270  0.83320552  1
  O2-  O306  1  0.15927556  0.17248161  0.17234367  1
  O2-  O307  1  0.17137207  0.19016282  0.49457178  1
  O2-  O308  1  0.16215881  0.17137764  0.83927078  1
  O2-  O309  1  0.16984042  0.68759744  0.16022819  1
  O2-  O310  1  0.16574977  0.67362543  0.50098564  1
  O2-  O311  1  0.16537267  0.68903704  0.82868392  1
  O2-  O312  1  0.49765635  0.17585836  0.16632447  1
  O2-  O313  1  0.49673731  0.17900397  0.50328759  1
  O2-  O314  1  0.49847098  0.18562190  0.83756291  1
  O2-  O315  1  0.50065767  0.67952129  0.17269199  1
  O2-  O316  1  0.49987583  0.67251228  0.49580613  1
  O2-  O317  1  0.49921557  0.67847227  0.83511255  1
  O2-  O318  1  0.83804894  0.17228903  0.16787895  1
  O2-  O319  1  0.83810802  0.17501507  0.49182223  1
  O2-  O320  1  0.84378985  0.17875745  0.84348553  1
  O2-  O321  1  0.83315158  0.67948071  0.17011355  1
  O2-  O322  1  0.82548026  0.67821312  0.49785303  1
  O2-  O323  1  0.83202122  0.68793392  0.82880045  1
  O2-  O324  1  0.00451330  0.32729384  0.17148887  1
  O2-  O325  1  0.00092922  0.31703605  0.49641774  1
  O2-  O326  1  -0.00338769  0.32454006  0.83342794  1
  O2-  O327  1  -0.00175842  0.79813643  0.16742871  1
  O2-  O328  1  -0.00012131  0.83094383  0.50279339  1
  O2-  O329  1  -0.00255535  0.81465267  0.83056745  1
  O2-  O330  1  0.33129843  0.33372778  0.15946831  1
  O2-  O331  1  0.33379836  0.32049476  0.50589770  1
  O2-  O332  1  0.33338137  0.31690664  0.82753356  1
  O2-  O333  1  0.33241246  0.81699090  0.17018166  1
  O2-  O334  1  0.33863050  0.82190498  0.50794980  1
  O2-  O335  1  0.33417228  0.82526587  0.83536450  1
  O2-  O336  1  0.66686904  0.32345977  0.16659624  1
  O2-  O337  1  0.67212687  0.31967164  0.50720626  1
  O2-  O338  1  0.66994026  0.32264146  0.83902079  1
  O2-  O339  1  0.66825622  0.82904282  0.17065057  1
  O2-  O340  1  0.66952501  0.82882277  0.49948053  1
  O2-  O341  1  0.66283198  0.81443061  0.82712341  1
  O2-  O342  1  0.16931410  0.33296130  0.16146195  1
  O2-  O343  1  0.16401637  0.31264707  0.50383951  1
  O2-  O344  1  0.16630921  0.33276540  0.83337197  1
  O2-  O345  1  0.16662464  0.81705170  0.16606247  1
  O2-  O346  1  0.15935143  0.82993796  0.50592396  1
  O2-  O347  1  0.16809355  0.81645357  0.83110102  1
  O2-  O348  1  0.49789207  0.32576402  0.17052406  1
  O2-  O349  1  0.49915566  0.31771432  0.50272188  1
  O2-  O350  1  0.49561088  0.31839334  0.83465070  1
  O2-  O351  1  0.49949867  0.82613607  0.16734891  1
  O2-  O352  1  0.50348179  0.82826091  0.50028347  1
  O2-  O353  1  0.50060784  0.82653242  0.83199900  1
  O2-  O354  1  0.83809825  0.32403476  0.16135666  1
  O2-  O355  1  0.83038156  0.32850884  0.50559329  1
  O2-  O356  1  0.84087731  0.32045283  0.82867919  1
  O2-  O357  1  0.82779343  0.82327107  0.17586280  1
  O2-  O358  1  0.83656353  0.83079294  0.49693787  1
  O2-  O359  1  0.83979837  0.81516890  0.82681201  1
  O2-  O360  1  0.07707203  0.07606478  0.10633166  1
  O2-  O361  1  0.09347528  0.08555999  0.46740687  1
  O2-  O362  1  0.08111340  0.08062386  0.76151573  1
  O2-  O363  1  0.09724861  0.58341960  0.11027688  1
  O2-  O364  1  0.08500450  0.57784108  0.43616781  1
  O2-  O365  1  0.07224443  0.58510614  0.77658874  1
  O2-  O366  1  0.42408109  0.07950949  0.11735365  1
  O2-  O367  1  0.41944687  0.07961179  0.45523004  1
  O2-  O368  1  0.41509691  0.08600243  0.76747199  1
  O2-  O369  1  0.40252015  0.57984021  0.11106938  1
  O2-  O370  1  0.41912560  0.57745964  0.45247445  1
  O2-  O371  1  0.41262031  0.58126651  0.75922220  1
  O2-  O372  1  0.75468484  0.07347815  0.11194996  1
  O2-  O373  1  0.75548478  0.08368323  0.43748314  1
  O2-  O374  1  0.76545151  0.08038506  0.77742251  1
  O2-  O375  1  0.76045982  0.57122239  0.09367517  1
  O2-  O376  1  0.74238072  0.58280760  0.44400573  1
  O2-  O377  1  0.76577379  0.58371285  0.77579437  1
  O2-  O378  1  0.23956761  0.08626073  0.23538141  1
  O2-  O379  1  0.25202904  0.08087435  0.54667053  1
  O2-  O380  1  0.23986235  0.07283816  0.88013526  1
  O2-  O381  1  0.24268536  0.57996480  0.21277416  1
  O2-  O382  1  0.26073775  0.57971454  0.55905313  1
  O2-  O383  1  0.24590869  0.57723567  0.88790664  1
  O2-  O384  1  0.58195011  0.08293794  0.22298810  1
  O2-  O385  1  0.55753895  0.07897931  0.55196265  1
  O2-  O386  1  0.57819576  0.08419297  0.89228474  1
  O2-  O387  1  0.59275654  0.57881490  0.21324805  1
  O2-  O388  1  0.58351998  0.58349433  0.55805592  1
  O2-  O389  1  0.60122929  0.58072120  0.91001147  1
  O2-  O390  1  0.92908788  0.08165722  0.23003736  1
  O2-  O391  1  0.92820666  0.07956091  0.53956960  1
  O2-  O392  1  0.92009415  0.07338233  0.89623593  1
  O2-  O393  1  0.91483489  0.58482885  0.22714044  1
  O2-  O394  1  0.91119046  0.57939432  0.57775587  1
  O2-  O395  1  0.89699730  0.57168518  0.88825221  1
  O2-  O396  1  0.07850593  0.41853275  0.09850682  1
  O2-  O397  1  0.07706785  0.41529630  0.43880738  1
  O2-  O398  1  0.07838671  0.41654108  0.77543057  1
  O2-  O399  1  0.09123757  0.92186053  0.09781994  1
  O2-  O400  1  0.06248720  0.92196660  0.44590273  1
  O2-  O401  1  0.07719790  0.91993621  0.77759163  1
  O2-  O402  1  0.40927976  0.42211896  0.10763908  1
  O2-  O403  1  0.41763073  0.42160172  0.46109419  1
  O2-  O404  1  0.40833308  0.41790954  0.76843047  1
  O2-  O405  1  0.41660343  0.91710484  0.11211251  1
  O2-  O406  1  0.41805047  0.91327547  0.43701667  1
  O2-  O407  1  0.40995939  0.91829557  0.77344279  1
  O2-  O408  1  0.76219687  0.41683046  0.08100859  1
  O2-  O409  1  0.75097821  0.41733603  0.44770734  1
  O2-  O410  1  0.76327930  0.41590341  0.77508267  1
  O2-  O411  1  0.74380581  0.91931527  0.11277237  1
  O2-  O412  1  0.75760555  0.91919359  0.43935610  1
  O2-  O413  1  0.75946691  0.91055513  0.77025842  1
  O2-  O414  1  0.24478668  0.41871612  0.22386971  1
  O2-  O415  1  0.25302217  0.41553701  0.57350170  1
  O2-  O416  1  0.27573838  0.42077269  0.89771359  1
  O2-  O417  1  0.26822722  0.92136138  0.21745824  1
  O2-  O418  1  0.23792649  0.91477677  0.57244898  1
  O2-  O419  1  0.24048695  0.91308373  0.89590472  1
  O2-  O420  1  0.57016310  0.41975772  0.23086251  1
  O2-  O421  1  0.59601883  0.41565120  0.56645630  1
  O2-  O422  1  0.57290357  0.41663803  0.89473734  1
  O2-  O423  1  0.59015034  0.91902627  0.22530980  1
  O2-  O424  1  0.58662736  0.92121163  0.55930690  1
  O2-  O425  1  0.58605040  0.91757109  0.88743443  1
  O2-  O426  1  0.92436851  0.41488231  0.22762317  1
  O2-  O427  1  0.90866154  0.42113144  0.55207009  1
  O2-  O428  1  0.92091164  0.41947196  0.89137044  1
  O2-  O429  1  0.89866371  0.91810804  0.24787827  1
  O2-  O430  1  0.92073750  0.92046327  0.55805985  1
  O2-  O431  1  0.93059256  0.92218274  0.88478502  1
  O2-  O432  1  0.00507764  0.00232056  -0.00535575  1
  O2-  O433  1  -0.01217738  0.00929127  0.34767912  1
  O2-  O434  1  0.01667121  -0.00040242  0.64718830  1
  O2-  O435  1  -0.02246128  0.49709940  0.01535508  1
  O2-  O436  1  0.00652198  0.49268310  0.32093041  1
  O2-  O437  1  0.00451745  0.49304227  0.66211862  1
  O2-  O438  1  0.33899340  -0.00165341  -0.02009375  1
  O2-  O439  1  0.32944102  0.01985635  0.33857813  1
  O2-  O440  1  0.33690837  0.00681902  0.66551319  1
  O2-  O441  1  0.31980849  0.50064603  0.03908026  1
  O2-  O442  1  0.33444216  0.49992087  0.34382683  1
  O2-  O443  1  0.32977787  0.49848519  0.67296391  1
  O2-  O444  1  0.66083230  0.00439166  0.01084195  1
  O2-  O445  1  0.67499373  -0.00636127  0.32107715  1
  O2-  O446  1  0.67029411  -0.01750412  0.67593699  1
  O2-  O447  1  0.68005916  0.51005157  -0.00957164  1
  O2-  O448  1  0.66945373  0.51293980  0.32383880  1
  O2-  O449  1  0.68434965  0.49905153  0.65157158  1
  O2-  O450  1  0.16833078  -0.00448643  -0.00112321  1
  O2-  O451  1  0.15280889  0.02939077  0.33267427  1
  O2-  O452  1  0.16777246  0.00636352  0.66259111  1
  O2-  O453  1  0.17718642  0.50163205  0.02182550  1
  O2-  O454  1  0.16556988  0.51447890  0.33468074  1
  O2-  O455  1  0.17498154  0.50555314  0.68128529  1
  O2-  O456  1  0.50276369  -0.00648954  0.00118024  1
  O2-  O457  1  0.49848929  0.00010888  0.33021696  1
  O2-  O458  1  0.49495994  0.00132453  0.65881046  1
  O2-  O459  1  0.49399936  0.49599984  -0.00780294  1
  O2-  O460  1  0.50478822  0.50942430  0.33426968  1
  O2-  O461  1  0.47763554  0.49186004  0.63292129  1
  O2-  O462  1  0.83211459  0.01428911  -0.00241405  1
  O2-  O463  1  0.83844431  0.00288983  0.34569102  1
  O2-  O464  1  0.84903919  -0.01290255  0.68985656  1
  O2-  O465  1  0.81846096  0.50493548  0.00382498  1
  O2-  O466  1  0.83647888  0.49905906  0.33297753  1
  O2-  O467  1  0.84339944  0.49077474  0.68049006  1
  O2-  O468  1  0.91328508  0.25197867  0.60348026  1
  O2-  O469  1  0.08272461  0.75549279  0.41662780  1
  O2-  O470  1  0.75204270  0.25122444  0.73577104  1
  O2-  O471  1  0.25182392  0.74683864  0.59622676  1
  O2-  O472  1  0.57568951  0.24988149  0.26613287  1
  O2-  O473  1  0.07929721  0.25134519  0.74389767  1
  O2-  O474  1  0.74089218  0.75172574  0.40289492  1
  O2-  O475  1  0.57708026  0.75051163  0.59331458  1
  O2-  O476  1  0.26191764  0.74683701  0.93515798  1
  O2-  O477  1  0.58091673  0.25027253  0.93548142  1
  O2-  O478  1  0.41148065  0.25548393  0.39629505  1
  O2-  O479  1  0.41329561  0.25394659  0.07191622  1
  O2-  O480  1  0.25973980  0.24925237  0.26054237  1
  O2-  O481  1  0.09044889  0.25039837  0.08007566  1
  O2-  O482  1  0.91872981  0.24869991  0.26693899  1
  O2-  O483  1  0.91798726  0.75153422  0.58869732  1
  O2-  O484  1  0.74606373  0.75323938  0.07982335  1
  O2-  O485  1  0.24373473  0.25556741  0.92711918  1
  O2-  O486  1  0.74948717  0.25404198  0.07794278  1
  O2-  O487  1  0.58460576  0.74977952  0.26887692  1
  O2-  O488  1  0.41640581  0.75024832  0.73539991  1
  O2-  O489  1  0.42394287  0.74788607  0.40447883  1
  O2-  O490  1  0.75942285  0.25044790  0.39828660  1
  O2-  O491  1  0.41570564  0.74874422  0.06278764  1
  O2-  O492  1  0.57459928  0.75060264  0.93421386  1
