# generated using pymatgen
data_Ca108Mn108O277
_symmetry_space_group_name_H-M   'P 1'
_cell_length_a   16.02464621
_cell_length_b   22.30464595
_cell_length_c   16.38878135
_cell_angle_alpha   89.99884324
_cell_angle_beta   90.00036099
_cell_angle_gamma   90.00677384
_symmetry_Int_Tables_number   1
_chemical_formula_structural   Ca108Mn108O277
_chemical_formula_sum   'Ca108 Mn108 O277'
_cell_volume   5857.74473031
_cell_formula_units_Z   1
loop_
 _symmetry_equiv_pos_site_id
 _symmetry_equiv_pos_as_xyz
  1  'x, y, z'
loop_
 _atom_type_symbol
 _atom_type_oxidation_number
  Ca2+  2.0
  Mn3.34+  3.34
  O2-  -2.0
loop_
 _atom_site_type_symbol
 _atom_site_label
 _atom_site_symmetry_multiplicity
 _atom_site_fract_x
 _atom_site_fract_y
 _atom_site_fract_z
 _atom_site_occupancy
  Ca2+  Ca0  1  0.11373816  0.23445258  0.23292980  1
  Ca2+  Ca1  1  0.08645504  0.25872194  0.59354191  1
  Ca2+  Ca2  1  0.08784985  0.23239719  0.92422095  1
  Ca2+  Ca3  1  0.09517226  0.74450096  0.25786774  1
  Ca2+  Ca4  1  0.07837030  0.76792057  0.58108451  1
  Ca2+  Ca5  1  0.07947958  0.75615318  0.92376228  1
  Ca2+  Ca6  1  0.40390393  0.23178704  0.22637688  1
  Ca2+  Ca7  1  0.41339406  0.25797297  0.58945109  1
  Ca2+  Ca8  1  0.40799754  0.24244329  0.93767884  1
  Ca2+  Ca9  1  0.41064474  0.75986620  0.24947795  1
  Ca2+  Ca10  1  0.43271811  0.75215159  0.58497445  1
  Ca2+  Ca11  1  0.41589144  0.75449785  0.91476184  1
  Ca2+  Ca12  1  0.74300226  0.26455249  0.24718401  1
  Ca2+  Ca13  1  0.74878161  0.25549985  0.58427515  1
  Ca2+  Ca14  1  0.75703711  0.24294426  0.91534027  1
  Ca2+  Ca15  1  0.75048426  0.74874194  0.23245664  1
  Ca2+  Ca16  1  0.72459018  0.74508686  0.58581147  1
  Ca2+  Ca17  1  0.75351273  0.74593728  0.92272469  1
  Ca2+  Ca18  1  0.25808339  0.23570705  0.08192318  1
  Ca2+  Ca19  1  0.26106790  0.24782249  0.39687707  1
  Ca2+  Ca20  1  0.25531300  0.23546792  0.76712622  1
  Ca2+  Ca21  1  0.25231869  0.75225323  0.07773107  1
  Ca2+  Ca22  1  0.24392143  0.75537887  0.41662916  1
  Ca2+  Ca23  1  0.25827579  0.75249547  0.76147384  1
  Ca2+  Ca24  1  0.56675485  0.25065381  0.08969610  1
  Ca2+  Ca25  1  0.58321120  0.27106734  0.40356209  1
  Ca2+  Ca26  1  0.58215138  0.24801947  0.75393608  1
  Ca2+  Ca27  1  0.60129157  0.74792690  0.06685969  1
  Ca2+  Ca28  1  0.57817394  0.75418926  0.43708399  1
  Ca2+  Ca29  1  0.58482738  0.75384386  0.74193176  1
  Ca2+  Ca30  1  0.92233340  0.24514215  0.07471642  1
  Ca2+  Ca31  1  0.91283594  0.27504298  0.41313013  1
  Ca2+  Ca32  1  0.91980363  0.24479091  0.76020537  1
  Ca2+  Ca33  1  0.90643900  0.73858830  0.06308051  1
  Ca2+  Ca34  1  0.93645969  0.74673706  0.42233457  1
  Ca2+  Ca35  1  0.91380158  0.76322760  0.76747881  1
  Ca2+  Ca36  1  0.74869843  0.07969805  0.64383012  1
  Ca2+  Ca37  1  0.72479523  0.61232613  0.57866836  1
  Ca2+  Ca38  1  0.10234713  0.60754147  0.56984660  1
  Ca2+  Ca39  1  0.94721001  0.06985905  0.04120572  1
  Ca2+  Ca40  1  0.86326998  0.60184508  0.41604111  1
  Ca2+  Ca41  1  0.23491888  0.60096122  0.07839696  1
  Ca2+  Ca42  1  0.56865952  0.62274128  0.77024275  1
  Ca2+  Ca43  1  0.41555449  0.60832228  0.90091450  1
  Ca2+  Ca44  1  0.59104237  0.59192814  0.06448219  1
  Ca2+  Ca45  1  0.55382043  0.10556886  0.07614595  1
  Ca2+  Ca46  1  0.73747905  0.58852074  0.25667872  1
  Ca2+  Ca47  1  0.24905065  0.06932183  0.34186108  1
  Ca2+  Ca48  1  0.75020452  0.09868018  0.90717131  1
  Ca2+  Ca49  1  0.61823343  0.60500107  0.42669963  1
  Ca2+  Ca50  1  0.40520050  0.60773564  0.90188749  1
  Ca2+  Ca51  1  0.41887777  0.58926832  0.25638920  1
  Ca2+  Ca52  1  0.59971009  0.59459216  0.06867662  1
  Ca2+  Ca53  1  0.07385325  0.07647330  0.62036892  1
  Ca2+  Ca54  1  0.74991563  0.09012571  0.23260255  1
  Ca2+  Ca55  1  0.39259402  0.10119511  0.93246493  1
  Ca2+  Ca56  1  0.91895389  0.07592882  0.41112412  1
  Ca2+  Ca57  1  0.73709130  0.09016690  0.23222725  1
  Ca2+  Ca58  1  0.06611853  0.58811218  0.93932910  1
  Ca2+  Ca59  1  0.09043025  0.60750286  0.56986695  1
  Ca2+  Ca60  1  0.25298415  0.07530347  0.34598630  1
  Ca2+  Ca61  1  0.07657545  0.58832796  0.93983893  1
  Ca2+  Ca62  1  0.75046111  0.60484064  0.92957524  1
  Ca2+  Ca63  1  0.43054613  0.61440108  0.59562027  1
  Ca2+  Ca64  1  0.60839409  0.60549590  0.42315068  1
  Ca2+  Ca65  1  0.90592301  0.07812669  0.77479552  1
  Ca2+  Ca66  1  0.91639396  0.07761681  0.77539339  1
  Ca2+  Ca67  1  0.24859479  0.08956186  0.08775482  1
  Ca2+  Ca68  1  0.42185056  0.61079745  0.59259822  1
  Ca2+  Ca69  1  0.57721765  0.61885334  0.76742290  1
  Ca2+  Ca70  1  0.23950762  0.61495803  0.41206817  1
  Ca2+  Ca71  1  0.60286945  0.09907324  0.76618460  1
  Ca2+  Ca72  1  0.44793829  0.41252025  0.23984297  1
  Ca2+  Ca73  1  0.08346479  0.93630875  0.90936826  1
  Ca2+  Ca74  1  0.25173005  0.40427641  0.41816433  1
  Ca2+  Ca75  1  0.75640815  0.41310090  0.92645047  1
  Ca2+  Ca76  1  0.41045775  0.89362911  0.57771168  1
  Ca2+  Ca77  1  0.08703742  0.39891705  0.24469290  1
  Ca2+  Ca78  1  0.74915808  0.39823881  0.57366271  1
  Ca2+  Ca79  1  0.08931657  0.91672161  0.25317708  1
  Ca2+  Ca80  1  0.40169887  0.91185740  0.92068393  1
  Ca2+  Ca81  1  0.24635638  0.92236917  0.06449870  1
  Ca2+  Ca82  1  0.25936560  0.41901754  0.04663275  1
  Ca2+  Ca83  1  0.57840584  0.39550200  0.75232069  1
  Ca2+  Ca84  1  0.10128877  0.91884154  0.25236297  1
  Ca2+  Ca85  1  0.91553538  0.89737014  0.41363720  1
  Ca2+  Ca86  1  0.58063747  0.91266603  0.75135615  1
  Ca2+  Ca87  1  0.08295571  0.40890651  0.59336864  1
  Ca2+  Ca88  1  0.43718245  0.41122493  0.24382328  1
  Ca2+  Ca89  1  0.23590867  0.92179313  0.06588445  1
  Ca2+  Ca90  1  0.23991623  0.41103664  0.76422341  1
  Ca2+  Ca91  1  0.26451714  0.40413504  0.41818165  1
  Ca2+  Ca92  1  0.77768242  0.91809415  0.91031000  1
  Ca2+  Ca93  1  0.94840776  0.41425233  0.75692079  1
  Ca2+  Ca94  1  0.58535141  0.90029488  0.07782277  1
  Ca2+  Ca95  1  0.93120425  0.91560670  0.06217618  1
  Ca2+  Ca96  1  0.59285789  0.91028673  0.75222225  1
  Ca2+  Ca97  1  0.92801249  0.89894091  0.41539552  1
  Ca2+  Ca98  1  0.74365917  0.41286830  0.92636222  1
  Ca2+  Ca99  1  0.91713550  0.41610841  0.06738943  1
  Ca2+  Ca100  1  0.07409216  0.39951210  0.24372979  1
  Ca2+  Ca101  1  0.09278167  0.41638120  0.92371264  1
  Ca2+  Ca102  1  0.42088782  0.40321201  0.58721649  1
  Ca2+  Ca103  1  0.90761917  0.41332379  0.07117807  1
  Ca2+  Ca104  1  0.93673158  0.41722805  0.75426861  1
  Ca2+  Ca105  1  0.25219993  0.40908107  0.76405003  1
  Ca2+  Ca106  1  0.75363686  0.91050475  0.60007714  1
  Ca2+  Ca107  1  0.74660823  0.89165309  0.24425648  1
  Mn3.34+  Mn108  1  0.08557429  0.32957887  0.07976319  1
  Mn3.34+  Mn109  1  0.07957996  0.33357127  0.42049376  1
  Mn3.34+  Mn110  1  0.08777967  0.32754349  0.75626713  1
  Mn3.34+  Mn111  1  0.08356901  0.83295394  0.09045307  1
  Mn3.34+  Mn112  1  0.09257673  0.83011982  0.41956748  1
  Mn3.34+  Mn113  1  0.08658392  0.84309249  0.75129789  1
  Mn3.34+  Mn114  1  0.41786866  0.33159952  0.08087627  1
  Mn3.34+  Mn115  1  0.42450542  0.33545157  0.41674947  1
  Mn3.34+  Mn116  1  0.41533369  0.32861034  0.75708748  1
  Mn3.34+  Mn117  1  0.41667022  0.83232177  0.08644520  1
  Mn3.34+  Mn118  1  0.41470977  0.83117873  0.41414851  1
  Mn3.34+  Mn119  1  0.41150980  0.83832270  0.75399683  1
  Mn3.34+  Mn120  1  0.74541548  0.33206497  0.08567004  1
  Mn3.34+  Mn121  1  0.74764563  0.34685902  0.41142476  1
  Mn3.34+  Mn122  1  0.75003170  0.32803359  0.75379652  1
  Mn3.34+  Mn123  1  0.75377349  0.83126151  0.07883513  1
  Mn3.34+  Mn124  1  0.74900333  0.82238977  0.41665810  1
  Mn3.34+  Mn125  1  0.75311053  0.83557565  0.75602651  1
  Mn3.34+  Mn126  1  0.25526323  0.33105040  0.24231371  1
  Mn3.34+  Mn127  1  0.25124674  0.33104779  0.58562141  1
  Mn3.34+  Mn128  1  0.25180630  0.33238609  0.91891348  1
  Mn3.34+  Mn129  1  0.25867173  0.84420632  0.24816077  1
  Mn3.34+  Mn130  1  0.25019868  0.83101993  0.58653720  1
  Mn3.34+  Mn131  1  0.24447433  0.83526183  0.91249240  1
  Mn3.34+  Mn132  1  0.59210985  0.34048396  0.24431618  1
  Mn3.34+  Mn133  1  0.58403160  0.33004020  0.58208735  1
  Mn3.34+  Mn134  1  0.57922989  0.33257202  0.91834235  1
  Mn3.34+  Mn135  1  0.58089239  0.83073448  0.24892995  1
  Mn3.34+  Mn136  1  0.58404833  0.83171595  0.57998013  1
  Mn3.34+  Mn137  1  0.58233517  0.83197959  0.91327354  1
  Mn3.34+  Mn138  1  0.91026096  0.33497397  0.24852907  1
  Mn3.34+  Mn139  1  0.91434835  0.33192347  0.58325567  1
  Mn3.34+  Mn140  1  0.91744265  0.33182105  0.91314900  1
  Mn3.34+  Mn141  1  0.92062665  0.82859256  0.24185615  1
  Mn3.34+  Mn142  1  0.91930483  0.84064503  0.59309851  1
  Mn3.34+  Mn143  1  0.92316951  0.83707312  0.91582484  1
  Mn3.34+  Mn144  1  0.41798093  0.16131011  0.41592260  1
  Mn3.34+  Mn145  1  0.91484161  0.66367761  0.91685751  1
  Mn3.34+  Mn146  1  0.92659330  0.66716281  0.24119699  1
  Mn3.34+  Mn147  1  0.41374584  0.66738007  0.41757614  1
  Mn3.34+  Mn148  1  0.92211864  0.16522957  0.58380001  1
  Mn3.34+  Mn149  1  0.09266001  0.15685733  0.07675815  1
  Mn3.34+  Mn150  1  0.09113618  0.16683652  0.41793618  1
  Mn3.34+  Mn151  1  0.75056248  0.67283258  0.75699108  1
  Mn3.34+  Mn152  1  0.74868973  0.16973969  0.07720501  1
  Mn3.34+  Mn153  1  0.91642657  0.67162371  0.24156443  1
  Mn3.34+  Mn154  1  0.25266640  0.68408444  0.58715004  1
  Mn3.34+  Mn155  1  0.25118802  0.67219371  0.24349307  1
  Mn3.34+  Mn156  1  0.91825384  0.16604310  0.91885364  1
  Mn3.34+  Mn157  1  0.58132175  0.17041937  0.24350359  1
  Mn3.34+  Mn158  1  0.08076416  0.15758526  0.42062780  1
  Mn3.34+  Mn159  1  0.90389544  0.66712183  0.58565535  1
  Mn3.34+  Mn160  1  0.41239939  0.66929101  0.08659145  1
  Mn3.34+  Mn161  1  0.41573226  0.16434162  0.76359950  1
  Mn3.34+  Mn162  1  0.42730764  0.15495922  0.41580814  1
  Mn3.34+  Mn163  1  0.58374818  0.16519776  0.58829881  1
  Mn3.34+  Mn164  1  0.08878904  0.65985826  0.75714444  1
  Mn3.34+  Mn165  1  0.92887994  0.15944009  0.24268068  1
  Mn3.34+  Mn166  1  0.07831343  0.66440117  0.75585587  1
  Mn3.34+  Mn167  1  0.57359154  0.15983053  0.58768967  1
  Mn3.34+  Mn168  1  0.26067629  0.15486884  0.58937981  1
  Mn3.34+  Mn169  1  0.24950272  0.66862047  0.91607747  1
  Mn3.34+  Mn170  1  0.90828885  0.15877583  0.58290774  1
  Mn3.34+  Mn171  1  0.91646691  0.16655565  0.24480533  1
  Mn3.34+  Mn172  1  0.08739323  0.16044552  0.76396022  1
  Mn3.34+  Mn173  1  0.74932646  0.16883983  0.41588968  1
  Mn3.34+  Mn174  1  0.73803114  0.16410682  0.41726885  1
  Mn3.34+  Mn175  1  0.58281932  0.16996004  0.91445685  1
  Mn3.34+  Mn176  1  0.24724041  0.16077964  0.59064406  1
  Mn3.34+  Mn177  1  0.58480045  0.66875580  0.24628310  1
  Mn3.34+  Mn178  1  0.91491102  0.67088220  0.58877915  1
  Mn3.34+  Mn179  1  0.57514196  0.67400765  0.24834409  1
  Mn3.34+  Mn180  1  0.25414226  -0.00079423  0.59879848  1
  Mn3.34+  Mn181  1  0.40891912  -0.00816636  0.41434535  1
  Mn3.34+  Mn182  1  0.56151130  0.00275673  0.25233951  1
  Mn3.34+  Mn183  1  0.59242602  0.49930212  0.57088977  1
  Mn3.34+  Mn184  1  0.74573049  0.00197336  0.41831132  1
  Mn3.34+  Mn185  1  0.91823173  0.50049907  0.57244927  1
  Mn3.34+  Mn186  1  0.41351278  0.50628799  0.07511637  1
  Mn3.34+  Mn187  1  0.42884731  0.50229817  0.41025827  1
  Mn3.34+  Mn188  1  0.56726910  -0.00297951  0.57509608  1
  Mn3.34+  Mn189  1  0.08294527  0.50580534  0.41437171  1
  Mn3.34+  Mn190  1  0.24294124  -0.00811292  0.59937548  1
  Mn3.34+  Mn191  1  0.24281024  0.50126224  0.23108578  1
  Mn3.34+  Mn192  1  0.41645099  -0.00139296  0.07800254  1
  Mn3.34+  Mn193  1  0.75255077  -0.00320439  0.07263854  1
  Mn3.34+  Mn194  1  0.90468661  0.50265542  0.25109661  1
  Mn3.34+  Mn195  1  0.26133938  0.50170011  0.58165362  1
  Mn3.34+  Mn196  1  0.58247427  0.49418617  0.57409294  1
  Mn3.34+  Mn197  1  0.06852179  0.50036066  0.41763120  1
  Mn3.34+  Mn198  1  0.58306375  0.00117867  0.92145980  1
  Mn3.34+  Mn199  1  0.57173609  0.49400226  0.92039815  1
  Mn3.34+  Mn200  1  0.75621887  0.50821435  0.75479179  1
  Mn3.34+  Mn201  1  0.92594183  0.00194125  0.25001956  1
  Mn3.34+  Mn202  1  0.92219678  -0.00717924  0.60163683  1
  Mn3.34+  Mn203  1  0.41292455  0.00618198  0.75354522  1
  Mn3.34+  Mn204  1  0.90566306  0.49539249  0.57154835  1
  Mn3.34+  Mn205  1  0.74230107  0.50179764  0.75401772  1
  Mn3.34+  Mn206  1  0.55484517  -0.00406743  0.25610351  1
  Mn3.34+  Mn207  1  0.24952156  0.50332919  0.24021826  1
  Mn3.34+  Mn208  1  0.08858879  -0.00434739  0.42435233  1
  Mn3.34+  Mn209  1  0.24899592  0.50636731  0.58382805  1
  Mn3.34+  Mn210  1  0.89213006  0.49916147  0.25861804  1
  Mn3.34+  Mn211  1  0.58123745  0.00266787  0.57495932  1
  Mn3.34+  Mn212  1  0.42273412  0.49618630  0.75566849  1
  Mn3.34+  Mn213  1  0.75360750  0.50179256  0.07480898  1
  Mn3.34+  Mn214  1  0.73201793  -0.00455405  0.41579693  1
  Mn3.34+  Mn215  1  0.08444857  0.50109738  0.07682310  1
  O2-  O216  1  -0.00204370  0.16279578  0.00142808  1
  O2-  O217  1  -0.00412199  0.14545428  0.34003895  1
  O2-  O218  1  -0.00582114  0.15374892  0.67181647  1
  O2-  O219  1  0.00570099  0.67094406  -0.01308895  1
  O2-  O220  1  -0.00736559  0.66880169  0.33146429  1
  O2-  O221  1  0.00243896  0.64317195  0.66228065  1
  O2-  O222  1  0.32223918  0.16673978  0.00514687  1
  O2-  O223  1  0.33313814  0.15817286  0.33895096  1
  O2-  O224  1  0.33460638  0.15480964  0.67503716  1
  O2-  O225  1  0.33076699  0.65570206  0.00616093  1
  O2-  O226  1  0.34039088  0.66087886  0.32854482  1
  O2-  O227  1  0.34163912  0.68070411  0.65602497  1
  O2-  O228  1  0.66407479  0.16592512  0.00083710  1
  O2-  O229  1  0.67414525  0.14938204  0.31927077  1
  O2-  O230  1  0.66467065  0.16259758  0.67129666  1
  O2-  O231  1  0.65842780  0.66132451  -0.00154978  1
  O2-  O232  1  0.66907830  0.67156023  0.32557040  1
  O2-  O233  1  0.66613817  0.66072338  0.67942559  1
  O2-  O234  1  0.16846575  0.17088392  0.00093215  1
  O2-  O235  1  0.17020241  0.15844350  0.33593893  1
  O2-  O236  1  0.16287592  0.14903971  0.66780591  1
  O2-  O237  1  0.16330438  0.65674453  -0.00948503  1
  O2-  O238  1  0.18377205  0.68238520  0.33000562  1
  O2-  O239  1  0.16739062  0.65897626  0.66851500  1
  O2-  O240  1  0.49877260  0.17156735  -0.00968670  1
  O2-  O241  1  0.50899812  0.16017283  0.33422507  1
  O2-  O242  1  0.50331048  0.14885755  0.67669298  1
  O2-  O243  1  0.49116081  0.65045341  0.00782402  1
  O2-  O244  1  0.50695485  0.65063798  0.33841123  1
  O2-  O245  1  0.50014514  0.66540150  0.67138270  1
  O2-  O246  1  0.83201376  0.15598766  -0.00025054  1
  O2-  O247  1  0.83580037  0.14122777  0.33027240  1
  O2-  O248  1  0.82920410  0.16509173  0.66511911  1
  O2-  O249  1  0.83796081  0.66128462  -0.00636704  1
  O2-  O250  1  0.83379259  0.67349606  0.32296926  1
  O2-  O251  1  0.82702597  0.65050024  0.66628146  1
  O2-  O252  1  -0.00114842  0.35299222  -0.00210360  1
  O2-  O253  1  0.00026727  0.34949041  0.33072990  1
  O2-  O254  1  0.00197364  0.34752347  0.67082937  1
  O2-  O255  1  0.00113799  0.82727243  0.00819868  1
  O2-  O256  1  -0.00266811  0.83641448  0.33165079  1
  O2-  O257  1  0.00382814  0.83830989  0.67000784  1
  O2-  O258  1  0.32793656  0.33075059  0.00415770  1
  O2-  O259  1  0.33667561  0.35234208  0.32898263  1
  O2-  O260  1  0.33117426  0.34896117  0.66876943  1
  O2-  O261  1  0.32941148  0.84793699  0.00686141  1
  O2-  O262  1  0.32603998  0.81718314  0.33232229  1
  O2-  O263  1  0.33973164  0.81450508  0.66641586  1
  O2-  O264  1  0.67538251  0.33799715  -0.01007686  1
  O2-  O265  1  0.66764040  0.33961250  0.33039761  1
  O2-  O266  1  0.66970292  0.33169451  0.66783772  1
  O2-  O267  1  0.66500469  0.83767844  -0.00219917  1
  O2-  O268  1  0.67109470  0.81121241  0.32757578  1
  O2-  O269  1  0.66292969  0.84485036  0.67024489  1
  O2-  O270  1  0.16524171  0.34119264  -0.00200356  1
  O2-  O271  1  0.17166112  0.34590896  0.33513342  1
  O2-  O272  1  0.16757924  0.35016498  0.67186961  1
  O2-  O273  1  0.16611976  0.83764704  0.00820823  1
  O2-  O274  1  0.16320844  0.84059012  0.32310652  1
  O2-  O275  1  0.17150957  0.81742595  0.66758311  1
  O2-  O276  1  0.50151327  0.31851100  -0.00005088  1
  O2-  O277  1  0.50178459  0.34541471  0.33083260  1
  O2-  O278  1  0.49688126  0.34435111  0.66837511  1
  O2-  O279  1  0.49677772  0.84107845  -0.00432899  1
  O2-  O280  1  0.50216763  0.82113175  0.32967350  1
  O2-  O281  1  0.49987199  0.84437846  0.67054017  1
  O2-  O282  1  0.83453486  0.34770879  -0.00400411  1
  O2-  O283  1  0.83216022  0.33854812  0.33152077  1
  O2-  O284  1  0.83752623  0.34209411  0.67539150  1
  O2-  O285  1  0.83557015  0.84841078  0.00117125  1
  O2-  O286  1  0.83784769  0.82822033  0.33090466  1
  O2-  O287  1  0.83008931  0.84554113  0.66747148  1
  O2-  O288  1  0.00395961  0.17629843  0.16119635  1
  O2-  O289  1  0.00387288  0.17757419  0.50372431  1
  O2-  O290  1  -0.00209094  0.18013447  0.83450732  1
  O2-  O291  1  0.00075583  0.69654523  0.16762640  1
  O2-  O292  1  0.00091824  0.67337923  0.51063612  1
  O2-  O293  1  -0.00519880  0.68124013  0.82929705  1
  O2-  O294  1  0.32226554  0.16300732  0.16111813  1
  O2-  O295  1  0.33502668  0.17988067  0.50336825  1
  O2-  O296  1  0.34280812  0.18005123  0.84312219  1
  O2-  O297  1  0.33851676  0.68705920  0.17025607  1
  O2-  O298  1  0.32869832  0.67799407  0.49643319  1
  O2-  O299  1  0.33634181  0.68391323  0.84361558  1
  O2-  O300  1  0.67116694  0.17673741  0.16503627  1
  O2-  O301  1  0.66728539  0.18523675  0.51128870  1
  O2-  O302  1  0.66554540  0.18349735  0.83839786  1
  O2-  O303  1  0.65935711  0.68839900  0.16524351  1
  O2-  O304  1  0.66634212  0.68151747  0.49126821  1
  O2-  O305  1  0.66633453  0.68550407  0.83110216  1
  O2-  O306  1  0.17056701  0.16990826  0.15461601  1
  O2-  O307  1  0.17050639  0.17869660  0.50478501  1
  O2-  O308  1  0.16495394  0.17883208  0.83333811  1
  O2-  O309  1  0.17979761  0.68872131  0.16539636  1
  O2-  O310  1  0.16378029  0.68414262  0.51526041  1
  O2-  O311  1  0.16731760  0.68368542  0.83663544  1
  O2-  O312  1  0.50586574  0.17802640  0.16608752  1
  O2-  O313  1  0.49801360  0.17686250  0.50273942  1
  O2-  O314  1  0.50460423  0.18767823  0.83200574  1
  O2-  O315  1  0.49643076  0.68855174  0.16767690  1
  O2-  O316  1  0.49312088  0.66913618  0.49914533  1
  O2-  O317  1  0.49549754  0.68022627  0.84224764  1
  O2-  O318  1  0.82452789  0.17701141  0.17105689  1
  O2-  O319  1  0.84037320  0.18105489  0.49390808  1
  O2-  O320  1  0.84182632  0.17508560  0.83566844  1
  O2-  O321  1  0.83531267  0.68178873  0.16697249  1
  O2-  O322  1  0.83235649  0.68276108  0.49816967  1
  O2-  O323  1  0.83057482  0.67915614  0.83566579  1
  O2-  O324  1  0.00043972  0.33155160  0.16357943  1
  O2-  O325  1  0.00536639  0.32311727  0.51038923  1
  O2-  O326  1  -0.00596426  0.32664324  0.82774538  1
  O2-  O327  1  0.00844080  0.81344953  0.17222453  1
  O2-  O328  1  -0.00148580  0.83158275  0.49625943  1
  O2-  O329  1  0.00594239  0.82387733  0.83706206  1
  O2-  O330  1  0.34176925  0.33905732  0.17200637  1
  O2-  O331  1  0.33196544  0.32430549  0.49309110  1
  O2-  O332  1  0.32579640  0.31630937  0.83100138  1
  O2-  O333  1  0.33232672  0.81889520  0.16564743  1
  O2-  O334  1  0.33643647  0.81276521  0.50731157  1
  O2-  O335  1  0.33686519  0.82357017  0.83966149  1
  O2-  O336  1  0.66279589  0.31764384  0.15893441  1
  O2-  O337  1  0.66769147  0.31922165  0.50346705  1
  O2-  O338  1  0.66592988  0.31258210  0.83229876  1
  O2-  O339  1  0.66758467  0.82005264  0.16409210  1
  O2-  O340  1  0.67312522  0.81939060  0.50534821  1
  O2-  O341  1  0.66153988  0.81614766  0.82976507  1
  O2-  O342  1  0.16073670  0.32247023  0.17240990  1
  O2-  O343  1  0.17251688  0.32628325  0.49773236  1
  O2-  O344  1  0.17081465  0.31497590  0.83464239  1
  O2-  O345  1  0.16770836  0.81263378  0.16688291  1
  O2-  O346  1  0.17137539  0.81869097  0.50064828  1
  O2-  O347  1  0.16580656  0.81740258  0.83438294  1
  O2-  O348  1  0.49614689  0.32732895  0.17151895  1
  O2-  O349  1  0.49640553  0.32460481  0.50784640  1
  O2-  O350  1  0.50470237  0.32114903  0.82947476  1
  O2-  O351  1  0.50597495  0.81514878  0.15906039  1
  O2-  O352  1  0.49750258  0.82397930  0.50545022  1
  O2-  O353  1  0.50238542  0.81263686  0.82873374  1
  O2-  O354  1  0.83965718  0.32678618  0.15598188  1
  O2-  O355  1  0.82694149  0.32047582  0.50632721  1
  O2-  O356  1  0.83012981  0.31513750  0.83628324  1
  O2-  O357  1  0.83234113  0.82171901  0.16808242  1
  O2-  O358  1  0.84174051  0.81996482  0.48875106  1
  O2-  O359  1  0.82821714  0.82951953  0.84089575  1
  O2-  O360  1  0.08322727  0.08056557  0.09201935  1
  O2-  O361  1  0.08428625  0.07661931  0.45994071  1
  O2-  O362  1  0.05733346  0.08375347  0.77507568  1
  O2-  O363  1  0.09017565  0.57659945  0.09654038  1
  O2-  O364  1  0.09499865  0.58558036  0.44022320  1
  O2-  O365  1  0.08721131  0.58060928  0.78821224  1
  O2-  O366  1  0.42195260  0.07195386  0.10552417  1
  O2-  O367  1  0.39408647  0.07529462  0.44373232  1
  O2-  O368  1  0.43247714  0.08366353  0.79724758  1
  O2-  O369  1  0.41696168  0.58347652  0.12064223  1
  O2-  O370  1  0.40403599  0.58198385  0.44981430  1
  O2-  O371  1  0.43678666  0.57752874  0.76815559  1
  O2-  O372  1  0.74596932  0.07906394  0.09940611  1
  O2-  O373  1  0.75059012  0.07932282  0.45962418  1
  O2-  O374  1  0.77301129  0.06943648  0.77831017  1
  O2-  O375  1  0.72313426  0.57045904  0.12383435  1
  O2-  O376  1  0.73447426  0.56686404  0.46724879  1
  O2-  O377  1  0.73452407  0.58643775  0.78987991  1
  O2-  O378  1  0.25804773  0.07194992  0.22030708  1
  O2-  O379  1  0.24192873  0.07044875  0.54702300  1
  O2-  O380  1  0.25417151  0.07867449  0.93496708  1
  O2-  O381  1  0.25987033  0.58730664  0.22542549  1
  O2-  O382  1  0.24238938  0.58742146  0.55794236  1
  O2-  O383  1  0.27101811  0.58703416  0.89887481  1
  O2-  O384  1  0.59768641  0.07962851  0.20751507  1
  O2-  O385  1  0.58836860  0.08096536  0.54128393  1
  O2-  O386  1  0.59656823  0.08141968  0.89848586  1
  O2-  O387  1  0.57660307  0.58715269  0.20636477  1
  O2-  O388  1  0.56994863  0.58103259  0.55815369  1
  O2-  O389  1  0.55650877  0.57284752  0.88677583  1
  O2-  O390  1  0.89376420  0.07986068  0.20831027  1
  O2-  O391  1  0.92371550  0.07436330  0.54844009  1
  O2-  O392  1  0.91148283  0.08195184  0.90677710  1
  O2-  O393  1  0.91831443  0.58144397  0.21672793  1
  O2-  O394  1  0.91489209  0.58179900  0.54796620  1
  O2-  O395  1  0.93768033  0.58270508  0.90256329  1
  O2-  O396  1  0.09257592  0.42227868  0.11348685  1
  O2-  O397  1  0.09556140  0.42120601  0.44871805  1
  O2-  O398  1  0.08748167  0.41638018  0.78285907  1
  O2-  O399  1  0.08894311  0.91450394  0.11679031  1
  O2-  O400  1  0.06932960  0.91453706  0.41587853  1
  O2-  O401  1  0.09129595  0.91783478  0.77145419  1
  O2-  O402  1  0.41036126  0.42505815  0.10430474  1
  O2-  O403  1  0.39954058  0.42386482  0.45162782  1
  O2-  O404  1  0.39563915  0.41593449  0.77645669  1
  O2-  O405  1  0.40869016  0.91928960  0.10939144  1
  O2-  O406  1  0.41646613  0.91408535  0.44329058  1
  O2-  O407  1  0.43889870  0.92286701  0.78614891  1
  O2-  O408  1  0.76043339  0.41892700  0.09668478  1
  O2-  O409  1  0.74950914  0.42104802  0.44544636  1
  O2-  O410  1  0.75154646  0.41990338  0.78399622  1
  O2-  O411  1  0.74688501  0.91960637  0.11202063  1
  O2-  O412  1  0.75960512  0.91421539  0.42245665  1
  O2-  O413  1  0.72800129  0.91633171  0.77747973  1
  O2-  O414  1  0.22777214  0.41716989  0.22342020  1
  O2-  O415  1  0.25778431  0.42108429  0.55187928  1
  O2-  O416  1  0.23886652  0.42064146  0.89523950  1
  O2-  O417  1  0.22867820  0.92250583  0.20594318  1
  O2-  O418  1  0.26440732  0.91820901  0.56278258  1
  O2-  O419  1  0.24431021  0.91654972  0.91510752  1
  O2-  O420  1  0.57851738  0.41935008  0.22714495  1
  O2-  O421  1  0.59684054  0.41266235  0.56957676  1
  O2-  O422  1  0.60922477  0.41927068  0.88315863  1
  O2-  O423  1  0.59694881  0.91982645  0.21931921  1
  O2-  O424  1  0.58387611  0.91614124  0.55928573  1
  O2-  O425  1  0.57910582  0.92182712  0.88495231  1
  O2-  O426  1  0.93727881  0.42684193  0.20513618  1
  O2-  O427  1  0.90625485  0.41435214  0.55953848  1
  O2-  O428  1  0.90043786  0.41738001  0.88339249  1
  O2-  O429  1  0.93874057  0.91864414  0.22597077  1
  O2-  O430  1  0.89650278  0.92426113  0.54201824  1
  O2-  O431  1  0.92833676  0.91793919  0.91144731  1
  O2-  O432  1  0.01165631  -0.01375767  0.00503643  1
  O2-  O433  1  -0.01735793  -0.00280147  0.35998175  1
  O2-  O434  1  -0.01747921  0.01765291  0.68636442  1
  O2-  O435  1  -0.00170562  0.48518929  0.00911140  1
  O2-  O436  1  0.00231564  0.49155415  0.32166625  1
  O2-  O437  1  -0.00736534  0.48298704  0.66331329  1
  O2-  O438  1  0.32965517  -0.00274015  0.01048948  1
  O2-  O439  1  0.32738556  -0.01061298  0.34527451  1
  O2-  O440  1  0.34625127  -0.00515415  0.65570231  1
  O2-  O441  1  0.31446915  0.51119224  0.03135833  1
  O2-  O442  1  0.32053453  0.49370655  0.33657387  1
  O2-  O443  1  0.33616670  0.50131241  0.67356869  1
  O2-  O444  1  0.67431811  -0.00957873  -0.00761167  1
  O2-  O445  1  0.67233882  0.01004617  0.31167448  1
  O2-  O446  1  0.66525840  -0.00216629  0.65665794  1
  O2-  O447  1  0.67789856  0.50909094  -0.01910777  1
  O2-  O448  1  0.65669101  0.53992186  0.33824184  1
  O2-  O449  1  0.67509522  0.51001874  0.65587440  1
  O2-  O450  1  0.16442709  -0.00448208  0.01304798  1
  O2-  O451  1  0.15390109  -0.00024597  0.32644533  1
  O2-  O452  1  0.15223159  0.00191392  0.65563255  1
  O2-  O453  1  0.15487863  0.50067120  -0.00740282  1
  O2-  O454  1  0.16294919  0.49520508  0.32779297  1
  O2-  O455  1  0.15887486  0.49167735  0.65390768  1
  O2-  O456  1  0.50054247  -0.00596106  0.00359529  1
  O2-  O457  1  0.50909111  0.00743841  0.36142061  1
  O2-  O458  1  0.50837283  -0.00375658  0.67722248  1
  O2-  O459  1  0.51337694  0.51602155  0.01947135  1
  O2-  O460  1  0.47895941  0.50183056  0.30845898  1
  O2-  O461  1  0.50192166  0.48777689  0.66368238  1
  O2-  O462  1  0.84205921  -0.00579743  0.01466382  1
  O2-  O463  1  0.82786906  0.01009906  0.33223844  1
  O2-  O464  1  0.82790796  -0.00062951  0.65095877  1
  O2-  O465  1  0.83349676  0.48322238  -0.00153659  1
  O2-  O466  1  0.82817297  0.52400531  0.33921286  1
  O2-  O467  1  0.83281489  0.49615898  0.66746703  1
  O2-  O468  1  0.74833789  0.25267789  0.39523087  1
  O2-  O469  1  0.41176954  0.75010520  0.05540893  1
  O2-  O470  1  0.75917916  0.75207070  0.72554061  1
  O2-  O471  1  0.07900575  0.24790411  0.72767146  1
  O2-  O472  1  0.42834685  0.74672199  0.40434292  1
  O2-  O473  1  0.76456339  0.25120265  0.06129865  1
  O2-  O474  1  0.92401978  0.24630685  0.27320246  1
  O2-  O475  1  0.24993885  0.75177513  0.93978383  1
  O2-  O476  1  0.75424772  0.75406020  0.06180125  1
  O2-  O477  1  0.91023171  0.75245584  0.92316637  1
  O2-  O478  1  0.41720683  0.24665049  0.39821922  1
  O2-  O479  1  0.07979229  0.75390195  0.40657472  1
  O2-  O480  1  0.57983927  0.75471698  0.60064947  1
  O2-  O481  1  0.59205796  0.25127591  0.26774740  1
  O2-  O482  1  0.92048659  0.24958450  0.60505859  1
  O2-  O483  1  0.41598905  0.24856299  0.72530162  1
  O2-  O484  1  0.40633024  0.25217823  0.08659043  1
  O2-  O485  1  0.92063953  0.25179122  0.93856910  1
  O2-  O486  1  0.25914822  0.25280383  0.25991207  1
  O2-  O487  1  0.56816933  0.24942641  0.60653317  1
  O2-  O488  1  0.24985579  0.24605471  0.61022087  1
  O2-  O489  1  0.07796386  0.24878000  0.39281435  1
  O2-  O490  1  0.07546912  0.25086372  0.06903772  1
  O2-  O491  1  0.92558567  0.75355762  0.60447643  1
  O2-  O492  1  0.07195291  0.74360651  0.73013328  1
