# generated using pymatgen
data_Ca108Mn108O277
_symmetry_space_group_name_H-M   'P 1'
_cell_length_a   16.03313773
_cell_length_b   22.31257026
_cell_length_c   16.39117111
_cell_angle_alpha   90.00423058
_cell_angle_beta   89.99848423
_cell_angle_gamma   89.99491023
_symmetry_Int_Tables_number   1
_chemical_formula_structural   Ca108Mn108O277
_chemical_formula_sum   'Ca108 Mn108 O277'
_cell_volume   5863.78590466
_cell_formula_units_Z   1
loop_
 _symmetry_equiv_pos_site_id
 _symmetry_equiv_pos_as_xyz
  1  'x, y, z'
loop_
 _atom_type_symbol
 _atom_type_oxidation_number
  Ca2+  2.0
  Mn3.34+  3.34
  O2-  -2.0
loop_
 _atom_site_type_symbol
 _atom_site_label
 _atom_site_symmetry_multiplicity
 _atom_site_fract_x
 _atom_site_fract_y
 _atom_site_fract_z
 _atom_site_occupancy
  Ca2+  Ca0  1  0.06789337  0.25478250  0.24071582  1
  Ca2+  Ca1  1  0.10408288  0.24653965  0.58973420  1
  Ca2+  Ca2  1  0.08731575  0.25959499  0.91571554  1
  Ca2+  Ca3  1  0.07353382  0.73762147  0.26136044  1
  Ca2+  Ca4  1  0.08531498  0.74471449  0.57356918  1
  Ca2+  Ca5  1  0.10443965  0.74781766  0.92061436  1
  Ca2+  Ca6  1  0.42093055  0.25221974  0.24053826  1
  Ca2+  Ca7  1  0.39141159  0.24421914  0.60618067  1
  Ca2+  Ca8  1  0.41061782  0.23606934  0.90116576  1
  Ca2+  Ca9  1  0.41836386  0.75459649  0.25221989  1
  Ca2+  Ca10  1  0.42285151  0.76029314  0.58754919  1
  Ca2+  Ca11  1  0.39870156  0.75559500  0.91702509  1
  Ca2+  Ca12  1  0.76294219  0.25094424  0.23708773  1
  Ca2+  Ca13  1  0.76621722  0.25285123  0.58517064  1
  Ca2+  Ca14  1  0.75276243  0.24557159  0.92267161  1
  Ca2+  Ca15  1  0.75316901  0.76693479  0.25260528  1
  Ca2+  Ca16  1  0.74331136  0.76602704  0.58331156  1
  Ca2+  Ca17  1  0.74689752  0.76533249  0.91898958  1
  Ca2+  Ca18  1  0.25605634  0.24218361  0.05742059  1
  Ca2+  Ca19  1  0.25603761  0.25523349  0.44278366  1
  Ca2+  Ca20  1  0.25743433  0.22437633  0.75923084  1
  Ca2+  Ca21  1  0.25368518  0.74119808  0.06951361  1
  Ca2+  Ca22  1  0.23992759  0.73320153  0.42035900  1
  Ca2+  Ca23  1  0.25532717  0.73832844  0.75455701  1
  Ca2+  Ca24  1  0.58224822  0.24252427  0.07688072  1
  Ca2+  Ca25  1  0.58411661  0.26127813  0.40975253  1
  Ca2+  Ca26  1  0.55676889  0.23615224  0.76795457  1
  Ca2+  Ca27  1  0.57819838  0.76758603  0.08501026  1
  Ca2+  Ca28  1  0.58449887  0.77066716  0.42037819  1
  Ca2+  Ca29  1  0.58163053  0.77339341  0.74119687  1
  Ca2+  Ca30  1  0.91725290  0.25067486  0.08000426  1
  Ca2+  Ca31  1  0.91454303  0.25408589  0.41623974  1
  Ca2+  Ca32  1  0.92869751  0.24319308  0.75376504  1
  Ca2+  Ca33  1  0.92798162  0.75246662  0.09333147  1
  Ca2+  Ca34  1  0.93346662  0.75156971  0.41731869  1
  Ca2+  Ca35  1  0.91970157  0.75498805  0.74701023  1
  Ca2+  Ca36  1  0.42520272  0.09788271  0.92862270  1
  Ca2+  Ca37  1  0.73887867  0.07302746  0.61543096  1
  Ca2+  Ca38  1  0.25427551  0.59471833  0.07489099  1
  Ca2+  Ca39  1  0.60649079  0.05527874  0.41390448  1
  Ca2+  Ca40  1  0.09885253  0.61225037  0.91282500  1
  Ca2+  Ca41  1  0.25151336  0.09789173  0.43561084  1
  Ca2+  Ca42  1  0.40626447  0.58973978  0.25493468  1
  Ca2+  Ca43  1  0.43558855  0.10154975  0.20624326  1
  Ca2+  Ca44  1  0.56956712  0.09718616  0.04835123  1
  Ca2+  Ca45  1  0.92324357  0.10447328  0.08358742  1
  Ca2+  Ca46  1  0.73976804  0.56024805  0.27621450  1
  Ca2+  Ca47  1  0.39094923  0.09166524  0.61927743  1
  Ca2+  Ca48  1  0.10411153  0.11712238  0.93296721  1
  Ca2+  Ca49  1  0.93245456  0.59888630  0.75465868  1
  Ca2+  Ca50  1  0.55843927  0.58068793  0.73725628  1
  Ca2+  Ca51  1  0.37573771  0.61019887  0.58143751  1
  Ca2+  Ca52  1  0.23879398  0.09841128  0.43591225  1
  Ca2+  Ca53  1  0.53564051  0.56015111  0.08319932  1
  Ca2+  Ca54  1  0.11436357  0.11655538  0.93070139  1
  Ca2+  Ca55  1  0.07301131  0.10810182  0.22016994  1
  Ca2+  Ca56  1  0.28069356  0.10056294  0.05342093  1
  Ca2+  Ca57  1  0.91175672  0.08753090  0.39777937  1
  Ca2+  Ca58  1  0.93454105  0.59083551  0.07925742  1
  Ca2+  Ca59  1  0.72763213  0.07149343  0.61111409  1
  Ca2+  Ca60  1  0.11879332  0.60679138  0.55236774  1
  Ca2+  Ca61  1  0.54699153  0.57733043  0.74005424  1
  Ca2+  Ca62  1  0.11193778  0.10292498  0.59353999  1
  Ca2+  Ca63  1  0.09644092  0.58788351  0.30873414  1
  Ca2+  Ca64  1  0.94767286  0.59500344  0.41819855  1
  Ca2+  Ca65  1  0.56471654  0.08191683  0.77799726  1
  Ca2+  Ca66  1  0.38185158  0.60541239  0.57633536  1
  Ca2+  Ca67  1  0.58133578  0.57509499  0.41049899  1
  Ca2+  Ca68  1  0.38459355  0.59873233  0.90947227  1
  Ca2+  Ca69  1  0.57510873  0.08197384  0.77856019  1
  Ca2+  Ca70  1  0.72310323  0.09972341  0.92003480  1
  Ca2+  Ca71  1  0.73920219  0.58609767  0.58060550  1
  Ca2+  Ca72  1  0.43244055  0.41829217  0.24838996  1
  Ca2+  Ca73  1  0.41538057  0.41177418  0.92445037  1
  Ca2+  Ca74  1  0.74675607  0.41362983  0.25555280  1
  Ca2+  Ca75  1  0.41692969  0.40874956  0.58738816  1
  Ca2+  Ca76  1  0.42671570  0.41165919  0.92563672  1
  Ca2+  Ca77  1  0.22520259  0.41299877  0.42068196  1
  Ca2+  Ca78  1  0.27675270  0.91576770  0.07030740  1
  Ca2+  Ca79  1  0.08852451  0.40478028  0.58138946  1
  Ca2+  Ca80  1  0.60124917  0.42553899  0.39627133  1
  Ca2+  Ca81  1  0.58209106  0.40917041  0.08631998  1
  Ca2+  Ca82  1  0.24319687  0.39829275  0.07169191  1
  Ca2+  Ca83  1  0.90791632  0.90474316  0.08350856  1
  Ca2+  Ca84  1  0.56952243  0.40070950  0.75392686  1
  Ca2+  Ca85  1  0.25745722  0.88836591  0.42619964  1
  Ca2+  Ca86  1  0.75626066  0.40328320  0.92335588  1
  Ca2+  Ca87  1  0.72076284  0.92244074  0.58850433  1
  Ca2+  Ca88  1  0.07558873  0.41176340  0.26029108  1
  Ca2+  Ca89  1  0.72400401  0.92094889  0.91419065  1
  Ca2+  Ca90  1  0.92503683  0.40856237  0.07831632  1
  Ca2+  Ca91  1  0.08850531  0.88922799  0.58531843  1
  Ca2+  Ca92  1  0.43095528  0.90672678  0.25493554  1
  Ca2+  Ca93  1  0.26084006  0.89663678  0.74707024  1
  Ca2+  Ca94  1  0.59070656  0.42511714  0.39723367  1
  Ca2+  Ca95  1  0.58034366  0.40224803  0.75175623  1
  Ca2+  Ca96  1  0.74482484  0.39981763  0.57653930  1
  Ca2+  Ca97  1  0.26762202  0.91288153  0.06670228  1
  Ca2+  Ca98  1  0.55000892  0.93455686  0.05869201  1
  Ca2+  Ca99  1  0.91782538  0.41682044  0.40212980  1
  Ca2+  Ca100  1  0.07813653  0.89968724  0.24828515  1
  Ca2+  Ca101  1  0.75084168  0.92817724  0.28946381  1
  Ca2+  Ca102  1  0.06572628  0.89949733  0.24748761  1
  Ca2+  Ca103  1  0.90945625  0.90487330  0.74086545  1
  Ca2+  Ca104  1  0.92071172  0.39306106  0.75654315  1
  Ca2+  Ca105  1  0.09060071  0.90025501  0.91635754  1
  Ca2+  Ca106  1  0.23790615  0.41390765  0.42102621  1
  Ca2+  Ca107  1  0.71372338  0.92389280  0.91123656  1
  Mn3.34+  Mn108  1  0.08546056  0.33513679  0.08471162  1
  Mn3.34+  Mn109  1  0.07824046  0.33457478  0.42092619  1
  Mn3.34+  Mn110  1  0.08735340  0.33234073  0.75225710  1
  Mn3.34+  Mn111  1  0.08425490  0.83164121  0.08355009  1
  Mn3.34+  Mn112  1  0.08285585  0.82757473  0.42011147  1
  Mn3.34+  Mn113  1  0.08376558  0.82690712  0.75378478  1
  Mn3.34+  Mn114  1  0.41785086  0.33634763  0.08843856  1
  Mn3.34+  Mn115  1  0.41593823  0.33627743  0.41632424  1
  Mn3.34+  Mn116  1  0.40747046  0.33498990  0.75390488  1
  Mn3.34+  Mn117  1  0.41903128  0.83053857  0.08610080  1
  Mn3.34+  Mn118  1  0.41998947  0.83116076  0.41848135  1
  Mn3.34+  Mn119  1  0.42048853  0.83369533  0.75015456  1
  Mn3.34+  Mn120  1  0.75157009  0.33306632  0.08564996  1
  Mn3.34+  Mn121  1  0.75213877  0.33434751  0.41740514  1
  Mn3.34+  Mn122  1  0.74849466  0.32503703  0.75149185  1
  Mn3.34+  Mn123  1  0.74639295  0.84076823  0.08900478  1
  Mn3.34+  Mn124  1  0.75085781  0.84417037  0.42364357  1
  Mn3.34+  Mn125  1  0.74779341  0.84232816  0.74898389  1
  Mn3.34+  Mn126  1  0.25025122  0.33166308  0.24675222  1
  Mn3.34+  Mn127  1  0.24992434  0.33593069  0.59260102  1
  Mn3.34+  Mn128  1  0.24735389  0.32717472  0.90914698  1
  Mn3.34+  Mn129  1  0.25099363  0.82731663  0.24708613  1
  Mn3.34+  Mn130  1  0.25466986  0.82660165  0.58228958  1
  Mn3.34+  Mn131  1  0.25526278  0.83328941  0.91092473  1
  Mn3.34+  Mn132  1  0.58486604  0.33544602  0.24178989  1
  Mn3.34+  Mn133  1  0.58060859  0.32960429  0.57730251  1
  Mn3.34+  Mn134  1  0.58706063  0.32664937  0.91824123  1
  Mn3.34+  Mn135  1  0.58695567  0.84100366  0.25216256  1
  Mn3.34+  Mn136  1  0.57450846  0.84962407  0.58138485  1
  Mn3.34+  Mn137  1  0.57154113  0.83947345  0.91668657  1
  Mn3.34+  Mn138  1  0.91492529  0.33486525  0.24775587  1
  Mn3.34+  Mn139  1  0.92044977  0.32990698  0.58306353  1
  Mn3.34+  Mn140  1  0.91884968  0.33236344  0.91721890  1
  Mn3.34+  Mn141  1  0.90834589  0.83282663  0.25360275  1
  Mn3.34+  Mn142  1  0.91304522  0.83022932  0.57912900  1
  Mn3.34+  Mn143  1  0.91775570  0.83373911  0.91269203  1
  Mn3.34+  Mn144  1  0.57609267  0.65947846  0.24727649  1
  Mn3.34+  Mn145  1  0.75941029  0.66160370  0.41809743  1
  Mn3.34+  Mn146  1  0.74307517  0.16680837  0.41535264  1
  Mn3.34+  Mn147  1  0.25702332  0.17341904  0.24679458  1
  Mn3.34+  Mn148  1  0.75983912  0.66674767  0.75597931  1
  Mn3.34+  Mn149  1  0.41576382  0.67075101  0.41561304  1
  Mn3.34+  Mn150  1  0.75719667  0.66070880  0.08287375  1
  Mn3.34+  Mn151  1  0.43178188  0.15976352  0.41529356  1
  Mn3.34+  Mn152  1  0.57978636  0.66805847  0.57905104  1
  Mn3.34+  Mn153  1  0.24326387  0.16735255  0.24421417  1
  Mn3.34+  Mn154  1  0.41137499  0.67001102  0.75364506  1
  Mn3.34+  Mn155  1  0.08350471  0.16930998  0.75157187  1
  Mn3.34+  Mn156  1  0.91276021  0.16814369  0.91184693  1
  Mn3.34+  Mn157  1  0.74755382  0.66716340  0.41615942  1
  Mn3.34+  Mn158  1  0.74617322  0.66528783  0.08175112  1
  Mn3.34+  Mn159  1  0.75033052  0.16597537  0.75625131  1
  Mn3.34+  Mn160  1  0.59100755  0.16124150  0.24003163  1
  Mn3.34+  Mn161  1  0.57823059  0.17122894  0.58322183  1
  Mn3.34+  Mn162  1  0.41361113  0.66533971  0.08468837  1
  Mn3.34+  Mn163  1  0.92127618  0.16519390  0.58484602  1
  Mn3.34+  Mn164  1  0.58691569  0.66366313  0.24952860  1
  Mn3.34+  Mn165  1  0.91639936  0.66374985  0.24783126  1
  Mn3.34+  Mn166  1  0.08867480  0.66975914  0.74733434  1
  Mn3.34+  Mn167  1  0.92082022  0.66935988  0.58230443  1
  Mn3.34+  Mn168  1  0.58946218  0.16732796  0.58253392  1
  Mn3.34+  Mn169  1  0.25158045  0.67113596  0.24613435  1
  Mn3.34+  Mn170  1  0.92287010  0.66540858  0.91419925  1
  Mn3.34+  Mn171  1  0.75337784  0.16142072  0.41574278  1
  Mn3.34+  Mn172  1  0.91427368  0.16879509  0.24409686  1
  Mn3.34+  Mn173  1  0.07793182  0.17109227  0.41518590  1
  Mn3.34+  Mn174  1  0.57667128  0.66724858  0.91974594  1
  Mn3.34+  Mn175  1  0.74418737  0.66986764  0.75156205  1
  Mn3.34+  Mn176  1  0.58994784  0.66096663  0.91842985  1
  Mn3.34+  Mn177  1  0.41772412  0.16650541  0.41285690  1
  Mn3.34+  Mn178  1  0.74846683  0.16741429  0.08337988  1
  Mn3.34+  Mn179  1  0.08819801  0.66781339  0.09060739  1
  Mn3.34+  Mn180  1  0.25384804  0.49623646  0.23759873  1
  Mn3.34+  Mn181  1  0.26667799  0.00760387  0.25468685  1
  Mn3.34+  Mn182  1  0.08442543  -0.00063338  0.07742297  1
  Mn3.34+  Mn183  1  0.75031436  0.50435374  0.75821539  1
  Mn3.34+  Mn184  1  0.91873834  -0.00523408  0.57091435  1
  Mn3.34+  Mn185  1  0.07264178  -0.00101718  0.42037339  1
  Mn3.34+  Mn186  1  0.76337718  0.49691001  0.75829501  1
  Mn3.34+  Mn187  1  0.41179627  0.50120806  0.42099559  1
  Mn3.34+  Mn188  1  0.07857005  0.00619317  0.75164570  1
  Mn3.34+  Mn189  1  0.91044971  0.00349592  0.25243705  1
  Mn3.34+  Mn190  1  0.22939816  0.49621076  0.91164347  1
  Mn3.34+  Mn191  1  0.08712043  0.50235018  0.75325766  1
  Mn3.34+  Mn192  1  0.08653144  0.50351586  0.08943977  1
  Mn3.34+  Mn193  1  0.59453616  0.50062895  0.92637992  1
  Mn3.34+  Mn194  1  0.74843935  0.49836961  0.07922887  1
  Mn3.34+  Mn195  1  0.24316856  0.49807328  0.90390241  1
  Mn3.34+  Mn196  1  0.74652823  0.00166592  0.08544703  1
  Mn3.34+  Mn197  1  0.91091648  0.00590410  0.91020563  1
  Mn3.34+  Mn198  1  0.08702866  -0.00690383  0.42014033  1
  Mn3.34+  Mn199  1  0.09746653  0.49482840  0.74947025  1
  Mn3.34+  Mn200  1  0.42808605  -0.01139977  0.73408044  1
  Mn3.34+  Mn201  1  0.25524360  0.00208530  0.25471904  1
  Mn3.34+  Mn202  1  0.92004504  0.50116892  0.25403458  1
  Mn3.34+  Mn203  1  0.25671760  0.49948313  0.60768413  1
  Mn3.34+  Mn204  1  0.92806813  0.00055882  0.57360981  1
  Mn3.34+  Mn205  1  0.91888117  0.50388910  0.58108160  1
  Mn3.34+  Mn206  1  0.92486045  0.00078975  0.91090811  1
  Mn3.34+  Mn207  1  0.09287274  0.00037421  0.75213266  1
  Mn3.34+  Mn208  1  0.24333086  0.50099734  0.23993194  1
  Mn3.34+  Mn209  1  0.58301247  0.00387440  0.24914540  1
  Mn3.34+  Mn210  1  0.93266835  0.49837676  0.58353681  1
  Mn3.34+  Mn211  1  0.57425532  0.49862830  0.58447785  1
  Mn3.34+  Mn212  1  0.25632539  -0.00843747  0.59320415  1
  Mn3.34+  Mn213  1  0.42735029  -0.00591973  0.42435625  1
  Mn3.34+  Mn214  1  0.92243225  0.49823134  0.92584043  1
  Mn3.34+  Mn215  1  0.25336379  -0.00090309  0.91536585  1
  O2-  O216  1  -0.00562860  0.15606842  -0.00852480  1
  O2-  O217  1  -0.00013793  0.16039862  0.32996966  1
  O2-  O218  1  0.00446106  0.14982386  0.66316725  1
  O2-  O219  1  0.00459146  0.65798823  0.00027626  1
  O2-  O220  1  -0.00398704  0.65760174  0.32446069  1
  O2-  O221  1  -0.00330799  0.66233152  0.67015931  1
  O2-  O222  1  0.35467018  0.17410045  -0.00287473  1
  O2-  O223  1  0.33316105  0.13475915  0.32359744  1
  O2-  O224  1  0.33260762  0.16736678  0.67445443  1
  O2-  O225  1  0.33425445  0.65950188  0.00785294  1
  O2-  O226  1  0.34071485  0.66985995  0.32577768  1
  O2-  O227  1  0.33219523  0.67052062  0.67237518  1
  O2-  O228  1  0.66503336  0.17038642  0.00754198  1
  O2-  O229  1  0.65425712  0.15466536  0.34223218  1
  O2-  O230  1  0.67139158  0.18680108  0.66522427  1
  O2-  O231  1  0.66450574  0.64070259  0.00594579  1
  O2-  O232  1  0.66552047  0.63931136  0.33484509  1
  O2-  O233  1  0.65819823  0.63908150  0.67907977  1
  O2-  O234  1  0.17484306  0.17262038  0.01175495  1
  O2-  O235  1  0.16839884  0.14762877  0.33126782  1
  O2-  O236  1  0.16511590  0.16605775  0.67630572  1
  O2-  O237  1  0.16710734  0.65862699  0.01285792  1
  O2-  O238  1  0.17232167  0.67390977  0.32278686  1
  O2-  O239  1  0.15769242  0.68896627  0.66732463  1
  O2-  O240  1  0.49478181  0.18469589  -0.00267162  1
  O2-  O241  1  0.49949462  0.16159917  0.32176417  1
  O2-  O242  1  0.50693412  0.15336570  0.67095966  1
  O2-  O243  1  0.49710525  0.63958120  -0.00263942  1
  O2-  O244  1  0.50054081  0.64162858  0.33483401  1
  O2-  O245  1  0.49245246  0.64657313  0.65803068  1
  O2-  O246  1  0.82774902  0.15017541  -0.00693888  1
  O2-  O247  1  0.83123826  0.14971451  0.32824046  1
  O2-  O248  1  0.82431293  0.14903502  0.66051334  1
  O2-  O249  1  0.84198372  0.66659319  -0.00010037  1
  O2-  O250  1  0.83000293  0.64187845  0.32761652  1
  O2-  O251  1  0.82903579  0.64596412  0.66440446  1
  O2-  O252  1  0.00132518  0.33312399  0.00307872  1
  O2-  O253  1  -0.00101402  0.33896890  0.33453262  1
  O2-  O254  1  0.00122421  0.35005994  0.66440107  1
  O2-  O255  1  -0.00172268  0.84608275  0.00163631  1
  O2-  O256  1  0.00054608  0.84412608  0.33425951  1
  O2-  O257  1  -0.00302597  0.83288553  0.67461918  1
  O2-  O258  1  0.33846268  0.34411999  0.00266582  1
  O2-  O259  1  0.33050149  0.36493883  0.33141053  1
  O2-  O260  1  0.33633876  0.35017517  0.66531134  1
  O2-  O261  1  0.33856026  0.84550737  -0.00468225  1
  O2-  O262  1  0.33509478  0.82793413  0.32589688  1
  O2-  O263  1  0.33146354  0.82773962  0.66724063  1
  O2-  O264  1  0.66837166  0.33838892  0.00033439  1
  O2-  O265  1  0.66217063  0.34113805  0.33417296  1
  O2-  O266  1  0.66292287  0.33167361  0.66653759  1
  O2-  O267  1  0.66624789  0.85322730  0.00221018  1
  O2-  O268  1  0.67066980  0.84492725  0.33364793  1
  O2-  O269  1  0.66462593  0.84725507  0.66534796  1
  O2-  O270  1  0.17089900  0.32458647  0.00296597  1
  O2-  O271  1  0.16448734  0.34498035  0.33645716  1
  O2-  O272  1  0.15997777  0.34335968  0.66270450  1
  O2-  O273  1  0.17732545  0.85168327  0.00815964  1
  O2-  O274  1  0.16663235  0.84800272  0.33119933  1
  O2-  O275  1  0.16648477  0.82624548  0.66773268  1
  O2-  O276  1  0.50063125  0.33690756  0.00034199  1
  O2-  O277  1  0.50377594  0.34056756  0.33058081  1
  O2-  O278  1  0.49979950  0.34220406  0.66694933  1
  O2-  O279  1  0.50495367  0.84545332  0.01172177  1
  O2-  O280  1  0.50165078  0.84544586  0.33586490  1
  O2-  O281  1  0.49935305  0.84256713  0.66664659  1
  O2-  O282  1  0.83604334  0.34974859  0.00480911  1
  O2-  O283  1  0.83223685  0.35311807  0.33321847  1
  O2-  O284  1  0.82816030  0.34451683  0.66576343  1
  O2-  O285  1  0.82706643  0.84767243  -0.01060532  1
  O2-  O286  1  0.82642678  0.84643133  0.32904646  1
  O2-  O287  1  0.82719126  0.85031701  0.65760390  1
  O2-  O288  1  -0.00477113  0.18364655  0.16717988  1
  O2-  O289  1  0.00064986  0.18637976  0.49819776  1
  O2-  O290  1  0.00368417  0.18227702  0.84257745  1
  O2-  O291  1  -0.00494125  0.68008516  0.16420785  1
  O2-  O292  1  -0.00076216  0.67728022  0.50649159  1
  O2-  O293  1  -0.00043865  0.68423209  0.83121629  1
  O2-  O294  1  0.33452610  0.18004754  0.16392901  1
  O2-  O295  1  0.33084527  0.17273798  0.49058710  1
  O2-  O296  1  0.34654823  0.15943678  0.83192565  1
  O2-  O297  1  0.33685474  0.68762436  0.16692610  1
  O2-  O298  1  0.34006577  0.68496530  0.49758547  1
  O2-  O299  1  0.34498985  0.68217405  0.83745928  1
  O2-  O300  1  0.67402739  0.18859453  0.16984625  1
  O2-  O301  1  0.66646776  0.19722545  0.50262084  1
  O2-  O302  1  0.67215911  0.18670102  0.82940883  1
  O2-  O303  1  0.67067451  0.68248209  0.17155033  1
  O2-  O304  1  0.67266245  0.67988188  0.50633239  1
  O2-  O305  1  0.67298875  0.68418727  0.84215098  1
  O2-  O306  1  0.16080099  0.19127392  0.17721521  1
  O2-  O307  1  0.16762623  0.17985504  0.48668796  1
  O2-  O308  1  0.15508944  0.18293198  0.83797765  1
  O2-  O309  1  0.16888935  0.69180486  0.16658732  1
  O2-  O310  1  0.17763208  0.68771340  0.51500154  1
  O2-  O311  1  0.15834066  0.68650517  0.82876954  1
  O2-  O312  1  0.50912574  0.18667144  0.17088653  1
  O2-  O313  1  0.50009836  0.19620924  0.50349419  1
  O2-  O314  1  0.50186925  0.16273512  0.83677421  1
  O2-  O315  1  0.50179559  0.68315627  0.16333469  1
  O2-  O316  1  0.49481995  0.67623464  0.50397548  1
  O2-  O317  1  0.51228105  0.67546260  0.82253522  1
  O2-  O318  1  0.83979268  0.17827016  0.15875405  1
  O2-  O319  1  0.83590359  0.18173997  0.49508700  1
  O2-  O320  1  0.83338329  0.18757984  0.82774840  1
  O2-  O321  1  0.83447126  0.68435035  0.16322384  1
  O2-  O322  1  0.83791797  0.68303641  0.49877212  1
  O2-  O323  1  0.83884742  0.69156467  0.83557724  1
  O2-  O324  1  -0.00304101  0.31871827  0.16247809  1
  O2-  O325  1  0.00272934  0.31061110  0.50012391  1
  O2-  O326  1  -0.00374135  0.31823468  0.82981732  1
  O2-  O327  1  0.00059629  0.82459274  0.17162346  1
  O2-  O328  1  0.00518284  0.81632136  0.50803102  1
  O2-  O329  1  0.00468327  0.80842645  0.84006058  1
  O2-  O330  1  0.33548836  0.31246584  0.16227026  1
  O2-  O331  1  0.32668052  0.33623175  0.49450395  1
  O2-  O332  1  0.34539823  0.33632338  0.84813875  1
  O2-  O333  1  0.32347799  0.81338201  0.15660361  1
  O2-  O334  1  0.33053026  0.81092482  0.49366781  1
  O2-  O335  1  0.32785151  0.81915506  0.82393754  1
  O2-  O336  1  0.66741111  0.31505897  0.16714940  1
  O2-  O337  1  0.67009925  0.31243608  0.50205864  1
  O2-  O338  1  0.66289561  0.30905421  0.83140404  1
  O2-  O339  1  0.66591216  0.82107251  0.16967790  1
  O2-  O340  1  0.66831089  0.82635135  0.50374649  1
  O2-  O341  1  0.67044312  0.83122383  0.84135087  1
  O2-  O342  1  0.16477051  0.31361249  0.16835321  1
  O2-  O343  1  0.16610815  0.32302886  0.49804484  1
  O2-  O344  1  0.17060434  0.31373337  0.82638291  1
  O2-  O345  1  0.15692528  0.82284455  0.17794863  1
  O2-  O346  1  0.16960078  0.81581676  0.49915920  1
  O2-  O347  1  0.16454341  0.82250755  0.83710910  1
  O2-  O348  1  0.50329765  0.31319692  0.16304559  1
  O2-  O349  1  0.49720410  0.31234896  0.50122295  1
  O2-  O350  1  0.50374231  0.31930312  0.83547821  1
  O2-  O351  1  0.49298338  0.82231925  0.17533562  1
  O2-  O352  1  0.49690205  0.82314658  0.50320729  1
  O2-  O353  1  0.49478841  0.81673201  0.83967459  1
  O2-  O354  1  0.83206238  0.32882730  0.16808077  1
  O2-  O355  1  0.83435456  0.32207699  0.49886899  1
  O2-  O356  1  0.82970550  0.32100740  0.83320922  1
  O2-  O357  1  0.83898163  0.82063052  0.15793556  1
  O2-  O358  1  0.83647116  0.81698604  0.49524757  1
  O2-  O359  1  0.83882212  0.81685733  0.82821887  1
  O2-  O360  1  0.08656784  0.07798839  0.09136910  1
  O2-  O361  1  0.09654956  0.07903183  0.45485321  1
  O2-  O362  1  0.08641306  0.08395509  0.79145708  1
  O2-  O363  1  0.08841247  0.58363943  0.12380856  1
  O2-  O364  1  0.07328584  0.56822090  0.43955676  1
  O2-  O365  1  0.08461145  0.58206555  0.77805459  1
  O2-  O366  1  0.42295467  0.07557781  0.08083005  1
  O2-  O367  1  0.41975976  0.07970889  0.46448292  1
  O2-  O368  1  0.43720326  0.04689055  0.80730658  1
  O2-  O369  1  0.40371821  0.58328967  0.11660259  1
  O2-  O370  1  0.41159907  0.58375680  0.44436893  1
  O2-  O371  1  0.41759716  0.58357756  0.77283889  1
  O2-  O372  1  0.74902005  0.08275494  0.09861620  1
  O2-  O373  1  0.74594422  0.08271419  0.45908754  1
  O2-  O374  1  0.71738412  0.08655743  0.76688288  1
  O2-  O375  1  0.76029438  0.57928848  0.12136615  1
  O2-  O376  1  0.75294845  0.58142897  0.44603943  1
  O2-  O377  1  0.77436681  0.58232669  0.79173313  1
  O2-  O378  1  0.24553141  0.08134641  0.19691394  1
  O2-  O379  1  0.25268518  0.07174780  0.56061297  1
  O2-  O380  1  0.23839741  0.07867901  0.91354719  1
  O2-  O381  1  0.25008779  0.58361707  0.21911303  1
  O2-  O382  1  0.25057299  0.57342889  0.56019030  1
  O2-  O383  1  0.23562126  0.57879526  0.89093531  1
  O2-  O384  1  0.57532742  0.07571778  0.19829370  1
  O2-  O385  1  0.60500010  0.08638393  0.54268433  1
  O2-  O386  1  0.59375308  0.07043264  0.90611969  1
  O2-  O387  1  0.57921472  0.57927908  0.21593220  1
  O2-  O388  1  0.58823766  0.58144468  0.55213545  1
  O2-  O389  1  0.58493374  0.57968738  0.87397602  1
  O2-  O390  1  0.93039886  0.08269979  0.22107785  1
  O2-  O391  1  0.92056718  0.08062437  0.53746221  1
  O2-  O392  1  0.90826640  0.08433585  0.87780068  1
  O2-  O393  1  0.91558932  0.57797069  0.21658000  1
  O2-  O394  1  0.91175552  0.58325803  0.55442742  1
  O2-  O395  1  0.93611581  0.57683057  0.88758103  1
  O2-  O396  1  0.08848762  0.42263858  0.11844240  1
  O2-  O397  1  0.08828418  0.41783948  0.44697191  1
  O2-  O398  1  0.07589623  0.41696424  0.78005943  1
  O2-  O399  1  0.08384840  0.91978403  0.11643585  1
  O2-  O400  1  0.09011425  0.91361559  0.44778983  1
  O2-  O401  1  0.07952569  0.91885566  0.77520825  1
  O2-  O402  1  0.42414571  0.41656076  0.10777074  1
  O2-  O403  1  0.43621953  0.42042340  0.44880321  1
  O2-  O404  1  0.43657528  0.41895195  0.78946801  1
  O2-  O405  1  0.40182833  0.91406444  0.11678099  1
  O2-  O406  1  0.39337950  0.91264040  0.42370958  1
  O2-  O407  1  0.40382248  0.91643822  0.77047949  1
  O2-  O408  1  0.73924195  0.41858420  0.11437677  1
  O2-  O409  1  0.73603670  0.41437129  0.44243326  1
  O2-  O410  1  0.72312927  0.41769156  0.77756253  1
  O2-  O411  1  0.76564966  0.92704564  0.13163563  1
  O2-  O412  1  0.75362138  0.92146208  0.44479063  1
  O2-  O413  1  0.77253501  0.92301161  0.78688578  1
  O2-  O414  1  0.24680106  0.41651024  0.20304192  1
  O2-  O415  1  0.24177176  0.42296437  0.55633560  1
  O2-  O416  1  0.24271677  0.41400738  0.90811341  1
  O2-  O417  1  0.25356911  0.92244601  0.21487359  1
  O2-  O418  1  0.23476083  0.91486989  0.56012496  1
  O2-  O419  1  0.24477769  0.91945239  0.88160795  1
  O2-  O420  1  0.58088746  0.41775916  0.22790431  1
  O2-  O421  1  0.59259395  0.41833118  0.54320057  1
  O2-  O422  1  0.59032532  0.41802372  0.88613150  1
  O2-  O423  1  0.57362980  0.92951975  0.20831574  1
  O2-  O424  1  0.58281352  0.92372275  0.55462921  1
  O2-  O425  1  0.57898631  0.91972110  0.90235269  1
  O2-  O426  1  0.93075434  0.42180934  0.21929145  1
  O2-  O427  1  0.92603412  0.41915386  0.54456970  1
  O2-  O428  1  0.90489901  0.41922873  0.88636966  1
  O2-  O429  1  0.93081541  0.92274037  0.22084379  1
  O2-  O430  1  0.94304022  0.91331613  0.56525859  1
  O2-  O431  1  0.93583577  0.92186462  0.87569096  1
  O2-  O432  1  -0.01585546  -0.00003015  0.01306726  1
  O2-  O433  1  0.01186384  -0.00173877  0.31901450  1
  O2-  O434  1  -0.01718156  0.00047120  0.68090270  1
  O2-  O435  1  -0.01119069  0.50258725  0.02617602  1
  O2-  O436  1  -0.00359304  0.49763818  0.32863336  1
  O2-  O437  1  -0.02031540  0.50418614  0.69363413  1
  O2-  O438  1  0.31572102  -0.00248998  0.00850749  1
  O2-  O439  1  0.32159109  0.01492728  0.35752370  1
  O2-  O440  1  0.33332783  0.00382147  0.67854720  1
  O2-  O441  1  0.34430227  0.50014853  -0.04332881  1
  O2-  O442  1  0.34595274  0.49822804  0.31406794  1
  O2-  O443  1  0.37467114  0.50412429  0.60083176  1
  O2-  O444  1  0.66531102  -0.01141923  0.01095855  1
  O2-  O445  1  0.66590439  0.00402599  0.31776852  1
  O2-  O446  1  0.65366065  0.01285732  0.67369758  1
  O2-  O447  1  0.64029288  0.49880458  0.03878347  1
  O2-  O448  1  0.66254538  0.49847301  0.34402640  1
  O2-  O449  1  0.67450806  0.51306758  0.66687668  1
  O2-  O450  1  0.15712505  -0.01910936  -0.00985798  1
  O2-  O451  1  0.16780740  0.01317323  0.33396150  1
  O2-  O452  1  0.15295601  0.00228606  0.65281871  1
  O2-  O453  1  0.18478114  0.50303009  0.01786431  1
  O2-  O454  1  0.17130435  0.47916698  0.32793115  1
  O2-  O455  1  0.14156845  0.49972387  0.63867670  1
  O2-  O456  1  0.48791406  0.01828673  0.01484937  1
  O2-  O457  1  0.49662113  0.01084140  0.32375966  1
  O2-  O458  1  0.49644563  0.02488131  0.66919368  1
  O2-  O459  1  0.49302763  0.48993410  -0.01976225  1
  O2-  O460  1  0.50517396  0.49869255  0.35541260  1
  O2-  O461  1  0.52781904  0.48651415  0.69840369  1
  O2-  O462  1  0.82363539  -0.01725241  -0.01434819  1
  O2-  O463  1  0.84105059  0.00918962  0.33309594  1
  O2-  O464  1  0.81565266  -0.00322433  0.62962649  1
  O2-  O465  1  0.82856870  0.48859980  -0.00098624  1
  O2-  O466  1  0.83101527  0.48756339  0.31535601  1
  O2-  O467  1  0.82629911  0.49059022  0.65581190  1
  O2-  O468  1  0.07040967  0.25133854  0.72432179  1
  O2-  O469  1  0.90617638  0.24924924  0.94143107  1
  O2-  O470  1  0.75786402  0.24808708  0.38343714  1
  O2-  O471  1  0.90269065  0.74932382  0.60939674  1
  O2-  O472  1  0.40449694  0.25013006  0.38537391  1
  O2-  O473  1  0.43422119  0.75080673  0.72882378  1
  O2-  O474  1  0.58495550  0.74719631  0.60583085  1
  O2-  O475  1  0.44192907  0.74907439  0.39153926  1
  O2-  O476  1  0.42990746  0.74889873  0.05414285  1
  O2-  O477  1  0.90632714  0.25076922  0.27478964  1
  O2-  O478  1  0.25349550  0.25686026  0.59809428  1
  O2-  O479  1  0.26208565  0.24963798  0.29572773  1
  O2-  O480  1  0.07838782  0.75132025  0.05876352  1
  O2-  O481  1  0.25046973  0.75619123  0.93554769  1
  O2-  O482  1  0.76720879  0.25182532  0.06281316  1
  O2-  O483  1  0.59092170  0.74918095  0.94618185  1
  O2-  O484  1  0.07949491  0.75146909  0.39813725  1
  O2-  O485  1  0.73704461  0.74822459  0.05702024  1
  O2-  O486  1  0.74077475  0.75248273  0.72242463  1
  O2-  O487  1  0.58640073  0.74347825  0.27979045  1
  O2-  O488  1  0.74535459  0.74687149  0.38924603  1
  O2-  O489  1  0.26655820  0.25045227  0.91632930  1
  O2-  O490  1  0.90815261  0.24736640  0.61478904  1
  O2-  O491  1  0.90944548  0.74793458  0.27500072  1
  O2-  O492  1  0.40667838  0.25494590  0.74285848  1
