# generated using pymatgen
data_Ca108Mn108O277
_symmetry_space_group_name_H-M   'P 1'
_cell_length_a   16.03133017
_cell_length_b   22.31228405
_cell_length_c   16.39175434
_cell_angle_alpha   90.00173015
_cell_angle_beta   90.00205794
_cell_angle_gamma   89.99107986
_symmetry_Int_Tables_number   1
_chemical_formula_structural   Ca108Mn108O277
_chemical_formula_sum   'Ca108 Mn108 O277'
_cell_volume   5863.25820123
_cell_formula_units_Z   1
loop_
 _symmetry_equiv_pos_site_id
 _symmetry_equiv_pos_as_xyz
  1  'x, y, z'
loop_
 _atom_type_symbol
 _atom_type_oxidation_number
  Ca2+  2.0
  Mn3.34+  3.34
  O2-  -2.0
loop_
 _atom_site_type_symbol
 _atom_site_label
 _atom_site_symmetry_multiplicity
 _atom_site_fract_x
 _atom_site_fract_y
 _atom_site_fract_z
 _atom_site_occupancy
  Ca2+  Ca0  1  0.07223954  0.26277174  0.25575456  1
  Ca2+  Ca1  1  0.08071345  0.24356429  0.57804359  1
  Ca2+  Ca2  1  0.08937743  0.25902687  0.91228404  1
  Ca2+  Ca3  1  0.07224400  0.75911870  0.26260442  1
  Ca2+  Ca4  1  0.09065066  0.75644176  0.57540921  1
  Ca2+  Ca5  1  0.09354417  0.74209137  0.90592555  1
  Ca2+  Ca6  1  0.42504374  0.27014566  0.25213689  1
  Ca2+  Ca7  1  0.43353789  0.22966564  0.59567015  1
  Ca2+  Ca8  1  0.42711350  0.24557677  0.90289277  1
  Ca2+  Ca9  1  0.40694521  0.75162977  0.23638261  1
  Ca2+  Ca10  1  0.43235360  0.75532265  0.58481429  1
  Ca2+  Ca11  1  0.41979762  0.73970664  0.91862254  1
  Ca2+  Ca12  1  0.74730660  0.25638323  0.27122350  1
  Ca2+  Ca13  1  0.73521332  0.24425929  0.57609192  1
  Ca2+  Ca14  1  0.74061990  0.25994598  0.90596731  1
  Ca2+  Ca15  1  0.77451059  0.74320982  0.25766474  1
  Ca2+  Ca16  1  0.73213679  0.74905727  0.59192193  1
  Ca2+  Ca17  1  0.73459650  0.74169863  0.90485906  1
  Ca2+  Ca18  1  0.26812406  0.25730665  0.08523985  1
  Ca2+  Ca19  1  0.24476041  0.26164819  0.42464973  1
  Ca2+  Ca20  1  0.28083880  0.23272562  0.73490873  1
  Ca2+  Ca21  1  0.27943173  0.74373051  0.07053314  1
  Ca2+  Ca22  1  0.24281203  0.75547403  0.41880935  1
  Ca2+  Ca23  1  0.26395426  0.76121431  0.74284407  1
  Ca2+  Ca24  1  0.56982328  0.25051009  0.08641759  1
  Ca2+  Ca25  1  0.60436257  0.24664897  0.42755458  1
  Ca2+  Ca26  1  0.57787470  0.23801995  0.73631374  1
  Ca2+  Ca27  1  0.55958378  0.73775627  0.06848976  1
  Ca2+  Ca28  1  0.59009937  0.74358880  0.44880182  1
  Ca2+  Ca29  1  0.58413343  0.75575169  0.74146278  1
  Ca2+  Ca30  1  0.90879470  0.25740605  0.09789692  1
  Ca2+  Ca31  1  0.89837880  0.25346952  0.41909653  1
  Ca2+  Ca32  1  0.90006572  0.24524831  0.72928085  1
  Ca2+  Ca33  1  0.90793038  0.74451024  0.10097526  1
  Ca2+  Ca34  1  0.92113404  0.74534781  0.41389946  1
  Ca2+  Ca35  1  0.90043952  0.75043076  0.74080161  1
  Ca2+  Ca36  1  0.24439740  0.58418458  0.41809316  1
  Ca2+  Ca37  1  0.27433008  0.59451742  0.04897440  1
  Ca2+  Ca38  1  0.07986667  0.57451963  0.26853135  1
  Ca2+  Ca39  1  0.08295808  0.60248859  0.58130340  1
  Ca2+  Ca40  1  0.57451593  0.08725631  0.70644039  1
  Ca2+  Ca41  1  0.74046630  0.08683189  0.89467730  1
  Ca2+  Ca42  1  0.43111877  0.08441648  0.24949097  1
  Ca2+  Ca43  1  0.92536559  0.57941433  0.40542558  1
  Ca2+  Ca44  1  0.26410544  0.08315735  0.08183892  1
  Ca2+  Ca45  1  0.56919002  0.58593998  0.43227971  1
  Ca2+  Ca46  1  0.10015401  0.08761473  0.91053948  1
  Ca2+  Ca47  1  0.74415924  0.10431084  0.58380488  1
  Ca2+  Ca48  1  0.90018931  0.11790891  0.43642629  1
  Ca2+  Ca49  1  0.73990167  0.58045619  0.59964461  1
  Ca2+  Ca50  1  0.43069365  0.59897194  0.58389933  1
  Ca2+  Ca51  1  0.24004195  0.61479549  0.78276620  1
  Ca2+  Ca52  1  0.06279774  0.10109909  0.58060227  1
  Ca2+  Ca53  1  0.24945026  0.61757934  0.78546141  1
  Ca2+  Ca54  1  0.72932587  0.58092387  0.60035992  1
  Ca2+  Ca55  1  0.90982514  0.60728669  0.08699427  1
  Ca2+  Ca56  1  0.79779365  0.59596838  0.24660912  1
  Ca2+  Ca57  1  0.07160064  0.09180122  0.25886018  1
  Ca2+  Ca58  1  0.92356114  0.09509782  0.08633108  1
  Ca2+  Ca59  1  0.57918821  0.58560292  0.43549961  1
  Ca2+  Ca60  1  0.93452957  0.58292415  0.40728162  1
  Ca2+  Ca61  1  0.59313065  0.59522675  0.74223521  1
  Ca2+  Ca62  1  0.56541319  0.09116547  0.08681021  1
  Ca2+  Ca63  1  0.59478437  0.10396587  0.44514286  1
  Ca2+  Ca64  1  0.07091038  0.57695121  0.26431461  1
  Ca2+  Ca65  1  0.73694494  0.09608851  0.28018327  1
  Ca2+  Ca66  1  0.08814908  0.08562053  0.91359067  1
  Ca2+  Ca67  1  0.40972774  0.60237659  0.92809235  1
  Ca2+  Ca68  1  0.60230544  0.59306117  0.74636695  1
  Ca2+  Ca69  1  0.90286517  0.09274448  0.71429265  1
  Ca2+  Ca70  1  0.73251427  0.09212707  0.89862008  1
  Ca2+  Ca71  1  0.08390667  0.09214664  0.26156845  1
  Ca2+  Ca72  1  0.09501624  0.89078613  0.91165745  1
  Ca2+  Ca73  1  0.10045221  0.41341451  0.92288013  1
  Ca2+  Ca74  1  0.41231784  0.41254532  0.92961494  1
  Ca2+  Ca75  1  0.57546327  0.90111357  0.42405410  1
  Ca2+  Ca76  1  0.09097962  0.40196493  0.56578160  1
  Ca2+  Ca77  1  0.06730892  0.43036982  0.29219308  1
  Ca2+  Ca78  1  0.25610396  0.40483740  0.75070008  1
  Ca2+  Ca79  1  0.40838167  0.90165661  0.25397766  1
  Ca2+  Ca80  1  0.72266588  0.42062914  0.58539779  1
  Ca2+  Ca81  1  0.57139548  0.40763474  0.09230211  1
  Ca2+  Ca82  1  0.26068255  0.89794343  0.08914587  1
  Ca2+  Ca83  1  0.24370507  0.40412595  0.74877501  1
  Ca2+  Ca84  1  0.58419742  0.40688539  0.09151062  1
  Ca2+  Ca85  1  0.56650240  0.90269802  0.42903082  1
  Ca2+  Ca86  1  0.92598316  0.89690296  0.42449375  1
  Ca2+  Ca87  1  0.24782187  0.42672012  0.38578037  1
  Ca2+  Ca88  1  0.87981934  0.42135808  0.73508405  1
  Ca2+  Ca89  1  0.74032610  0.89687233  0.24511572  1
  Ca2+  Ca90  1  0.90353652  0.88955326  0.07990757  1
  Ca2+  Ca91  1  0.25823613  0.41649029  0.09496340  1
  Ca2+  Ca92  1  0.74140877  0.41191865  0.91171479  1
  Ca2+  Ca93  1  0.58120712  0.41089022  0.41461221  1
  Ca2+  Ca94  1  0.74214942  0.89426516  0.90303490  1
  Ca2+  Ca95  1  0.41615377  0.89346792  0.91136727  1
  Ca2+  Ca96  1  0.72539605  0.93256043  0.63212246  1
  Ca2+  Ca97  1  0.89156761  0.41822882  0.73251009  1
  Ca2+  Ca98  1  0.91721026  0.40523924  0.09348371  1
  Ca2+  Ca99  1  0.08824175  0.41052325  0.92406158  1
  Ca2+  Ca100  1  0.08136999  0.40354476  0.56214714  1
  Ca2+  Ca101  1  0.08209820  0.89062939  0.91133755  1
  Ca2+  Ca102  1  0.42876030  0.41519657  0.57339832  1
  Ca2+  Ca103  1  0.57753310  0.89798756  0.08597601  1
  Ca2+  Ca104  1  0.91644399  0.88935735  0.08018825  1
  Ca2+  Ca105  1  0.60417201  0.42923038  0.73091196  1
  Ca2+  Ca106  1  0.26444308  0.91218964  0.74349508  1
  Ca2+  Ca107  1  0.43888659  0.41234229  0.57125446  1
  Mn3.34+  Mn108  1  0.08490959  0.33416939  0.09175246  1
  Mn3.34+  Mn109  1  0.07993806  0.33135329  0.41181561  1
  Mn3.34+  Mn110  1  0.07788483  0.32591427  0.74956682  1
  Mn3.34+  Mn111  1  0.08778092  0.82138548  0.08659411  1
  Mn3.34+  Mn112  1  0.08862075  0.83879512  0.42154183  1
  Mn3.34+  Mn113  1  0.07866857  0.83501764  0.73917071  1
  Mn3.34+  Mn114  1  0.41409219  0.33664507  0.08723483  1
  Mn3.34+  Mn115  1  0.41410267  0.33977538  0.41104735  1
  Mn3.34+  Mn116  1  0.42276535  0.33441333  0.75121751  1
  Mn3.34+  Mn117  1  0.41936312  0.83130768  0.08346692  1
  Mn3.34+  Mn118  1  0.40785556  0.83142560  0.42091678  1
  Mn3.34+  Mn119  1  0.42237000  0.84101519  0.74658954  1
  Mn3.34+  Mn120  1  0.74932483  0.33487355  0.08593441  1
  Mn3.34+  Mn121  1  0.75098199  0.33774171  0.41905779  1
  Mn3.34+  Mn122  1  0.74246508  0.33378948  0.75043375  1
  Mn3.34+  Mn123  1  0.74122712  0.82312326  0.08429402  1
  Mn3.34+  Mn124  1  0.75259883  0.82716465  0.42292798  1
  Mn3.34+  Mn125  1  0.75244625  0.83609804  0.74904181  1
  Mn3.34+  Mn126  1  0.24684833  0.33910860  0.24942879  1
  Mn3.34+  Mn127  1  0.25388270  0.33360306  0.57659578  1
  Mn3.34+  Mn128  1  0.25488813  0.33366626  0.91611874  1
  Mn3.34+  Mn129  1  0.24352334  0.83407908  0.25376634  1
  Mn3.34+  Mn130  1  0.25423892  0.83496912  0.58025796  1
  Mn3.34+  Mn131  1  0.25507973  0.82739826  0.91175501  1
  Mn3.34+  Mn132  1  0.58671985  0.33603407  0.25560870  1
  Mn3.34+  Mn133  1  0.58376065  0.33378817  0.58242439  1
  Mn3.34+  Mn134  1  0.58037101  0.33691475  0.91282166  1
  Mn3.34+  Mn135  1  0.58236450  0.82867115  0.25084679  1
  Mn3.34+  Mn136  1  0.58461676  0.83830828  0.59074885  1
  Mn3.34+  Mn137  1  0.58054323  0.82942613  0.91007230  1
  Mn3.34+  Mn138  1  0.91103297  0.34386357  0.25569037  1
  Mn3.34+  Mn139  1  0.91223279  0.32928736  0.57700816  1
  Mn3.34+  Mn140  1  0.91375361  0.33897069  0.91744338  1
  Mn3.34+  Mn141  1  0.91840670  0.83011775  0.25655711  1
  Mn3.34+  Mn142  1  0.91828010  0.83759964  0.58506966  1
  Mn3.34+  Mn143  1  0.91517943  0.81420433  0.91156227  1
  Mn3.34+  Mn144  1  0.26015021  0.65359213  0.24707577  1
  Mn3.34+  Mn145  1  0.24739927  0.66148081  0.24439277  1
  Mn3.34+  Mn146  1  0.58009957  0.16966438  0.25465560  1
  Mn3.34+  Mn147  1  0.25544713  0.16724708  0.91152495  1
  Mn3.34+  Mn148  1  0.75487463  0.66634202  0.75233420  1
  Mn3.34+  Mn149  1  0.26090227  0.16343113  0.25275856  1
  Mn3.34+  Mn150  1  0.08742339  0.17995291  0.08279196  1
  Mn3.34+  Mn151  1  0.26510145  0.16138068  0.91051199  1
  Mn3.34+  Mn152  1  0.24944645  0.16485510  0.58211433  1
  Mn3.34+  Mn153  1  0.58890102  0.65710883  0.24372330  1
  Mn3.34+  Mn154  1  0.91275441  0.17346432  0.91460818  1
  Mn3.34+  Mn155  1  0.08048651  0.68021961  0.07789480  1
  Mn3.34+  Mn156  1  0.91680538  0.17352869  0.25269361  1
  Mn3.34+  Mn157  1  0.25273230  0.66791689  0.58274581  1
  Mn3.34+  Mn158  1  0.08449590  0.66801885  0.42221967  1
  Mn3.34+  Mn159  1  0.75204522  0.16065931  0.08824153  1
  Mn3.34+  Mn160  1  0.91423309  0.66753816  0.58258707  1
  Mn3.34+  Mn161  1  0.74628399  0.67162640  0.08070661  1
  Mn3.34+  Mn162  1  0.91434996  0.66979154  0.90942742  1
  Mn3.34+  Mn163  1  0.42075235  0.67196262  0.74925642  1
  Mn3.34+  Mn164  1  0.07530551  0.67747132  0.74716569  1
  Mn3.34+  Mn165  1  0.75415404  0.66266443  0.42385328  1
  Mn3.34+  Mn166  1  0.42093041  0.16748194  0.08173203  1
  Mn3.34+  Mn167  1  0.09302835  0.67360209  0.07863230  1
  Mn3.34+  Mn168  1  0.74553789  0.16798422  0.74505930  1
  Mn3.34+  Mn169  1  0.92374577  0.16927841  0.91157404  1
  Mn3.34+  Mn170  1  0.08312067  0.16783864  0.42426323  1
  Mn3.34+  Mn171  1  0.58335958  0.66363614  0.91756050  1
  Mn3.34+  Mn172  1  0.40794035  0.16140007  0.42426326  1
  Mn3.34+  Mn173  1  0.08351001  0.16723669  0.74558735  1
  Mn3.34+  Mn174  1  0.57898117  0.66151870  0.24664559  1
  Mn3.34+  Mn175  1  0.41521907  0.66239197  0.42286128  1
  Mn3.34+  Mn176  1  0.41945188  0.16637902  0.41965190  1
  Mn3.34+  Mn177  1  0.74122053  0.16567599  0.08563882  1
  Mn3.34+  Mn178  1  0.25082879  0.16904962  0.25432894  1
  Mn3.34+  Mn179  1  0.57626692  0.16913866  0.91197477  1
  Mn3.34+  Mn180  1  0.58355894  0.50028704  0.91934735  1
  Mn3.34+  Mn181  1  0.91018672  -0.00020331  0.25454475  1
  Mn3.34+  Mn182  1  0.76133009  0.49431182  0.39892776  1
  Mn3.34+  Mn183  1  0.41164284  -0.00067952  0.40959602  1
  Mn3.34+  Mn184  1  0.91728472  0.49780102  0.57323792  1
  Mn3.34+  Mn185  1  0.26114755  0.00345920  0.58949701  1
  Mn3.34+  Mn186  1  0.75689228  -0.00602259  0.43245080  1
  Mn3.34+  Mn187  1  0.09217695  -0.00082482  0.41640885  1
  Mn3.34+  Mn188  1  0.27436360  0.00533804  0.59193563  1
  Mn3.34+  Mn189  1  0.91931025  -0.00697242  0.90206664  1
  Mn3.34+  Mn190  1  0.90731043  -0.00296873  0.90048139  1
  Mn3.34+  Mn191  1  0.57087370  -0.00481110  0.89762897  1
  Mn3.34+  Mn192  1  0.07232944  0.49879614  0.08878514  1
  Mn3.34+  Mn193  1  0.74488321  -0.00020901  0.43195143  1
  Mn3.34+  Mn194  1  0.91103627  -0.00354025  0.59489078  1
  Mn3.34+  Mn195  1  0.25164454  -0.00307221  0.26975663  1
  Mn3.34+  Mn196  1  0.40458027  0.50263869  0.76334831  1
  Mn3.34+  Mn197  1  0.57191000  0.49971868  0.26905487  1
  Mn3.34+  Mn198  1  0.06951974  0.51070478  0.75736579  1
  Mn3.34+  Mn199  1  0.58510411  -0.00014164  0.25798864  1
  Mn3.34+  Mn200  1  0.25034327  0.50148456  0.58111633  1
  Mn3.34+  Mn201  1  0.08669179  0.50448192  0.08701520  1
  Mn3.34+  Mn202  1  0.41667597  -0.00299315  0.07809510  1
  Mn3.34+  Mn203  1  0.08220674  -0.00155905  0.73667933  1
  Mn3.34+  Mn204  1  0.41721805  0.50072226  0.07658498  1
  Mn3.34+  Mn205  1  0.27677976  -0.00129853  0.91255239  1
  Mn3.34+  Mn206  1  0.41576073  0.50603095  0.76043742  1
  Mn3.34+  Mn207  1  0.74325663  0.50511356  0.08708105  1
  Mn3.34+  Mn208  1  0.75504310  0.49797457  0.08980079  1
  Mn3.34+  Mn209  1  0.08148546  0.50591930  0.75602512  1
  Mn3.34+  Mn210  1  0.91438966  0.50610200  0.91799532  1
  Mn3.34+  Mn211  1  0.56094911  0.00275182  0.90089820  1
  Mn3.34+  Mn212  1  0.92340513  -0.00720908  0.25675242  1
  Mn3.34+  Mn213  1  0.73973251  -0.00007985  0.07542939  1
  Mn3.34+  Mn214  1  0.08719812  -0.00666581  0.09497532  1
  Mn3.34+  Mn215  1  0.09249385  -0.00195045  0.08601192  1
  O2-  O216  1  0.00641999  0.14755722  -0.00495785  1
  O2-  O217  1  0.00020480  0.15361682  0.33364992  1
  O2-  O218  1  -0.00120044  0.17433155  0.67088065  1
  O2-  O219  1  0.00085853  0.68272964  -0.00422507  1
  O2-  O220  1  0.00885352  0.65150375  0.33655831  1
  O2-  O221  1  0.00297723  0.67524275  0.65784963  1
  O2-  O222  1  0.33164118  0.14990615  0.00581704  1
  O2-  O223  1  0.33574667  0.13839303  0.33694904  1
  O2-  O224  1  0.33175340  0.15907309  0.65252368  1
  O2-  O225  1  0.32932619  0.67140559  -0.01409078  1
  O2-  O226  1  0.33382149  0.65987408  0.33880928  1
  O2-  O227  1  0.33118652  0.64814866  0.67108695  1
  O2-  O228  1  0.66399702  0.13767479  0.00061854  1
  O2-  O229  1  0.65427587  0.16094628  0.33595831  1
  O2-  O230  1  0.66371491  0.16248925  0.67396243  1
  O2-  O231  1  0.66781709  0.67525200  -0.00121102  1
  O2-  O232  1  0.66937386  0.64429789  0.32698001  1
  O2-  O233  1  0.67235021  0.65892907  0.66658222  1
  O2-  O234  1  0.17097832  0.15127840  -0.00825896  1
  O2-  O235  1  0.16675724  0.14900493  0.33229555  1
  O2-  O236  1  0.16150484  0.16570582  0.66171648  1
  O2-  O237  1  0.17171794  0.68563829  0.00009106  1
  O2-  O238  1  0.16822949  0.64662285  0.33112167  1
  O2-  O239  1  0.16614162  0.65495727  0.66761217  1
  O2-  O240  1  0.50336634  0.15587406  0.00078957  1
  O2-  O241  1  0.49316305  0.14978589  0.33462924  1
  O2-  O242  1  0.49486898  0.16255528  0.67439789  1
  O2-  O243  1  0.50343157  0.65916210  -0.00887106  1
  O2-  O244  1  0.50867513  0.67400384  0.33993658  1
  O2-  O245  1  0.50372740  0.64705856  0.67602323  1
  O2-  O246  1  0.82995565  0.13294665  -0.00645217  1
  O2-  O247  1  0.83400708  0.15830913  0.32271557  1
  O2-  O248  1  0.82733323  0.16833130  0.66761441  1
  O2-  O249  1  0.83738477  0.68828335  0.00209321  1
  O2-  O250  1  0.84184910  0.65233430  0.34962773  1
  O2-  O251  1  0.83141269  0.66119554  0.66264397  1
  O2-  O252  1  0.00399424  0.35139203  0.00091208  1
  O2-  O253  1  0.00337254  0.34172383  0.32899030  1
  O2-  O254  1  -0.00408315  0.31831258  0.66599523  1
  O2-  O255  1  0.00097000  0.81611170  -0.00079815  1
  O2-  O256  1  0.00065040  0.84379234  0.33300099  1
  O2-  O257  1  -0.00154736  0.80563932  0.66423575  1
  O2-  O258  1  0.33040025  0.35395551  0.00733871  1
  O2-  O259  1  0.32596675  0.34683208  0.33713848  1
  O2-  O260  1  0.33784243  0.35878376  0.66126841  1
  O2-  O261  1  0.33185759  0.84153912  -0.00005055  1
  O2-  O262  1  0.33698529  0.82936671  0.32953199  1
  O2-  O263  1  0.33160877  0.84174859  0.67104213  1
  O2-  O264  1  0.66331060  0.35404851  -0.00041221  1
  O2-  O265  1  0.66635932  0.34516951  0.33684443  1
  O2-  O266  1  0.66629479  0.35003811  0.66599499  1
  O2-  O267  1  0.66488518  0.84045380  -0.00086484  1
  O2-  O268  1  0.65877090  0.84806380  0.34037840  1
  O2-  O269  1  0.67086204  0.84223494  0.66631825  1
  O2-  O270  1  0.16026476  0.33978166  -0.00264923  1
  O2-  O271  1  0.16335527  0.34439319  0.33309985  1
  O2-  O272  1  0.16029719  0.35295247  0.66516246  1
  O2-  O273  1  0.16697745  0.82561895  -0.00524113  1
  O2-  O274  1  0.16454865  0.83692342  0.33358791  1
  O2-  O275  1  0.16940073  0.83685153  0.67002584  1
  O2-  O276  1  0.50052469  0.35220670  0.00235233  1
  O2-  O277  1  0.49992684  0.34581856  0.33405964  1
  O2-  O278  1  0.50298650  0.35893189  0.67129930  1
  O2-  O279  1  0.50060041  0.84494051  -0.00005985  1
  O2-  O280  1  0.49839203  0.82816580  0.33383843  1
  O2-  O281  1  0.50214977  0.84286208  0.66806816  1
  O2-  O282  1  0.83016561  0.35848366  -0.00072931  1
  O2-  O283  1  0.83387218  0.34090021  0.33776943  1
  O2-  O284  1  0.83404839  0.34055662  0.66763773  1
  O2-  O285  1  0.83468922  0.82361579  0.00403468  1
  O2-  O286  1  0.83031099  0.84802523  0.33185587  1
  O2-  O287  1  0.83407536  0.82886970  0.66287207  1
  O2-  O288  1  0.00568563  0.18111792  0.17198736  1
  O2-  O289  1  -0.00039519  0.18252934  0.49509671  1
  O2-  O290  1  0.00629990  0.19433828  0.83137958  1
  O2-  O291  1  0.00527735  0.68631194  0.16005454  1
  O2-  O292  1  -0.00223336  0.68373562  0.49974522  1
  O2-  O293  1  -0.00616155  0.69853330  0.82802065  1
  O2-  O294  1  0.33616229  0.17881965  0.16710630  1
  O2-  O295  1  0.32664452  0.18550255  0.49457401  1
  O2-  O296  1  0.34223884  0.17732581  0.83363561  1
  O2-  O297  1  0.32945089  0.67375704  0.16275279  1
  O2-  O298  1  0.33748090  0.68173663  0.50407203  1
  O2-  O299  1  0.33440138  0.68504957  0.82515056  1
  O2-  O300  1  0.66473787  0.18314349  0.17212984  1
  O2-  O301  1  0.67049495  0.17393678  0.50553833  1
  O2-  O302  1  0.67566607  0.17639441  0.84692342  1
  O2-  O303  1  0.66475418  0.69262044  0.17092663  1
  O2-  O304  1  0.66557223  0.66420058  0.49333698  1
  O2-  O305  1  0.66236535  0.67171215  0.82425323  1
  O2-  O306  1  0.17551359  0.18286992  0.16561150  1
  O2-  O307  1  0.16271937  0.18399959  0.50135815  1
  O2-  O308  1  0.16349433  0.18305949  0.83600212  1
  O2-  O309  1  0.16360888  0.69076765  0.16659408  1
  O2-  O310  1  0.16849786  0.68025125  0.50079883  1
  O2-  O311  1  0.16742246  0.69616468  0.81463454  1
  O2-  O312  1  0.49967733  0.17835973  0.16639501  1
  O2-  O313  1  0.50427928  0.17936595  0.49280528  1
  O2-  O314  1  0.50828599  0.18294321  0.83176582  1
  O2-  O315  1  0.50101943  0.68894250  0.17652179  1
  O2-  O316  1  0.49658852  0.67601056  0.49642412  1
  O2-  O317  1  0.50396859  0.67834402  0.82815786  1
  O2-  O318  1  0.84528824  0.17695046  0.15792162  1
  O2-  O319  1  0.83520438  0.18766228  0.51124028  1
  O2-  O320  1  0.82817337  0.17974619  0.83380636  1
  O2-  O321  1  0.82693615  0.67893378  0.16307912  1
  O2-  O322  1  0.82930499  0.68573538  0.50696768  1
  O2-  O323  1  0.83187286  0.68523595  0.83505364  1
  O2-  O324  1  -0.00258766  0.31614955  0.16085557  1
  O2-  O325  1  0.00335860  0.31787671  0.50296466  1
  O2-  O326  1  0.00556002  0.32169562  0.84158618  1
  O2-  O327  1  -0.00623370  0.82091096  0.16006003  1
  O2-  O328  1  -0.00243600  0.81935585  0.49846717  1
  O2-  O329  1  0.00710879  0.82103910  0.83723539  1
  O2-  O330  1  0.33157811  0.32502164  0.16744366  1
  O2-  O331  1  0.33832435  0.32771375  0.50255207  1
  O2-  O332  1  0.32683699  0.32219483  0.82114790  1
  O2-  O333  1  0.33456882  0.82415379  0.16423960  1
  O2-  O334  1  0.33570293  0.80850711  0.50107252  1
  O2-  O335  1  0.33754468  0.81560488  0.83721214  1
  O2-  O336  1  0.65693944  0.31927072  0.15727544  1
  O2-  O337  1  0.66430094  0.32652992  0.50171319  1
  O2-  O338  1  0.66574219  0.32637053  0.83495566  1
  O2-  O339  1  0.66978013  0.81501955  0.17538734  1
  O2-  O340  1  0.66516127  0.82096868  0.49802094  1
  O2-  O341  1  0.66693033  0.82102288  0.83478686  1
  O2-  O342  1  0.16896394  0.30728640  0.16309447  1
  O2-  O343  1  0.15791280  0.32149665  0.50607235  1
  O2-  O344  1  0.16645404  0.31781990  0.82396799  1
  O2-  O345  1  0.17153835  0.81666895  0.16208349  1
  O2-  O346  1  0.16980255  0.82113332  0.49972529  1
  O2-  O347  1  0.16554676  0.81703360  0.83522957  1
  O2-  O348  1  0.50466199  0.32542772  0.16073432  1
  O2-  O349  1  0.49437164  0.32800459  0.50565740  1
  O2-  O350  1  0.49195336  0.32313385  0.84148267  1
  O2-  O351  1  0.50248870  0.81921756  0.16640019  1
  O2-  O352  1  0.50410083  0.82397743  0.49396126  1
  O2-  O353  1  0.49420414  0.81927414  0.83734004  1
  O2-  O354  1  0.83284167  0.32383761  0.16659374  1
  O2-  O355  1  0.82770601  0.32107156  0.50527533  1
  O2-  O356  1  0.83503754  0.32731483  0.82904542  1
  O2-  O357  1  0.83222567  0.81783459  0.16518623  1
  O2-  O358  1  0.83894088  0.81240187  0.49448930  1
  O2-  O359  1  0.82790158  0.81614895  0.83851206  1
  O2-  O360  1  0.09102379  0.08055746  0.12328562  1
  O2-  O361  1  0.07846948  0.08276007  0.44475762  1
  O2-  O362  1  0.06970947  0.07928837  0.78271029  1
  O2-  O363  1  0.07695630  0.58759271  0.09155201  1
  O2-  O364  1  0.07227984  0.58619650  0.45004071  1
  O2-  O365  1  0.10312158  0.58945380  0.78738082  1
  O2-  O366  1  0.41551939  0.07772893  0.11306251  1
  O2-  O367  1  0.42410900  0.07947791  0.44911602  1
  O2-  O368  1  0.43768355  0.06951330  0.75264564  1
  O2-  O369  1  0.40716076  0.57394992  0.09635696  1
  O2-  O370  1  0.42929034  0.58192023  0.44804202  1
  O2-  O371  1  0.41260962  0.58824513  0.78264345  1
  O2-  O372  1  0.75100019  0.07782118  0.13421359  1
  O2-  O373  1  0.75577258  0.08099884  0.44081603  1
  O2-  O374  1  0.75986870  0.08462489  0.76836235  1
  O2-  O375  1  0.76182240  0.58498542  0.10965337  1
  O2-  O376  1  0.75633734  0.57218271  0.45890663  1
  O2-  O377  1  0.74319216  0.58490463  0.75472603  1
  O2-  O378  1  0.24269187  0.07850901  0.21799563  1
  O2-  O379  1  0.23465017  0.08104900  0.55017213  1
  O2-  O380  1  0.23515761  0.07919230  0.87616202  1
  O2-  O381  1  0.22195519  0.58236140  0.19652271  1
  O2-  O382  1  0.24520091  0.58412081  0.55572906  1
  O2-  O383  1  0.28642392  0.55904676  0.88009707  1
  O2-  O384  1  0.57893726  0.08118838  0.22490658  1
  O2-  O385  1  0.61397465  0.05935443  0.56080001  1
  O2-  O386  1  0.58971812  0.08119273  0.87063140  1
  O2-  O387  1  0.58302548  0.57449122  0.21348202  1
  O2-  O388  1  0.59931098  0.56692694  0.55679684  1
  O2-  O389  1  0.57299081  0.57958408  0.88224442  1
  O2-  O390  1  0.93841800  0.07833632  0.21710063  1
  O2-  O391  1  0.91969326  0.06740440  0.54984305  1
  O2-  O392  1  0.91805065  0.07859303  0.86394210  1
  O2-  O393  1  0.95280999  0.56902862  0.19947200  1
  O2-  O394  1  0.91272168  0.57907164  0.54555569  1
  O2-  O395  1  0.92378234  0.58624188  0.91926816  1
  O2-  O396  1  0.08183784  0.42061572  0.12853452  1
  O2-  O397  1  0.08626682  0.41539931  0.43446264  1
  O2-  O398  1  0.08460947  0.42307012  0.78824872  1
  O2-  O399  1  0.06074261  0.91245160  0.06793179  1
  O2-  O400  1  0.06900441  0.91968749  0.44402538  1
  O2-  O401  1  0.08298557  0.92055895  0.78458319  1
  O2-  O402  1  0.43105362  0.42497280  0.12006853  1
  O2-  O403  1  0.41500522  0.42044541  0.44024173  1
  O2-  O404  1  0.39690127  0.42040780  0.79277948  1
  O2-  O405  1  0.42459831  0.91802441  0.11392780  1
  O2-  O406  1  0.42750747  0.91767683  0.43047269  1
  O2-  O407  1  0.40362308  0.91602557  0.78406294  1
  O2-  O408  1  0.73222107  0.42119513  0.12661776  1
  O2-  O409  1  0.73853207  0.42400529  0.45040016  1
  O2-  O410  1  0.75309163  0.41939851  0.77311184  1
  O2-  O411  1  0.76912003  0.91749793  0.10523081  1
  O2-  O412  1  0.74878591  0.91308538  0.44606055  1
  O2-  O413  1  0.75987088  0.91619732  0.77129241  1
  O2-  O414  1  0.23073985  0.41666122  0.22924923  1
  O2-  O415  1  0.23125951  0.41911399  0.54529332  1
  O2-  O416  1  0.23168696  0.41714517  0.88090792  1
  O2-  O417  1  0.25532096  0.91997257  0.22388837  1
  O2-  O418  1  0.26215439  0.92214564  0.56070362  1
  O2-  O419  1  0.23017163  0.91870933  0.88918682  1
  O2-  O420  1  0.58503109  0.42319721  0.22509081  1
  O2-  O421  1  0.57595623  0.42094124  0.55619686  1
  O2-  O422  1  0.58014021  0.42309212  0.87392382  1
  O2-  O423  1  0.59076591  0.92054914  0.22041452  1
  O2-  O424  1  0.60003769  0.91998031  0.55305288  1
  O2-  O425  1  0.57940260  0.91523287  0.89339849  1
  O2-  O426  1  0.93107033  0.41854027  0.22551079  1
  O2-  O427  1  0.94722242  0.41624355  0.58029400  1
  O2-  O428  1  0.92696722  0.43060872  0.86447487  1
  O2-  O429  1  0.90961457  0.91625384  0.21184360  1
  O2-  O430  1  0.89720415  0.92472005  0.55215546  1
  O2-  O431  1  0.93316899  0.91124880  0.93009625  1
  O2-  O432  1  0.00116144  0.02373184  -0.00796179  1
  O2-  O433  1  -0.00737861  0.01186676  0.34446053  1
  O2-  O434  1  -0.00967460  0.01592897  0.66669556  1
  O2-  O435  1  0.00525592  0.48269433  -0.00844673  1
  O2-  O436  1  0.00305218  0.51441366  0.33983924  1
  O2-  O437  1  -0.00470735  0.51002168  0.66726102  1
  O2-  O438  1  0.30880563  -0.00844895  0.03361728  1
  O2-  O439  1  0.36574290  -0.00031576  0.29230810  1
  O2-  O440  1  0.33327897  -0.00467687  0.68467521  1
  O2-  O441  1  0.33082452  0.48768224  0.01832379  1
  O2-  O442  1  0.30456627  0.51240810  0.35082870  1
  O2-  O443  1  0.32704842  0.48445791  0.67411476  1
  O2-  O444  1  0.68035651  0.00649608  -0.03792048  1
  O2-  O445  1  0.68074817  0.00010629  0.32922882  1
  O2-  O446  1  0.66159725  0.01826852  0.65345995  1
  O2-  O447  1  0.66405244  0.48305396  0.00250009  1
  O2-  O448  1  0.66332099  0.51096662  0.34528056  1
  O2-  O449  1  0.65907529  0.51365154  0.67999923  1
  O2-  O450  1  0.15690636  0.01412683  -0.01407350  1
  O2-  O451  1  0.14058754  0.00839783  0.29980883  1
  O2-  O452  1  0.17042850  -0.00143137  0.65991353  1
  O2-  O453  1  0.16629334  0.47853512  0.00881771  1
  O2-  O454  1  0.16411546  0.51405072  0.33246938  1
  O2-  O455  1  0.16458915  0.48513391  0.67383575  1
  O2-  O456  1  0.51666177  0.00071899  0.01353284  1
  O2-  O457  1  0.52211040  -0.00639913  0.35919884  1
  O2-  O458  1  0.50062777  0.00329312  0.67432579  1
  O2-  O459  1  0.49793024  0.48491576  0.00064867  1
  O2-  O460  1  0.51383756  0.50651296  0.36069260  1
  O2-  O461  1  0.48806468  0.49446287  0.66905477  1
  O2-  O462  1  0.83949537  0.00829494  -0.00450773  1
  O2-  O463  1  0.83364120  -0.00053275  0.34075974  1
  O2-  O464  1  0.82295032  0.01204435  0.64852059  1
  O2-  O465  1  0.83790963  0.48971080  0.00593391  1
  O2-  O466  1  0.83799863  0.52481280  0.33318887  1
  O2-  O467  1  0.82361076  0.48504413  0.64355728  1
  O2-  O468  1  0.26188616  0.25019789  0.28299548  1
  O2-  O469  1  0.58124069  0.25568714  0.60142679  1
  O2-  O470  1  0.25863870  0.24964593  0.94459687  1
  O2-  O471  1  0.74363736  0.75012086  0.73303630  1
  O2-  O472  1  0.40814788  0.24832902  0.38935309  1
  O2-  O473  1  0.91528419  0.25290560  0.27386445  1
  O2-  O474  1  0.75493008  0.24663702  0.04791483  1
  O2-  O475  1  0.91844133  0.75242226  0.27442019  1
  O2-  O476  1  0.73983926  0.74603185  0.39203337  1
  O2-  O477  1  0.91137689  0.25297242  0.95872348  1
  O2-  O478  1  0.57626403  0.25229605  0.27566325  1
  O2-  O479  1  0.42330609  0.75017294  0.72078148  1
  O2-  O480  1  0.25219415  0.74319491  0.27153106  1
  O2-  O481  1  0.57857816  0.74934152  0.92980257  1
  O2-  O482  1  0.41501852  0.25296115  0.05582519  1
  O2-  O483  1  0.25071312  0.25394398  0.60399586  1
  O2-  O484  1  0.58337864  0.75588631  0.59837033  1
  O2-  O485  1  0.58813066  0.25135650  0.94470277  1
  O2-  O486  1  0.41860030  0.75417665  0.06215258  1
  O2-  O487  1  0.74539882  0.25269514  0.73622546  1
  O2-  O488  1  0.08745240  0.74981565  0.39702958  1
  O2-  O489  1  0.42219642  0.25796835  0.72619468  1
  O2-  O490  1  0.09338157  0.24855499  0.38963342  1
  O2-  O491  1  0.74785832  0.25682732  0.40573130  1
  O2-  O492  1  0.24788219  0.74876951  0.60729596  1
