# generated using pymatgen
data_Ca108Mn108O277
_symmetry_space_group_name_H-M   'P 1'
_cell_length_a   16.02553750
_cell_length_b   22.30224829
_cell_length_c   16.38746511
_cell_angle_alpha   89.99792239
_cell_angle_beta   89.99959776
_cell_angle_gamma   89.99563938
_symmetry_Int_Tables_number   1
_chemical_formula_structural   Ca108Mn108O277
_chemical_formula_sum   'Ca108 Mn108 O277'
_cell_volume   5856.97040689
_cell_formula_units_Z   1
loop_
 _symmetry_equiv_pos_site_id
 _symmetry_equiv_pos_as_xyz
  1  'x, y, z'
loop_
 _atom_type_symbol
 _atom_type_oxidation_number
  Ca2+  2.0
  Mn3.34+  3.34
  O2-  -2.0
loop_
 _atom_site_type_symbol
 _atom_site_label
 _atom_site_symmetry_multiplicity
 _atom_site_fract_x
 _atom_site_fract_y
 _atom_site_fract_z
 _atom_site_occupancy
  Ca2+  Ca0  1  0.06214036  0.24398961  0.25362837  1
  Ca2+  Ca1  1  0.07512480  0.26042369  0.56299595  1
  Ca2+  Ca2  1  0.07535565  0.25413654  0.93525473  1
  Ca2+  Ca3  1  0.05092587  0.74665658  0.25764753  1
  Ca2+  Ca4  1  0.06736665  0.75379906  0.58078695  1
  Ca2+  Ca5  1  0.09233164  0.73385675  0.92350393  1
  Ca2+  Ca6  1  0.42855290  0.25628760  0.25058560  1
  Ca2+  Ca7  1  0.42220897  0.25756692  0.58309862  1
  Ca2+  Ca8  1  0.41114972  0.25199153  0.91894099  1
  Ca2+  Ca9  1  0.41956611  0.75488402  0.23633421  1
  Ca2+  Ca10  1  0.44575471  0.74959510  0.58465304  1
  Ca2+  Ca11  1  0.41803702  0.74995842  0.92361389  1
  Ca2+  Ca12  1  0.75658225  0.25583744  0.25369440  1
  Ca2+  Ca13  1  0.75247897  0.26621644  0.58356370  1
  Ca2+  Ca14  1  0.75786828  0.25071766  0.91865823  1
  Ca2+  Ca15  1  0.76703717  0.74576966  0.26513992  1
  Ca2+  Ca16  1  0.75178291  0.74291442  0.56984416  1
  Ca2+  Ca17  1  0.74135194  0.75624178  0.92007866  1
  Ca2+  Ca18  1  0.24983668  0.25193177  0.07140763  1
  Ca2+  Ca19  1  0.24736627  0.25481369  0.42627539  1
  Ca2+  Ca20  1  0.26992567  0.25735655  0.75816662  1
  Ca2+  Ca21  1  0.25347746  0.73946287  0.07143133  1
  Ca2+  Ca22  1  0.23569022  0.75299582  0.42013487  1
  Ca2+  Ca23  1  0.23937074  0.74299708  0.75928778  1
  Ca2+  Ca24  1  0.58910581  0.25364917  0.08591725  1
  Ca2+  Ca25  1  0.58904519  0.26741022  0.41529750  1
  Ca2+  Ca26  1  0.59212501  0.26522580  0.74674068  1
  Ca2+  Ca27  1  0.58458254  0.75888534  0.08029221  1
  Ca2+  Ca28  1  0.61413447  0.74143985  0.43386461  1
  Ca2+  Ca29  1  0.59799750  0.73486476  0.73617746  1
  Ca2+  Ca30  1  0.91298353  0.23671704  0.08348811  1
  Ca2+  Ca31  1  0.90487499  0.24858677  0.40653292  1
  Ca2+  Ca32  1  0.89676154  0.26527693  0.75329108  1
  Ca2+  Ca33  1  0.91251151  0.74343118  0.10810176  1
  Ca2+  Ca34  1  0.90093462  0.74183250  0.40844082  1
  Ca2+  Ca35  1  0.90651855  0.73497507  0.74188800  1
  Ca2+  Ca36  1  0.40731731  0.09617860  0.57907990  1
  Ca2+  Ca37  1  0.76343229  0.60785218  0.87521124  1
  Ca2+  Ca38  1  0.43725197  0.09271640  0.93284653  1
  Ca2+  Ca39  1  0.09211456  0.09121337  0.57284433  1
  Ca2+  Ca40  1  0.88706239  0.08015700  0.76749849  1
  Ca2+  Ca41  1  0.05326604  0.60618062  0.24055329  1
  Ca2+  Ca42  1  0.76646110  0.59966742  0.26531998  1
  Ca2+  Ca43  1  0.78735862  0.09892554  0.24517867  1
  Ca2+  Ca44  1  0.06423048  0.59232552  0.58905431  1
  Ca2+  Ca45  1  0.25867218  0.10069595  0.74706551  1
  Ca2+  Ca46  1  0.09635070  0.09889286  0.57760849  1
  Ca2+  Ca47  1  0.05556899  0.09127601  0.95972846  1
  Ca2+  Ca48  1  0.46280416  0.60217148  0.60459561  1
  Ca2+  Ca49  1  0.57960019  0.59502067  0.08120834  1
  Ca2+  Ca50  1  0.24045559  0.09990839  0.42275042  1
  Ca2+  Ca51  1  0.24433136  0.58832013  0.77384835  1
  Ca2+  Ca52  1  0.06389117  0.09449696  0.96426739  1
  Ca2+  Ca53  1  0.75407788  0.06628551  0.60931869  1
  Ca2+  Ca54  1  0.58773478  0.09187555  0.07152172  1
  Ca2+  Ca55  1  0.75543347  0.61065842  0.87017630  1
  Ca2+  Ca56  1  0.24516646  0.10155475  0.74535489  1
  Ca2+  Ca57  1  0.23316350  0.57419544  0.40069990  1
  Ca2+  Ca58  1  0.76214299  0.08465148  0.92557568  1
  Ca2+  Ca59  1  0.89242751  0.59886946  0.41963910  1
  Ca2+  Ca60  1  0.59193871  0.08006603  0.40812294  1
  Ca2+  Ca61  1  0.59202233  0.59619260  0.08269033  1
  Ca2+  Ca62  1  0.74226078  0.59353032  0.60886429  1
  Ca2+  Ca63  1  0.25334015  0.10049266  0.42227677  1
  Ca2+  Ca64  1  0.93908409  0.61265457  0.09039582  1
  Ca2+  Ca65  1  0.92186900  0.09073695  0.37356358  1
  Ca2+  Ca66  1  0.42256770  0.58551474  0.24194943  1
  Ca2+  Ca67  1  0.39627377  0.09838378  0.58053203  1
  Ca2+  Ca68  1  0.22462625  0.58396049  0.05051368  1
  Ca2+  Ca69  1  0.42477046  0.09421503  0.93363184  1
  Ca2+  Ca70  1  0.63218850  0.59817470  0.42360609  1
  Ca2+  Ca71  1  0.61144407  0.08334413  0.75612569  1
  Ca2+  Ca72  1  0.90804662  0.91049869  0.39734671  1
  Ca2+  Ca73  1  0.75035107  0.90807947  0.92076702  1
  Ca2+  Ca74  1  0.40295880  0.41331365  0.24694611  1
  Ca2+  Ca75  1  0.24824835  0.89447205  0.74911931  1
  Ca2+  Ca76  1  0.60456095  0.89984019  0.74716478  1
  Ca2+  Ca77  1  0.24030919  0.41414836  0.74974050  1
  Ca2+  Ca78  1  0.59372133  0.90095407  0.41418359  1
  Ca2+  Ca79  1  0.41548024  0.41206803  0.24668965  1
  Ca2+  Ca80  1  0.07832612  0.40975373  0.58316736  1
  Ca2+  Ca81  1  0.90488551  0.41176676  0.41555947  1
  Ca2+  Ca82  1  0.89406056  0.91017983  0.73560798  1
  Ca2+  Ca83  1  0.74469450  0.41926331  0.59707239  1
  Ca2+  Ca84  1  0.24423892  0.41174843  0.40866887  1
  Ca2+  Ca85  1  0.76020945  0.40734129  0.90842643  1
  Ca2+  Ca86  1  0.89341939  0.41496102  0.41746167  1
  Ca2+  Ca87  1  0.88272813  0.91350120  0.73908894  1
  Ca2+  Ca88  1  0.23951103  0.90311880  0.42514628  1
  Ca2+  Ca89  1  0.91851160  0.41122263  0.07468065  1
  Ca2+  Ca90  1  0.58961434  0.40508855  0.08316350  1
  Ca2+  Ca91  1  0.41122963  0.41404136  0.92259386  1
  Ca2+  Ca92  1  0.08462142  0.41339763  0.92376381  1
  Ca2+  Ca93  1  0.42232203  0.40831997  0.59099883  1
  Ca2+  Ca94  1  0.25214665  0.90439063  0.42413412  1
  Ca2+  Ca95  1  0.25306214  0.41474886  0.74979193  1
  Ca2+  Ca96  1  0.24180888  0.89772087  0.08787466  1
  Ca2+  Ca97  1  0.91149043  0.89901108  0.09895009  1
  Ca2+  Ca98  1  0.09422279  0.41714749  0.25939041  1
  Ca2+  Ca99  1  0.05540610  0.90795623  0.92333830  1
  Ca2+  Ca100  1  0.25454529  0.89876416  0.08812953  1
  Ca2+  Ca101  1  0.42527292  0.89594168  0.58012826  1
  Ca2+  Ca102  1  0.90588948  0.41151865  0.07560266  1
  Ca2+  Ca103  1  0.39859020  0.41361962  0.92254306  1
  Ca2+  Ca104  1  0.24585327  0.41499433  0.07805791  1
  Ca2+  Ca105  1  0.26116249  0.89368575  0.74877471  1
  Ca2+  Ca106  1  0.42906127  0.90233507  0.24945203  1
  Ca2+  Ca107  1  0.06624239  0.90383913  0.92661583  1
  Mn3.34+  Mn108  1  0.08328358  0.33211401  0.09177084  1
  Mn3.34+  Mn109  1  0.08241386  0.33618124  0.41589315  1
  Mn3.34+  Mn110  1  0.08015273  0.33374015  0.75246773  1
  Mn3.34+  Mn111  1  0.07900276  0.82691558  0.09008741  1
  Mn3.34+  Mn112  1  0.07473513  0.83310856  0.41667889  1
  Mn3.34+  Mn113  1  0.07612308  0.82688916  0.74997875  1
  Mn3.34+  Mn114  1  0.41665534  0.33155641  0.08624731  1
  Mn3.34+  Mn115  1  0.41727947  0.33234652  0.42039905  1
  Mn3.34+  Mn116  1  0.42609522  0.33556001  0.75242447  1
  Mn3.34+  Mn117  1  0.42515158  0.83575318  0.08109322  1
  Mn3.34+  Mn118  1  0.42099415  0.83277514  0.41442615  1
  Mn3.34+  Mn119  1  0.42642168  0.82311150  0.75161666  1
  Mn3.34+  Mn120  1  0.75024694  0.33237945  0.08633235  1
  Mn3.34+  Mn121  1  0.74461625  0.33802581  0.41949546  1
  Mn3.34+  Mn122  1  0.74631372  0.34170211  0.75205159  1
  Mn3.34+  Mn123  1  0.74717670  0.82891906  0.08752177  1
  Mn3.34+  Mn124  1  0.75279319  0.83385783  0.41623494  1
  Mn3.34+  Mn125  1  0.74763128  0.82816605  0.75182254  1
  Mn3.34+  Mn126  1  0.24733351  0.33536806  0.24558573  1
  Mn3.34+  Mn127  1  0.24989080  0.33401707  0.58235041  1
  Mn3.34+  Mn128  1  0.24530040  0.33448693  0.91531434  1
  Mn3.34+  Mn129  1  0.24699685  0.82862967  0.25077714  1
  Mn3.34+  Mn130  1  0.24893869  0.82886468  0.58353540  1
  Mn3.34+  Mn131  1  0.25403324  0.82891935  0.91525750  1
  Mn3.34+  Mn132  1  0.58958194  0.34187273  0.25251298  1
  Mn3.34+  Mn133  1  0.58484862  0.34022534  0.58236993  1
  Mn3.34+  Mn134  1  0.58555123  0.33370199  0.91441909  1
  Mn3.34+  Mn135  1  0.59325930  0.83430850  0.24652738  1
  Mn3.34+  Mn136  1  0.59229573  0.83058689  0.58129180  1
  Mn3.34+  Mn137  1  0.58284252  0.83294714  0.91639068  1
  Mn3.34+  Mn138  1  0.91525004  0.33618444  0.24501803  1
  Mn3.34+  Mn139  1  0.91418282  0.33980086  0.58693289  1
  Mn3.34+  Mn140  1  0.91796459  0.33348054  0.91141880  1
  Mn3.34+  Mn141  1  0.91316262  0.83733678  0.25033195  1
  Mn3.34+  Mn142  1  0.91308218  0.83255711  0.57741921  1
  Mn3.34+  Mn143  1  0.91177561  0.82650167  0.91456448  1
  Mn3.34+  Mn144  1  0.25603722  0.65820898  0.58509668  1
  Mn3.34+  Mn145  1  0.41819565  0.66580784  0.76130706  1
  Mn3.34+  Mn146  1  0.91009926  0.66598757  0.58667470  1
  Mn3.34+  Mn147  1  0.41366878  0.16893581  0.08666315  1
  Mn3.34+  Mn148  1  0.90467405  0.15903009  0.58177566  1
  Mn3.34+  Mn149  1  0.07617908  0.66512361  0.42056374  1
  Mn3.34+  Mn150  1  0.07435921  0.18342345  0.75024088  1
  Mn3.34+  Mn151  1  0.24166407  0.65820679  0.24357713  1
  Mn3.34+  Mn152  1  0.25047721  0.66135943  0.91735682  1
  Mn3.34+  Mn153  1  0.58281033  0.67182319  0.90893566  1
  Mn3.34+  Mn154  1  0.75335156  0.66565398  0.08431878  1
  Mn3.34+  Mn155  1  0.07575373  0.66307169  0.75635156  1
  Mn3.34+  Mn156  1  0.57666695  0.15935150  0.24803817  1
  Mn3.34+  Mn157  1  0.25136009  0.66571475  0.24679443  1
  Mn3.34+  Mn158  1  0.24742302  0.16982551  0.91798880  1
  Mn3.34+  Mn159  1  0.41773013  0.66710488  0.07837582  1
  Mn3.34+  Mn160  1  0.75062552  0.16826363  0.75718474  1
  Mn3.34+  Mn161  1  0.92313411  0.66724220  0.91875536  1
  Mn3.34+  Mn162  1  0.74987464  0.16600385  0.41426409  1
  Mn3.34+  Mn163  1  0.91485970  0.16469398  0.58378084  1
  Mn3.34+  Mn164  1  0.24873268  0.17059844  0.23889021  1
  Mn3.34+  Mn165  1  0.58584537  0.66585223  0.24500926  1
  Mn3.34+  Mn166  1  0.07706297  0.17043899  0.41106221  1
  Mn3.34+  Mn167  1  0.42626732  0.66280247  0.41532743  1
  Mn3.34+  Mn168  1  0.24258144  0.66445191  0.58550581  1
  Mn3.34+  Mn169  1  0.08379211  0.18907111  0.74732874  1
  Mn3.34+  Mn170  1  0.58477700  0.16553084  0.58449002  1
  Mn3.34+  Mn171  1  0.58727562  0.16447123  0.24983009  1
  Mn3.34+  Mn172  1  0.23668906  0.17607424  0.23965150  1
  Mn3.34+  Mn173  1  0.75650554  0.16882993  0.08550840  1
  Mn3.34+  Mn174  1  0.59500583  0.16009777  0.58200791  1
  Mn3.34+  Mn175  1  0.42624995  0.17090549  0.75509652  1
  Mn3.34+  Mn176  1  0.91405981  0.17098993  0.91818415  1
  Mn3.34+  Mn177  1  0.41638200  0.16947643  0.41367359  1
  Mn3.34+  Mn178  1  0.41230182  0.66860006  0.41435369  1
  Mn3.34+  Mn179  1  0.59110305  0.17063881  0.91388836  1
  Mn3.34+  Mn180  1  0.59195132  0.49990014  0.90105268  1
  Mn3.34+  Mn181  1  0.07021278  0.00228763  0.75410867  1
  Mn3.34+  Mn182  1  0.91188034  0.49881201  0.26018813  1
  Mn3.34+  Mn183  1  0.26230053  -0.00361277  0.91936303  1
  Mn3.34+  Mn184  1  0.42453620  0.00180097  0.08673427  1
  Mn3.34+  Mn185  1  0.60274675  0.49794516  0.26605888  1
  Mn3.34+  Mn186  1  0.42178448  -0.00300469  0.75618202  1
  Mn3.34+  Mn187  1  0.08259944  0.00619611  0.75550658  1
  Mn3.34+  Mn188  1  0.40847448  0.50359631  0.07430954  1
  Mn3.34+  Mn189  1  0.76254093  0.00111516  0.08430433  1
  Mn3.34+  Mn190  1  0.42073916  -0.00008357  0.41369049  1
  Mn3.34+  Mn191  1  0.91378815  0.50381285  0.60597571  1
  Mn3.34+  Mn192  1  0.75463190  0.00121532  0.40478592  1
  Mn3.34+  Mn193  1  0.59137263  -0.00458087  0.58669101  1
  Mn3.34+  Mn194  1  0.58340283  -0.00548678  0.91760633  1
  Mn3.34+  Mn195  1  0.08326384  0.50049034  0.41275131  1
  Mn3.34+  Mn196  1  0.25098882  0.00687842  0.24548375  1
  Mn3.34+  Mn197  1  0.75197066  -0.00369946  0.08500955  1
  Mn3.34+  Mn198  1  0.57971017  0.50688712  0.90126982  1
  Mn3.34+  Mn199  1  0.25275087  0.49987581  0.59153962  1
  Mn3.34+  Mn200  1  0.42520701  0.50192260  0.74715044  1
  Mn3.34+  Mn201  1  0.07811397  -0.00122177  0.09333694  1
  Mn3.34+  Mn202  1  0.75179306  0.50072176  0.08312825  1
  Mn3.34+  Mn203  1  0.07725979  -0.00331319  0.40281859  1
  Mn3.34+  Mn204  1  0.07353624  0.50154092  0.74851441  1
  Mn3.34+  Mn205  1  0.91616410  -0.00257467  0.57978202  1
  Mn3.34+  Mn206  1  0.24849289  -0.00303092  0.58539368  1
  Mn3.34+  Mn207  1  0.91711510  0.50117266  0.91237321  1
  Mn3.34+  Mn208  1  0.42049285  0.50028445  0.42148228  1
  Mn3.34+  Mn209  1  0.58673168  -0.00168030  0.25217172  1
  Mn3.34+  Mn210  1  0.08315672  0.49903990  0.07750413  1
  Mn3.34+  Mn211  1  0.43436584  0.00037737  0.75545985  1
  Mn3.34+  Mn212  1  0.24725325  0.00159459  0.92038110  1
  Mn3.34+  Mn213  1  0.43215402  0.49553379  0.42055368  1
  Mn3.34+  Mn214  1  0.58403110  0.49705768  0.59581012  1
  Mn3.34+  Mn215  1  0.23755813  0.00117570  0.24686185  1
  O2-  O216  1  -0.00290401  0.17635670  -0.00332646  1
  O2-  O217  1  -0.00783196  0.17590423  0.34001068  1
  O2-  O218  1  0.00196402  0.14597063  0.66695172  1
  O2-  O219  1  -0.01146424  0.69309375  0.00112053  1
  O2-  O220  1  -0.00332633  0.65807128  0.34550132  1
  O2-  O221  1  0.00040144  0.66058966  0.66953003  1
  O2-  O222  1  0.33351634  0.15345513  -0.00384876  1
  O2-  O223  1  0.31996550  0.16481752  0.33086109  1
  O2-  O224  1  0.33827660  0.15482479  0.67131826  1
  O2-  O225  1  0.33136601  0.65889992  0.00523854  1
  O2-  O226  1  0.33209324  0.63875866  0.33601395  1
  O2-  O227  1  0.33178157  0.66599114  0.67192142  1
  O2-  O228  1  0.66918138  0.15719225  -0.00181460  1
  O2-  O229  1  0.66980979  0.14437283  0.32927319  1
  O2-  O230  1  0.67316928  0.14906906  0.66673114  1
  O2-  O231  1  0.66883410  0.64801706  -0.00784387  1
  O2-  O232  1  0.66317451  0.67107403  0.32427260  1
  O2-  O233  1  0.68349786  0.67802904  0.65888452  1
  O2-  O234  1  0.15621626  0.16730224  -0.01646575  1
  O2-  O235  1  0.16606330  0.16083385  0.33046385  1
  O2-  O236  1  0.16409544  0.16014752  0.66270814  1
  O2-  O237  1  0.17191683  0.66843660  -0.00084429  1
  O2-  O238  1  0.16265402  0.64915013  0.33065879  1
  O2-  O239  1  0.16662506  0.64662269  0.67163329  1
  O2-  O240  1  0.50745357  0.16572813  -0.00456061  1
  O2-  O241  1  0.50225663  0.14800686  0.33870752  1
  O2-  O242  1  0.50560365  0.14050779  0.66874153  1
  O2-  O243  1  0.50729489  0.65752640  0.00243929  1
  O2-  O244  1  0.49370022  0.66179381  0.32093672  1
  O2-  O245  1  0.49124714  0.68171206  0.67719543  1
  O2-  O246  1  0.83107666  0.15603787  -0.00469658  1
  O2-  O247  1  0.82985584  0.16840469  0.33676923  1
  O2-  O248  1  0.83217682  0.14424538  0.67259292  1
  O2-  O249  1  0.83454415  0.65002660  0.00178750  1
  O2-  O250  1  0.83366111  0.66585861  0.33538493  1
  O2-  O251  1  0.82970315  0.66927234  0.66333428  1
  O2-  O252  1  0.00029319  0.34053333  0.00547674  1
  O2-  O253  1  -0.00220370  0.34682048  0.33046555  1
  O2-  O254  1  0.00852275  0.33277016  0.66198928  1
  O2-  O255  1  -0.00495803  0.83834102  0.00365247  1
  O2-  O256  1  -0.00339274  0.83977301  0.33605788  1
  O2-  O257  1  -0.01096615  0.84705754  0.67955797  1
  O2-  O258  1  0.33127960  0.34751213  0.00386682  1
  O2-  O259  1  0.32971440  0.33951966  0.33441065  1
  O2-  O260  1  0.32823169  0.34677122  0.67008755  1
  O2-  O261  1  0.32562533  0.84279518  0.00652271  1
  O2-  O262  1  0.33253868  0.85465981  0.33444095  1
  O2-  O263  1  0.33824313  0.82941064  0.66646046  1
  O2-  O264  1  0.66668328  0.34196536  -0.00045812  1
  O2-  O265  1  0.66781449  0.33609134  0.33424864  1
  O2-  O266  1  0.66816235  0.34061785  0.66489846  1
  O2-  O267  1  0.66817252  0.84291598  -0.00238990  1
  O2-  O268  1  0.66132752  0.82926813  0.33870156  1
  O2-  O269  1  0.66591425  0.83019066  0.67145191  1
  O2-  O270  1  0.16134275  0.33587825  0.00164848  1
  O2-  O271  1  0.16730525  0.34059620  0.33245918  1
  O2-  O272  1  0.16976499  0.32324535  0.67031248  1
  O2-  O273  1  0.15849003  0.84401775  -0.00531065  1
  O2-  O274  1  0.17380371  0.84133553  0.33962470  1
  O2-  O275  1  0.16898530  0.84123458  0.67241670  1
  O2-  O276  1  0.49693437  0.34521799  -0.00049070  1
  O2-  O277  1  0.49152743  0.35071306  0.32677607  1
  O2-  O278  1  0.49803784  0.34253022  0.66365679  1
  O2-  O279  1  0.49649180  0.83645900  -0.00658820  1
  O2-  O280  1  0.49948352  0.83340100  0.32885914  1
  O2-  O281  1  0.50298840  0.83569691  0.66408062  1
  O2-  O282  1  0.83456326  0.34839276  -0.00022340  1
  O2-  O283  1  0.83973655  0.33501102  0.33621150  1
  O2-  O284  1  0.82948597  0.34397565  0.66559565  1
  O2-  O285  1  0.83131655  0.84053474  -0.00466319  1
  O2-  O286  1  0.83204776  0.83950550  0.33367838  1
  O2-  O287  1  0.83178662  0.83227272  0.67098030  1
  O2-  O288  1  -0.01216209  0.18510550  0.17374188  1
  O2-  O289  1  0.01065123  0.17174103  0.51123070  1
  O2-  O290  1  -0.00051673  0.19083984  0.83646919  1
  O2-  O291  1  0.00408956  0.67992525  0.16616609  1
  O2-  O292  1  0.00628635  0.67472282  0.50856404  1
  O2-  O293  1  -0.00057554  0.68736603  0.83601739  1
  O2-  O294  1  0.33143616  0.19376234  0.16916407  1
  O2-  O295  1  0.33319479  0.17672405  0.49595043  1
  O2-  O296  1  0.33301268  0.16972345  0.83474325  1
  O2-  O297  1  0.33958075  0.67355843  0.17132717  1
  O2-  O298  1  0.33631150  0.67861299  0.50199639  1
  O2-  O299  1  0.33055103  0.68199449  0.83192269  1
  O2-  O300  1  0.66510537  0.18188855  0.16446639  1
  O2-  O301  1  0.65906374  0.17645161  0.48961476  1
  O2-  O302  1  0.66441086  0.18746196  0.82903133  1
  O2-  O303  1  0.65749450  0.67837919  0.15318641  1
  O2-  O304  1  0.67763630  0.66622380  0.51274723  1
  O2-  O305  1  0.67006758  0.68411316  0.83720672  1
  O2-  O306  1  0.16147308  0.19830379  0.16442523  1
  O2-  O307  1  0.16703259  0.16934258  0.49284665  1
  O2-  O308  1  0.18115392  0.18606870  0.81759696  1
  O2-  O309  1  0.16578047  0.68069365  0.16806270  1
  O2-  O310  1  0.17131182  0.67400642  0.49577829  1
  O2-  O311  1  0.16866727  0.67453224  0.83073529  1
  O2-  O312  1  0.50254060  0.18446781  0.16377491  1
  O2-  O313  1  0.48998272  0.17089336  0.51478049  1
  O2-  O314  1  0.49810033  0.18513460  0.84290414  1
  O2-  O315  1  0.50224624  0.68118958  0.16238689  1
  O2-  O316  1  0.50225222  0.67701517  0.49717402  1
  O2-  O317  1  0.49820828  0.69168412  0.83691343  1
  O2-  O318  1  0.82769312  0.18274571  0.16806754  1
  O2-  O319  1  0.83044111  0.17921961  0.49725491  1
  O2-  O320  1  0.83669683  0.17859532  0.83117855  1
  O2-  O321  1  0.82697538  0.67067317  0.16446074  1
  O2-  O322  1  0.84156406  0.67400766  0.50316139  1
  O2-  O323  1  0.83531373  0.69237162  0.85005001  1
  O2-  O324  1  -0.00203826  0.31159927  0.16692425  1
  O2-  O325  1  -0.00363562  0.33254657  0.49666525  1
  O2-  O326  1  0.00378124  0.31279747  0.83529162  1
  O2-  O327  1  -0.00277468  0.81889589  0.16679387  1
  O2-  O328  1  0.00013921  0.82457308  0.50161713  1
  O2-  O329  1  0.00997365  0.81709850  0.84696404  1
  O2-  O330  1  0.33757400  0.31668707  0.17224898  1
  O2-  O331  1  0.33288518  0.31153627  0.50543178  1
  O2-  O332  1  0.33788565  0.32800642  0.83451955  1
  O2-  O333  1  0.33366934  0.82667364  0.17096846  1
  O2-  O334  1  0.33031549  0.82824543  0.49330323  1
  O2-  O335  1  0.33001570  0.81660628  0.82261212  1
  O2-  O336  1  0.66391148  0.32363234  0.16213995  1
  O2-  O337  1  0.66901006  0.32500207  0.50436650  1
  O2-  O338  1  0.67025504  0.31559493  0.83870460  1
  O2-  O339  1  0.67202166  0.80743935  0.17112221  1
  O2-  O340  1  0.66597283  0.83099021  0.49492852  1
  O2-  O341  1  0.66755231  0.81604827  0.83171448  1
  O2-  O342  1  0.16858803  0.31471925  0.16650858  1
  O2-  O343  1  0.16793329  0.32005614  0.50210998  1
  O2-  O344  1  0.16818867  0.31564716  0.82830712  1
  O2-  O345  1  0.17621119  0.81254133  0.15276514  1
  O2-  O346  1  0.17098844  0.82733000  0.49643306  1
  O2-  O347  1  0.16888310  0.82999013  0.83088350  1
  O2-  O348  1  0.49999843  0.32433794  0.16597775  1
  O2-  O349  1  0.49850668  0.32215504  0.50305329  1
  O2-  O350  1  0.50002119  0.31199188  0.84205815  1
  O2-  O351  1  0.50292539  0.82049655  0.16870599  1
  O2-  O352  1  0.50011710  0.82378977  0.49864379  1
  O2-  O353  1  0.50690086  0.81677618  0.82994042  1
  O2-  O354  1  0.83843337  0.31675614  0.16148230  1
  O2-  O355  1  0.83718047  0.32385154  0.49582065  1
  O2-  O356  1  0.82740219  0.32634188  0.83817088  1
  O2-  O357  1  0.83669786  0.82098526  0.16064385  1
  O2-  O358  1  0.83802132  0.82477930  0.49544043  1
  O2-  O359  1  0.83715327  0.81370440  0.82821517  1
  O2-  O360  1  0.07260175  0.07875864  0.09179508  1
  O2-  O361  1  0.09339747  0.07761296  0.44194656  1
  O2-  O362  1  0.09338071  0.08859014  0.78817775  1
  O2-  O363  1  0.08280118  0.57234960  0.11134835  1
  O2-  O364  1  0.08716535  0.57881344  0.44670710  1
  O2-  O365  1  0.08551911  0.58016347  0.77357423  1
  O2-  O366  1  0.43586838  0.08619080  0.09193657  1
  O2-  O367  1  0.39336576  0.08094999  0.44551620  1
  O2-  O368  1  0.42076764  0.08092007  0.79587679  1
  O2-  O369  1  0.43757985  0.58183568  0.10773775  1
  O2-  O370  1  0.41566272  0.58021918  0.45638209  1
  O2-  O371  1  0.40502452  0.58141906  0.75684881  1
  O2-  O372  1  0.74643265  0.08294169  0.11352562  1
  O2-  O373  1  0.74590824  0.07458894  0.45698584  1
  O2-  O374  1  0.74765974  0.08517429  0.78892927  1
  O2-  O375  1  0.72962343  0.58034619  0.11670353  1
  O2-  O376  1  0.76106470  0.57834257  0.45156273  1
  O2-  O377  1  0.73848686  0.57063541  0.76169838  1
  O2-  O378  1  0.24290702  0.08571299  0.21636875  1
  O2-  O379  1  0.25156153  0.07894862  0.55324039  1
  O2-  O380  1  0.24315214  0.08117447  0.88160838  1
  O2-  O381  1  0.24927768  0.58029243  0.21822326  1
  O2-  O382  1  0.24859170  0.57862977  0.54816178  1
  O2-  O383  1  0.24884961  0.58217129  0.90808146  1
  O2-  O384  1  0.58810473  0.07805070  0.20938244  1
  O2-  O385  1  0.57668344  0.07528622  0.54456202  1
  O2-  O386  1  0.56811312  0.07813147  0.88482597  1
  O2-  O387  1  0.57508717  0.57385995  0.21297518  1
  O2-  O388  1  0.57882105  0.56414073  0.54402113  1
  O2-  O389  1  0.59208171  0.58712997  0.88306411  1
  O2-  O390  1  0.92317874  0.07882722  0.23385375  1
  O2-  O391  1  0.92582148  0.07795410  0.54075049  1
  O2-  O392  1  0.93707074  0.08775800  0.89537878  1
  O2-  O393  1  0.91370390  0.56954501  0.21656788  1
  O2-  O394  1  0.92137953  0.57930965  0.56155846  1
  O2-  O395  1  0.89842327  0.58238512  0.89008916  1
  O2-  O396  1  0.07637895  0.42265167  0.12085644  1
  O2-  O397  1  0.08664896  0.42024630  0.44389512  1
  O2-  O398  1  0.10158722  0.42174828  0.78489694  1
  O2-  O399  1  0.10069215  0.91682157  0.10282610  1
  O2-  O400  1  0.10142121  0.91987392  0.43752699  1
  O2-  O401  1  0.09160090  0.91943921  0.77492521  1
  O2-  O402  1  0.41747490  0.41953646  0.11284346  1
  O2-  O403  1  0.40038648  0.41611745  0.45364716  1
  O2-  O404  1  0.41294275  0.42235750  0.78784055  1
  O2-  O405  1  0.39274029  0.92226157  0.11474640  1
  O2-  O406  1  0.41320556  0.91880167  0.44429257  1
  O2-  O407  1  0.39939344  0.91538743  0.75920797  1
  O2-  O408  1  0.76374387  0.41765414  0.10844598  1
  O2-  O409  1  0.76403555  0.41780939  0.44637115  1
  O2-  O410  1  0.74080354  0.41788674  0.77503498  1
  O2-  O411  1  0.75847077  0.91432305  0.10442052  1
  O2-  O412  1  0.75071499  0.92360795  0.43117416  1
  O2-  O413  1  0.75570337  0.91615712  0.78221834  1
  O2-  O414  1  0.26574952  0.41951006  0.21654508  1
  O2-  O415  1  0.24020689  0.42084625  0.55290518  1
  O2-  O416  1  0.25689480  0.41882456  0.88363350  1
  O2-  O417  1  0.24090097  0.92061177  0.21892255  1
  O2-  O418  1  0.26497155  0.91443622  0.57755264  1
  O2-  O419  1  0.25620256  0.91592503  0.88537894  1
  O2-  O420  1  0.56034934  0.42905770  0.21369471  1
  O2-  O421  1  0.58006368  0.42539026  0.55276554  1
  O2-  O422  1  0.56255494  0.41956562  0.88731411  1
  O2-  O423  1  0.57239779  0.91923627  0.23628811  1
  O2-  O424  1  0.57190048  0.91719402  0.56284303  1
  O2-  O425  1  0.59672428  0.91580537  0.88295864  1
  O2-  O426  1  0.92339604  0.42600158  0.20880029  1
  O2-  O427  1  0.92004416  0.43002155  0.54890814  1
  O2-  O428  1  0.92929957  0.41750779  0.89761408  1
  O2-  O429  1  0.91786989  0.91674689  0.23186368  1
  O2-  O430  1  0.91230218  0.91697813  0.57220021  1
  O2-  O431  1  0.93382227  0.92111694  0.86579680  1
  O2-  O432  1  0.02397906  -0.00923769  -0.01684352  1
  O2-  O433  1  -0.02666472  -0.00256925  0.37413906  1
  O2-  O434  1  0.01707720  0.01636340  0.64912036  1
  O2-  O435  1  -0.00278116  0.48830224  0.00639049  1
  O2-  O436  1  0.00591296  0.48776693  0.32471207  1
  O2-  O437  1  0.02320330  0.49715047  0.63882752  1
  O2-  O438  1  0.33780380  0.01008243  0.00295234  1
  O2-  O439  1  0.33234298  -0.00584678  0.33233640  1
  O2-  O440  1  0.33214429  0.02583140  0.67919255  1
  O2-  O441  1  0.33155461  0.47836598  0.00030814  1
  O2-  O442  1  0.33844738  0.49381113  0.33688250  1
  O2-  O443  1  0.32941075  0.48100034  0.68031784  1
  O2-  O444  1  0.66375723  0.01417416  0.00262786  1
  O2-  O445  1  0.66346865  0.00586270  0.34196064  1
  O2-  O446  1  0.65867280  0.01005699  0.67437606  1
  O2-  O447  1  0.65881135  0.49730796  0.00384906  1
  O2-  O448  1  0.67746006  0.52788585  0.33150693  1
  O2-  O449  1  0.66712293  0.50017294  0.65418701  1
  O2-  O450  1  0.17737922  -0.00423686  0.01248954  1
  O2-  O451  1  0.18271148  0.00714717  0.35492970  1
  O2-  O452  1  0.17293064  0.02322818  0.67691822  1
  O2-  O453  1  0.16743405  0.48753517  0.01337791  1
  O2-  O454  1  0.17224908  0.49173027  0.34926673  1
  O2-  O455  1  0.17757324  0.49462687  0.68765114  1
  O2-  O456  1  0.49302782  0.00990866  -0.01176134  1
  O2-  O457  1  0.50903363  0.00409418  0.34153604  1
  O2-  O458  1  0.48442047  0.00955734  0.64933988  1
  O2-  O459  1  0.49687798  0.49757248  -0.00917435  1
  O2-  O460  1  0.49518070  0.50291125  0.32036341  1
  O2-  O461  1  0.48329340  0.49899118  0.64147973  1
  O2-  O462  1  0.82723029  -0.00363767  -0.01129581  1
  O2-  O463  1  0.82779294  0.01640636  0.33259919  1
  O2-  O464  1  0.85107756  0.00447932  0.68010539  1
  O2-  O465  1  0.83569716  0.48796257  0.00052077  1
  O2-  O466  1  0.85095280  0.49887365  0.34927649  1
  O2-  O467  1  0.81424778  0.50072992  0.64026678  1
  O2-  O468  1  0.57840434  0.24768391  0.27392460  1
  O2-  O469  1  0.41413671  0.25133748  0.05748565  1
  O2-  O470  1  0.58335514  0.24944775  0.60456807  1
  O2-  O471  1  0.90232692  0.25313190  0.93791801  1
  O2-  O472  1  0.08987399  0.74876418  0.40045118  1
  O2-  O473  1  0.40834172  0.75012630  0.06725517  1
  O2-  O474  1  0.08369272  0.25424261  0.40854372  1
  O2-  O475  1  0.09187762  0.74726195  0.72627699  1
  O2-  O476  1  0.75487427  0.24880150  0.72375260  1
  O2-  O477  1  0.75364459  0.75346903  0.41325812  1
  O2-  O478  1  0.59142025  0.75167862  0.58408685  1
  O2-  O479  1  0.42859374  0.25125188  0.39187801  1
  O2-  O480  1  0.74267137  0.24972438  0.40212724  1
  O2-  O481  1  0.24324364  0.74666803  0.59773475  1
  O2-  O482  1  0.91576533  0.24833855  0.60209237  1
  O2-  O483  1  0.75247407  0.74718034  0.05741878  1
  O2-  O484  1  0.26392633  0.25191164  0.93245840  1
  O2-  O485  1  0.58871975  0.75029855  0.94409131  1
  O2-  O486  1  0.91144966  0.75428239  0.26371915  1
  O2-  O487  1  0.74704543  0.25069659  0.05873711  1
  O2-  O488  1  0.92431567  0.75129634  0.59988731  1
  O2-  O489  1  0.40097262  0.75019590  0.39249301  1
  O2-  O490  1  0.24826462  0.75019047  0.93165025  1
  O2-  O491  1  0.41290388  0.25141569  0.72395277  1
  O2-  O492  1  0.26795428  0.74042624  0.28123207  1
