# generated using pymatgen
data_Ca108Mn108O277
_symmetry_space_group_name_H-M   'P 1'
_cell_length_a   16.02953253
_cell_length_b   22.30780528
_cell_length_c   16.39013208
_cell_angle_alpha   89.99900140
_cell_angle_beta   89.99542570
_cell_angle_gamma   90.00195788
_symmetry_Int_Tables_number   1
_chemical_formula_structural   Ca108Mn108O277
_chemical_formula_sum   'Ca108 Mn108 O277'
_cell_volume   5860.84389267
_cell_formula_units_Z   1
loop_
 _symmetry_equiv_pos_site_id
 _symmetry_equiv_pos_as_xyz
  1  'x, y, z'
loop_
 _atom_type_symbol
 _atom_type_oxidation_number
  Ca2+  2.0
  Mn3.34+  3.34
  O2-  -2.0
loop_
 _atom_site_type_symbol
 _atom_site_label
 _atom_site_symmetry_multiplicity
 _atom_site_fract_x
 _atom_site_fract_y
 _atom_site_fract_z
 _atom_site_occupancy
  Ca2+  Ca0  1  0.05987394  0.23949119  0.26403151  1
  Ca2+  Ca1  1  0.08447766  0.24112283  0.57944656  1
  Ca2+  Ca2  1  0.08605768  0.25914551  0.90368189  1
  Ca2+  Ca3  1  0.06768261  0.75481717  0.26435515  1
  Ca2+  Ca4  1  0.07716136  0.75174105  0.57113867  1
  Ca2+  Ca5  1  0.08229422  0.75421589  0.91817638  1
  Ca2+  Ca6  1  0.40881369  0.25511412  0.23666895  1
  Ca2+  Ca7  1  0.43225437  0.24496407  0.59201920  1
  Ca2+  Ca8  1  0.42412962  0.24764543  0.92620516  1
  Ca2+  Ca9  1  0.40783633  0.75393540  0.25757770  1
  Ca2+  Ca10  1  0.41179357  0.75131774  0.57935756  1
  Ca2+  Ca11  1  0.42249995  0.75711344  0.91636973  1
  Ca2+  Ca12  1  0.76724998  0.24245099  0.25409048  1
  Ca2+  Ca13  1  0.73917123  0.24299963  0.58649373  1
  Ca2+  Ca14  1  0.74014806  0.25057376  0.91861650  1
  Ca2+  Ca15  1  0.76498594  0.76269074  0.25654647  1
  Ca2+  Ca16  1  0.75757329  0.76215764  0.58953504  1
  Ca2+  Ca17  1  0.75107764  0.75081484  0.89983598  1
  Ca2+  Ca18  1  0.27659451  0.24647085  0.08647202  1
  Ca2+  Ca19  1  0.24077726  0.24587221  0.42017099  1
  Ca2+  Ca20  1  0.25142326  0.24665703  0.74543436  1
  Ca2+  Ca21  1  0.25372319  0.76359087  0.09788157  1
  Ca2+  Ca22  1  0.24015962  0.75218932  0.41040609  1
  Ca2+  Ca23  1  0.25189118  0.76174685  0.74755292  1
  Ca2+  Ca24  1  0.56746990  0.24240840  0.08171562  1
  Ca2+  Ca25  1  0.59736682  0.23915506  0.44979664  1
  Ca2+  Ca26  1  0.58326818  0.23961288  0.74015808  1
  Ca2+  Ca27  1  0.58827512  0.75945448  0.08084536  1
  Ca2+  Ca28  1  0.58935904  0.75398451  0.41602085  1
  Ca2+  Ca29  1  0.60677326  0.75182506  0.75128055  1
  Ca2+  Ca30  1  0.89803875  0.24895890  0.09792428  1
  Ca2+  Ca31  1  0.91507094  0.22458555  0.40848561  1
  Ca2+  Ca32  1  0.91475525  0.23662484  0.74338744  1
  Ca2+  Ca33  1  0.91799107  0.74946836  0.10758524  1
  Ca2+  Ca34  1  0.91490306  0.76171742  0.40597042  1
  Ca2+  Ca35  1  0.89451228  0.75349650  0.74610751  1
  Ca2+  Ca36  1  0.40750691  0.57498341  0.92542731  1
  Ca2+  Ca37  1  0.25639629  0.09010597  0.74490265  1
  Ca2+  Ca38  1  0.25071035  0.57228039  0.75015655  1
  Ca2+  Ca39  1  0.41308909  0.10021970  0.93066752  1
  Ca2+  Ca40  1  0.60288780  0.57474243  0.07620713  1
  Ca2+  Ca41  1  0.77005124  0.58871793  0.59727876  1
  Ca2+  Ca42  1  0.75836953  0.58935011  0.59824872  1
  Ca2+  Ca43  1  0.41038001  0.09809392  0.23531988  1
  Ca2+  Ca44  1  0.09143249  0.09323134  0.91938418  1
  Ca2+  Ca45  1  0.23707277  0.07963620  0.40027985  1
  Ca2+  Ca46  1  0.27027799  0.09771440  0.08202383  1
  Ca2+  Ca47  1  0.94361377  0.61680496  0.41457802  1
  Ca2+  Ca48  1  0.59080476  0.57705764  0.07452284  1
  Ca2+  Ca49  1  0.78731794  0.09880156  0.57232401  1
  Ca2+  Ca50  1  0.06523265  0.62160577  0.24922790  1
  Ca2+  Ca51  1  0.40040745  0.10130106  0.23264830  1
  Ca2+  Ca52  1  0.54912378  0.57638244  0.40977281  1
  Ca2+  Ca53  1  0.77815961  0.10135632  0.57050904  1
  Ca2+  Ca54  1  0.90217623  0.59997436  0.75047016  1
  Ca2+  Ca55  1  0.75175137  0.60756661  0.89389721  1
  Ca2+  Ca56  1  0.07875157  0.09536929  0.91843942  1
  Ca2+  Ca57  1  0.75961262  0.60017630  0.25247787  1
  Ca2+  Ca58  1  0.23373641  0.59084654  0.08086663  1
  Ca2+  Ca59  1  0.93332940  0.61780344  0.41236005  1
  Ca2+  Ca60  1  0.09018365  0.58219178  0.92591387  1
  Ca2+  Ca61  1  0.02148814  0.09646781  0.57546441  1
  Ca2+  Ca62  1  0.77955749  0.09190255  0.26555603  1
  Ca2+  Ca63  1  0.08825863  0.60410928  0.56712867  1
  Ca2+  Ca64  1  0.24532139  0.59047757  0.08105936  1
  Ca2+  Ca65  1  0.42495822  0.09270592  0.59600079  1
  Ca2+  Ca66  1  0.25058174  0.60147045  0.41012641  1
  Ca2+  Ca67  1  0.75500357  0.09013500  0.92700298  1
  Ca2+  Ca68  1  0.57190019  0.10039904  0.08017502  1
  Ca2+  Ca69  1  0.90325071  0.09198380  0.08207924  1
  Ca2+  Ca70  1  0.77436130  0.08567533  0.26357913  1
  Ca2+  Ca71  1  0.58990568  0.09676557  0.73416533  1
  Ca2+  Ca72  1  0.74949148  0.40848660  0.58575904  1
  Ca2+  Ca73  1  0.24298376  0.40875735  0.06657514  1
  Ca2+  Ca74  1  0.76642129  0.91286844  0.93009037  1
  Ca2+  Ca75  1  0.40093825  0.90792068  0.58170969  1
  Ca2+  Ca76  1  0.59015253  0.40645877  0.08247165  1
  Ca2+  Ca77  1  0.43253960  0.42080748  0.58518317  1
  Ca2+  Ca78  1  0.59317890  0.90820582  0.08199246  1
  Ca2+  Ca79  1  0.40708332  0.90202706  0.91828492  1
  Ca2+  Ca80  1  0.06869362  0.90948268  0.58029386  1
  Ca2+  Ca81  1  0.59762833  0.90172498  0.41354746  1
  Ca2+  Ca82  1  0.25466364  0.40974827  0.06638659  1
  Ca2+  Ca83  1  0.08980082  0.90444935  0.93173617  1
  Ca2+  Ca84  1  0.75206845  0.39932460  0.23833838  1
  Ca2+  Ca85  1  0.56945809  0.40590697  0.75257310  1
  Ca2+  Ca86  1  0.90363282  0.92091281  0.71487323  1
  Ca2+  Ca87  1  0.57035894  0.40875229  0.41286535  1
  Ca2+  Ca88  1  0.58083861  0.40582308  0.75185259  1
  Ca2+  Ca89  1  0.09920832  0.91353025  0.25344244  1
  Ca2+  Ca90  1  0.42081211  0.41421071  0.25955431  1
  Ca2+  Ca91  1  0.06810732  0.40964804  0.59615214  1
  Ca2+  Ca92  1  0.27245509  0.41093807  0.41435557  1
  Ca2+  Ca93  1  0.91460110  0.90706687  0.08545564  1
  Ca2+  Ca94  1  0.76072041  0.41114120  0.93741718  1
  Ca2+  Ca95  1  0.60089097  0.40387456  0.08481117  1
  Ca2+  Ca96  1  0.06015195  0.41486293  0.59657151  1
  Ca2+  Ca97  1  0.25267252  0.90961280  0.74897938  1
  Ca2+  Ca98  1  0.91860507  0.39212925  0.42244350  1
  Ca2+  Ca99  1  0.26106641  0.41031153  0.41425177  1
  Ca2+  Ca100  1  0.37904422  0.91571156  0.25129659  1
  Ca2+  Ca101  1  0.75522027  0.91212904  0.93052276  1
  Ca2+  Ca102  1  0.41329495  0.90916578  0.58290647  1
  Ca2+  Ca103  1  0.88175635  0.93148364  0.42681479  1
  Ca2+  Ca104  1  0.42169307  0.42115140  0.58564631  1
  Ca2+  Ca105  1  0.76080994  0.40771437  0.58607067  1
  Ca2+  Ca106  1  0.24812915  0.41171721  0.76398231  1
  Ca2+  Ca107  1  0.92290645  0.40041189  0.75770770  1
  Mn3.34+  Mn108  1  0.07958210  0.32435797  0.08292768  1
  Mn3.34+  Mn109  1  0.08378383  0.32945376  0.41543324  1
  Mn3.34+  Mn110  1  0.08523638  0.33247213  0.75551413  1
  Mn3.34+  Mn111  1  0.08422141  0.83281985  0.08908070  1
  Mn3.34+  Mn112  1  0.08365724  0.84359646  0.41896039  1
  Mn3.34+  Mn113  1  0.07970596  0.83470378  0.75045586  1
  Mn3.34+  Mn114  1  0.41966974  0.33233008  0.08278681  1
  Mn3.34+  Mn115  1  0.41777304  0.32974414  0.41668345  1
  Mn3.34+  Mn116  1  0.41023920  0.33178851  0.75838807  1
  Mn3.34+  Mn117  1  0.41789568  0.83651466  0.08806120  1
  Mn3.34+  Mn118  1  0.41566537  0.83395123  0.41615278  1
  Mn3.34+  Mn119  1  0.42096506  0.83514074  0.75245198  1
  Mn3.34+  Mn120  1  0.75457125  0.32956890  0.08430132  1
  Mn3.34+  Mn121  1  0.74966702  0.33001391  0.41274647  1
  Mn3.34+  Mn122  1  0.75471299  0.32738026  0.75870509  1
  Mn3.34+  Mn123  1  0.75242256  0.83623743  0.08802717  1
  Mn3.34+  Mn124  1  0.75080543  0.83831453  0.41951581  1
  Mn3.34+  Mn125  1  0.74822365  0.83811005  0.74771870  1
  Mn3.34+  Mn126  1  0.24401245  0.33355220  0.24538349  1
  Mn3.34+  Mn127  1  0.25049456  0.33401918  0.58554283  1
  Mn3.34+  Mn128  1  0.25114743  0.33647885  0.91393880  1
  Mn3.34+  Mn129  1  0.24501981  0.83388659  0.25162447  1
  Mn3.34+  Mn130  1  0.24329713  0.83261785  0.57935111  1
  Mn3.34+  Mn131  1  0.24909838  0.83185838  0.91834114  1
  Mn3.34+  Mn132  1  0.58402452  0.33052038  0.25253460  1
  Mn3.34+  Mn133  1  0.58223403  0.33479683  0.58004725  1
  Mn3.34+  Mn134  1  0.58227687  0.33215750  0.91456376  1
  Mn3.34+  Mn135  1  0.58348889  0.83123870  0.24796869  1
  Mn3.34+  Mn136  1  0.58632281  0.83247389  0.58538776  1
  Mn3.34+  Mn137  1  0.58228961  0.83203817  0.91359551  1
  Mn3.34+  Mn138  1  0.92152489  0.33044245  0.24873828  1
  Mn3.34+  Mn139  1  0.91568278  0.32695855  0.58143918  1
  Mn3.34+  Mn140  1  0.92476797  0.33752295  0.92438998  1
  Mn3.34+  Mn141  1  0.91725171  0.83887564  0.25327165  1
  Mn3.34+  Mn142  1  0.91552117  0.83591373  0.57762962  1
  Mn3.34+  Mn143  1  0.92128731  0.83142735  0.91231372  1
  Mn3.34+  Mn144  1  0.58516336  0.16729511  0.25091697  1
  Mn3.34+  Mn145  1  0.41265554  0.16539373  0.42219304  1
  Mn3.34+  Mn146  1  0.07954479  0.16230794  0.41789869  1
  Mn3.34+  Mn147  1  0.25076451  0.66173648  0.91176355  1
  Mn3.34+  Mn148  1  0.41555195  0.16760402  0.75436794  1
  Mn3.34+  Mn149  1  0.75977321  0.66332997  0.08748778  1
  Mn3.34+  Mn150  1  0.74998259  0.66884212  0.08577826  1
  Mn3.34+  Mn151  1  0.24794035  0.66818168  0.24970794  1
  Mn3.34+  Mn152  1  0.75017959  0.16524851  0.41919775  1
  Mn3.34+  Mn153  1  0.25147065  0.66852156  0.57670279  1
  Mn3.34+  Mn154  1  0.24540618  0.16312114  0.58372361  1
  Mn3.34+  Mn155  1  0.08066849  0.67323295  0.08174497  1
  Mn3.34+  Mn156  1  0.58118224  0.66596457  0.25614553  1
  Mn3.34+  Mn157  1  0.41929927  0.66381801  0.09034659  1
  Mn3.34+  Mn158  1  0.91249355  0.16930112  0.91242578  1
  Mn3.34+  Mn159  1  0.58515649  0.66663676  0.91138655  1
  Mn3.34+  Mn160  1  0.24205470  0.16800073  0.25124220  1
  Mn3.34+  Mn161  1  0.75311463  0.16572884  0.75207306  1
  Mn3.34+  Mn162  1  0.25051955  0.17146787  0.91248085  1
  Mn3.34+  Mn163  1  0.58525644  0.66293085  0.58129423  1
  Mn3.34+  Mn164  1  0.08008903  0.66245372  0.75193631  1
  Mn3.34+  Mn165  1  0.91729188  0.67046825  0.58290361  1
  Mn3.34+  Mn166  1  0.42956138  0.66910109  0.08781529  1
  Mn3.34+  Mn167  1  0.57351008  0.65508877  0.57832508  1
  Mn3.34+  Mn168  1  0.41289809  0.66219932  0.41554586  1
  Mn3.34+  Mn169  1  0.09370064  0.66873642  0.74911906  1
  Mn3.34+  Mn170  1  0.08511417  0.17348648  0.08790301  1
  Mn3.34+  Mn171  1  0.92235320  0.66521648  0.91728468  1
  Mn3.34+  Mn172  1  0.74695268  0.67089564  0.41816673  1
  Mn3.34+  Mn173  1  0.42288451  0.16037121  0.42347792  1
  Mn3.34+  Mn174  1  0.41911959  0.66031185  0.75184262  1
  Mn3.34+  Mn175  1  0.58319022  0.16818956  0.91307150  1
  Mn3.34+  Mn176  1  0.74388269  0.16377116  0.08845039  1
  Mn3.34+  Mn177  1  0.08100529  0.17135871  0.74627320  1
  Mn3.34+  Mn178  1  0.07578075  0.17905021  0.08638003  1
  Mn3.34+  Mn179  1  0.40916342  0.66576879  0.74960440  1
  Mn3.34+  Mn180  1  0.91316365  0.50216058  0.23142292  1
  Mn3.34+  Mn181  1  0.57011963  0.50367325  0.25921126  1
  Mn3.34+  Mn182  1  0.25362620  0.50754131  0.59015286  1
  Mn3.34+  Mn183  1  0.08591736  0.00040619  0.08057235  1
  Mn3.34+  Mn184  1  0.07677322  -0.00095161  0.74283518  1
  Mn3.34+  Mn185  1  0.41276083  -0.00419512  0.07565597  1
  Mn3.34+  Mn186  1  0.90360544  0.50358253  0.92636498  1
  Mn3.34+  Mn187  1  0.08712780  0.00311880  0.40508452  1
  Mn3.34+  Mn188  1  0.25993982  0.50096468  0.25509613  1
  Mn3.34+  Mn189  1  0.05891339  0.49383158  0.08557599  1
  Mn3.34+  Mn190  1  0.06777244  0.00541650  0.73923688  1
  Mn3.34+  Mn191  1  0.59607788  -0.00418321  0.25509962  1
  Mn3.34+  Mn192  1  0.42227878  0.49778914  0.75472086  1
  Mn3.34+  Mn193  1  0.08573171  0.50043782  0.41759769  1
  Mn3.34+  Mn194  1  0.74800847  0.49972223  0.76306746  1
  Mn3.34+  Mn195  1  0.24809629  0.00038734  0.91777319  1
  Mn3.34+  Mn196  1  0.75603608  0.00449759  0.74471985  1
  Mn3.34+  Mn197  1  0.92082978  -0.00458004  0.26230026  1
  Mn3.34+  Mn198  1  0.42156140  0.49949210  0.09111096  1
  Mn3.34+  Mn199  1  0.92243369  0.00071243  0.91652669  1
  Mn3.34+  Mn200  1  0.92544858  0.49542122  0.23381860  1
  Mn3.34+  Mn201  1  0.58336420  0.00241402  0.90362456  1
  Mn3.34+  Mn202  1  0.06920490  0.49748864  0.08739848  1
  Mn3.34+  Mn203  1  0.76208369  0.50102857  0.41148491  1
  Mn3.34+  Mn204  1  0.57267102  -0.00209450  0.90529626  1
  Mn3.34+  Mn205  1  0.24528577  0.00083294  0.58203890  1
  Mn3.34+  Mn206  1  0.58264158  0.00119118  0.25853260  1
  Mn3.34+  Mn207  1  0.74750476  0.50671879  0.41155381  1
  Mn3.34+  Mn208  1  0.60077883  -0.00329749  0.57676489  1
  Mn3.34+  Mn209  1  0.41957679  0.00119777  0.74837282  1
  Mn3.34+  Mn210  1  0.07534803  0.49565508  0.41378322  1
  Mn3.34+  Mn211  1  0.59153275  0.00301567  0.57484766  1
  Mn3.34+  Mn212  1  0.40782786  -0.00127161  0.40287061  1
  Mn3.34+  Mn213  1  0.58897344  0.50030234  0.91811422  1
  Mn3.34+  Mn214  1  0.75983040  0.49522098  0.76296147  1
  Mn3.34+  Mn215  1  0.07521206  0.49943277  0.75110707  1
  O2-  O216  1  0.00208542  0.16585524  -0.00306112  1
  O2-  O217  1  0.00647393  0.16171288  0.33887523  1
  O2-  O218  1  0.00321747  0.17304314  0.66836032  1
  O2-  O219  1  0.00269038  0.68737789  -0.00306910  1
  O2-  O220  1  0.00365937  0.68118111  0.34197266  1
  O2-  O221  1  0.00179962  0.64455654  0.66608580  1
  O2-  O222  1  0.32641766  0.16800971  -0.00525301  1
  O2-  O223  1  0.33459635  0.14715930  0.34090757  1
  O2-  O224  1  0.33291379  0.15291165  0.66789625  1
  O2-  O225  1  0.33557582  0.64803128  -0.00147847  1
  O2-  O226  1  0.33301341  0.66765774  0.33389764  1
  O2-  O227  1  0.32969698  0.64680529  0.67012486  1
  O2-  O228  1  0.66570738  0.14905568  -0.00468805  1
  O2-  O229  1  0.67389245  0.15975922  0.32366717  1
  O2-  O230  1  0.68181224  0.14931713  0.66852478  1
  O2-  O231  1  0.66800154  0.64912884  0.00704642  1
  O2-  O232  1  0.66283705  0.64949243  0.33768762  1
  O2-  O233  1  0.66835286  0.65176816  0.65574760  1
  O2-  O234  1  0.16376594  0.17260572  0.00029016  1
  O2-  O235  1  0.17235173  0.15573521  0.34018886  1
  O2-  O236  1  0.16676241  0.14750878  0.67088231  1
  O2-  O237  1  0.16597613  0.65748387  -0.00300584  1
  O2-  O238  1  0.16942834  0.66327456  0.32631302  1
  O2-  O239  1  0.17074572  0.64296845  0.67071005  1
  O2-  O240  1  0.50459433  0.15916596  -0.00677292  1
  O2-  O241  1  0.49733866  0.15113054  0.33316013  1
  O2-  O242  1  0.49604076  0.15788346  0.67790816  1
  O2-  O243  1  0.50636502  0.64438352  0.00383428  1
  O2-  O244  1  0.50081187  0.68174563  0.34053408  1
  O2-  O245  1  0.49998081  0.64443723  0.66710066  1
  O2-  O246  1  0.83472323  0.15791013  0.00202013  1
  O2-  O247  1  0.83086026  0.16055044  0.33408336  1
  O2-  O248  1  0.83404049  0.16738979  0.67162057  1
  O2-  O249  1  0.83557732  0.65791304  -0.00236620  1
  O2-  O250  1  0.82975691  0.65004127  0.34490745  1
  O2-  O251  1  0.83622051  0.65816776  0.66141239  1
  O2-  O252  1  -0.00207309  0.29584214  0.00253908  1
  O2-  O253  1  0.00086284  0.34026885  0.33665913  1
  O2-  O254  1  -0.00141195  0.33770967  0.66706218  1
  O2-  O255  1  0.00292362  0.83060916  -0.00063789  1
  O2-  O256  1  0.00594029  0.84214232  0.33028902  1
  O2-  O257  1  -0.00276573  0.84933848  0.66845913  1
  O2-  O258  1  0.32860812  0.33640005  0.00405176  1
  O2-  O259  1  0.33677284  0.34995335  0.32950814  1
  O2-  O260  1  0.33537677  0.35550585  0.66633503  1
  O2-  O261  1  0.33517580  0.83417541  -0.00348831  1
  O2-  O262  1  0.33526586  0.83301387  0.33286196  1
  O2-  O263  1  0.33138608  0.84671814  0.66953704  1
  O2-  O264  1  0.66911220  0.34543241  -0.00384201  1
  O2-  O265  1  0.66574799  0.34986453  0.33392440  1
  O2-  O266  1  0.66581181  0.35590422  0.66750960  1
  O2-  O267  1  0.66737116  0.84605644  -0.00219470  1
  O2-  O268  1  0.66299613  0.82948189  0.33425089  1
  O2-  O269  1  0.66179067  0.83883396  0.67113238  1
  O2-  O270  1  0.16986338  0.31779758  -0.00307399  1
  O2-  O271  1  0.17294290  0.35419436  0.34088545  1
  O2-  O272  1  0.16535163  0.35863803  0.66551373  1
  O2-  O273  1  0.16556374  0.81416098  0.00166481  1
  O2-  O274  1  0.16222900  0.82563589  0.33460421  1
  O2-  O275  1  0.16477365  0.85396030  0.66659395  1
  O2-  O276  1  0.50647168  0.34971306  0.00383006  1
  O2-  O277  1  0.49925657  0.34178787  0.33273494  1
  O2-  O278  1  0.49659099  0.34966004  0.66370768  1
  O2-  O279  1  0.50152928  0.84840295  0.00180209  1
  O2-  O280  1  0.50100697  0.82061841  0.33425175  1
  O2-  O281  1  0.49093393  0.84934944  0.65892472  1
  O2-  O282  1  0.83537594  0.33424234  0.00018967  1
  O2-  O283  1  0.83155893  0.34923825  0.33276616  1
  O2-  O284  1  0.83156634  0.34356532  0.66699791  1
  O2-  O285  1  0.83699542  0.83810260  -0.00280065  1
  O2-  O286  1  0.83957445  0.85059260  0.34073678  1
  O2-  O287  1  0.83246262  0.84335549  0.66700515  1
  O2-  O288  1  -0.00974585  0.17748339  0.15885222  1
  O2-  O289  1  0.00592560  0.18032434  0.49805354  1
  O2-  O290  1  0.00203337  0.18686647  0.83745719  1
  O2-  O291  1  0.01587162  0.69448686  0.16477824  1
  O2-  O292  1  -0.00065810  0.67874498  0.50517004  1
  O2-  O293  1  0.00319260  0.68409949  0.83116731  1
  O2-  O294  1  0.33119165  0.17870543  0.17682149  1
  O2-  O295  1  0.33424574  0.18398750  0.50545876  1
  O2-  O296  1  0.32998517  0.18496234  0.83306937  1
  O2-  O297  1  0.32910485  0.67305307  0.16039378  1
  O2-  O298  1  0.33279238  0.68732554  0.49260063  1
  O2-  O299  1  0.33064100  0.69139080  0.83618021  1
  O2-  O300  1  0.65590844  0.18501636  0.16038280  1
  O2-  O301  1  0.67893079  0.17318108  0.50645150  1
  O2-  O302  1  0.66348423  0.18027284  0.83001679  1
  O2-  O303  1  0.66464386  0.68518225  0.17044027  1
  O2-  O304  1  0.66374721  0.68688565  0.50006139  1
  O2-  O305  1  0.66590750  0.68254614  0.84120994  1
  O2-  O306  1  0.16397397  0.19178824  0.16636024  1
  O2-  O307  1  0.16880888  0.17752391  0.50299992  1
  O2-  O308  1  0.16084299  0.18162077  0.83981131  1
  O2-  O309  1  0.17663116  0.67586555  0.15318158  1
  O2-  O310  1  0.16881909  0.68405548  0.50578484  1
  O2-  O311  1  0.16681011  0.68936081  0.83688113  1
  O2-  O312  1  0.49619101  0.17987036  0.18227433  1
  O2-  O313  1  0.49592224  0.17862824  0.50415542  1
  O2-  O314  1  0.49627151  0.18461727  0.83626998  1
  O2-  O315  1  0.50296201  0.69178472  0.17576759  1
  O2-  O316  1  0.49753642  0.67819588  0.49771558  1
  O2-  O317  1  0.48880250  0.67611548  0.84094640  1
  O2-  O318  1  0.82261367  0.17207330  0.16770215  1
  O2-  O319  1  0.82775053  0.18386414  0.50111063  1
  O2-  O320  1  0.82814813  0.18619596  0.84070560  1
  O2-  O321  1  0.82778248  0.67969474  0.17379809  1
  O2-  O322  1  0.83258658  0.68114777  0.50096235  1
  O2-  O323  1  0.84382143  0.68179276  0.84070439  1
  O2-  O324  1  0.00322100  0.30807378  0.16698691  1
  O2-  O325  1  0.00339623  0.31463456  0.50611938  1
  O2-  O326  1  -0.00375213  0.31847155  0.83062809  1
  O2-  O327  1  -0.00228981  0.82301791  0.16528503  1
  O2-  O328  1  0.00062036  0.81712277  0.49651876  1
  O2-  O329  1  -0.00029148  0.81016816  0.83320693  1
  O2-  O330  1  0.33461721  0.32531742  0.16384669  1
  O2-  O331  1  0.32612070  0.32262206  0.49197488  1
  O2-  O332  1  0.33239844  0.31221110  0.83939836  1
  O2-  O333  1  0.33744764  0.82543570  0.17115164  1
  O2-  O334  1  0.33796060  0.82049923  0.50622203  1
  O2-  O335  1  0.33561550  0.81861181  0.83536041  1
  O2-  O336  1  0.66041560  0.32127048  0.16308519  1
  O2-  O337  1  0.67244019  0.32816346  0.50625219  1
  O2-  O338  1  0.66206901  0.32386298  0.82753014  1
  O2-  O339  1  0.66709005  0.81808390  0.16417906  1
  O2-  O340  1  0.66456403  0.81830129  0.49915078  1
  O2-  O341  1  0.67573583  0.82844802  0.84345104  1
  O2-  O342  1  0.17700901  0.31728943  0.15357575  1
  O2-  O343  1  0.16529685  0.33407742  0.50345314  1
  O2-  O344  1  0.17686133  0.32124694  0.82774259  1
  O2-  O345  1  0.15958758  0.81585219  0.17284017  1
  O2-  O346  1  0.16249315  0.81668433  0.49972637  1
  O2-  O347  1  0.16755567  0.81981866  0.83418098  1
  O2-  O348  1  0.50263023  0.32294139  0.16723908  1
  O2-  O349  1  0.49637392  0.31754949  0.50160191  1
  O2-  O350  1  0.50813400  0.32035554  0.82318670  1
  O2-  O351  1  0.50241753  0.81324013  0.16651405  1
  O2-  O352  1  0.49753545  0.81548927  0.49802360  1
  O2-  O353  1  0.50208444  0.81481930  0.83258619  1
  O2-  O354  1  0.82521252  0.31900751  0.17319645  1
  O2-  O355  1  0.82838063  0.32177559  0.50433693  1
  O2-  O356  1  0.83493273  0.31152799  0.83472500  1
  O2-  O357  1  0.83686902  0.82810689  0.16376713  1
  O2-  O358  1  0.83441660  0.81907141  0.49815246  1
  O2-  O359  1  0.83281726  0.82235019  0.83752960  1
  O2-  O360  1  0.09286936  0.08520757  0.08683803  1
  O2-  O361  1  0.09006836  0.07691156  0.44986981  1
  O2-  O362  1  0.08345537  0.08330635  0.78502495  1
  O2-  O363  1  0.07660917  0.58148780  0.11683095  1
  O2-  O364  1  0.07396134  0.58293063  0.43380542  1
  O2-  O365  1  0.09354897  0.58084597  0.78935477  1
  O2-  O366  1  0.41371281  0.07592120  0.10515682  1
  O2-  O367  1  0.41231332  0.07660425  0.45619474  1
  O2-  O368  1  0.40631378  0.08347216  0.78720991  1
  O2-  O369  1  0.43733986  0.58131269  0.11911500  1
  O2-  O370  1  0.40850580  0.58404207  0.43045504  1
  O2-  O371  1  0.39971044  0.57914037  0.78952739  1
  O2-  O372  1  0.74208473  0.08202264  0.12159846  1
  O2-  O373  1  0.75400562  0.08508915  0.43815624  1
  O2-  O374  1  0.74796953  0.08036338  0.78780212  1
  O2-  O375  1  0.73712112  0.58105581  0.11609716  1
  O2-  O376  1  0.75052285  0.58377711  0.45827108  1
  O2-  O377  1  0.75657220  0.58315174  0.75861131  1
  O2-  O378  1  0.25879293  0.08821326  0.21752925  1
  O2-  O379  1  0.25802053  0.08030157  0.54917903  1
  O2-  O380  1  0.23045697  0.08143371  0.88706868  1
  O2-  O381  1  0.24004876  0.57997238  0.21778585  1
  O2-  O382  1  0.23566640  0.58421083  0.54379062  1
  O2-  O383  1  0.24849891  0.57864416  0.88951368  1
  O2-  O384  1  0.56292614  0.07690008  0.21229107  1
  O2-  O385  1  0.58499098  0.08265698  0.56370537  1
  O2-  O386  1  0.57694510  0.08382408  0.87605722  1
  O2-  O387  1  0.58609233  0.57843005  0.21063367  1
  O2-  O388  1  0.60431113  0.57775930  0.54241883  1
  O2-  O389  1  0.59423701  0.58255368  0.89712603  1
  O2-  O390  1  0.90475525  0.06165872  0.20709998  1
  O2-  O391  1  0.89991809  0.06730170  0.55345208  1
  O2-  O392  1  0.94224828  0.08159932  0.89693725  1
  O2-  O393  1  0.92591405  0.58288420  0.23088172  1
  O2-  O394  1  0.90494021  0.58603215  0.54625991  1
  O2-  O395  1  0.92802221  0.57937576  0.88220704  1
  O2-  O396  1  0.10214475  0.41297051  0.09379413  1
  O2-  O397  1  0.06573394  0.41697313  0.45341971  1
  O2-  O398  1  0.07504789  0.41722714  0.77372625  1
  O2-  O399  1  0.08013344  0.92026355  0.10448340  1
  O2-  O400  1  0.08077689  0.93057555  0.45004052  1
  O2-  O401  1  0.07732344  0.92502766  0.79908795  1
  O2-  O402  1  0.41691210  0.41822984  0.11132759  1
  O2-  O403  1  0.41198771  0.41441153  0.44995802  1
  O2-  O404  1  0.41970713  0.41626351  0.79047505  1
  O2-  O405  1  0.43112007  0.91968611  0.11755916  1
  O2-  O406  1  0.42290910  0.92211867  0.44956550  1
  O2-  O407  1  0.40599132  0.91860381  0.78285014  1
  O2-  O408  1  0.73951370  0.41269658  0.10286408  1
  O2-  O409  1  0.75577792  0.42102376  0.44948689  1
  O2-  O410  1  0.76296218  0.41270536  0.78642626  1
  O2-  O411  1  0.75652022  0.91683836  0.08117583  1
  O2-  O412  1  0.73772941  0.91656719  0.43811439  1
  O2-  O413  1  0.76305416  0.92645832  0.78710804  1
  O2-  O414  1  0.25301673  0.42402763  0.20473585  1
  O2-  O415  1  0.26351519  0.42593468  0.54752828  1
  O2-  O416  1  0.24559494  0.41650613  0.91590378  1
  O2-  O417  1  0.24070818  0.91267590  0.23739452  1
  O2-  O418  1  0.26199275  0.91832196  0.55586822  1
  O2-  O419  1  0.25122149  0.91970219  0.89223815  1
  O2-  O420  1  0.58078350  0.42552237  0.21704833  1
  O2-  O421  1  0.57003961  0.41916136  0.54741137  1
  O2-  O422  1  0.59260929  0.41840419  0.88633874  1
  O2-  O423  1  0.58217806  0.91793787  0.21912269  1
  O2-  O424  1  0.56913656  0.91868828  0.54661701  1
  O2-  O425  1  0.57141265  0.91583917  0.88650897  1
  O2-  O426  1  0.91103694  0.41529253  0.21889244  1
  O2-  O427  1  0.92041523  0.41638669  0.55573409  1
  O2-  O428  1  0.90455991  0.42210677  0.89319734  1
  O2-  O429  1  0.93506031  0.92421401  0.21788726  1
  O2-  O430  1  0.92264571  0.91357218  0.55663862  1
  O2-  O431  1  0.90968343  0.92020287  0.89153675  1
  O2-  O432  1  -0.01600454  -0.00138312  0.01701909  1
  O2-  O433  1  0.00098766  -0.01207619  0.33690000  1
  O2-  O434  1  0.01038676  -0.00838268  0.64331831  1
  O2-  O435  1  0.00724155  0.50564462  -0.02021289  1
  O2-  O436  1  -0.01290747  0.50215975  0.33741637  1
  O2-  O437  1  0.00241941  0.48935749  0.66473350  1
  O2-  O438  1  0.33758397  0.01479335  -0.01112670  1
  O2-  O439  1  0.35552857  0.01762565  0.30536015  1
  O2-  O440  1  0.33980399  -0.00509968  0.65382338  1
  O2-  O441  1  0.31271994  0.50600817  0.05353162  1
  O2-  O442  1  0.33280390  0.47785883  0.33302700  1
  O2-  O443  1  0.33697244  0.48948999  0.67285746  1
  O2-  O444  1  0.67432173  -0.00840596  -0.02559622  1
  O2-  O445  1  0.68648007  0.01940124  0.31426856  1
  O2-  O446  1  0.66192000  0.00431389  0.67712069  1
  O2-  O447  1  0.64235991  0.49074428  0.03163596  1
  O2-  O448  1  0.66570594  0.50555621  0.33022739  1
  O2-  O449  1  0.67450747  0.47978217  0.67042137  1
  O2-  O450  1  0.14085106  0.00170076  -0.03030049  1
  O2-  O451  1  0.16911883  -0.00139896  0.34129499  1
  O2-  O452  1  0.18175724  -0.00028866  0.68550241  1
  O2-  O453  1  0.16779846  0.51383055  0.02343685  1
  O2-  O454  1  0.17899994  0.49964970  0.34718704  1
  O2-  O455  1  0.17062414  0.49761894  0.67692597  1
  O2-  O456  1  0.50884577  0.00784682  0.00508185  1
  O2-  O457  1  0.51102087  -0.01274657  0.34628669  1
  O2-  O458  1  0.49555822  0.00286715  0.64927938  1
  O2-  O459  1  0.49086172  0.51004827  -0.00363333  1
  O2-  O460  1  0.50664646  0.48701894  0.34536921  1
  O2-  O461  1  0.50383157  0.47508982  0.67681328  1
  O2-  O462  1  0.82423732  0.00469621  -0.03447502  1
  O2-  O463  1  0.83721268  0.00164800  0.32621839  1
  O2-  O464  1  0.83223718  0.00613320  0.67270920  1
  O2-  O465  1  0.78552838  0.51014865  -0.08209899  1
  O2-  O466  1  0.82347759  0.50203796  0.31172171  1
  O2-  O467  1  0.82630467  0.50129070  0.66023161  1
  O2-  O468  1  0.91984569  0.75097588  0.61004600  1
  O2-  O469  1  0.74788025  0.24771170  0.05882379  1
  O2-  O470  1  0.25830114  0.74894651  0.25791535  1
  O2-  O471  1  0.91232332  0.25358526  0.27138373  1
  O2-  O472  1  0.74908169  0.74949852  0.05509907  1
  O2-  O473  1  0.25381111  0.74966502  0.61275736  1
  O2-  O474  1  0.57791748  0.74886379  0.94359959  1
  O2-  O475  1  0.58615139  0.25109851  0.94170813  1
  O2-  O476  1  0.08823727  0.74702635  0.71206146  1
  O2-  O477  1  0.74064906  0.25108752  0.39268212  1
  O2-  O478  1  0.10152098  0.25265985  0.72387793  1
  O2-  O479  1  0.41866421  0.74803550  0.72036126  1
  O2-  O480  1  0.25667855  0.25276871  0.27913923  1
  O2-  O481  1  0.41166421  0.25152919  0.72476384  1
  O2-  O482  1  0.73791061  0.25047142  0.72576181  1
  O2-  O483  1  0.24332222  0.25100793  0.60744826  1
  O2-  O484  1  0.09855610  0.24994641  0.39761566  1
  O2-  O485  1  0.58740104  0.25581093  0.60241533  1
  O2-  O486  1  0.90831126  0.76010167  0.26569481  1
  O2-  O487  1  0.42260575  0.25440809  0.06615812  1
  O2-  O488  1  0.57086309  0.74297828  0.61171722  1
  O2-  O489  1  0.41012217  0.24749174  0.38647781  1
  O2-  O490  1  0.41440785  0.74910081  0.05624805  1
  O2-  O491  1  0.75615977  0.74968706  0.39241921  1
  O2-  O492  1  0.74854222  0.75732280  0.73470295  1
