# generated using pymatgen
data_Ca108Mn108O277
_symmetry_space_group_name_H-M   'P 1'
_cell_length_a   16.01661257
_cell_length_b   22.29237218
_cell_length_c   16.38034030
_cell_angle_alpha   89.99996588
_cell_angle_beta   89.99995923
_cell_angle_gamma   89.99925742
_symmetry_Int_Tables_number   1
_chemical_formula_structural   Ca108Mn108O277
_chemical_formula_sum   'Ca108 Mn108 O277'
_cell_volume   5848.57246767
_cell_formula_units_Z   1
loop_
 _symmetry_equiv_pos_site_id
 _symmetry_equiv_pos_as_xyz
  1  'x, y, z'
loop_
 _atom_type_symbol
 _atom_type_oxidation_number
  Ca2+  2.0
  Mn3.34+  3.34
  O2-  -2.0
loop_
 _atom_site_type_symbol
 _atom_site_label
 _atom_site_symmetry_multiplicity
 _atom_site_fract_x
 _atom_site_fract_y
 _atom_site_fract_z
 _atom_site_occupancy
  Ca2+  Ca0  1  0.06824570  0.25516165  0.24698273  1
  Ca2+  Ca1  1  0.10281995  0.24645643  0.59334329  1
  Ca2+  Ca2  1  0.07274922  0.25648982  0.91667382  1
  Ca2+  Ca3  1  0.08884272  0.74265222  0.24841524  1
  Ca2+  Ca4  1  0.09436987  0.74883456  0.56070767  1
  Ca2+  Ca5  1  0.09727466  0.73623798  0.92426086  1
  Ca2+  Ca6  1  0.42734441  0.25673699  0.23377869  1
  Ca2+  Ca7  1  0.42174580  0.23540574  0.59683231  1
  Ca2+  Ca8  1  0.42574603  0.24734404  0.91678339  1
  Ca2+  Ca9  1  0.40412148  0.74616718  0.24622577  1
  Ca2+  Ca10  1  0.40505505  0.75062846  0.57604273  1
  Ca2+  Ca11  1  0.39940116  0.74304454  0.92250314  1
  Ca2+  Ca12  1  0.76110646  0.24944390  0.25172114  1
  Ca2+  Ca13  1  0.73033050  0.24516591  0.58566589  1
  Ca2+  Ca14  1  0.75359260  0.26617821  0.92030569  1
  Ca2+  Ca15  1  0.75613880  0.75893143  0.25539978  1
  Ca2+  Ca16  1  0.74964710  0.75900519  0.56907556  1
  Ca2+  Ca17  1  0.74022162  0.76402105  0.92491729  1
  Ca2+  Ca18  1  0.27027438  0.23807779  0.09419921  1
  Ca2+  Ca19  1  0.24411600  0.25898386  0.43536573  1
  Ca2+  Ca20  1  0.26161419  0.23682745  0.73035248  1
  Ca2+  Ca21  1  0.24628424  0.74597460  0.07631652  1
  Ca2+  Ca22  1  0.23440777  0.73469008  0.40602645  1
  Ca2+  Ca23  1  0.26056325  0.75075753  0.76266259  1
  Ca2+  Ca24  1  0.56247023  0.24410653  0.09423559  1
  Ca2+  Ca25  1  0.59012981  0.24778642  0.42503842  1
  Ca2+  Ca26  1  0.56026655  0.24397662  0.73827559  1
  Ca2+  Ca27  1  0.56820473  0.75356989  0.07456039  1
  Ca2+  Ca28  1  0.57319483  0.75557828  0.41137519  1
  Ca2+  Ca29  1  0.57296701  0.75462690  0.76649647  1
  Ca2+  Ca30  1  0.92249027  0.25296687  0.10772228  1
  Ca2+  Ca31  1  0.91491079  0.25062402  0.39837613  1
  Ca2+  Ca32  1  0.92886942  0.25217534  0.74755907  1
  Ca2+  Ca33  1  0.93364403  0.75221112  0.08521000  1
  Ca2+  Ca34  1  0.93914352  0.74389789  0.39843160  1
  Ca2+  Ca35  1  0.91958035  0.76160593  0.75206619  1
  Ca2+  Ca36  1  0.54869146  0.09311247  0.73006939  1
  Ca2+  Ca37  1  0.40251595  0.59663213  0.59665719  1
  Ca2+  Ca38  1  0.41318046  0.09082701  0.90995298  1
  Ca2+  Ca39  1  0.05805989  0.09508245  0.24172542  1
  Ca2+  Ca40  1  0.71785533  0.07805178  0.91272554  1
  Ca2+  Ca41  1  0.75820781  0.58311586  0.55993327  1
  Ca2+  Ca42  1  0.10025551  0.07419571  0.91581401  1
  Ca2+  Ca43  1  0.26822138  0.61150929  0.77019809  1
  Ca2+  Ca44  1  0.93269693  0.60408468  0.77363829  1
  Ca2+  Ca45  1  0.42376590  0.09086682  0.90662793  1
  Ca2+  Ca46  1  0.72947807  0.08091258  0.91476046  1
  Ca2+  Ca47  1  0.09709927  0.60336575  0.56233952  1
  Ca2+  Ca48  1  0.58069560  0.58049196  0.38927792  1
  Ca2+  Ca49  1  0.25016055  0.60327137  0.07528349  1
  Ca2+  Ca50  1  0.76022755  0.59037753  0.92631998  1
  Ca2+  Ca51  1  0.92989705  0.08845940  0.08796540  1
  Ca2+  Ca52  1  0.56948074  0.08989961  0.08282762  1
  Ca2+  Ca53  1  0.59254483  0.58035735  0.38965263  1
  Ca2+  Ca54  1  0.25190485  0.09913817  0.42690217  1
  Ca2+  Ca55  1  0.40436562  0.60405609  0.92046923  1
  Ca2+  Ca56  1  0.09845217  0.09295573  0.60153490  1
  Ca2+  Ca57  1  0.43533342  0.09807447  0.23884141  1
  Ca2+  Ca58  1  0.55462011  0.09746749  0.72453030  1
  Ca2+  Ca59  1  0.52284494  0.59258840  0.76334083  1
  Ca2+  Ca60  1  0.06715578  0.09122634  0.23826224  1
  Ca2+  Ca61  1  0.93086812  0.08882946  0.73313639  1
  Ca2+  Ca62  1  0.94543335  0.60280444  0.77091029  1
  Ca2+  Ca63  1  0.27779747  0.60919649  0.76769977  1
  Ca2+  Ca64  1  0.11209492  0.07216613  0.91361442  1
  Ca2+  Ca65  1  0.42312763  0.09730935  0.23934037  1
  Ca2+  Ca66  1  0.75699419  0.09748448  0.26433187  1
  Ca2+  Ca67  1  0.75317612  0.58438160  0.26382791  1
  Ca2+  Ca68  1  0.72323703  0.10876690  0.57836727  1
  Ca2+  Ca69  1  0.74745522  0.59040840  0.92615794  1
  Ca2+  Ca70  1  0.74422144  0.58014043  0.26364649  1
  Ca2+  Ca71  1  0.08087371  0.60109408  0.25965486  1
  Ca2+  Ca72  1  0.76236240  0.40170604  0.56906874  1
  Ca2+  Ca73  1  0.26725163  0.40942100  0.08395481  1
  Ca2+  Ca74  1  0.07703837  0.41116123  0.91613868  1
  Ca2+  Ca75  1  0.09106779  0.90610395  0.58916225  1
  Ca2+  Ca76  1  0.42707811  0.90094163  0.25127446  1
  Ca2+  Ca77  1  0.57627932  0.91279506  0.76142803  1
  Ca2+  Ca78  1  0.41134726  0.41596260  0.91574552  1
  Ca2+  Ca79  1  0.07319287  0.90208814  0.23257414  1
  Ca2+  Ca80  1  0.56742413  0.41684919  0.09479909  1
  Ca2+  Ca81  1  0.24769844  0.91761493  0.76212372  1
  Ca2+  Ca82  1  0.25456712  0.40988121  0.08352043  1
  Ca2+  Ca83  1  0.25998558  0.91533403  0.76165264  1
  Ca2+  Ca84  1  0.91936942  0.40001083  0.74487823  1
  Ca2+  Ca85  1  0.08347373  0.39688054  0.57985102  1
  Ca2+  Ca86  1  0.57480468  0.91039857  0.39981879  1
  Ca2+  Ca87  1  0.08235197  0.90020623  0.23695556  1
  Ca2+  Ca88  1  0.42402565  0.41584830  0.91614298  1
  Ca2+  Ca89  1  0.07863492  0.40685663  0.25677112  1
  Ca2+  Ca90  1  0.74492715  0.41837928  0.26506691  1
  Ca2+  Ca91  1  0.74964895  0.40082772  0.57189983  1
  Ca2+  Ca92  1  0.73440198  0.41837025  0.26687765  1
  Ca2+  Ca93  1  0.58839714  0.90641448  0.08154786  1
  Ca2+  Ca94  1  0.74576015  0.90640936  0.59315267  1
  Ca2+  Ca95  1  0.07953662  0.90583472  0.59010851  1
  Ca2+  Ca96  1  0.92043781  0.90000020  0.40779945  1
  Ca2+  Ca97  1  0.41189421  0.39741573  0.58344077  1
  Ca2+  Ca98  1  0.55534967  0.41972732  0.09643826  1
  Ca2+  Ca99  1  0.73451000  0.90694654  0.59103567  1
  Ca2+  Ca100  1  0.56823355  0.40416617  0.75140201  1
  Ca2+  Ca101  1  0.42158407  0.90519955  0.58631215  1
  Ca2+  Ca102  1  0.91599619  0.40615814  0.08489057  1
  Ca2+  Ca103  1  0.42014276  0.90696866  0.91390023  1
  Ca2+  Ca104  1  0.26277563  0.41065428  0.74514991  1
  Ca2+  Ca105  1  0.57936683  0.40894750  0.40204833  1
  Ca2+  Ca106  1  0.09912540  0.91299118  0.93215340  1
  Ca2+  Ca107  1  0.08996619  0.41097049  0.91606843  1
  Mn3.34+  Mn108  1  0.08597956  0.33249400  0.08775484  1
  Mn3.34+  Mn109  1  0.08179260  0.33702840  0.41777926  1
  Mn3.34+  Mn110  1  0.08700688  0.33138996  0.74996221  1
  Mn3.34+  Mn111  1  0.08435641  0.83485666  0.07856433  1
  Mn3.34+  Mn112  1  0.08737281  0.83367643  0.41532204  1
  Mn3.34+  Mn113  1  0.08206993  0.83938202  0.76115080  1
  Mn3.34+  Mn114  1  0.41563315  0.33045552  0.08411385  1
  Mn3.34+  Mn115  1  0.41205402  0.33653532  0.41348897  1
  Mn3.34+  Mn116  1  0.41452755  0.33114488  0.75215324  1
  Mn3.34+  Mn117  1  0.41304237  0.83060741  0.08323744  1
  Mn3.34+  Mn118  1  0.41090152  0.83322417  0.41544425  1
  Mn3.34+  Mn119  1  0.41623335  0.83789727  0.75441556  1
  Mn3.34+  Mn120  1  0.74815942  0.33615123  0.08454483  1
  Mn3.34+  Mn121  1  0.75254984  0.33298535  0.41743163  1
  Mn3.34+  Mn122  1  0.74746266  0.32443251  0.74960456  1
  Mn3.34+  Mn123  1  0.75427633  0.83702356  0.08226201  1
  Mn3.34+  Mn124  1  0.74940974  0.83197778  0.41145036  1
  Mn3.34+  Mn125  1  0.75230338  0.83546093  0.75930887  1
  Mn3.34+  Mn126  1  0.25415929  0.33101592  0.25615609  1
  Mn3.34+  Mn127  1  0.25271754  0.32926334  0.58226485  1
  Mn3.34+  Mn128  1  0.25031681  0.32863670  0.91436611  1
  Mn3.34+  Mn129  1  0.25226918  0.83212041  0.24717954  1
  Mn3.34+  Mn130  1  0.25325511  0.83264061  0.58008295  1
  Mn3.34+  Mn131  1  0.25082421  0.83257320  0.92145596  1
  Mn3.34+  Mn132  1  0.58171446  0.33247430  0.25060210  1
  Mn3.34+  Mn133  1  0.57887221  0.32699066  0.58057493  1
  Mn3.34+  Mn134  1  0.58789636  0.33335900  0.91283610  1
  Mn3.34+  Mn135  1  0.58656312  0.83963438  0.24351996  1
  Mn3.34+  Mn136  1  0.57834647  0.83673467  0.58106645  1
  Mn3.34+  Mn137  1  0.58303566  0.83954150  0.91810152  1
  Mn3.34+  Mn138  1  0.91606525  0.33599368  0.25148003  1
  Mn3.34+  Mn139  1  0.91887539  0.32504200  0.57827066  1
  Mn3.34+  Mn140  1  0.91036556  0.33749545  0.91564130  1
  Mn3.34+  Mn141  1  0.91054291  0.83129322  0.24310925  1
  Mn3.34+  Mn142  1  0.91626478  0.83328603  0.58416471  1
  Mn3.34+  Mn143  1  0.91937125  0.82842012  0.91843268  1
  Mn3.34+  Mn144  1  0.74267762  0.67083012  0.08826956  1
  Mn3.34+  Mn145  1  0.42244218  0.16484306  0.42408467  1
  Mn3.34+  Mn146  1  0.92445497  0.66164121  0.57416151  1
  Mn3.34+  Mn147  1  0.75666929  0.16043548  0.08747242  1
  Mn3.34+  Mn148  1  0.58376373  0.16916674  0.91266737  1
  Mn3.34+  Mn149  1  0.41454018  0.17123200  0.42198583  1
  Mn3.34+  Mn150  1  0.58631435  0.16635411  0.25280705  1
  Mn3.34+  Mn151  1  0.58812909  0.67066251  0.58334319  1
  Mn3.34+  Mn152  1  0.09102143  0.67362124  0.74958903  1
  Mn3.34+  Mn153  1  0.92298214  0.16826588  0.91470109  1
  Mn3.34+  Mn154  1  0.24878979  0.66724763  0.24730034  1
  Mn3.34+  Mn155  1  0.40885446  0.66497996  0.41281173  1
  Mn3.34+  Mn156  1  0.75530830  0.66606465  0.08816811  1
  Mn3.34+  Mn157  1  0.08652084  0.16456447  0.74816488  1
  Mn3.34+  Mn158  1  0.07136952  0.16305502  0.42137295  1
  Mn3.34+  Mn159  1  0.08473292  0.16972851  0.41990882  1
  Mn3.34+  Mn160  1  0.91098245  0.17536023  0.58201039  1
  Mn3.34+  Mn161  1  0.57349323  0.66152988  0.24116079  1
  Mn3.34+  Mn162  1  0.74540124  0.16661721  0.08624564  1
  Mn3.34+  Mn163  1  0.25046956  0.67026595  0.57865265  1
  Mn3.34+  Mn164  1  0.41535817  0.66014631  0.08754739  1
  Mn3.34+  Mn165  1  0.91247568  0.16328086  0.91293488  1
  Mn3.34+  Mn166  1  0.24664435  0.17396433  0.91568375  1
  Mn3.34+  Mn167  1  0.92078758  0.66544360  0.24898198  1
  Mn3.34+  Mn168  1  0.75359642  0.17108065  0.41785494  1
  Mn3.34+  Mn169  1  0.74712663  0.17014609  0.75280215  1
  Mn3.34+  Mn170  1  0.07804179  0.66541343  0.07709028  1
  Mn3.34+  Mn171  1  0.57488589  0.66422474  0.58250019  1
  Mn3.34+  Mn172  1  0.75218654  0.67210466  0.74875835  1
  Mn3.34+  Mn173  1  0.08654042  0.16706166  0.08679087  1
  Mn3.34+  Mn174  1  0.57544384  0.66933043  0.91900339  1
  Mn3.34+  Mn175  1  0.74161775  0.66698650  0.75037295  1
  Mn3.34+  Mn176  1  0.91412994  0.66663833  0.57501853  1
  Mn3.34+  Mn177  1  0.25088363  0.17150200  0.25117532  1
  Mn3.34+  Mn178  1  0.74842164  0.66734956  0.41302156  1
  Mn3.34+  Mn179  1  0.25455151  0.16742099  0.91453147  1
  Mn3.34+  Mn180  1  0.90918429  -0.01055241  0.91786672  1
  Mn3.34+  Mn181  1  0.25749650  0.00625396  0.58707548  1
  Mn3.34+  Mn182  1  0.57805437  0.49552210  0.57913546  1
  Mn3.34+  Mn183  1  0.74944820  -0.00114507  0.74835171  1
  Mn3.34+  Mn184  1  0.57981548  0.50249160  0.92307539  1
  Mn3.34+  Mn185  1  0.74235464  0.00481619  0.41175813  1
  Mn3.34+  Mn186  1  0.07981782  0.50231309  0.08456035  1
  Mn3.34+  Mn187  1  0.39532551  -0.00598272  0.06749095  1
  Mn3.34+  Mn188  1  0.25641923  0.50154740  0.57206724  1
  Mn3.34+  Mn189  1  0.91867301  -0.00494938  0.91523340  1
  Mn3.34+  Mn190  1  0.91765917  0.49874661  0.92477970  1
  Mn3.34+  Mn191  1  0.74400490  -0.00289855  0.08103953  1
  Mn3.34+  Mn192  1  0.57750154  0.00361841  0.58856096  1
  Mn3.34+  Mn193  1  0.25393144  0.50160399  0.25831034  1
  Mn3.34+  Mn194  1  0.74582728  0.49360038  0.75299793  1
  Mn3.34+  Mn195  1  0.25835111  -0.00373855  0.24308686  1
  Mn3.34+  Mn196  1  0.40983311  -0.00320954  0.07346404  1
  Mn3.34+  Mn197  1  0.92791120  0.49636449  0.58119128  1
  Mn3.34+  Mn198  1  0.91164234  -0.00476675  0.24303004  1
  Mn3.34+  Mn199  1  0.42285653  -0.00002815  0.40617914  1
  Mn3.34+  Mn200  1  0.08558360  0.50112592  0.74770896  1
  Mn3.34+  Mn201  1  0.24608822  0.49677054  0.57198727  1
  Mn3.34+  Mn202  1  0.75821308  0.49902942  0.75289961  1
  Mn3.34+  Mn203  1  0.75590632  -0.00012590  0.41648830  1
  Mn3.34+  Mn204  1  0.24958545  0.50275622  0.92493351  1
  Mn3.34+  Mn205  1  0.75048230  0.50096044  0.08172060  1
  Mn3.34+  Mn206  1  0.91049530  0.00715549  0.57707978  1
  Mn3.34+  Mn207  1  0.07933624  0.49833596  0.40884417  1
  Mn3.34+  Mn208  1  0.42095328  0.49966545  0.41653194  1
  Mn3.34+  Mn209  1  0.91978055  0.50230104  0.25915779  1
  Mn3.34+  Mn210  1  0.24531406  0.00273407  0.24375959  1
  Mn3.34+  Mn211  1  0.92145518  0.00307879  0.57456619  1
  Mn3.34+  Mn212  1  0.26424998  0.50662367  0.25734250  1
  Mn3.34+  Mn213  1  0.07778185  0.00046402  0.41062564  1
  Mn3.34+  Mn214  1  0.26767143  0.00144626  0.58561616  1
  Mn3.34+  Mn215  1  0.56610781  0.49887919  0.58294940  1
  O2-  O216  1  0.00539540  0.14783518  -0.00310244  1
  O2-  O217  1  0.00543570  0.15968574  0.32938540  1
  O2-  O218  1  -0.00386682  0.16564156  0.66703013  1
  O2-  O219  1  -0.00104059  0.67802362  0.00323080  1
  O2-  O220  1  -0.00391314  0.66519192  0.32698780  1
  O2-  O221  1  0.00341507  0.66408763  0.66492212  1
  O2-  O222  1  0.33654546  0.16825859  -0.00630323  1
  O2-  O223  1  0.33544519  0.16164325  0.33756702  1
  O2-  O224  1  0.34487625  0.16765772  0.66903588  1
  O2-  O225  1  0.33588953  0.66505159  0.00622644  1
  O2-  O226  1  0.33226030  0.66894514  0.33179132  1
  O2-  O227  1  0.33119666  0.66417243  0.66418827  1
  O2-  O228  1  0.66997224  0.15703315  -0.00043113  1
  O2-  O229  1  0.67160280  0.17135793  0.32980831  1
  O2-  O230  1  0.66054632  0.16233264  0.68143919  1
  O2-  O231  1  0.66692416  0.65375223  0.00158059  1
  O2-  O232  1  0.66294407  0.66788845  0.33210774  1
  O2-  O233  1  0.67212305  0.64595367  0.65860211  1
  O2-  O234  1  0.16653688  0.16719174  -0.00196980  1
  O2-  O235  1  0.16770682  0.15655330  0.33437692  1
  O2-  O236  1  0.16345408  0.16358207  0.67154990  1
  O2-  O237  1  0.16361896  0.66544159  0.00825846  1
  O2-  O238  1  0.16739113  0.66493725  0.32266114  1
  O2-  O239  1  0.16866145  0.66024172  0.66426953  1
  O2-  O240  1  0.50539006  0.15884134  -0.00669010  1
  O2-  O241  1  0.49630985  0.16712680  0.33410650  1
  O2-  O242  1  0.49238126  0.16765848  0.67086828  1
  O2-  O243  1  0.49707361  0.66438636  -0.00090442  1
  O2-  O244  1  0.50655198  0.66266168  0.33729954  1
  O2-  O245  1  0.49964649  0.66784426  0.66819018  1
  O2-  O246  1  0.82857821  0.14468698  -0.00474194  1
  O2-  O247  1  0.82623530  0.18022654  0.33513986  1
  O2-  O248  1  0.82805717  0.17941366  0.66693813  1
  O2-  O249  1  0.82293090  0.66287115  -0.00463695  1
  O2-  O250  1  0.82379682  0.65783077  0.32764359  1
  O2-  O251  1  0.84064634  0.64698580  0.66424949  1
  O2-  O252  1  0.00752143  0.35017621  -0.00158554  1
  O2-  O253  1  0.00117894  0.34046682  0.32926225  1
  O2-  O254  1  -0.00164505  0.33655150  0.66782838  1
  O2-  O255  1  0.00337335  0.82468151  -0.00350961  1
  O2-  O256  1  0.00279605  0.84079412  0.33219972  1
  O2-  O257  1  0.00709844  0.83391544  0.66588112  1
  O2-  O258  1  0.33285946  0.34225154  -0.00195597  1
  O2-  O259  1  0.33520931  0.30050622  0.33370316  1
  O2-  O260  1  0.33229804  0.34359280  0.67021026  1
  O2-  O261  1  0.34152440  0.84111744  -0.00669585  1
  O2-  O262  1  0.33770448  0.83901782  0.32783829  1
  O2-  O263  1  0.33119171  0.83949037  0.67124738  1
  O2-  O264  1  0.65964015  0.33221519  0.00418797  1
  O2-  O265  1  0.66932288  0.33809999  0.33220475  1
  O2-  O266  1  0.67133679  0.34129168  0.66028569  1
  O2-  O267  1  0.66408326  0.83927704  0.00256614  1
  O2-  O268  1  0.65982147  0.82563647  0.33366190  1
  O2-  O269  1  0.66063814  0.84613610  0.66448614  1
  O2-  O270  1  0.17109209  0.34563065  0.00092905  1
  O2-  O271  1  0.16434977  0.33068653  0.32730275  1
  O2-  O272  1  0.16889158  0.34406524  0.66878422  1
  O2-  O273  1  0.16350812  0.83551540  -0.00420595  1
  O2-  O274  1  0.15982583  0.84623175  0.32544962  1
  O2-  O275  1  0.16686736  0.84255180  0.66677184  1
  O2-  O276  1  0.49820438  0.34311675  -0.00342499  1
  O2-  O277  1  0.50229518  0.33031645  0.33652356  1
  O2-  O278  1  0.49975376  0.34412665  0.66808801  1
  O2-  O279  1  0.50275102  0.84223197  0.00495517  1
  O2-  O280  1  0.50346455  0.83381032  0.33233687  1
  O2-  O281  1  0.49617829  0.83406287  0.66847599  1
  O2-  O282  1  0.83533104  0.34264784  0.00664004  1
  O2-  O283  1  0.82739568  0.33548341  0.32922877  1
  O2-  O284  1  0.83189923  0.32137314  0.66275825  1
  O2-  O285  1  0.83790677  0.81925642  -0.00004361  1
  O2-  O286  1  0.83823857  0.83626615  0.33670443  1
  O2-  O287  1  0.82805446  0.84315465  0.66279982  1
  O2-  O288  1  0.00489274  0.17176409  0.16276550  1
  O2-  O289  1  0.00044572  0.18459573  0.50756542  1
  O2-  O290  1  0.00073004  0.17844364  0.82974124  1
  O2-  O291  1  0.00091695  0.67458248  0.17151451  1
  O2-  O292  1  0.00460270  0.67808404  0.49895827  1
  O2-  O293  1  -0.00051808  0.68468461  0.81792959  1
  O2-  O294  1  0.33924508  0.18210863  0.18523021  1
  O2-  O295  1  0.33006909  0.18320553  0.49336133  1
  O2-  O296  1  0.33729425  0.17749494  0.83825676  1
  O2-  O297  1  0.33018460  0.67835659  0.16278019  1
  O2-  O298  1  0.33976758  0.67329449  0.50616987  1
  O2-  O299  1  0.33990121  0.68228642  0.82891099  1
  O2-  O300  1  0.66498994  0.17234820  0.16813141  1
  O2-  O301  1  0.67517260  0.18510536  0.49548324  1
  O2-  O302  1  0.67620380  0.18587201  0.84440424  1
  O2-  O303  1  0.66735566  0.67979597  0.17391436  1
  O2-  O304  1  0.66339682  0.67400067  0.49726393  1
  O2-  O305  1  0.67117971  0.67231615  0.84558126  1
  O2-  O306  1  0.16467161  0.18441565  0.17331136  1
  O2-  O307  1  0.16339310  0.17700427  0.49734075  1
  O2-  O308  1  0.16232687  0.18211118  0.83936992  1
  O2-  O309  1  0.16705807  0.67409439  0.16729260  1
  O2-  O310  1  0.16977693  0.67730279  0.50392823  1
  O2-  O311  1  0.17493883  0.67915345  0.82041760  1
  O2-  O312  1  0.50091010  0.17250407  0.17431023  1
  O2-  O313  1  0.50095431  0.18720840  0.49610267  1
  O2-  O314  1  0.50197659  0.17896485  0.83866295  1
  O2-  O315  1  0.49912185  0.68631542  0.16813020  1
  O2-  O316  1  0.49927459  0.67655027  0.49811417  1
  O2-  O317  1  0.50247610  0.67770007  0.83769524  1
  O2-  O318  1  0.83543366  0.17255919  0.16539261  1
  O2-  O319  1  0.83373626  0.19345047  0.50115813  1
  O2-  O320  1  0.83319644  0.18421068  0.83007681  1
  O2-  O321  1  0.82858037  0.67668448  0.17319577  1
  O2-  O322  1  0.82158294  0.66966829  0.50427713  1
  O2-  O323  1  0.83883696  0.67503236  0.82873692  1
  O2-  O324  1  -0.00131352  0.33259959  0.16459417  1
  O2-  O325  1  0.00376322  0.31614668  0.50547262  1
  O2-  O326  1  0.00234599  0.32853577  0.83481931  1
  O2-  O327  1  0.00329024  0.82462219  0.17178309  1
  O2-  O328  1  0.00036498  0.82704369  0.50269260  1
  O2-  O329  1  0.00649680  0.80911994  0.83617205  1
  O2-  O330  1  0.32892967  0.32378286  0.16165660  1
  O2-  O331  1  0.33965401  0.31978563  0.50330257  1
  O2-  O332  1  0.33595147  0.32124546  0.83959762  1
  O2-  O333  1  0.33811786  0.82629229  0.17095436  1
  O2-  O334  1  0.34128233  0.82886443  0.50907194  1
  O2-  O335  1  0.33172761  0.82374448  0.82955560  1
  O2-  O336  1  0.66615470  0.32804029  0.16627748  1
  O2-  O337  1  0.67008473  0.32023353  0.49983577  1
  O2-  O338  1  0.66126291  0.30924653  0.82697630  1
  O2-  O339  1  0.66232405  0.81797109  0.16723655  1
  O2-  O340  1  0.66992733  0.83336487  0.50538080  1
  O2-  O341  1  0.66066383  0.82604647  0.82916875  1
  O2-  O342  1  0.17230955  0.32026204  0.16397504  1
  O2-  O343  1  0.16255834  0.32392961  0.50638631  1
  O2-  O344  1  0.16131696  0.32299732  0.84230698  1
  O2-  O345  1  0.16100110  0.82831325  0.17236981  1
  O2-  O346  1  0.16074425  0.83179261  0.50890643  1
  O2-  O347  1  0.17228730  0.82102601  0.82644485  1
  O2-  O348  1  0.50576650  0.33228430  0.15861656  1
  O2-  O349  1  0.50095977  0.32254405  0.49784850  1
  O2-  O350  1  0.49918992  0.31943474  0.83677064  1
  O2-  O351  1  0.50104006  0.82023793  0.17026464  1
  O2-  O352  1  0.50135371  0.82768481  0.49872173  1
  O2-  O353  1  0.49538791  0.82109145  0.83446262  1
  O2-  O354  1  0.82957851  0.33135930  0.16959157  1
  O2-  O355  1  0.82876079  0.31450625  0.50167139  1
  O2-  O356  1  0.83561000  0.31489792  0.82427438  1
  O2-  O357  1  0.83204278  0.82034493  0.16494481  1
  O2-  O358  1  0.82734789  0.83829151  0.50591161  1
  O2-  O359  1  0.83388354  0.81166375  0.83677744  1
  O2-  O360  1  0.08486518  0.08326617  0.10883835  1
  O2-  O361  1  0.09077399  0.08203140  0.44871149  1
  O2-  O362  1  0.07348573  0.08258521  0.77849577  1
  O2-  O363  1  0.08931938  0.58154465  0.10764059  1
  O2-  O364  1  0.08115679  0.57111110  0.43953544  1
  O2-  O365  1  0.07707948  0.58221066  0.77361345  1
  O2-  O366  1  0.41621737  0.07569800  0.11089289  1
  O2-  O367  1  0.40322107  0.08021749  0.43714351  1
  O2-  O368  1  0.44368230  0.06325330  0.79009934  1
  O2-  O369  1  0.40263012  0.58185364  0.08843213  1
  O2-  O370  1  0.43567180  0.57960919  0.44722247  1
  O2-  O371  1  0.39628374  0.57204680  0.78623231  1
  O2-  O372  1  0.74951907  0.07663053  0.12528992  1
  O2-  O373  1  0.74539345  0.08384482  0.43724949  1
  O2-  O374  1  0.74958216  0.07982015  0.77962279  1
  O2-  O375  1  0.74869457  0.58257755  0.11637486  1
  O2-  O376  1  0.72973175  0.58297755  0.42520620  1
  O2-  O377  1  0.75273878  0.57927840  0.78280703  1
  O2-  O378  1  0.25848944  0.08294389  0.22930682  1
  O2-  O379  1  0.23989628  0.08326916  0.55715638  1
  O2-  O380  1  0.24641018  0.08414944  0.89076585  1
  O2-  O381  1  0.24471292  0.58374943  0.21873902  1
  O2-  O382  1  0.24877671  0.58410297  0.56295192  1
  O2-  O383  1  0.25748678  0.57884744  0.89982225  1
  O2-  O384  1  0.56988434  0.08428422  0.22727735  1
  O2-  O385  1  0.58727097  0.08111470  0.58293047  1
  O2-  O386  1  0.59268666  0.08123255  0.87309428  1
  O2-  O387  1  0.59878866  0.58270108  0.24721234  1
  O2-  O388  1  0.58948522  0.57975745  0.54844392  1
  O2-  O389  1  0.59169419  0.58070765  0.89025413  1
  O2-  O390  1  0.92209387  0.07477161  0.21923454  1
  O2-  O391  1  0.90738651  0.08931166  0.56947685  1
  O2-  O392  1  0.90240018  0.07499428  0.86992145  1
  O2-  O393  1  0.90300188  0.58131704  0.23155868  1
  O2-  O394  1  0.91489232  0.57900737  0.55310101  1
  O2-  O395  1  0.88986027  0.57481141  0.88610323  1
  O2-  O396  1  0.09559939  0.41994122  0.11473301  1
  O2-  O397  1  0.07972160  0.42045517  0.44537066  1
  O2-  O398  1  0.08637917  0.41943114  0.77859848  1
  O2-  O399  1  0.07854713  0.91647510  0.10090854  1
  O2-  O400  1  0.07010051  0.92065611  0.45182851  1
  O2-  O401  1  0.10593869  0.91980167  0.76963797  1
  O2-  O402  1  0.41427357  0.41634639  0.09678416  1
  O2-  O403  1  0.42724338  0.42173923  0.44931075  1
  O2-  O404  1  0.41554238  0.41647110  0.78218983  1
  O2-  O405  1  0.42627862  0.91731030  0.10811152  1
  O2-  O406  1  0.42929768  0.92082986  0.43848120  1
  O2-  O407  1  0.40594789  0.91682111  0.77573276  1
  O2-  O408  1  0.74322540  0.42076373  0.11410907  1
  O2-  O409  1  0.73893930  0.42178137  0.44162342  1
  O2-  O410  1  0.75360800  0.41241615  0.76121051  1
  O2-  O411  1  0.73554027  0.91800738  0.10235397  1
  O2-  O412  1  0.74337152  0.92001655  0.43647195  1
  O2-  O413  1  0.73876389  0.91815939  0.75349209  1
  O2-  O414  1  0.24896615  0.42160563  0.21766430  1
  O2-  O415  1  0.25456523  0.41452946  0.56299900  1
  O2-  O416  1  0.24407261  0.42354098  0.88459546  1
  O2-  O417  1  0.24260819  0.91678135  0.23027405  1
  O2-  O418  1  0.24957768  0.91899105  0.56222642  1
  O2-  O419  1  0.25000393  0.91629981  0.89350457  1
  O2-  O420  1  0.59561731  0.41919115  0.22856395  1
  O2-  O421  1  0.59493710  0.41437706  0.55980585  1
  O2-  O422  1  0.56777529  0.42310589  0.88492380  1
  O2-  O423  1  0.57390664  0.91685910  0.22992489  1
  O2-  O424  1  0.58899950  0.92339220  0.55335339  1
  O2-  O425  1  0.56790140  0.91816422  0.89765675  1
  O2-  O426  1  0.91246202  0.42295648  0.22403785  1
  O2-  O427  1  0.89865587  0.41385662  0.57244883  1
  O2-  O428  1  0.92975123  0.42150614  0.88192875  1
  O2-  O429  1  0.93140443  0.91427529  0.23990804  1
  O2-  O430  1  0.92168937  0.91988533  0.56321391  1
  O2-  O431  1  0.93147636  0.91068078  0.89433482  1
  O2-  O432  1  0.00592132  0.01861621  -0.01661288  1
  O2-  O433  1  0.01279818  0.00188544  0.30580525  1
  O2-  O434  1  0.00827122  0.00446510  0.64938843  1
  O2-  O435  1  0.00876323  0.48252879  -0.00673830  1
  O2-  O436  1  0.01664022  0.49938224  0.31169097  1
  O2-  O437  1  -0.01438134  0.50077717  0.68727675  1
  O2-  O438  1  0.34470389  0.01103412  -0.02694906  1
  O2-  O439  1  0.33166809  0.00324600  0.33184044  1
  O2-  O440  1  0.33240079  -0.01601506  0.67568758  1
  O2-  O441  1  0.33243850  0.47967704  -0.00717814  1
  O2-  O442  1  0.33838086  0.50088140  0.34249805  1
  O2-  O443  1  0.33390381  0.49883726  0.65607091  1
  O2-  O444  1  0.66592678  0.02258707  0.00579768  1
  O2-  O445  1  0.66229527  0.00684028  0.33798397  1
  O2-  O446  1  0.67525508  -0.00395303  0.65266483  1
  O2-  O447  1  0.66569719  0.50431985  -0.00160768  1
  O2-  O448  1  0.67308147  0.50381156  0.31706807  1
  O2-  O449  1  0.66899493  0.50354625  0.65937800  1
  O2-  O450  1  0.15353086  -0.00291904  -0.03241903  1
  O2-  O451  1  0.16470213  0.00526403  0.32490337  1
  O2-  O452  1  0.16004105  -0.00729096  0.64779465  1
  O2-  O453  1  0.17220741  0.48349161  0.00744013  1
  O2-  O454  1  0.16421916  0.49672912  0.32777733  1
  O2-  O455  1  0.16207723  0.49679266  0.65776868  1
  O2-  O456  1  0.50098250  0.01084123  0.00507441  1
  O2-  O457  1  0.48727860  -0.00023314  0.32215108  1
  O2-  O458  1  0.51246328  -0.00487420  0.67376233  1
  O2-  O459  1  0.49844695  0.48316310  -0.00317696  1
  O2-  O460  1  0.52247865  0.49613323  0.37063361  1
  O2-  O461  1  0.50160111  0.50581434  0.67411438  1
  O2-  O462  1  0.83096840  0.01720283  0.00026279  1
  O2-  O463  1  0.83522820  0.00097729  0.33296156  1
  O2-  O464  1  0.83599339  0.00360554  0.66786804  1
  O2-  O465  1  0.82735540  0.50689673  -0.00555312  1
  O2-  O466  1  0.81633479  0.49802844  0.30118133  1
  O2-  O467  1  0.82297257  0.50192568  0.65241374  1
  O2-  O468  1  0.91082112  0.74961189  0.26264767  1
  O2-  O469  1  0.75436582  0.74951781  0.41641167  1
  O2-  O470  1  0.58219466  0.25145037  0.60072138  1
  O2-  O471  1  0.41963227  0.75000614  0.41249829  1
  O2-  O472  1  0.24868439  0.25177622  0.59654315  1
  O2-  O473  1  0.08000327  0.25074005  0.39672637  1
  O2-  O474  1  0.58192078  0.25079162  0.25010721  1
  O2-  O475  1  0.08050683  0.25051378  0.73805056  1
  O2-  O476  1  0.41240958  0.25342002  0.73454390  1
  O2-  O477  1  0.74215664  0.75420248  0.72184067  1
  O2-  O478  1  0.25036064  0.75225276  0.59708525  1
  O2-  O479  1  0.75853592  0.25017375  0.06995883  1
  O2-  O480  1  0.07153053  0.25110211  0.06285112  1
  O2-  O481  1  0.74118125  0.75130296  0.07049448  1
  O2-  O482  1  0.90372188  0.74882914  0.59790016  1
  O2-  O483  1  0.59132730  0.75083131  0.93051899  1
  O2-  O484  1  0.08836101  0.75085932  0.08442170  1
  O2-  O485  1  0.92177429  0.25302366  0.94044148  1
  O2-  O486  1  0.08748691  0.75495203  0.40690269  1
  O2-  O487  1  0.41579298  0.75132796  0.06924912  1
  O2-  O488  1  0.25119132  0.75306234  0.93038246  1
  O2-  O489  1  0.42028822  0.25208425  0.07254272  1
  O2-  O490  1  0.24853931  0.75167090  0.26176243  1
  O2-  O491  1  0.92060628  0.25633382  0.25283354  1
  O2-  O492  1  0.59189882  0.75364555  0.59253388  1
