# generated using pymatgen
data_Ca108Mn108O277
_symmetry_space_group_name_H-M   'P 1'
_cell_length_a   16.02693238
_cell_length_b   22.30933905
_cell_length_c   16.39204743
_cell_angle_alpha   90.00176324
_cell_angle_beta   89.99709765
_cell_angle_gamma   90.00380096
_symmetry_Int_Tables_number   1
_chemical_formula_structural   Ca108Mn108O277
_chemical_formula_sum   'Ca108 Mn108 O277'
_cell_volume   5860.98093409
_cell_formula_units_Z   1
loop_
 _symmetry_equiv_pos_site_id
 _symmetry_equiv_pos_as_xyz
  1  'x, y, z'
loop_
 _atom_type_symbol
 _atom_type_oxidation_number
  Ca2+  2.0
  Mn3.34+  3.34
  O2-  -2.0
loop_
 _atom_site_type_symbol
 _atom_site_label
 _atom_site_symmetry_multiplicity
 _atom_site_fract_x
 _atom_site_fract_y
 _atom_site_fract_z
 _atom_site_occupancy
  Ca2+  Ca0  1  0.09978105  0.26031867  0.24980636  1
  Ca2+  Ca1  1  0.08950180  0.23884636  0.58660298  1
  Ca2+  Ca2  1  0.10180662  0.25435823  0.92124870  1
  Ca2+  Ca3  1  0.08520700  0.75576826  0.25115014  1
  Ca2+  Ca4  1  0.10675272  0.75528005  0.57747600  1
  Ca2+  Ca5  1  0.08743186  0.75665747  0.91817519  1
  Ca2+  Ca6  1  0.38941607  0.24706629  0.24319125  1
  Ca2+  Ca7  1  0.40750134  0.25522906  0.59283126  1
  Ca2+  Ca8  1  0.41496671  0.25483961  0.91521118  1
  Ca2+  Ca9  1  0.41619225  0.75733815  0.25134582  1
  Ca2+  Ca10  1  0.40215480  0.73968333  0.58977620  1
  Ca2+  Ca11  1  0.42755163  0.74252500  0.90395282  1
  Ca2+  Ca12  1  0.75781963  0.26173301  0.25530856  1
  Ca2+  Ca13  1  0.75465738  0.25453327  0.58043806  1
  Ca2+  Ca14  1  0.73147085  0.24972255  0.91172562  1
  Ca2+  Ca15  1  0.74470657  0.73971934  0.25336054  1
  Ca2+  Ca16  1  0.73655632  0.75650425  0.57573442  1
  Ca2+  Ca17  1  0.73568960  0.74412186  0.92262312  1
  Ca2+  Ca18  1  0.25409804  0.25093654  0.08764724  1
  Ca2+  Ca19  1  0.24129539  0.24638117  0.40888154  1
  Ca2+  Ca20  1  0.25582625  0.25695562  0.74936116  1
  Ca2+  Ca21  1  0.25413523  0.74145235  0.11974616  1
  Ca2+  Ca22  1  0.25361950  0.75548553  0.41689506  1
  Ca2+  Ca23  1  0.26191664  0.74218909  0.73641967  1
  Ca2+  Ca24  1  0.57116595  0.24929014  0.06536219  1
  Ca2+  Ca25  1  0.59411979  0.25295672  0.42239532  1
  Ca2+  Ca26  1  0.57320112  0.26103819  0.76226824  1
  Ca2+  Ca27  1  0.58757284  0.74222336  0.08330821  1
  Ca2+  Ca28  1  0.60341946  0.74538728  0.41450741  1
  Ca2+  Ca29  1  0.57519254  0.74226612  0.75118548  1
  Ca2+  Ca30  1  0.92385425  0.26657015  0.08664864  1
  Ca2+  Ca31  1  0.92243734  0.26765909  0.42100845  1
  Ca2+  Ca32  1  0.91374663  0.25618822  0.73922951  1
  Ca2+  Ca33  1  0.90585170  0.73789547  0.11426627  1
  Ca2+  Ca34  1  0.88449769  0.73022121  0.40298646  1
  Ca2+  Ca35  1  0.90245388  0.75149844  0.74974072  1
  Ca2+  Ca36  1  0.93821179  0.08803593  0.42707602  1
  Ca2+  Ca37  1  0.92224968  0.09845641  0.74514194  1
  Ca2+  Ca38  1  0.75473129  0.60808791  0.56519997  1
  Ca2+  Ca39  1  0.06496726  0.57461296  0.92640696  1
  Ca2+  Ca40  1  0.75475879  0.60305625  0.24389408  1
  Ca2+  Ca41  1  0.73920977  0.59107281  0.93350909  1
  Ca2+  Ca42  1  0.42424214  0.10702115  0.92638404  1
  Ca2+  Ca43  1  0.11480658  0.09047379  0.25937639  1
  Ca2+  Ca44  1  0.27468929  0.11620005  0.09131514  1
  Ca2+  Ca45  1  0.07795313  0.57504893  0.92712857  1
  Ca2+  Ca46  1  0.54432505  0.57868454  0.75987477  1
  Ca2+  Ca47  1  0.13715434  0.58229862  0.57750783  1
  Ca2+  Ca48  1  0.90404663  0.08794977  0.06595538  1
  Ca2+  Ca49  1  0.93479643  0.09938331  0.74536834  1
  Ca2+  Ca50  1  0.07159569  0.59081066  0.24389173  1
  Ca2+  Ca51  1  0.60480579  0.58854499  0.08517807  1
  Ca2+  Ca52  1  0.58974709  0.07518148  0.40969305  1
  Ca2+  Ca53  1  0.74259460  0.60799086  0.56531691  1
  Ca2+  Ca54  1  0.40921352  0.09486901  0.58170570  1
  Ca2+  Ca55  1  0.60210224  0.58964293  0.40007934  1
  Ca2+  Ca56  1  0.09434159  0.10763393  0.90755705  1
  Ca2+  Ca57  1  0.12594048  0.58220763  0.58264178  1
  Ca2+  Ca58  1  0.92593552  0.08574021  0.42494793  1
  Ca2+  Ca59  1  0.25818673  0.58543042  0.40169788  1
  Ca2+  Ca60  1  0.58203379  0.10223812  0.75677958  1
  Ca2+  Ca61  1  0.08421682  0.58945600  0.24653027  1
  Ca2+  Ca62  1  0.11978159  0.09666587  0.26277543  1
  Ca2+  Ca63  1  0.88522979  0.60420659  0.08749431  1
  Ca2+  Ca64  1  0.41874404  0.58761232  0.25007989  1
  Ca2+  Ca65  1  0.57695142  0.07503296  0.41008101  1
  Ca2+  Ca66  1  0.90987971  0.58538931  0.74700429  1
  Ca2+  Ca67  1  0.74062105  0.08689176  0.58486094  1
  Ca2+  Ca68  1  0.75340118  0.08744043  0.58391566  1
  Ca2+  Ca69  1  0.22945101  0.11403112  0.75345796  1
  Ca2+  Ca70  1  0.38701287  0.11120662  0.24483848  1
  Ca2+  Ca71  1  0.26151718  0.09841418  0.41959076  1
  Ca2+  Ca72  1  0.59578277  0.90083088  0.08232676  1
  Ca2+  Ca73  1  0.42776167  0.41717342  0.24874461  1
  Ca2+  Ca74  1  0.90675688  0.90111794  0.07895326  1
  Ca2+  Ca75  1  0.09023752  0.39968638  0.57936507  1
  Ca2+  Ca76  1  0.58479595  0.41187096  0.40705408  1
  Ca2+  Ca77  1  0.75759642  0.40710552  0.92333292  1
  Ca2+  Ca78  1  0.08327594  0.40675292  0.93051207  1
  Ca2+  Ca79  1  0.08670590  0.90306416  0.92088136  1
  Ca2+  Ca80  1  0.91786866  0.40647803  0.75332617  1
  Ca2+  Ca81  1  0.91629401  0.90586800  0.42588475  1
  Ca2+  Ca82  1  0.26429601  0.89979753  0.08679923  1
  Ca2+  Ca83  1  0.73557165  0.91261148  0.26286977  1
  Ca2+  Ca84  1  0.08885079  0.90720132  0.57500837  1
  Ca2+  Ca85  1  0.25254735  0.89994297  0.08586414  1
  Ca2+  Ca86  1  0.89536427  0.89973077  0.07860969  1
  Ca2+  Ca87  1  0.57206060  0.41151628  0.40775589  1
  Ca2+  Ca88  1  0.90427300  0.90454810  0.42694741  1
  Ca2+  Ca89  1  0.24845442  0.40991320  0.42123505  1
  Ca2+  Ca90  1  0.57378587  0.91233344  0.41220943  1
  Ca2+  Ca91  1  0.42213521  0.90199037  0.91647845  1
  Ca2+  Ca92  1  0.74139052  0.90077590  0.91326503  1
  Ca2+  Ca93  1  0.74714982  0.40683822  0.92392774  1
  Ca2+  Ca94  1  0.27277095  0.91682076  0.41307535  1
  Ca2+  Ca95  1  0.24705006  0.40604933  0.07637504  1
  Ca2+  Ca96  1  0.41559764  0.90389955  0.57552147  1
  Ca2+  Ca97  1  0.58806598  0.90323121  0.74912210  1
  Ca2+  Ca98  1  0.74984398  0.40807456  0.24151366  1
  Ca2+  Ca99  1  0.41766750  0.41415279  0.24837986  1
  Ca2+  Ca100  1  0.10209171  0.39964179  0.57956391  1
  Ca2+  Ca101  1  0.58227747  0.41713795  0.06892141  1
  Ca2+  Ca102  1  0.90805374  0.90213899  0.74934962  1
  Ca2+  Ca103  1  0.74564357  0.90830044  0.58113138  1
  Ca2+  Ca104  1  0.74195467  0.40156151  0.58583850  1
  Ca2+  Ca105  1  0.25192663  0.89854346  0.75071884  1
  Ca2+  Ca106  1  0.09205326  0.92040195  0.26970225  1
  Ca2+  Ca107  1  0.39106909  0.42752703  0.61190881  1
  Mn3.34+  Mn108  1  0.08373360  0.33365974  0.08652279  1
  Mn3.34+  Mn109  1  0.08437524  0.33392497  0.41129424  1
  Mn3.34+  Mn110  1  0.08545369  0.33040681  0.75704336  1
  Mn3.34+  Mn111  1  0.08304119  0.83356359  0.08519257  1
  Mn3.34+  Mn112  1  0.08315513  0.83894974  0.41758089  1
  Mn3.34+  Mn113  1  0.08378537  0.83211396  0.74889651  1
  Mn3.34+  Mn114  1  0.41738689  0.33813090  0.08107513  1
  Mn3.34+  Mn115  1  0.41509053  0.32970930  0.42141493  1
  Mn3.34+  Mn116  1  0.41421995  0.34342134  0.75362318  1
  Mn3.34+  Mn117  1  0.42467751  0.83116932  0.08592343  1
  Mn3.34+  Mn118  1  0.42096872  0.83831842  0.41649179  1
  Mn3.34+  Mn119  1  0.41808600  0.83041489  0.74762070  1
  Mn3.34+  Mn120  1  0.75208229  0.33039664  0.08740840  1
  Mn3.34+  Mn121  1  0.75477713  0.33325398  0.41720464  1
  Mn3.34+  Mn122  1  0.74761775  0.33075764  0.74854784  1
  Mn3.34+  Mn123  1  0.74442301  0.82626685  0.08903355  1
  Mn3.34+  Mn124  1  0.74683138  0.83373991  0.41730607  1
  Mn3.34+  Mn125  1  0.74601842  0.82957827  0.74821242  1
  Mn3.34+  Mn126  1  0.24914608  0.33620264  0.24823117  1
  Mn3.34+  Mn127  1  0.25429254  0.32981002  0.58107489  1
  Mn3.34+  Mn128  1  0.25413046  0.33613878  0.91217753  1
  Mn3.34+  Mn129  1  0.25230138  0.83389508  0.25741940  1
  Mn3.34+  Mn130  1  0.25246890  0.83547093  0.58035491  1
  Mn3.34+  Mn131  1  0.25459015  0.83075980  0.91185707  1
  Mn3.34+  Mn132  1  0.58102607  0.33108864  0.24030964  1
  Mn3.34+  Mn133  1  0.57627815  0.33891619  0.58412300  1
  Mn3.34+  Mn134  1  0.57762113  0.34037281  0.91194382  1
  Mn3.34+  Mn135  1  0.57997723  0.83161924  0.25221296  1
  Mn3.34+  Mn136  1  0.57929674  0.83189793  0.58264193  1
  Mn3.34+  Mn137  1  0.58152575  0.83094914  0.91520655  1
  Mn3.34+  Mn138  1  0.92164956  0.34022920  0.25126520  1
  Mn3.34+  Mn139  1  0.91890883  0.33616986  0.58305376  1
  Mn3.34+  Mn140  1  0.91748085  0.33413045  0.91360944  1
  Mn3.34+  Mn141  1  0.91506185  0.83114319  0.25114476  1
  Mn3.34+  Mn142  1  0.91819689  0.82661966  0.58275323  1
  Mn3.34+  Mn143  1  0.91352562  0.82885038  0.91172648  1
  Mn3.34+  Mn144  1  0.90994391  0.66368942  0.91384170  1
  Mn3.34+  Mn145  1  0.57733890  0.66444463  0.58826078  1
  Mn3.34+  Mn146  1  0.58263498  0.65904027  0.91207998  1
  Mn3.34+  Mn147  1  0.58578947  0.66319908  0.24481863  1
  Mn3.34+  Mn148  1  0.91885186  0.17155661  0.58209023  1
  Mn3.34+  Mn149  1  0.41449643  0.17050197  0.75123649  1
  Mn3.34+  Mn150  1  0.59043850  0.16277720  0.23807133  1
  Mn3.34+  Mn151  1  0.92176638  0.18008538  0.91832448  1
  Mn3.34+  Mn152  1  0.74816586  0.16566623  0.41775771  1
  Mn3.34+  Mn153  1  0.74616682  0.66741033  0.75576644  1
  Mn3.34+  Mn154  1  0.91811224  0.66674354  0.58563126  1
  Mn3.34+  Mn155  1  0.91621505  0.17074508  0.24558436  1
  Mn3.34+  Mn156  1  0.90188592  0.16517613  0.24273744  1
  Mn3.34+  Mn157  1  0.74647773  0.16783061  0.75292386  1
  Mn3.34+  Mn158  1  0.25269751  0.17112482  0.91679933  1
  Mn3.34+  Mn159  1  0.42116683  0.16834237  0.42547210  1
  Mn3.34+  Mn160  1  0.09132236  0.66636183  0.75632181  1
  Mn3.34+  Mn161  1  0.08101393  0.67176692  0.75391341  1
  Mn3.34+  Mn162  1  0.42239522  0.66408578  0.41859523  1
  Mn3.34+  Mn163  1  0.58223154  0.16927650  0.91854265  1
  Mn3.34+  Mn164  1  0.08082868  0.66977269  0.41933669  1
  Mn3.34+  Mn165  1  0.41195100  0.66827633  0.41854963  1
  Mn3.34+  Mn166  1  0.26014147  0.64964610  0.90647919  1
  Mn3.34+  Mn167  1  0.08592461  0.16962887  0.08735825  1
  Mn3.34+  Mn168  1  0.06989076  0.66563435  0.42104614  1
  Mn3.34+  Mn169  1  0.57811621  0.16967927  0.24151068  1
  Mn3.34+  Mn170  1  0.40710844  0.65769084  0.07966881  1
  Mn3.34+  Mn171  1  0.08798194  0.16683792  0.42334914  1
  Mn3.34+  Mn172  1  0.41787536  0.66213010  0.07918818  1
  Mn3.34+  Mn173  1  0.40672372  0.65573357  0.74718607  1
  Mn3.34+  Mn174  1  0.09424052  0.66253566  0.08200985  1
  Mn3.34+  Mn175  1  0.91055304  0.17483063  0.91730209  1
  Mn3.34+  Mn176  1  0.08328570  0.66677967  0.08038868  1
  Mn3.34+  Mn177  1  0.57943058  0.17089939  0.58338467  1
  Mn3.34+  Mn178  1  0.74230274  0.16301638  0.08331368  1
  Mn3.34+  Mn179  1  0.24772891  0.16743559  0.58644955  1
  Mn3.34+  Mn180  1  0.25984571  0.49732611  0.91729846  1
  Mn3.34+  Mn181  1  0.73135207  0.50086492  0.75098404  1
  Mn3.34+  Mn182  1  0.76521489  0.49950989  0.40661385  1
  Mn3.34+  Mn183  1  0.75561800  0.49664228  0.06754670  1
  Mn3.34+  Mn184  1  0.57983245  -0.00136075  0.58524637  1
  Mn3.34+  Mn185  1  0.08561332  -0.00353115  0.75655007  1
  Mn3.34+  Mn186  1  0.92304452  0.49464137  0.24681751  1
  Mn3.34+  Mn187  1  0.24281745  0.49607219  0.25808059  1
  Mn3.34+  Mn188  1  0.42086532  0.50068764  0.05486354  1
  Mn3.34+  Mn189  1  0.09640976  0.00154677  0.75731642  1
  Mn3.34+  Mn190  1  0.41864161  0.00412674  0.75620996  1
  Mn3.34+  Mn191  1  0.25697977  0.00212871  0.91734710  1
  Mn3.34+  Mn192  1  0.74344831  0.00139469  0.08446389  1
  Mn3.34+  Mn193  1  0.10045886  0.49670042  0.75185581  1
  Mn3.34+  Mn194  1  0.90383537  0.00189398  0.91771030  1
  Mn3.34+  Mn195  1  0.41352371  0.49794863  0.42198980  1
  Mn3.34+  Mn196  1  0.24904694  0.00296628  0.57962265  1
  Mn3.34+  Mn197  1  0.26620401  -0.00262631  0.26722548  1
  Mn3.34+  Mn198  1  0.42125879  0.00507634  0.08932823  1
  Mn3.34+  Mn199  1  0.07779486  0.00108912  0.08096456  1
  Mn3.34+  Mn200  1  0.11197176  0.49737342  0.75026107  1
  Mn3.34+  Mn201  1  0.57835688  -0.00393671  0.25836865  1
  Mn3.34+  Mn202  1  0.91113661  0.00071112  0.25129282  1
  Mn3.34+  Mn203  1  0.07301641  0.49664077  0.40930282  1
  Mn3.34+  Mn204  1  0.89749951  0.00725353  0.25454052  1
  Mn3.34+  Mn205  1  0.40685325  -0.00076802  0.75286605  1
  Mn3.34+  Mn206  1  0.92301570  -0.00076614  0.58914344  1
  Mn3.34+  Mn207  1  0.59118113  0.00210847  0.92238728  1
  Mn3.34+  Mn208  1  0.74201613  0.50475559  0.74964111  1
  Mn3.34+  Mn209  1  0.07303293  0.49426450  0.07640837  1
  Mn3.34+  Mn210  1  0.56740092  0.50410842  0.58938529  1
  Mn3.34+  Mn211  1  0.43360377  -0.00180240  0.08873480  1
  Mn3.34+  Mn212  1  0.09246065  0.00722617  0.08046802  1
  Mn3.34+  Mn213  1  0.77423328  0.49469543  0.40286252  1
  Mn3.34+  Mn214  1  0.74894044  0.00241551  0.75252786  1
  Mn3.34+  Mn215  1  0.92020172  0.50226161  0.58559687  1
  O2-  O216  1  0.00028702  0.15507993  -0.00036017  1
  O2-  O217  1  0.00587719  0.14655207  0.31959684  1
  O2-  O218  1  -0.00827457  0.16928822  0.66825281  1
  O2-  O219  1  0.00317630  0.65457282  -0.00419371  1
  O2-  O220  1  0.00207264  0.65461478  0.33164605  1
  O2-  O221  1  -0.00006512  0.65078676  0.67158345  1
  O2-  O222  1  0.33770272  0.16637837  -0.00840246  1
  O2-  O223  1  0.34125720  0.16890040  0.34692826  1
  O2-  O224  1  0.33198812  0.15159233  0.66962041  1
  O2-  O225  1  0.32547940  0.67678546  -0.00139915  1
  O2-  O226  1  0.34021325  0.65365981  0.33290888  1
  O2-  O227  1  0.33457581  0.66706829  0.67069204  1
  O2-  O228  1  0.66719275  0.17826581  -0.00018062  1
  O2-  O229  1  0.66190659  0.15723066  0.32997973  1
  O2-  O230  1  0.66711628  0.15078675  0.66312072  1
  O2-  O231  1  0.66315820  0.66286232  -0.00477585  1
  O2-  O232  1  0.66394181  0.65930162  0.32527256  1
  O2-  O233  1  0.66979451  0.64029342  0.67384871  1
  O2-  O234  1  0.16979342  0.15374103  0.00640695  1
  O2-  O235  1  0.17235669  0.15512958  0.34560679  1
  O2-  O236  1  0.16685542  0.16960533  0.66225160  1
  O2-  O237  1  0.16337725  0.65313232  -0.00934528  1
  O2-  O238  1  0.15902456  0.64491621  0.34054570  1
  O2-  O239  1  0.16768827  0.65175378  0.67052001  1
  O2-  O240  1  0.50090623  0.17388215  -0.00779661  1
  O2-  O241  1  0.50495627  0.16970674  0.33588818  1
  O2-  O242  1  0.49703317  0.15521190  0.66482178  1
  O2-  O243  1  0.49778390  0.64880659  0.00083876  1
  O2-  O244  1  0.49995272  0.65050929  0.33719429  1
  O2-  O245  1  0.50155001  0.65346948  0.67250540  1
  O2-  O246  1  0.83392589  0.17998887  0.00191412  1
  O2-  O247  1  0.84456260  0.14066781  0.33983714  1
  O2-  O248  1  0.83299717  0.15053097  0.66607912  1
  O2-  O249  1  0.83961514  0.68176412  -0.00150012  1
  O2-  O250  1  0.82988187  0.66701379  0.31396557  1
  O2-  O251  1  0.83588788  0.65696670  0.67448398  1
  O2-  O252  1  0.00085134  0.33072693  -0.00492657  1
  O2-  O253  1  -0.00176982  0.34055883  0.33742871  1
  O2-  O254  1  0.00261234  0.33616294  0.67178928  1
  O2-  O255  1  -0.00281825  0.84508575  -0.00232114  1
  O2-  O256  1  -0.00300135  0.85599206  0.32988968  1
  O2-  O257  1  -0.00247946  0.84353688  0.66867245  1
  O2-  O258  1  0.33079348  0.33539446  0.00488586  1
  O2-  O259  1  0.34228158  0.35007820  0.32907009  1
  O2-  O260  1  0.33616072  0.33963873  0.65988480  1
  O2-  O261  1  0.33552232  0.84387199  -0.00056329  1
  O2-  O262  1  0.33292727  0.84336530  0.33768501  1
  O2-  O263  1  0.33434025  0.84772933  0.66538392  1
  O2-  O264  1  0.67373607  0.33378672  0.00099026  1
  O2-  O265  1  0.66246770  0.34271368  0.33083015  1
  O2-  O266  1  0.66791824  0.33428680  0.65973784  1
  O2-  O267  1  0.66906009  0.83380602  0.00019466  1
  O2-  O268  1  0.66227411  0.84965183  0.33801486  1
  O2-  O269  1  0.66751106  0.84943343  0.66368991  1
  O2-  O270  1  0.16441223  0.34231318  -0.00269629  1
  O2-  O271  1  0.17376412  0.34664887  0.33758735  1
  O2-  O272  1  0.16141166  0.33332938  0.66450155  1
  O2-  O273  1  0.17193099  0.84252694  -0.00076259  1
  O2-  O274  1  0.16983909  0.85714487  0.33863213  1
  O2-  O275  1  0.16619979  0.85271714  0.66304936  1
  O2-  O276  1  0.50471017  0.33407137  0.00547425  1
  O2-  O277  1  0.50183510  0.33127431  0.33475514  1
  O2-  O278  1  0.49927346  0.32723199  0.66468667  1
  O2-  O279  1  0.50374178  0.85176917  0.00107561  1
  O2-  O280  1  0.50041793  0.84808885  0.33279865  1
  O2-  O281  1  0.49903107  0.85332508  0.66737744  1
  O2-  O282  1  0.82981282  0.32338753  -0.00490982  1
  O2-  O283  1  0.82712255  0.34766901  0.32851541  1
  O2-  O284  1  0.83544456  0.35053013  0.66895851  1
  O2-  O285  1  0.83100241  0.83126257  0.00167327  1
  O2-  O286  1  0.83233565  0.85021789  0.33201789  1
  O2-  O287  1  0.83334266  0.83572316  0.66562539  1
  O2-  O288  1  -0.00938745  0.18412384  0.15852929  1
  O2-  O289  1  -0.01017952  0.18042761  0.48932056  1
  O2-  O290  1  -0.00206154  0.18589153  0.83451294  1
  O2-  O291  1  0.00195029  0.67143990  0.16162788  1
  O2-  O292  1  -0.00080889  0.69278731  0.50598423  1
  O2-  O293  1  0.00237475  0.69119172  0.83714282  1
  O2-  O294  1  0.33018688  0.18477635  0.16470296  1
  O2-  O295  1  0.33923119  0.18036259  0.50361993  1
  O2-  O296  1  0.33134567  0.18019347  0.83086131  1
  O2-  O297  1  0.34018784  0.67276485  0.16860210  1
  O2-  O298  1  0.32963825  0.67975371  0.49054454  1
  O2-  O299  1  0.33345860  0.68383248  0.83277663  1
  O2-  O300  1  0.66796601  0.19578614  0.16750097  1
  O2-  O301  1  0.66584909  0.19008676  0.51013670  1
  O2-  O302  1  0.66125362  0.17965695  0.82461645  1
  O2-  O303  1  0.65991735  0.67779890  0.16552714  1
  O2-  O304  1  0.66411586  0.67807852  0.51192648  1
  O2-  O305  1  0.66540284  0.68434463  0.83295822  1
  O2-  O306  1  0.15556666  0.17202941  0.17412849  1
  O2-  O307  1  0.17070489  0.18007997  0.49979831  1
  O2-  O308  1  0.16785370  0.18086646  0.84044342  1
  O2-  O309  1  0.15794552  0.67800624  0.17463304  1
  O2-  O310  1  0.15873662  0.67391606  0.50319676  1
  O2-  O311  1  0.16866667  0.69099097  0.83898440  1
  O2-  O312  1  0.49884860  0.19109197  0.17059919  1
  O2-  O313  1  0.50315383  0.19436497  0.50166299  1
  O2-  O314  1  0.50004292  0.17802631  0.82907589  1
  O2-  O315  1  0.49552766  0.67715242  0.16553997  1
  O2-  O316  1  0.49888220  0.68233791  0.49799456  1
  O2-  O317  1  0.50113796  0.67199429  0.82968961  1
  O2-  O318  1  0.82885172  0.19254794  0.16104591  1
  O2-  O319  1  0.82883754  0.16754121  0.50617880  1
  O2-  O320  1  0.83879570  0.18618411  0.82837311  1
  O2-  O321  1  0.82318363  0.67508924  0.17104602  1
  O2-  O322  1  0.83044785  0.68916253  0.52207973  1
  O2-  O323  1  0.83238537  0.68774226  0.83469827  1
  O2-  O324  1  0.00586784  0.31878155  0.17183839  1
  O2-  O325  1  0.00859500  0.32217333  0.51013395  1
  O2-  O326  1  -0.00217074  0.31020830  0.83373237  1
  O2-  O327  1  -0.00736570  0.83215243  0.16219460  1
  O2-  O328  1  0.00096438  0.81879571  0.50003553  1
  O2-  O329  1  -0.00227193  0.81386041  0.83366204  1
  O2-  O330  1  0.33703353  0.32488894  0.16629592  1
  O2-  O331  1  0.32597402  0.31419207  0.49004962  1
  O2-  O332  1  0.33388472  0.32090438  0.83329356  1
  O2-  O333  1  0.32867763  0.82303579  0.16201404  1
  O2-  O334  1  0.33554099  0.82339572  0.49971305  1
  O2-  O335  1  0.33461469  0.81464007  0.83154138  1
  O2-  O336  1  0.66721678  0.31386621  0.16797786  1
  O2-  O337  1  0.66322558  0.32295722  0.49841832  1
  O2-  O338  1  0.67165771  0.32572166  0.83580814  1
  O2-  O339  1  0.66713140  0.81415055  0.17121217  1
  O2-  O340  1  0.66704143  0.82534424  0.50092072  1
  O2-  O341  1  0.66582434  0.82277557  0.83327629  1
  O2-  O342  1  0.17427484  0.32523655  0.16007309  1
  O2-  O343  1  0.16310769  0.31771867  0.50482090  1
  O2-  O344  1  0.16766840  0.31558283  0.83334753  1
  O2-  O345  1  0.16971293  0.82727750  0.16724995  1
  O2-  O346  1  0.16639847  0.82804629  0.49903615  1
  O2-  O347  1  0.16653482  0.81897322  0.83557819  1
  O2-  O348  1  0.49484032  0.31118134  0.16774574  1
  O2-  O349  1  0.50112470  0.31228455  0.49733701  1
  O2-  O350  1  0.49600486  0.32862866  0.83426439  1
  O2-  O351  1  0.50819345  0.82089225  0.16150663  1
  O2-  O352  1  0.49915545  0.82010930  0.50164082  1
  O2-  O353  1  0.49937694  0.82603974  0.83184666  1
  O2-  O354  1  0.83339810  0.31824643  0.16788955  1
  O2-  O355  1  0.83245399  0.32740407  0.50645836  1
  O2-  O356  1  0.83310462  0.31268323  0.83436030  1
  O2-  O357  1  0.83518860  0.81755240  0.16293098  1
  O2-  O358  1  0.83862737  0.81786598  0.49420243  1
  O2-  O359  1  0.82921310  0.81500646  0.83302258  1
  O2-  O360  1  0.07125782  0.08445868  0.12328678  1
  O2-  O361  1  0.07300181  0.08359985  0.43455020  1
  O2-  O362  1  0.07161031  0.08313691  0.77707767  1
  O2-  O363  1  0.09050829  0.57597721  0.10741853  1
  O2-  O364  1  0.06374611  0.57999125  0.45935458  1
  O2-  O365  1  0.07667447  0.57943721  0.79062187  1
  O2-  O366  1  0.41474631  0.08228047  0.11668933  1
  O2-  O367  1  0.44446126  0.08703716  0.44929436  1
  O2-  O368  1  0.41555182  0.08437099  0.78470280  1
  O2-  O369  1  0.41106209  0.57520671  0.11296061  1
  O2-  O370  1  0.41822259  0.58172639  0.44008668  1
  O2-  O371  1  0.40578772  0.58128996  0.77408233  1
  O2-  O372  1  0.76632011  0.08050663  0.10959850  1
  O2-  O373  1  0.72786297  0.08236801  0.45033622  1
  O2-  O374  1  0.76340227  0.08419836  0.77989137  1
  O2-  O375  1  0.75518818  0.56705547  0.11396958  1
  O2-  O376  1  0.74739445  0.57913149  0.43880146  1
  O2-  O377  1  0.76336521  0.58251904  0.79428107  1
  O2-  O378  1  0.25246915  0.06902481  0.21354623  1
  O2-  O379  1  0.26205870  0.08361539  0.55476516  1
  O2-  O380  1  0.24752004  0.08355369  0.89052538  1
  O2-  O381  1  0.21958585  0.56797203  0.22214185  1
  O2-  O382  1  0.23772925  0.55330626  0.52007367  1
  O2-  O383  1  0.21374016  0.56953946  0.87162285  1
  O2-  O384  1  0.56743039  0.07774053  0.22835901  1
  O2-  O385  1  0.59328573  0.07976558  0.54574959  1
  O2-  O386  1  0.57470188  0.08337648  0.89419914  1
  O2-  O387  1  0.57900039  0.58270633  0.22695019  1
  O2-  O388  1  0.60075874  0.57700549  0.54508262  1
  O2-  O389  1  0.60420300  0.58161762  0.88596179  1
  O2-  O390  1  0.90957068  0.08288803  0.20174014  1
  O2-  O391  1  0.90976730  0.08190713  0.55755322  1
  O2-  O392  1  0.92314522  0.08526565  0.88149553  1
  O2-  O393  1  0.94216717  0.56548236  0.19663886  1
  O2-  O394  1  0.89008042  0.58072429  0.55534884  1
  O2-  O395  1  0.93599218  0.58264991  0.87921423  1
  O2-  O396  1  0.09137098  0.41683878  0.09635691  1
  O2-  O397  1  0.09608953  0.41663859  0.44809228  1
  O2-  O398  1  0.06263754  0.41942890  0.79084048  1
  O2-  O399  1  0.09182746  0.91943834  0.10721877  1
  O2-  O400  1  0.05624124  0.92170766  0.44270083  1
  O2-  O401  1  0.08317405  0.91560213  0.78709236  1
  O2-  O402  1  0.42693536  0.42599557  0.11310222  1
  O2-  O403  1  0.42649462  0.41779663  0.45774383  1
  O2-  O404  1  0.41532775  0.42019947  0.74995058  1
  O2-  O405  1  0.40677277  0.91879819  0.11448160  1
  O2-  O406  1  0.41834543  0.91732577  0.44228049  1
  O2-  O407  1  0.40459347  0.91774487  0.78139017  1
  O2-  O408  1  0.73704666  0.42250324  0.10630907  1
  O2-  O409  1  0.74406682  0.41884942  0.45094392  1
  O2-  O410  1  0.75438022  0.41925423  0.78373278  1
  O2-  O411  1  0.75715918  0.91870404  0.11917325  1
  O2-  O412  1  0.76813907  0.91714087  0.44685746  1
  O2-  O413  1  0.75607326  0.91812042  0.77353142  1
  O2-  O414  1  0.27429762  0.42253590  0.21552108  1
  O2-  O415  1  0.24261682  0.41053117  0.55868952  1
  O2-  O416  1  0.23401138  0.41844128  0.89237286  1
  O2-  O417  1  0.24806478  0.92420257  0.21681449  1
  O2-  O418  1  0.24858616  0.92271559  0.54831935  1
  O2-  O419  1  0.25331306  0.92129400  0.88638815  1
  O2-  O420  1  0.56716581  0.41428984  0.22228937  1
  O2-  O421  1  0.58336995  0.42729188  0.54159410  1
  O2-  O422  1  0.61341040  0.41858135  0.91545650  1
  O2-  O423  1  0.59423008  0.91974934  0.21762313  1
  O2-  O424  1  0.58359447  0.91820171  0.55466313  1
  O2-  O425  1  0.58581882  0.92141622  0.88374276  1
  O2-  O426  1  0.89828553  0.41860845  0.21913849  1
  O2-  O427  1  0.94845451  0.41992065  0.57427190  1
  O2-  O428  1  0.88995712  0.41499224  0.88838658  1
  O2-  O429  1  0.89644650  0.92214217  0.21244034  1
  O2-  O430  1  0.91345583  0.91720891  0.56077351  1
  O2-  O431  1  0.90933817  0.91816330  0.88986353  1
  O2-  O432  1  0.00351676  0.00970166  -0.00782185  1
  O2-  O433  1  0.01092809  0.01510025  0.30831975  1
  O2-  O434  1  -0.01272114  -0.00289602  0.69191582  1
  O2-  O435  1  -0.00528552  0.51066551  0.00413222  1
  O2-  O436  1  0.02193543  0.50902887  0.30355014  1
  O2-  O437  1  0.00327900  0.51585207  0.67686217  1
  O2-  O438  1  0.32324010  -0.00828813  0.01795412  1
  O2-  O439  1  0.31929643  0.01499618  0.35618769  1
  O2-  O440  1  0.34487174  -0.00163453  0.65227127  1
  O2-  O441  1  0.31401659  0.48851442  0.01676220  1
  O2-  O442  1  0.34526544  0.50040232  0.31560762  1
  O2-  O443  1  0.33850828  0.51241901  0.66977012  1
  O2-  O444  1  0.67257116  -0.02403207  -0.00070931  1
  O2-  O445  1  0.66152912  -0.00455729  0.33367274  1
  O2-  O446  1  0.67591519  0.00815411  0.65430075  1
  O2-  O447  1  0.67255770  0.50501226  0.00404414  1
  O2-  O448  1  0.65419130  0.49099135  0.36053615  1
  O2-  O449  1  0.66781387  0.49428791  0.65242219  1
  O2-  O450  1  0.16284519  -0.00915068  -0.01055467  1
  O2-  O451  1  0.16379603  0.00285626  0.31143763  1
  O2-  O452  1  0.16967665  -0.00586905  0.66707433  1
  O2-  O453  1  0.14757531  0.49848774  -0.01824916  1
  O2-  O454  1  0.18460177  0.50138016  0.35461631  1
  O2-  O455  1  0.15373593  0.49035623  0.64011757  1
  O2-  O456  1  0.49060794  -0.00526573  -0.01331848  1
  O2-  O457  1  0.50796741  0.00382199  0.34262737  1
  O2-  O458  1  0.51107905  0.00305504  0.68097993  1
  O2-  O459  1  0.52785068  0.50688715  0.04143654  1
  O2-  O460  1  0.49535573  0.47779505  0.33983934  1
  O2-  O461  1  0.48830281  0.50549644  0.65978690  1
  O2-  O462  1  0.85223880  -0.00979824  0.03036384  1
  O2-  O463  1  0.86021827  0.00370418  0.36752877  1
  O2-  O464  1  0.83212906  0.01438846  0.66662754  1
  O2-  O465  1  0.82168756  0.49849694  -0.01512464  1
  O2-  O466  1  0.81322031  0.50866077  0.29188896  1
  O2-  O467  1  0.83817024  0.49852414  0.67816588  1
  O2-  O468  1  0.09007939  0.24939938  0.06417732  1
  O2-  O469  1  0.41306504  0.24985600  0.73383225  1
  O2-  O470  1  0.24871784  0.75733260  0.59975829  1
  O2-  O471  1  0.75927204  0.24796096  0.39368481  1
  O2-  O472  1  0.74050308  0.74729613  0.71934255  1
  O2-  O473  1  0.09538869  0.75332355  0.38850509  1
  O2-  O474  1  0.24594074  0.25824851  0.26973109  1
  O2-  O475  1  0.57204141  0.74907656  0.93669080  1
  O2-  O476  1  0.90320152  0.25277095  0.59919836  1
  O2-  O477  1  0.42565481  0.74783108  0.06045266  1
  O2-  O478  1  0.42547267  0.75148037  0.72791551  1
  O2-  O479  1  0.93144389  0.75509087  0.26856956  1
  O2-  O480  1  0.58252000  0.25384012  0.91761753  1
  O2-  O481  1  0.24465949  0.75559658  0.27121660  1
  O2-  O482  1  0.74507174  0.75502802  0.39280918  1
  O2-  O483  1  0.41673343  0.74987238  0.39034327  1
  O2-  O484  1  0.24990599  0.25243005  0.94107864  1
  O2-  O485  1  0.08357577  0.75091862  0.05926018  1
  O2-  O486  1  0.57103689  0.75068542  0.27597364  1
  O2-  O487  1  0.58411960  0.75139549  0.61223665  1
  O2-  O488  1  0.09310639  0.75246917  0.71375379  1
  O2-  O489  1  0.25838276  0.24847036  0.60700838  1
  O2-  O490  1  0.08239916  0.24943452  0.39117910  1
  O2-  O491  1  0.91044333  0.25030100  0.28207231  1
  O2-  O492  1  0.75375936  0.24815722  0.72075245  1
