# generated using pymatgen
data_Ca108Mn108O277
_symmetry_space_group_name_H-M   'P 1'
_cell_length_a   16.01994805
_cell_length_b   22.29760882
_cell_length_c   16.38423193
_cell_angle_alpha   89.99460045
_cell_angle_beta   90.00067369
_cell_angle_gamma   90.00089886
_symmetry_Int_Tables_number   1
_chemical_formula_structural   Ca108Mn108O277
_chemical_formula_sum   'Ca108 Mn108 O277'
_cell_volume   5852.55468874
_cell_formula_units_Z   1
loop_
 _symmetry_equiv_pos_site_id
 _symmetry_equiv_pos_as_xyz
  1  'x, y, z'
loop_
 _atom_type_symbol
 _atom_type_oxidation_number
  Ca2+  2.0
  Mn3.34+  3.34
  O2-  -2.0
loop_
 _atom_site_type_symbol
 _atom_site_label
 _atom_site_symmetry_multiplicity
 _atom_site_fract_x
 _atom_site_fract_y
 _atom_site_fract_z
 _atom_site_occupancy
  Ca2+  Ca0  1  0.09966962  0.24344169  0.23664618  1
  Ca2+  Ca1  1  0.09222570  0.26078259  0.58068883  1
  Ca2+  Ca2  1  0.07904254  0.25220691  0.91933088  1
  Ca2+  Ca3  1  0.08368780  0.75835049  0.26234304  1
  Ca2+  Ca4  1  0.09314074  0.73719126  0.57313091  1
  Ca2+  Ca5  1  0.08698034  0.75323618  0.91869900  1
  Ca2+  Ca6  1  0.39306350  0.24148910  0.22985928  1
  Ca2+  Ca7  1  0.40531626  0.25607258  0.58080284  1
  Ca2+  Ca8  1  0.42101744  0.25807356  0.93664195  1
  Ca2+  Ca9  1  0.42505580  0.75010735  0.24993091  1
  Ca2+  Ca10  1  0.42339316  0.74460591  0.56908311  1
  Ca2+  Ca11  1  0.41977525  0.74757001  0.93411933  1
  Ca2+  Ca12  1  0.75817277  0.25144171  0.22908347  1
  Ca2+  Ca13  1  0.75353938  0.26250258  0.58397366  1
  Ca2+  Ca14  1  0.74688223  0.25270825  0.93268256  1
  Ca2+  Ca15  1  0.73799900  0.75020814  0.26773725  1
  Ca2+  Ca16  1  0.74413039  0.74895283  0.56730229  1
  Ca2+  Ca17  1  0.74272447  0.74674824  0.91412144  1
  Ca2+  Ca18  1  0.26133427  0.24899792  0.09908590  1
  Ca2+  Ca19  1  0.25756050  0.23746731  0.39513865  1
  Ca2+  Ca20  1  0.25404653  0.25540061  0.74367307  1
  Ca2+  Ca21  1  0.26914055  0.73709183  0.08520410  1
  Ca2+  Ca22  1  0.25094976  0.74050216  0.43515432  1
  Ca2+  Ca23  1  0.24702051  0.75267188  0.73020843  1
  Ca2+  Ca24  1  0.59031383  0.25681444  0.07761778  1
  Ca2+  Ca25  1  0.57146305  0.25420389  0.42262045  1
  Ca2+  Ca26  1  0.58508585  0.25293974  0.75677374  1
  Ca2+  Ca27  1  0.56501966  0.73623782  0.08664872  1
  Ca2+  Ca28  1  0.59806015  0.72314945  0.42555004  1
  Ca2+  Ca29  1  0.60021679  0.74852534  0.73610841  1
  Ca2+  Ca30  1  0.89612907  0.25252228  0.08659704  1
  Ca2+  Ca31  1  0.91729674  0.26439842  0.40836997  1
  Ca2+  Ca32  1  0.91521984  0.25525967  0.75314560  1
  Ca2+  Ca33  1  0.91076610  0.75843006  0.08451986  1
  Ca2+  Ca34  1  0.91223525  0.75602876  0.42390752  1
  Ca2+  Ca35  1  0.90479430  0.74521265  0.74067386  1
  Ca2+  Ca36  1  0.09694588  0.08829179  0.25288385  1
  Ca2+  Ca37  1  0.38636958  0.10194895  0.24844380  1
  Ca2+  Ca38  1  0.88985954  0.09685998  0.75091824  1
  Ca2+  Ca39  1  0.43041274  0.09548067  0.58555149  1
  Ca2+  Ca40  1  0.25778649  0.10261431  0.09525857  1
  Ca2+  Ca41  1  0.24877013  0.59928895  0.73218069  1
  Ca2+  Ca42  1  0.91775543  0.59708138  0.43307138  1
  Ca2+  Ca43  1  0.91612564  0.59403220  0.73816566  1
  Ca2+  Ca44  1  0.59340121  0.09231702  0.07777357  1
  Ca2+  Ca45  1  0.42921279  0.60495133  0.22701734  1
  Ca2+  Ca46  1  0.72970090  0.59981124  0.56960711  1
  Ca2+  Ca47  1  0.08272380  0.60541099  0.91829503  1
  Ca2+  Ca48  1  0.60066650  0.10353862  0.75028265  1
  Ca2+  Ca49  1  0.23821295  0.59981051  0.73586215  1
  Ca2+  Ca50  1  0.26907700  0.10286606  0.09672282  1
  Ca2+  Ca51  1  0.72876541  0.59259004  0.92143484  1
  Ca2+  Ca52  1  0.09745038  0.59937110  0.25420402  1
  Ca2+  Ca53  1  0.90838583  0.59884095  0.42899751  1
  Ca2+  Ca54  1  0.72889194  0.09107006  0.61066245  1
  Ca2+  Ca55  1  0.75603729  0.08457279  0.23898583  1
  Ca2+  Ca56  1  0.73994553  0.09143210  0.60887573  1
  Ca2+  Ca57  1  0.70720745  0.57917007  0.25907515  1
  Ca2+  Ca58  1  0.10039735  0.08743656  0.59065790  1
  Ca2+  Ca59  1  0.92378394  0.07659586  0.40647598  1
  Ca2+  Ca60  1  0.89356352  0.09441054  0.08037934  1
  Ca2+  Ca61  1  0.58467979  0.59634549  0.74002272  1
  Ca2+  Ca62  1  0.08816478  0.08479117  0.59269316  1
  Ca2+  Ca63  1  0.08296002  0.09064577  0.91421359  1
  Ca2+  Ca64  1  0.43644801  0.60434663  0.57598650  1
  Ca2+  Ca65  1  0.74369163  0.08206829  0.23890393  1
  Ca2+  Ca66  1  0.25876185  0.09019075  0.74666383  1
  Ca2+  Ca67  1  0.72308132  0.60512706  0.56722623  1
  Ca2+  Ca68  1  0.43532531  0.60093455  0.95213494  1
  Ca2+  Ca69  1  0.42059101  0.60758570  0.22252038  1
  Ca2+  Ca70  1  0.24601112  0.08951141  0.74562328  1
  Ca2+  Ca71  1  0.41911700  0.09501678  0.58511727  1
  Ca2+  Ca72  1  0.26862179  0.41421919  0.06988920  1
  Ca2+  Ca73  1  0.41812884  0.90618199  0.24500883  1
  Ca2+  Ca74  1  0.08207973  0.89728550  0.57166656  1
  Ca2+  Ca75  1  0.07989623  0.40976390  0.25421425  1
  Ca2+  Ca76  1  0.08155540  0.40993362  0.91473820  1
  Ca2+  Ca77  1  0.73816516  0.41303513  0.22937588  1
  Ca2+  Ca78  1  0.74347552  0.41857016  0.95281964  1
  Ca2+  Ca79  1  0.09427526  0.40894137  0.91495616  1
  Ca2+  Ca80  1  0.25816456  0.41398127  0.07105457  1
  Ca2+  Ca81  1  0.91921731  0.89742592  0.75294733  1
  Ca2+  Ca82  1  0.91031151  0.40658444  0.73517162  1
  Ca2+  Ca83  1  0.40929546  0.90422461  0.91202977  1
  Ca2+  Ca84  1  0.59991235  0.41831009  0.40437136  1
  Ca2+  Ca85  1  0.74813554  0.89783375  0.92011100  1
  Ca2+  Ca86  1  0.06284349  0.41329232  0.58543313  1
  Ca2+  Ca87  1  0.41224292  0.89866830  0.58746725  1
  Ca2+  Ca88  1  0.58068022  0.40520018  0.75304671  1
  Ca2+  Ca89  1  0.24952619  0.40914893  0.41721308  1
  Ca2+  Ca90  1  0.59234307  0.90045290  0.08265163  1
  Ca2+  Ca91  1  0.06726723  0.40808274  0.25321811  1
  Ca2+  Ca92  1  0.90646763  0.89852706  0.75322805  1
  Ca2+  Ca93  1  0.93157932  0.90775990  0.41024156  1
  Ca2+  Ca94  1  0.26347364  0.41086301  0.75510074  1
  Ca2+  Ca95  1  0.75160715  0.90489125  0.24568343  1
  Ca2+  Ca96  1  0.43095985  0.90609088  0.24456433  1
  Ca2+  Ca97  1  0.59050813  0.90358281  0.41129078  1
  Ca2+  Ca98  1  0.90456736  0.41368245  0.42235284  1
  Ca2+  Ca99  1  0.42294977  0.89891195  0.58708459  1
  Ca2+  Ca100  1  0.59002094  0.41453456  0.40172313  1
  Ca2+  Ca101  1  0.43471405  0.41820064  0.59689858  1
  Ca2+  Ca102  1  0.24783720  0.89909332  0.07333712  1
  Ca2+  Ca103  1  0.74654826  0.90229219  0.58029905  1
  Ca2+  Ca104  1  0.23685846  0.40877451  0.41738074  1
  Ca2+  Ca105  1  0.43636661  0.40766273  0.24686269  1
  Ca2+  Ca106  1  0.25774015  0.89895744  0.75355358  1
  Ca2+  Ca107  1  0.42238700  0.41710283  0.59810878  1
  Mn3.34+  Mn108  1  0.07743136  0.33202990  0.08447666  1
  Mn3.34+  Mn109  1  0.08071734  0.33416888  0.42028040  1
  Mn3.34+  Mn110  1  0.08291987  0.32834781  0.75088392  1
  Mn3.34+  Mn111  1  0.08504879  0.82589428  0.08543833  1
  Mn3.34+  Mn112  1  0.08803990  0.83784112  0.41293111  1
  Mn3.34+  Mn113  1  0.08409529  0.82502368  0.75237542  1
  Mn3.34+  Mn114  1  0.42460725  0.33257230  0.08424669  1
  Mn3.34+  Mn115  1  0.41805827  0.33289290  0.42029322  1
  Mn3.34+  Mn116  1  0.41973264  0.33199414  0.75637869  1
  Mn3.34+  Mn117  1  0.41584947  0.82716914  0.08154134  1
  Mn3.34+  Mn118  1  0.41473336  0.83188278  0.41551793  1
  Mn3.34+  Mn119  1  0.42162046  0.82846860  0.75722089  1
  Mn3.34+  Mn120  1  0.74812432  0.33812957  0.08377020  1
  Mn3.34+  Mn121  1  0.75139113  0.33273310  0.41594518  1
  Mn3.34+  Mn122  1  0.74792145  0.32980693  0.75330631  1
  Mn3.34+  Mn123  1  0.75219393  0.83030562  0.08480210  1
  Mn3.34+  Mn124  1  0.75125570  0.83288195  0.41500380  1
  Mn3.34+  Mn125  1  0.74364636  0.83168167  0.75079453  1
  Mn3.34+  Mn126  1  0.25123235  0.33622209  0.24588641  1
  Mn3.34+  Mn127  1  0.24911838  0.33648596  0.58410155  1
  Mn3.34+  Mn128  1  0.25370661  0.33531964  0.91281844  1
  Mn3.34+  Mn129  1  0.24472632  0.83788860  0.24923203  1
  Mn3.34+  Mn130  1  0.24705551  0.82889450  0.58036262  1
  Mn3.34+  Mn131  1  0.24713462  0.83493142  0.91284844  1
  Mn3.34+  Mn132  1  0.58466855  0.33505489  0.24594448  1
  Mn3.34+  Mn133  1  0.59141788  0.34056746  0.58169942  1
  Mn3.34+  Mn134  1  0.58280710  0.34098285  0.91929137  1
  Mn3.34+  Mn135  1  0.58648054  0.83429221  0.24675074  1
  Mn3.34+  Mn136  1  0.58582881  0.82895408  0.58214796  1
  Mn3.34+  Mn137  1  0.58130477  0.83159700  0.91230826  1
  Mn3.34+  Mn138  1  0.91179748  0.33368570  0.24746688  1
  Mn3.34+  Mn139  1  0.91278511  0.33867662  0.58112769  1
  Mn3.34+  Mn140  1  0.91187816  0.33800301  0.91642843  1
  Mn3.34+  Mn141  1  0.92044038  0.83578184  0.24610072  1
  Mn3.34+  Mn142  1  0.91715765  0.83003993  0.57946244  1
  Mn3.34+  Mn143  1  0.92240544  0.83114987  0.92138721  1
  Mn3.34+  Mn144  1  0.08248322  0.16246062  0.41162046  1
  Mn3.34+  Mn145  1  0.91887221  0.16963989  0.91350988  1
  Mn3.34+  Mn146  1  0.24389996  0.16942890  0.91507230  1
  Mn3.34+  Mn147  1  0.58319395  0.66674379  0.25445569  1
  Mn3.34+  Mn148  1  0.73951376  0.66223670  0.08305410  1
  Mn3.34+  Mn149  1  0.41387938  0.16928685  0.41750791  1
  Mn3.34+  Mn150  1  0.74023037  0.15987531  0.42014560  1
  Mn3.34+  Mn151  1  0.90832306  0.16523696  0.91283314  1
  Mn3.34+  Mn152  1  0.09265385  0.15714102  0.41318804  1
  Mn3.34+  Mn153  1  0.08918476  0.66870871  0.42139729  1
  Mn3.34+  Mn154  1  0.91287225  0.16815464  0.58888408  1
  Mn3.34+  Mn155  1  0.24872335  0.66962785  0.25192069  1
  Mn3.34+  Mn156  1  0.92823154  0.16606651  0.58164434  1
  Mn3.34+  Mn157  1  0.58211183  0.17707126  0.58493593  1
  Mn3.34+  Mn158  1  0.41474233  0.67521528  0.75873782  1
  Mn3.34+  Mn159  1  0.92081645  0.66747730  0.24489138  1
  Mn3.34+  Mn160  1  0.57347389  0.15915933  0.24751043  1
  Mn3.34+  Mn161  1  0.24866860  0.65776739  0.91757101  1
  Mn3.34+  Mn162  1  0.74982981  0.65752748  0.08210904  1
  Mn3.34+  Mn163  1  0.75122482  0.16484811  0.41837221  1
  Mn3.34+  Mn164  1  0.57882723  0.16583247  0.91747654  1
  Mn3.34+  Mn165  1  0.91521635  0.16533345  0.24502155  1
  Mn3.34+  Mn166  1  0.57944297  0.17014628  0.24859830  1
  Mn3.34+  Mn167  1  0.91829395  0.66562676  0.91655647  1
  Mn3.34+  Mn168  1  0.41920602  0.16904921  0.75270907  1
  Mn3.34+  Mn169  1  0.07777158  0.16576023  0.08515233  1
  Mn3.34+  Mn170  1  0.91626384  0.66502277  0.58477477  1
  Mn3.34+  Mn171  1  0.42657205  0.67396321  0.76086077  1
  Mn3.34+  Mn172  1  0.25724047  0.16289126  0.91370025  1
  Mn3.34+  Mn173  1  0.07917755  0.67611130  0.75469088  1
  Mn3.34+  Mn174  1  0.74988276  0.66899090  0.75599016  1
  Mn3.34+  Mn175  1  0.25052743  0.16791548  0.57992947  1
  Mn3.34+  Mn176  1  0.08740851  0.67454319  0.08506241  1
  Mn3.34+  Mn177  1  0.59448634  0.16155620  0.91635908  1
  Mn3.34+  Mn178  1  0.41495277  0.67028759  0.41927989  1
  Mn3.34+  Mn179  1  0.91121840  0.66179210  0.24393067  1
  Mn3.34+  Mn180  1  0.74534777  -0.00151756  0.75117217  1
  Mn3.34+  Mn181  1  0.08185258  0.50136735  0.74822497  1
  Mn3.34+  Mn182  1  0.41326785  0.00038785  0.40862301  1
  Mn3.34+  Mn183  1  0.08553760  0.50927000  0.07923183  1
  Mn3.34+  Mn184  1  0.91273676  0.50283907  0.91898280  1
  Mn3.34+  Mn185  1  0.75061617  -0.00522014  0.06999292  1
  Mn3.34+  Mn186  1  0.07043087  0.50570114  0.74823283  1
  Mn3.34+  Mn187  1  0.42266785  0.50074933  0.75227688  1
  Mn3.34+  Mn188  1  0.42216650  0.00098931  0.74889694  1
  Mn3.34+  Mn189  1  0.23363012  -0.00803015  0.26946885  1
  Mn3.34+  Mn190  1  0.08496807  0.50453612  0.41375712  1
  Mn3.34+  Mn191  1  0.92747129  -0.00190701  0.25552682  1
  Mn3.34+  Mn192  1  0.91363718  -0.00152463  0.58076678  1
  Mn3.34+  Mn193  1  0.08591067  -0.00566003  0.07970446  1
  Mn3.34+  Mn194  1  0.91328447  0.49888139  0.24649322  1
  Mn3.34+  Mn195  1  0.74167829  0.00125875  0.40394152  1
  Mn3.34+  Mn196  1  0.75281972  0.49726751  0.74539949  1
  Mn3.34+  Mn197  1  0.58335517  -0.00081136  0.57845737  1
  Mn3.34+  Mn198  1  0.41446522  0.00250246  0.07634225  1
  Mn3.34+  Mn199  1  0.07098743  -0.00297449  0.08449931  1
  Mn3.34+  Mn200  1  0.07700341  0.00041982  0.76134363  1
  Mn3.34+  Mn201  1  0.42506019  -0.00218572  0.07694712  1
  Mn3.34+  Mn202  1  0.25413225  -0.00227604  0.57263744  1
  Mn3.34+  Mn203  1  0.25467578  0.50830174  0.58521206  1
  Mn3.34+  Mn204  1  0.74193102  0.50509801  0.74666875  1
  Mn3.34+  Mn205  1  0.41490543  0.50279438  0.41349425  1
  Mn3.34+  Mn206  1  0.08702196  -0.00589408  0.76010863  1
  Mn3.34+  Mn207  1  0.42468291  0.00491333  0.40755437  1
  Mn3.34+  Mn208  1  0.75009345  0.49887511  0.41020517  1
  Mn3.34+  Mn209  1  0.25109144  0.50230079  0.24810309  1
  Mn3.34+  Mn210  1  0.07157322  0.50407051  0.07975260  1
  Mn3.34+  Mn211  1  0.42023131  0.49824935  0.07081677  1
  Mn3.34+  Mn212  1  0.58488133  0.50003142  0.92926281  1
  Mn3.34+  Mn213  1  0.42527967  0.50762621  0.41255968  1
  Mn3.34+  Mn214  1  0.58976841  -0.00204992  0.91317792  1
  Mn3.34+  Mn215  1  0.91400359  -0.00052844  0.91698057  1
  O2-  O216  1  -0.00237275  0.14979599  -0.00263669  1
  O2-  O217  1  -0.00218814  0.14725450  0.33055969  1
  O2-  O218  1  0.00608872  0.15681125  0.66612760  1
  O2-  O219  1  0.00401546  0.67812163  -0.00171169  1
  O2-  O220  1  -0.00066150  0.65719899  0.33249434  1
  O2-  O221  1  -0.00441782  0.67054634  0.67356820  1
  O2-  O222  1  0.32887661  0.15815483  -0.00042875  1
  O2-  O223  1  0.33756543  0.16271676  0.33992828  1
  O2-  O224  1  0.33382266  0.15059313  0.66171139  1
  O2-  O225  1  0.33241763  0.66914327  -0.01413393  1
  O2-  O226  1  0.33538057  0.66807595  0.32855374  1
  O2-  O227  1  0.33843447  0.67143890  0.67645891  1
  O2-  O228  1  0.66560961  0.16192877  0.00049858  1
  O2-  O229  1  0.66385725  0.16659493  0.32726597  1
  O2-  O230  1  0.66437450  0.17448316  0.66301161  1
  O2-  O231  1  0.66570720  0.66721443  -0.00255541  1
  O2-  O232  1  0.66777943  0.66216502  0.32570292  1
  O2-  O233  1  0.67312805  0.65469881  0.67553717  1
  O2-  O234  1  0.16304697  0.14671480  0.00022253  1
  O2-  O235  1  0.16741156  0.15892867  0.32855935  1
  O2-  O236  1  0.17222231  0.15432720  0.66487998  1
  O2-  O237  1  0.16696131  0.67985265  -0.00186754  1
  O2-  O238  1  0.16170383  0.67124886  0.33032364  1
  O2-  O239  1  0.16501898  0.67397711  0.68110405  1
  O2-  O240  1  0.50701936  0.15659458  -0.00023110  1
  O2-  O241  1  0.50010808  0.17139819  0.33558937  1
  O2-  O242  1  0.50077228  0.15658430  0.66827499  1
  O2-  O243  1  0.50386080  0.68005128  -0.00715372  1
  O2-  O244  1  0.49227806  0.66118794  0.32710020  1
  O2-  O245  1  0.50060541  0.66872244  0.67452717  1
  O2-  O246  1  0.83681960  0.16425410  -0.00168693  1
  O2-  O247  1  0.83111399  0.14205017  0.33250133  1
  O2-  O248  1  0.82629107  0.16332137  0.66435768  1
  O2-  O249  1  0.82902688  0.66382598  -0.00499700  1
  O2-  O250  1  0.83758361  0.64640261  0.32959227  1
  O2-  O251  1  0.83061210  0.65175892  0.66525340  1
  O2-  O252  1  0.00760006  0.34808409  -0.00886707  1
  O2-  O253  1  -0.00470190  0.34725686  0.33987126  1
  O2-  O254  1  0.00114106  0.33508623  0.66745846  1
  O2-  O255  1  0.00199674  0.81030160  0.00156254  1
  O2-  O256  1  -0.00156148  0.83671142  0.33502205  1
  O2-  O257  1  -0.00243326  0.83437468  0.66957929  1
  O2-  O258  1  0.33415417  0.34475587  0.00079006  1
  O2-  O259  1  0.33131491  0.35251128  0.33357428  1
  O2-  O260  1  0.33796834  0.34853904  0.66378258  1
  O2-  O261  1  0.33357721  0.83655164  -0.00399133  1
  O2-  O262  1  0.34171500  0.84275193  0.32387980  1
  O2-  O263  1  0.33637420  0.83336699  0.67117094  1
  O2-  O264  1  0.66826398  0.33580536  -0.00212714  1
  O2-  O265  1  0.66324108  0.33400843  0.33617664  1
  O2-  O266  1  0.66361264  0.31345502  0.66850292  1
  O2-  O267  1  0.66618902  0.83283368  -0.00248598  1
  O2-  O268  1  0.67062877  0.84629271  0.32809439  1
  O2-  O269  1  0.66824485  0.84204684  0.66284231  1
  O2-  O270  1  0.16901564  0.35006291  0.00317282  1
  O2-  O271  1  0.16435173  0.35095611  0.33046311  1
  O2-  O272  1  0.16662571  0.33532432  0.66927140  1
  O2-  O273  1  0.17370907  0.81676872  0.00076041  1
  O2-  O274  1  0.17369614  0.82106060  0.33516527  1
  O2-  O275  1  0.16655045  0.83827363  0.66950553  1
  O2-  O276  1  0.50171746  0.33322741  0.00317041  1
  O2-  O277  1  0.50767697  0.34065479  0.34267163  1
  O2-  O278  1  0.50429262  0.34253741  0.66348486  1
  O2-  O279  1  0.49809442  0.83893864  -0.00239284  1
  O2-  O280  1  0.49987840  0.84919075  0.33344486  1
  O2-  O281  1  0.49423372  0.83210448  0.66275885  1
  O2-  O282  1  0.83095976  0.34115749  -0.00295089  1
  O2-  O283  1  0.83138318  0.35083989  0.33303046  1
  O2-  O284  1  0.83352480  0.32788648  0.67173652  1
  O2-  O285  1  0.83114220  0.82742434  -0.00577229  1
  O2-  O286  1  0.83489038  0.84504656  0.33709566  1
  O2-  O287  1  0.83427693  0.84649772  0.66816091  1
  O2-  O288  1  -0.00332098  0.18018689  0.16554161  1
  O2-  O289  1  0.00410697  0.17882212  0.49470671  1
  O2-  O290  1  0.00077653  0.18052604  0.83774494  1
  O2-  O291  1  0.00030703  0.68530394  0.16778593  1
  O2-  O292  1  -0.00683075  0.67419761  0.49564313  1
  O2-  O293  1  0.00022194  0.68797833  0.83833659  1
  O2-  O294  1  0.32284769  0.16981459  0.16857357  1
  O2-  O295  1  0.33989449  0.17120516  0.50852816  1
  O2-  O296  1  0.32579106  0.17923589  0.82087055  1
  O2-  O297  1  0.33462250  0.67940040  0.17969558  1
  O2-  O298  1  0.34217239  0.67966252  0.49960167  1
  O2-  O299  1  0.32717602  0.68980407  0.82931820  1
  O2-  O300  1  0.66099455  0.18204437  0.17078619  1
  O2-  O301  1  0.66610941  0.18963189  0.50524102  1
  O2-  O302  1  0.66373113  0.18140555  0.83314933  1
  O2-  O303  1  0.66711640  0.67562983  0.17019680  1
  O2-  O304  1  0.67417564  0.67396688  0.50976315  1
  O2-  O305  1  0.66994312  0.67885234  0.83031678  1
  O2-  O306  1  0.16304476  0.16829970  0.15709365  1
  O2-  O307  1  0.16120530  0.18013310  0.50693962  1
  O2-  O308  1  0.17025439  0.18321301  0.83226104  1
  O2-  O309  1  0.16353619  0.69031425  0.17216401  1
  O2-  O310  1  0.16418594  0.67280210  0.49543923  1
  O2-  O311  1  0.16612988  0.68370909  0.83690316  1
  O2-  O312  1  0.49651274  0.17826998  0.17029217  1
  O2-  O313  1  0.49382298  0.18317441  0.51064562  1
  O2-  O314  1  0.50706542  0.17568292  0.83164105  1
  O2-  O315  1  0.49883671  0.67957641  0.17483376  1
  O2-  O316  1  0.49520350  0.67582531  0.49672099  1
  O2-  O317  1  0.50196845  0.68207144  0.83901118  1
  O2-  O318  1  0.82858711  0.16948112  0.17505479  1
  O2-  O319  1  0.83578090  0.17513777  0.50310224  1
  O2-  O320  1  0.83786898  0.18338696  0.82679674  1
  O2-  O321  1  0.83214327  0.67690472  0.16100697  1
  O2-  O322  1  0.83820513  0.67101191  0.50208026  1
  O2-  O323  1  0.83756762  0.68335208  0.83420699  1
  O2-  O324  1  0.00718219  0.32046030  0.17947044  1
  O2-  O325  1  0.00299755  0.32412373  0.50380697  1
  O2-  O326  1  0.00124370  0.31978193  0.83215578  1
  O2-  O327  1  0.00173450  0.81265317  0.16651398  1
  O2-  O328  1  -0.00141832  0.82252387  0.50194967  1
  O2-  O329  1  -0.00579465  0.81315456  0.82718285  1
  O2-  O330  1  0.33068011  0.33112729  0.16416642  1
  O2-  O331  1  0.33344752  0.33659694  0.50124437  1
  O2-  O332  1  0.32790812  0.32300601  0.82615479  1
  O2-  O333  1  0.33562460  0.82450757  0.16732541  1
  O2-  O334  1  0.34108912  0.82538925  0.50698536  1
  O2-  O335  1  0.33374656  0.81287426  0.83458538  1
  O2-  O336  1  0.66694803  0.31907235  0.17094070  1
  O2-  O337  1  0.66250183  0.31888277  0.49509920  1
  O2-  O338  1  0.66570453  0.31966557  0.83178737  1
  O2-  O339  1  0.66585687  0.82590116  0.16572664  1
  O2-  O340  1  0.66512483  0.83220670  0.49797067  1
  O2-  O341  1  0.66927961  0.81598530  0.83728739  1
  O2-  O342  1  0.16500999  0.32828467  0.16673173  1
  O2-  O343  1  0.17188469  0.32478128  0.49443703  1
  O2-  O344  1  0.16080646  0.31628725  0.83807267  1
  O2-  O345  1  0.17250742  0.81354764  0.16380330  1
  O2-  O346  1  0.16205344  0.82571598  0.50438600  1
  O2-  O347  1  0.17097744  0.81177126  0.82929604  1
  O2-  O348  1  0.49549001  0.31711404  0.17751845  1
  O2-  O349  1  0.49819987  0.31572341  0.50841931  1
  O2-  O350  1  0.50402199  0.32323305  0.83077373  1
  O2-  O351  1  0.49579647  0.82522273  0.16928268  1
  O2-  O352  1  0.49460499  0.82973821  0.50366839  1
  O2-  O353  1  0.50067700  0.80457971  0.83448029  1
  O2-  O354  1  0.83059559  0.32747009  0.16946259  1
  O2-  O355  1  0.83632727  0.32625047  0.49464629  1
  O2-  O356  1  0.83519841  0.31943944  0.83124258  1
  O2-  O357  1  0.82896677  0.82342412  0.17177586  1
  O2-  O358  1  0.83130825  0.83052508  0.50233495  1
  O2-  O359  1  0.83654773  0.82132037  0.83089930  1
  O2-  O360  1  0.06652423  0.07715865  0.11760805  1
  O2-  O361  1  0.07601280  0.07834011  0.45857431  1
  O2-  O362  1  0.10218651  0.08064078  0.77823780  1
  O2-  O363  1  0.08770294  0.58785331  0.11248263  1
  O2-  O364  1  0.05952185  0.58393685  0.42636812  1
  O2-  O365  1  0.09040195  0.58603042  0.78020378  1
  O2-  O366  1  0.41060891  0.07991429  0.11655309  1
  O2-  O367  1  0.42632145  0.08385536  0.44980831  1
  O2-  O368  1  0.40565594  0.08423894  0.77083042  1
  O2-  O369  1  0.41849933  0.57566128  0.09630640  1
  O2-  O370  1  0.41210556  0.58646627  0.43936661  1
  O2-  O371  1  0.40588289  0.58328719  0.77740835  1
  O2-  O372  1  0.74949233  0.07168202  0.10870854  1
  O2-  O373  1  0.75248123  0.07390207  0.47041789  1
  O2-  O374  1  0.73954661  0.08106055  0.74908406  1
  O2-  O375  1  0.74733078  0.57893922  0.11094792  1
  O2-  O376  1  0.77146277  0.57334377  0.44327979  1
  O2-  O377  1  0.75778916  0.58079016  0.78676876  1
  O2-  O378  1  0.24080234  0.06198331  0.21431213  1
  O2-  O379  1  0.23739711  0.08246973  0.55691754  1
  O2-  O380  1  0.23835744  0.08119258  0.87990216  1
  O2-  O381  1  0.24956051  0.58362705  0.23312472  1
  O2-  O382  1  0.27346708  0.58496887  0.60082980  1
  O2-  O383  1  0.24166551  0.58031957  0.87185434  1
  O2-  O384  1  0.60345534  0.07992398  0.21502437  1
  O2-  O385  1  0.59180339  0.08383061  0.57043176  1
  O2-  O386  1  0.58934552  0.08042623  0.88463428  1
  O2-  O387  1  0.56557731  0.58481855  0.23482699  1
  O2-  O388  1  0.58830173  0.57823289  0.56570299  1
  O2-  O389  1  0.58327364  0.56506239  0.87140050  1
  O2-  O390  1  0.90721403  0.07686329  0.21660337  1
  O2-  O391  1  0.92673985  0.08249673  0.55105620  1
  O2-  O392  1  0.92422245  0.08094477  0.87943566  1
  O2-  O393  1  0.93113880  0.58004184  0.22008786  1
  O2-  O394  1  0.90839996  0.58185549  0.56348854  1
  O2-  O395  1  0.93201814  0.57938594  0.87982300  1
  O2-  O396  1  0.07783840  0.42449609  0.12148659  1
  O2-  O397  1  0.09918603  0.42463782  0.45183018  1
  O2-  O398  1  0.08495332  0.41877879  0.77992261  1
  O2-  O399  1  0.10380248  0.91449124  0.09024494  1
  O2-  O400  1  0.07250724  0.91634133  0.43883257  1
  O2-  O401  1  0.06319731  0.91363120  0.76881556  1
  O2-  O402  1  0.40907036  0.42120586  0.11423326  1
  O2-  O403  1  0.42112477  0.42159365  0.45331104  1
  O2-  O404  1  0.42693756  0.41756070  0.76184709  1
  O2-  O405  1  0.41673675  0.91551972  0.10578980  1
  O2-  O406  1  0.41497346  0.92068597  0.44980875  1
  O2-  O407  1  0.40695116  0.91820037  0.77119716  1
  O2-  O408  1  0.74492522  0.41867842  0.09650805  1
  O2-  O409  1  0.73712470  0.41872220  0.44049956  1
  O2-  O410  1  0.74495175  0.41885269  0.76835106  1
  O2-  O411  1  0.74221015  0.91555123  0.09942801  1
  O2-  O412  1  0.74539943  0.92345278  0.44089238  1
  O2-  O413  1  0.76634144  0.91769867  0.77895385  1
  O2-  O414  1  0.23966430  0.42296115  0.20925720  1
  O2-  O415  1  0.24852686  0.42770605  0.54966001  1
  O2-  O416  1  0.23218583  0.41600744  0.88738209  1
  O2-  O417  1  0.27140165  0.92644234  0.21296666  1
  O2-  O418  1  0.27039790  0.91487008  0.58140736  1
  O2-  O419  1  0.25895621  0.91357956  0.89030021  1
  O2-  O420  1  0.58939642  0.41364395  0.24453284  1
  O2-  O421  1  0.56106119  0.42318099  0.53679927  1
  O2-  O422  1  0.59889002  0.42805061  0.88400732  1
  O2-  O423  1  0.56989632  0.91586223  0.21871696  1
  O2-  O424  1  0.56585778  0.91840866  0.55937416  1
  O2-  O425  1  0.58566105  0.91835240  0.89520497  1
  O2-  O426  1  0.92987145  0.41764786  0.22417034  1
  O2-  O427  1  0.92324545  0.41708238  0.56223892  1
  O2-  O428  1  0.92989287  0.42277401  0.87923631  1
  O2-  O429  1  0.90529571  0.92013090  0.23784574  1
  O2-  O430  1  0.92592063  0.91525521  0.56934281  1
  O2-  O431  1  0.91179746  0.91839864  0.88526405  1
  O2-  O432  1  0.00370125  0.01297530  -0.00540707  1
  O2-  O433  1  -0.00270428  0.01071392  0.33398428  1
  O2-  O434  1  0.00902944  0.01520060  0.66118361  1
  O2-  O435  1  0.01397357  0.49958137  -0.02433248  1
  O2-  O436  1  0.00525929  0.48894098  0.32640024  1
  O2-  O437  1  -0.00353739  0.48723724  0.66854877  1
  O2-  O438  1  0.32264342  -0.00188442  0.01143451  1
  O2-  O439  1  0.33484639  0.00791223  0.32141358  1
  O2-  O440  1  0.32571792  0.01575346  0.67198835  1
  O2-  O441  1  0.32534563  0.49522277  0.01901887  1
  O2-  O442  1  0.32701219  0.48252448  0.33952797  1
  O2-  O443  1  0.33238586  0.48455586  0.67130030  1
  O2-  O444  1  0.65398471  -0.00165295  0.01343424  1
  O2-  O445  1  0.68181239  0.00275333  0.31421422  1
  O2-  O446  1  0.67783022  -0.00165476  0.64987364  1
  O2-  O447  1  0.66950613  0.50784160  -0.01361507  1
  O2-  O448  1  0.66888699  0.49457039  0.33545607  1
  O2-  O449  1  0.65378477  0.50764687  0.68084927  1
  O2-  O450  1  0.17329409  0.01394265  0.02016577  1
  O2-  O451  1  0.14955957  0.00848499  0.32510987  1
  O2-  O452  1  0.16555096  0.00776457  0.66645654  1
  O2-  O453  1  0.16746853  0.47849471  0.00486548  1
  O2-  O454  1  0.16384972  0.48327680  0.32756153  1
  O2-  O455  1  0.17393600  0.50091378  0.67472335  1
  O2-  O456  1  0.49884719  0.00178522  -0.01102924  1
  O2-  O457  1  0.49701372  -0.01520600  0.32329022  1
  O2-  O458  1  0.47996562  0.00586333  0.63831061  1
  O2-  O459  1  0.49053283  0.50562980  -0.01738406  1
  O2-  O460  1  0.50219027  0.48110682  0.33505144  1
  O2-  O461  1  0.49161560  0.49805699  0.66451520  1
  O2-  O462  1  0.83726289  0.00527624  0.00303824  1
  O2-  O463  1  0.83451454  0.01482889  0.33260001  1
  O2-  O464  1  0.83794551  0.00899224  0.67392933  1
  O2-  O465  1  0.81346780  0.50671068  -0.03990892  1
  O2-  O466  1  0.84245121  0.49684207  0.34286902  1
  O2-  O467  1  0.84524149  0.50557619  0.68769135  1
  O2-  O468  1  0.08310885  0.24665803  0.39407429  1
  O2-  O469  1  0.58887512  0.75174684  0.59102352  1
  O2-  O470  1  0.76636078  0.24988464  0.39630103  1
  O2-  O471  1  0.08775835  0.24648033  0.06057914  1
  O2-  O472  1  0.40776614  0.25467718  0.07404612  1
  O2-  O473  1  0.58486427  0.75267445  0.26812934  1
  O2-  O474  1  0.25654677  0.24883781  0.60122379  1
  O2-  O475  1  0.75387506  0.25604030  0.07404854  1
  O2-  O476  1  0.07266690  0.74947063  0.40963793  1
  O2-  O477  1  0.90572447  0.74926744  0.27254718  1
  O2-  O478  1  0.42086569  0.75309421  0.39729601  1
  O2-  O479  1  0.92394343  0.25264066  0.94283426  1
  O2-  O480  1  0.41420339  0.25082831  0.72473118  1
  O2-  O481  1  0.40339179  0.25178797  0.40569597  1
  O2-  O482  1  0.75304380  0.75029170  0.72352618  1
  O2-  O483  1  0.58007335  0.24796406  0.93284669  1
  O2-  O484  1  0.75084921  0.74539676  0.07445208  1
  O2-  O485  1  0.41682505  0.74962904  0.07326805  1
  O2-  O486  1  0.91811246  0.25217014  0.59326917  1
  O2-  O487  1  0.75183539  0.75392281  0.40746675  1
  O2-  O488  1  0.24749088  0.75148520  0.58860705  1
  O2-  O489  1  0.24762124  0.25739415  0.26136899  1
  O2-  O490  1  0.90912068  0.24854530  0.27197859  1
  O2-  O491  1  0.25491448  0.25108126  0.94267817  1
  O2-  O492  1  0.90436424  0.74960937  0.59767828  1
