# generated using pymatgen
data_Ca108Mn108O277
_symmetry_space_group_name_H-M   'P 1'
_cell_length_a   16.02526504
_cell_length_b   22.30365180
_cell_length_c   16.38893313
_cell_angle_alpha   89.99995015
_cell_angle_beta   90.00457926
_cell_angle_gamma   90.00124135
_symmetry_Int_Tables_number   1
_chemical_formula_structural   Ca108Mn108O277
_chemical_formula_sum   'Ca108 Mn108 O277'
_cell_volume   5857.76411236
_cell_formula_units_Z   1
loop_
 _symmetry_equiv_pos_site_id
 _symmetry_equiv_pos_as_xyz
  1  'x, y, z'
loop_
 _atom_type_symbol
 _atom_type_oxidation_number
  Ca2+  2.0
  Mn3.34+  3.34
  O2-  -2.0
loop_
 _atom_site_type_symbol
 _atom_site_label
 _atom_site_symmetry_multiplicity
 _atom_site_fract_x
 _atom_site_fract_y
 _atom_site_fract_z
 _atom_site_occupancy
  Ca2+  Ca0  1  0.07740721  0.24542857  0.26455982  1
  Ca2+  Ca1  1  0.07542856  0.24950053  0.55454279  1
  Ca2+  Ca2  1  0.07833645  0.26420541  0.92393680  1
  Ca2+  Ca3  1  0.07336234  0.75004739  0.25558741  1
  Ca2+  Ca4  1  0.08382438  0.74897826  0.58070583  1
  Ca2+  Ca5  1  0.07697119  0.76154869  0.91341967  1
  Ca2+  Ca6  1  0.40525635  0.25546979  0.24612631  1
  Ca2+  Ca7  1  0.40530677  0.27181075  0.58074283  1
  Ca2+  Ca8  1  0.44556419  0.24886573  0.92862711  1
  Ca2+  Ca9  1  0.39688039  0.75602992  0.24985788  1
  Ca2+  Ca10  1  0.42216587  0.75081147  0.59357623  1
  Ca2+  Ca11  1  0.41874106  0.74498527  0.90896093  1
  Ca2+  Ca12  1  0.77011089  0.24761799  0.25898718  1
  Ca2+  Ca13  1  0.75922089  0.24590694  0.58676460  1
  Ca2+  Ca14  1  0.73468377  0.25775560  0.91503684  1
  Ca2+  Ca15  1  0.78036959  0.73443932  0.24368022  1
  Ca2+  Ca16  1  0.74605280  0.73728588  0.59679656  1
  Ca2+  Ca17  1  0.75408717  0.73242196  0.91558718  1
  Ca2+  Ca18  1  0.25545486  0.24707831  0.11663182  1
  Ca2+  Ca19  1  0.22474230  0.24395488  0.40107079  1
  Ca2+  Ca20  1  0.24998267  0.26425304  0.73822896  1
  Ca2+  Ca21  1  0.25331753  0.75725201  0.09735493  1
  Ca2+  Ca22  1  0.24660445  0.75696577  0.40230946  1
  Ca2+  Ca23  1  0.25479358  0.74253198  0.75471277  1
  Ca2+  Ca24  1  0.57685693  0.24706184  0.07745940  1
  Ca2+  Ca25  1  0.59478954  0.25879407  0.41143699  1
  Ca2+  Ca26  1  0.60432711  0.24716289  0.77711276  1
  Ca2+  Ca27  1  0.60746625  0.74986680  0.07059121  1
  Ca2+  Ca28  1  0.60048142  0.75546937  0.43370914  1
  Ca2+  Ca29  1  0.59529436  0.74099047  0.74597041  1
  Ca2+  Ca30  1  0.91697465  0.25207788  0.10993163  1
  Ca2+  Ca31  1  0.93375066  0.24058229  0.40126236  1
  Ca2+  Ca32  1  0.88841713  0.23828121  0.73975254  1
  Ca2+  Ca33  1  0.89928100  0.75391383  0.08349002  1
  Ca2+  Ca34  1  0.91292310  0.74509823  0.40360526  1
  Ca2+  Ca35  1  0.89725275  0.74228660  0.75062642  1
  Ca2+  Ca36  1  0.23718497  0.08704854  0.73613608  1
  Ca2+  Ca37  1  0.86667833  0.60061411  0.09940045  1
  Ca2+  Ca38  1  0.60048962  0.59006428  0.42428557  1
  Ca2+  Ca39  1  0.07773635  0.10837583  0.54291073  1
  Ca2+  Ca40  1  0.24274883  0.57195549  0.40126571  1
  Ca2+  Ca41  1  0.60036460  0.09348237  0.41263376  1
  Ca2+  Ca42  1  0.30716667  0.58984582  0.75531619  1
  Ca2+  Ca43  1  0.60928292  0.10446155  0.75449929  1
  Ca2+  Ca44  1  0.74532847  0.09856189  0.90339151  1
  Ca2+  Ca45  1  0.58832653  0.59096114  0.42332630  1
  Ca2+  Ca46  1  0.40346737  0.10189033  0.23378511  1
  Ca2+  Ca47  1  0.37875212  0.56626115  0.26282116  1
  Ca2+  Ca48  1  0.09029227  0.58150147  0.26166022  1
  Ca2+  Ca49  1  0.85669706  0.60115452  0.10148215  1
  Ca2+  Ca50  1  0.41174012  0.09021621  0.58787111  1
  Ca2+  Ca51  1  0.22509641  0.08377988  0.73968003  1
  Ca2+  Ca52  1  0.23791429  0.57925154  0.08947782  1
  Ca2+  Ca53  1  0.92771151  0.59246123  0.41711225  1
  Ca2+  Ca54  1  0.44623297  0.08647085  0.95582133  1
  Ca2+  Ca55  1  0.92408877  0.07753109  0.12422389  1
  Ca2+  Ca56  1  0.10075323  0.58159079  0.26258529  1
  Ca2+  Ca57  1  0.73692036  0.10225291  0.90781024  1
  Ca2+  Ca58  1  0.26271112  0.09475367  0.09674278  1
  Ca2+  Ca59  1  0.44769664  0.60466713  0.90253311  1
  Ca2+  Ca60  1  0.23469955  0.57669077  0.40223911  1
  Ca2+  Ca61  1  0.59969718  0.10147018  0.75796771  1
  Ca2+  Ca62  1  0.64134135  0.60082012  0.05499435  1
  Ca2+  Ca63  1  0.76813095  0.59333117  0.61506050  1
  Ca2+  Ca64  1  0.57748115  0.60848552  0.76556921  1
  Ca2+  Ca65  1  0.92618644  0.09136737  0.38234091  1
  Ca2+  Ca66  1  0.58806481  0.09114510  0.40924331  1
  Ca2+  Ca67  1  0.08979502  0.58931560  0.91613172  1
  Ca2+  Ca68  1  0.25014599  0.58078198  0.09053433  1
  Ca2+  Ca69  1  0.07767167  0.09001087  0.27743507  1
  Ca2+  Ca70  1  0.75911706  0.10337559  0.59291992  1
  Ca2+  Ca71  1  0.07710907  0.58961224  0.91558020  1
  Ca2+  Ca72  1  0.57425615  0.40801131  0.75859271  1
  Ca2+  Ca73  1  0.57072507  0.40803434  0.41010699  1
  Ca2+  Ca74  1  0.76179284  0.90618749  0.92128012  1
  Ca2+  Ca75  1  0.90427918  0.41341636  0.73945977  1
  Ca2+  Ca76  1  0.60855995  0.40652077  0.08163251  1
  Ca2+  Ca77  1  0.76245032  0.41110655  0.58004203  1
  Ca2+  Ca78  1  0.41551826  0.91401713  0.93494321  1
  Ca2+  Ca79  1  0.77335686  0.90921949  0.25042603  1
  Ca2+  Ca80  1  0.59341784  0.90098152  0.75650321  1
  Ca2+  Ca81  1  0.91295296  0.40813863  0.73901314  1
  Ca2+  Ca82  1  0.25209180  0.40908400  0.09563829  1
  Ca2+  Ca83  1  0.93272419  0.40923394  0.42064658  1
  Ca2+  Ca84  1  0.42670688  0.91346328  0.93722792  1
  Ca2+  Ca85  1  0.90062113  0.40184597  0.08695333  1
  Ca2+  Ca86  1  0.57873595  0.90110054  0.41185735  1
  Ca2+  Ca87  1  0.23774791  0.42571572  0.39372289  1
  Ca2+  Ca88  1  0.27334801  0.41447136  0.74804375  1
  Ca2+  Ca89  1  0.08765353  0.41652511  0.93944830  1
  Ca2+  Ca90  1  0.92892956  0.92045194  0.39189765  1
  Ca2+  Ca91  1  0.41948499  0.90033308  0.24547457  1
  Ca2+  Ca92  1  0.56348951  0.40555551  0.75957450  1
  Ca2+  Ca93  1  0.40377394  0.42085339  0.27338543  1
  Ca2+  Ca94  1  0.41491850  0.40980372  0.92025293  1
  Ca2+  Ca95  1  0.76744805  0.89715794  0.57769939  1
  Ca2+  Ca96  1  0.93330641  0.91206548  0.08588991  1
  Ca2+  Ca97  1  0.58411882  0.89993626  0.08441858  1
  Ca2+  Ca98  1  0.23281645  0.89689560  0.74702674  1
  Ca2+  Ca99  1  0.07828777  0.89720477  0.58100771  1
  Ca2+  Ca100  1  0.75460016  0.89781774  0.57822536  1
  Ca2+  Ca101  1  0.06114985  0.92060660  0.25432468  1
  Ca2+  Ca102  1  0.75094242  0.41029669  0.58107778  1
  Ca2+  Ca103  1  0.08365686  0.41030223  0.57298909  1
  Ca2+  Ca104  1  0.23973763  0.41044142  0.09783518  1
  Ca2+  Ca105  1  0.23370386  0.90812447  0.08812683  1
  Ca2+  Ca106  1  0.58077538  0.90224519  0.75494267  1
  Ca2+  Ca107  1  0.24546031  0.89730909  0.74632784  1
  Mn3.34+  Mn108  1  0.08132225  0.33676359  0.08769009  1
  Mn3.34+  Mn109  1  0.08536193  0.34057351  0.41324453  1
  Mn3.34+  Mn110  1  0.08402586  0.33457544  0.75438640  1
  Mn3.34+  Mn111  1  0.08137152  0.83917981  0.08754657  1
  Mn3.34+  Mn112  1  0.08257703  0.84188891  0.41863661  1
  Mn3.34+  Mn113  1  0.07062319  0.83406092  0.75220462  1
  Mn3.34+  Mn114  1  0.41808770  0.33502151  0.08850696  1
  Mn3.34+  Mn115  1  0.41363396  0.33948763  0.41779111  1
  Mn3.34+  Mn116  1  0.41383218  0.33364961  0.75216269  1
  Mn3.34+  Mn117  1  0.41728407  0.83499057  0.08867694  1
  Mn3.34+  Mn118  1  0.41310273  0.83416649  0.41780596  1
  Mn3.34+  Mn119  1  0.41722288  0.82917603  0.75399160  1
  Mn3.34+  Mn120  1  0.75107917  0.33393047  0.08748474  1
  Mn3.34+  Mn121  1  0.75172022  0.33468925  0.41274641  1
  Mn3.34+  Mn122  1  0.74848547  0.33521739  0.75443498  1
  Mn3.34+  Mn123  1  0.75257838  0.83327588  0.08421402  1
  Mn3.34+  Mn124  1  0.75445404  0.83125512  0.41123204  1
  Mn3.34+  Mn125  1  0.75625155  0.82898177  0.75641864  1
  Mn3.34+  Mn126  1  0.24742605  0.33593310  0.25495040  1
  Mn3.34+  Mn127  1  0.24820705  0.33848155  0.57599640  1
  Mn3.34+  Mn128  1  0.25065036  0.33393232  0.91420890  1
  Mn3.34+  Mn129  1  0.24387192  0.83213361  0.25378362  1
  Mn3.34+  Mn130  1  0.25147427  0.82915434  0.57440223  1
  Mn3.34+  Mn131  1  0.24422221  0.82837499  0.92077840  1
  Mn3.34+  Mn132  1  0.58487583  0.33218541  0.24742818  1
  Mn3.34+  Mn133  1  0.58135473  0.33455353  0.58060961  1
  Mn3.34+  Mn134  1  0.58602175  0.33624974  0.92335645  1
  Mn3.34+  Mn135  1  0.58696244  0.82833370  0.24796201  1
  Mn3.34+  Mn136  1  0.57865823  0.83188481  0.57940755  1
  Mn3.34+  Mn137  1  0.58712738  0.82141412  0.91726255  1
  Mn3.34+  Mn138  1  0.91776592  0.33441331  0.25365564  1
  Mn3.34+  Mn139  1  0.91816906  0.33424993  0.57622143  1
  Mn3.34+  Mn140  1  0.91377723  0.33466792  0.91486290  1
  Mn3.34+  Mn141  1  0.91983076  0.83142439  0.24705610  1
  Mn3.34+  Mn142  1  0.92027475  0.82217038  0.57841966  1
  Mn3.34+  Mn143  1  0.91895065  0.83386723  0.91667912  1
  Mn3.34+  Mn144  1  0.58570621  0.67535017  0.24693496  1
  Mn3.34+  Mn145  1  0.24041824  0.66317128  0.58690401  1
  Mn3.34+  Mn146  1  0.92249716  0.16210849  0.91121157  1
  Mn3.34+  Mn147  1  0.24512334  0.17261955  0.57846161  1
  Mn3.34+  Mn148  1  0.41309654  0.66046661  0.42070680  1
  Mn3.34+  Mn149  1  0.07535988  0.66882799  0.75060610  1
  Mn3.34+  Mn150  1  0.41282528  0.66729283  0.08468351  1
  Mn3.34+  Mn151  1  0.40912648  0.16559776  0.75334353  1
  Mn3.34+  Mn152  1  0.58104137  0.66784168  0.58967332  1
  Mn3.34+  Mn153  1  0.92355157  0.66009377  0.58222662  1
  Mn3.34+  Mn154  1  0.07678516  0.16373454  0.08864957  1
  Mn3.34+  Mn155  1  0.93124774  0.15691222  0.90609845  1
  Mn3.34+  Mn156  1  0.42060633  0.16759615  0.08583798  1
  Mn3.34+  Mn157  1  0.40454755  0.16459033  0.41923289  1
  Mn3.34+  Mn158  1  0.42295711  0.66806837  0.41831045  1
  Mn3.34+  Mn159  1  0.08242938  0.66156736  0.42322133  1
  Mn3.34+  Mn160  1  0.41451354  0.16967457  0.41669589  1
  Mn3.34+  Mn161  1  0.24897956  0.17729601  0.91769012  1
  Mn3.34+  Mn162  1  0.42216228  0.17211677  0.75086303  1
  Mn3.34+  Mn163  1  0.75607566  0.16959542  0.41506239  1
  Mn3.34+  Mn164  1  0.59596875  0.66639472  0.24313334  1
  Mn3.34+  Mn165  1  0.08685667  0.15907765  0.09127826  1
  Mn3.34+  Mn166  1  0.76011675  0.66620382  0.42254416  1
  Mn3.34+  Mn167  1  0.25360256  0.66786965  0.90930536  1
  Mn3.34+  Mn168  1  0.08503193  0.66744104  0.08646304  1
  Mn3.34+  Mn169  1  0.58195746  0.17144578  0.24697478  1
  Mn3.34+  Mn170  1  0.74395112  0.15913593  0.09291798  1
  Mn3.34+  Mn171  1  0.25113356  0.65830021  0.58713663  1
  Mn3.34+  Mn172  1  0.42335750  0.66286433  0.08718100  1
  Mn3.34+  Mn173  1  0.24048180  0.17116740  0.91513069  1
  Mn3.34+  Mn174  1  0.75699092  0.16612599  0.09086908  1
  Mn3.34+  Mn175  1  0.07587298  0.67302485  0.08405212  1
  Mn3.34+  Mn176  1  0.07586120  0.16744344  0.74738908  1
  Mn3.34+  Mn177  1  0.90868490  0.66778442  0.90607805  1
  Mn3.34+  Mn178  1  0.58122337  0.17649207  0.57937554  1
  Mn3.34+  Mn179  1  0.91657389  0.17092413  0.58090697  1
  Mn3.34+  Mn180  1  0.77687733  -0.00571713  0.74621608  1
  Mn3.34+  Mn181  1  0.25243295  -0.00647067  0.27455651  1
  Mn3.34+  Mn182  1  0.42917930  0.49817665  0.08237213  1
  Mn3.34+  Mn183  1  0.59163616  0.50010823  0.24222136  1
  Mn3.34+  Mn184  1  0.22051586  -0.00184058  0.93279014  1
  Mn3.34+  Mn185  1  0.58686179  -0.00407783  0.91839644  1
  Mn3.34+  Mn186  1  0.74919487  0.50207073  0.74558738  1
  Mn3.34+  Mn187  1  0.92972933  -0.00155458  0.57432700  1
  Mn3.34+  Mn188  1  0.24013373  0.00187904  0.56989745  1
  Mn3.34+  Mn189  1  0.09016179  0.49786525  0.73761495  1
  Mn3.34+  Mn190  1  0.23045661  0.00454624  0.92881504  1
  Mn3.34+  Mn191  1  0.58499260  0.00296244  0.58503026  1
  Mn3.34+  Mn192  1  0.89208142  0.50661950  0.92534719  1
  Mn3.34+  Mn193  1  0.60141624  0.50553070  0.24400809  1
  Mn3.34+  Mn194  1  0.56092294  0.50236834  0.59497659  1
  Mn3.34+  Mn195  1  0.55099221  0.49609684  0.59799586  1
  Mn3.34+  Mn196  1  0.75351232  0.50173076  0.42221365  1
  Mn3.34+  Mn197  1  0.74819093  -0.00243182  0.07832682  1
  Mn3.34+  Mn198  1  0.90737882  0.50327252  0.92223053  1
  Mn3.34+  Mn199  1  0.91991275  0.00307601  0.57789182  1
  Mn3.34+  Mn200  1  0.26728535  0.49523286  0.59496820  1
  Mn3.34+  Mn201  1  0.25146823  -0.00353469  0.56946482  1
  Mn3.34+  Mn202  1  0.91860644  0.49593509  0.25587246  1
  Mn3.34+  Mn203  1  0.40949417  -0.00317645  0.41893952  1
  Mn3.34+  Mn204  1  0.75734221  0.00197641  0.41297343  1
  Mn3.34+  Mn205  1  0.57026005  -0.00299905  0.58526473  1
  Mn3.34+  Mn206  1  0.57731093  0.00122719  0.24334406  1
  Mn3.34+  Mn207  1  0.07889531  0.50299468  0.73704759  1
  Mn3.34+  Mn208  1  0.90636315  0.50036380  0.25606888  1
  Mn3.34+  Mn209  1  0.25521600  0.50479217  0.91871781  1
  Mn3.34+  Mn210  1  0.58820009  0.49964865  0.93656840  1
  Mn3.34+  Mn211  1  0.58902172  0.00611522  0.24182484  1
  Mn3.34+  Mn212  1  0.24241559  0.00142194  0.27440691  1
  Mn3.34+  Mn213  1  0.92686851  -0.00414682  0.93449867  1
  Mn3.34+  Mn214  1  0.41224672  0.00090976  0.75782425  1
  Mn3.34+  Mn215  1  0.06072496  0.00011081  0.76047665  1
  O2-  O216  1  0.00619472  0.16352281  -0.00187361  1
  O2-  O217  1  0.00932500  0.16763479  0.33045242  1
  O2-  O218  1  0.00888690  0.17142149  0.65646977  1
  O2-  O219  1  0.00491089  0.65273539  -0.00300753  1
  O2-  O220  1  0.01328103  0.65993326  0.33699889  1
  O2-  O221  1  0.00069766  0.68989815  0.66484219  1
  O2-  O222  1  0.33116617  0.15987578  -0.00199727  1
  O2-  O223  1  0.33034802  0.15405631  0.33694597  1
  O2-  O224  1  0.32734051  0.14923621  0.67371475  1
  O2-  O225  1  0.33309724  0.63758324  -0.00229808  1
  O2-  O226  1  0.33462269  0.64525052  0.33990111  1
  O2-  O227  1  0.32920106  0.66610379  0.66864721  1
  O2-  O228  1  0.67627752  0.15377697  0.00205837  1
  O2-  O229  1  0.66277566  0.15749980  0.33791257  1
  O2-  O230  1  0.65925600  0.16387371  0.65999146  1
  O2-  O231  1  0.65686140  0.68361341  -0.01625152  1
  O2-  O232  1  0.66775818  0.65384914  0.33495962  1
  O2-  O233  1  0.66201078  0.65640828  0.66184641  1
  O2-  O234  1  0.16444373  0.15612295  0.00314606  1
  O2-  O235  1  0.14968735  0.16918336  0.33141238  1
  O2-  O236  1  0.16829649  0.15906896  0.66886609  1
  O2-  O237  1  0.16756329  0.65470820  0.00235750  1
  O2-  O238  1  0.16802853  0.65723107  0.34453400  1
  O2-  O239  1  0.16434104  0.66419945  0.67380844  1
  O2-  O240  1  0.49905264  0.16896261  0.00521234  1
  O2-  O241  1  0.49840563  0.14781831  0.33577163  1
  O2-  O242  1  0.49875425  0.15030600  0.66063452  1
  O2-  O243  1  0.50403037  0.66414678  0.00837088  1
  O2-  O244  1  0.50891613  0.65420208  0.32895130  1
  O2-  O245  1  0.50162093  0.67742941  0.66497257  1
  O2-  O246  1  0.83962825  0.15281413  0.00275697  1
  O2-  O247  1  0.83616666  0.16479407  0.34288590  1
  O2-  O248  1  0.83716877  0.16363603  0.66139626  1
  O2-  O249  1  0.83624791  0.65360882  -0.01235214  1
  O2-  O250  1  0.83944360  0.65740524  0.34881715  1
  O2-  O251  1  0.84365729  0.67406357  0.65495392  1
  O2-  O252  1  0.00115492  0.34164074  -0.00386818  1
  O2-  O253  1  -0.00141154  0.34330205  0.33543181  1
  O2-  O254  1  -0.00297684  0.34602311  0.66971320  1
  O2-  O255  1  0.00324089  0.83234794  0.00283011  1
  O2-  O256  1  0.00422057  0.84050017  0.33120064  1
  O2-  O257  1  0.00484680  0.82091338  0.65679383  1
  O2-  O258  1  0.32909562  0.34834413  0.00451703  1
  O2-  O259  1  0.33322864  0.34635907  0.33254232  1
  O2-  O260  1  0.33270135  0.34498927  0.66856109  1
  O2-  O261  1  0.33094308  0.85570547  0.00299032  1
  O2-  O262  1  0.33432429  0.84670710  0.32965513  1
  O2-  O263  1  0.33022098  0.83402962  0.67460997  1
  O2-  O264  1  0.66938857  0.33933829  0.00010183  1
  O2-  O265  1  0.65947470  0.34449450  0.34142553  1
  O2-  O266  1  0.66470659  0.35858762  0.66803865  1
  O2-  O267  1  0.66699359  0.84331751  -0.00188887  1
  O2-  O268  1  0.66852080  0.84583646  0.33271495  1
  O2-  O269  1  0.66908958  0.85073964  0.66483483  1
  O2-  O270  1  0.16811969  0.33273898  -0.00312080  1
  O2-  O271  1  0.17184834  0.34502947  0.33897221  1
  O2-  O272  1  0.16690495  0.34292155  0.67128514  1
  O2-  O273  1  0.16697373  0.82922324  0.00775785  1
  O2-  O274  1  0.15948723  0.82847899  0.33326483  1
  O2-  O275  1  0.16291383  0.83586900  0.66778839  1
  O2-  O276  1  0.49959165  0.35011457  0.00168328  1
  O2-  O277  1  0.49783343  0.34532139  0.32816163  1
  O2-  O278  1  0.50706552  0.33734861  0.67193926  1
  O2-  O279  1  0.49873644  0.83410666  -0.00240507  1
  O2-  O280  1  0.50216347  0.82973258  0.33013014  1
  O2-  O281  1  0.50553407  0.83433626  0.67609938  1
  O2-  O282  1  0.83930673  0.32666879  0.00206109  1
  O2-  O283  1  0.83893747  0.34433060  0.34168003  1
  O2-  O284  1  0.82971107  0.34689592  0.66513472  1
  O2-  O285  1  0.84155183  0.85360990  0.00904695  1
  O2-  O286  1  0.84079909  0.84605354  0.33630068  1
  O2-  O287  1  0.83358281  0.83556780  0.66289005  1
  O2-  O288  1  -0.00521564  0.17419591  0.16489545  1
  O2-  O289  1  -0.00822770  0.17850088  0.49718374  1
  O2-  O290  1  -0.00068800  0.19669855  0.82779208  1
  O2-  O291  1  -0.00037112  0.68595438  0.16276200  1
  O2-  O292  1  -0.00094273  0.68656276  0.49650283  1
  O2-  O293  1  0.00649772  0.68291181  0.83941799  1
  O2-  O294  1  0.33716437  0.17487407  0.16398808  1
  O2-  O295  1  0.34575344  0.17789858  0.51811059  1
  O2-  O296  1  0.33345145  0.19256384  0.83913150  1
  O2-  O297  1  0.32865770  0.66992534  0.15973902  1
  O2-  O298  1  0.33304448  0.67940991  0.50846034  1
  O2-  O299  1  0.33556521  0.67797954  0.83588877  1
  O2-  O300  1  0.66580571  0.18621662  0.16844172  1
  O2-  O301  1  0.66115686  0.18033438  0.49723601  1
  O2-  O302  1  0.66810131  0.16754296  0.83445717  1
  O2-  O303  1  0.66654130  0.68803317  0.16219882  1
  O2-  O304  1  0.66079832  0.67302548  0.49433741  1
  O2-  O305  1  0.64273889  0.68550832  0.84943106  1
  O2-  O306  1  0.17000732  0.17138784  0.16437140  1
  O2-  O307  1  0.16859834  0.18096539  0.50239055  1
  O2-  O308  1  0.16744322  0.19066022  0.82623856  1
  O2-  O309  1  0.16416149  0.69005549  0.16109836  1
  O2-  O310  1  0.16899822  0.68233039  0.50103634  1
  O2-  O311  1  0.16197258  0.68694702  0.83901016  1
  O2-  O312  1  0.49397560  0.18301006  0.17506546  1
  O2-  O313  1  0.50168978  0.18256193  0.49195803  1
  O2-  O314  1  0.50615243  0.17426889  0.82692893  1
  O2-  O315  1  0.49726316  0.69296319  0.17401423  1
  O2-  O316  1  0.50481851  0.68366179  0.49514430  1
  O2-  O317  1  0.50612779  0.68664360  0.83353471  1
  O2-  O318  1  0.83570365  0.17431217  0.16748131  1
  O2-  O319  1  0.82462451  0.17531421  0.50652696  1
  O2-  O320  1  0.82733016  0.18335914  0.85077101  1
  O2-  O321  1  0.83843051  0.68287532  0.15427768  1
  O2-  O322  1  0.83707590  0.68584002  0.50475328  1
  O2-  O323  1  0.83544334  0.67701348  0.83158809  1
  O2-  O324  1  -0.00431829  0.32939258  0.16097732  1
  O2-  O325  1  -0.00084468  0.32822365  0.49917463  1
  O2-  O326  1  -0.00164526  0.31686368  0.83251065  1
  O2-  O327  1  -0.00032542  0.81548998  0.16256455  1
  O2-  O328  1  0.00014503  0.80973554  0.49347280  1
  O2-  O329  1  -0.00858429  0.81241053  0.82835818  1
  O2-  O330  1  0.33132967  0.32427772  0.16625117  1
  O2-  O331  1  0.32741174  0.32385463  0.49377523  1
  O2-  O332  1  0.33504832  0.31688172  0.83700683  1
  O2-  O333  1  0.33067967  0.83376331  0.16676713  1
  O2-  O334  1  0.33463006  0.81475263  0.49995657  1
  O2-  O335  1  0.32974133  0.82438432  0.83299730  1
  O2-  O336  1  0.66204467  0.31685110  0.16177364  1
  O2-  O337  1  0.67200148  0.31866263  0.51240641  1
  O2-  O338  1  0.66002047  0.33357818  0.82849790  1
  O2-  O339  1  0.66496349  0.81706837  0.16372859  1
  O2-  O340  1  0.67084213  0.83228606  0.49967338  1
  O2-  O341  1  0.65667576  0.82201695  0.82513208  1
  O2-  O342  1  0.17253149  0.32848505  0.16041648  1
  O2-  O343  1  0.16098376  0.32408395  0.50481711  1
  O2-  O344  1  0.16717432  0.31001709  0.83408953  1
  O2-  O345  1  0.16422143  0.81996381  0.16687039  1
  O2-  O346  1  0.16206965  0.81779104  0.49835378  1
  O2-  O347  1  0.16731928  0.81524232  0.82470898  1
  O2-  O348  1  0.50000881  0.32071543  0.16548540  1
  O2-  O349  1  0.50408491  0.31534080  0.49740647  1
  O2-  O350  1  0.50318092  0.32398317  0.83283443  1
  O2-  O351  1  0.49834437  0.81349512  0.16834862  1
  O2-  O352  1  0.50119149  0.81568169  0.49564445  1
  O2-  O353  1  0.49889429  0.81288139  0.83605643  1
  O2-  O354  1  0.83254526  0.31989954  0.16818210  1
  O2-  O355  1  0.82661376  0.32414097  0.50643961  1
  O2-  O356  1  0.83831052  0.31991498  0.82589182  1
  O2-  O357  1  0.83057530  0.82642290  0.17069430  1
  O2-  O358  1  0.82789164  0.81818959  0.50586692  1
  O2-  O359  1  0.82485867  0.82238813  0.84689327  1
  O2-  O360  1  0.07550856  0.08010737  0.12015728  1
  O2-  O361  1  0.05909289  0.06428639  0.42779693  1
  O2-  O362  1  0.09871978  0.08229722  0.78566019  1
  O2-  O363  1  0.09983972  0.58167796  0.12231205  1
  O2-  O364  1  0.08819640  0.58426391  0.44192983  1
  O2-  O365  1  0.08396946  0.58076662  0.78222415  1
  O2-  O366  1  0.40996242  0.08464468  0.09625490  1
  O2-  O367  1  0.42521107  0.08112370  0.45381000  1
  O2-  O368  1  0.40721531  0.08519032  0.78837439  1
  O2-  O369  1  0.41728836  0.58068860  0.12350766  1
  O2-  O370  1  0.44892595  0.58235942  0.44182415  1
  O2-  O371  1  0.43411940  0.57315363  0.78301524  1
  O2-  O372  1  0.76774641  0.07767908  0.10919740  1
  O2-  O373  1  0.73439255  0.08110326  0.44870090  1
  O2-  O374  1  0.73713136  0.07293157  0.77664143  1
  O2-  O375  1  0.74370504  0.57171280  0.13137610  1
  O2-  O376  1  0.74022086  0.58227487  0.45877977  1
  O2-  O377  1  0.73327100  0.57709698  0.75686587  1
  O2-  O378  1  0.25275127  0.07096998  0.22607220  1
  O2-  O379  1  0.24758570  0.08457791  0.56043687  1
  O2-  O380  1  0.25044873  0.08225663  0.87447070  1
  O2-  O381  1  0.23499579  0.57342160  0.22061701  1
  O2-  O382  1  0.25486882  0.57529301  0.54337176  1
  O2-  O383  1  0.23154763  0.58532940  0.87710435  1
  O2-  O384  1  0.58145600  0.08766838  0.22596770  1
  O2-  O385  1  0.57310246  0.08113354  0.54402362  1
  O2-  O386  1  0.59068198  0.07402494  0.88782524  1
  O2-  O387  1  0.58389803  0.58457873  0.20270785  1
  O2-  O388  1  0.57717839  0.58092832  0.55698689  1
  O2-  O389  1  0.58591172  0.56940819  0.89397040  1
  O2-  O390  1  0.94144719  0.06477085  0.24955321  1
  O2-  O391  1  0.91902290  0.08529925  0.55819716  1
  O2-  O392  1  0.89999593  0.07210558  0.88357643  1
  O2-  O393  1  0.94205479  0.57610878  0.20933139  1
  O2-  O394  1  0.90688821  0.58416287  0.55659814  1
  O2-  O395  1  0.93007986  0.58270232  0.88115953  1
  O2-  O396  1  0.10207006  0.41839301  0.08383890  1
  O2-  O397  1  0.07964832  0.42115831  0.44079244  1
  O2-  O398  1  0.08233937  0.42410462  0.79845007  1
  O2-  O399  1  0.08135973  0.91604939  0.11535631  1
  O2-  O400  1  0.06542801  0.91836909  0.44825957  1
  O2-  O401  1  0.10310374  0.91917699  0.76963866  1
  O2-  O402  1  0.40229954  0.41773522  0.11432150  1
  O2-  O403  1  0.42661190  0.41734169  0.42738369  1
  O2-  O404  1  0.42304175  0.41288172  0.78128196  1
  O2-  O405  1  0.43663240  0.91539401  0.10057293  1
  O2-  O406  1  0.43690550  0.91474441  0.43037390  1
  O2-  O407  1  0.43248386  0.91869745  0.79014438  1
  O2-  O408  1  0.75437349  0.41136184  0.09979547  1
  O2-  O409  1  0.74593366  0.41852126  0.44682359  1
  O2-  O410  1  0.76301042  0.42232909  0.78051606  1
  O2-  O411  1  0.73305962  0.91971103  0.11666641  1
  O2-  O412  1  0.75492490  0.92159676  0.44575778  1
  O2-  O413  1  0.73168167  0.91721327  0.78236924  1
  O2-  O414  1  0.26167234  0.42151169  0.22704639  1
  O2-  O415  1  0.24054060  0.42223399  0.54898527  1
  O2-  O416  1  0.24873741  0.42210218  0.88751708  1
  O2-  O417  1  0.24145841  0.92282019  0.22603443  1
  O2-  O418  1  0.23790314  0.91443185  0.57590482  1
  O2-  O419  1  0.24411826  0.92161956  0.87779842  1
  O2-  O420  1  0.58595525  0.41802357  0.21873808  1
  O2-  O421  1  0.58986936  0.42413977  0.54376054  1
  O2-  O422  1  0.57979394  0.42507477  0.89152478  1
  O2-  O423  1  0.57339698  0.91889674  0.22355009  1
  O2-  O424  1  0.58481808  0.91718736  0.55639992  1
  O2-  O425  1  0.57168309  0.91549031  0.88910046  1
  O2-  O426  1  0.91118801  0.41779745  0.22242861  1
  O2-  O427  1  0.90099287  0.41665375  0.55647526  1
  O2-  O428  1  0.91611303  0.42580201  0.87749330  1
  O2-  O429  1  0.92080817  0.91590937  0.22719480  1
  O2-  O430  1  0.91169801  0.91528609  0.55208541  1
  O2-  O431  1  0.91997531  0.92082413  0.89375217  1
  O2-  O432  1  -0.01817249  0.00264949  0.02406781  1
  O2-  O433  1  -0.00253320  0.00234726  0.33760096  1
  O2-  O434  1  0.02047871  -0.00551723  0.64489223  1
  O2-  O435  1  0.01590678  0.50496084  -0.03635847  1
  O2-  O436  1  0.00487592  0.51395754  0.32592562  1
  O2-  O437  1  -0.00775544  0.47365475  0.67224512  1
  O2-  O438  1  0.34113153  -0.00683919  -0.02805230  1
  O2-  O439  1  0.35885674  0.00036344  0.30462568  1
  O2-  O440  1  0.33495762  0.01223124  0.65982771  1
  O2-  O441  1  0.31454295  0.50116520  0.03097043  1
  O2-  O442  1  0.32407685  0.50723628  0.35629907  1
  O2-  O443  1  0.31886536  0.50055827  0.68936288  1
  O2-  O444  1  0.67918108  -0.00318630  -0.01988103  1
  O2-  O445  1  0.66923171  -0.00227457  0.33390953  1
  O2-  O446  1  0.65511551  -0.00356444  0.68099592  1
  O2-  O447  1  0.64705241  0.49783262  0.02328886  1
  O2-  O448  1  0.64958238  0.50803670  0.35601569  1
  O2-  O449  1  0.67221617  0.48950195  0.65059766  1
  O2-  O450  1  0.18871595  0.00239493  0.04250515  1
  O2-  O451  1  0.13914814  -0.00349496  0.30630586  1
  O2-  O452  1  0.18041199  0.00385014  0.67884417  1
  O2-  O453  1  0.16556913  0.52371445  -0.00532749  1
  O2-  O454  1  0.16149636  0.51435842  0.33637442  1
  O2-  O455  1  0.15935318  0.49981184  0.64452501  1
  O2-  O456  1  0.49331044  -0.00619537  -0.02419947  1
  O2-  O457  1  0.51618043  0.01242427  0.34968325  1
  O2-  O458  1  0.50044072  0.01461797  0.67624540  1
  O2-  O459  1  0.48222883  0.49800787  -0.02569285  1
  O2-  O460  1  0.49329559  0.50938388  0.30577481  1
  O2-  O461  1  0.51890951  0.49135442  0.70546158  1
  O2-  O462  1  0.82687812  -0.00629337  -0.01230350  1
  O2-  O463  1  0.84382251  -0.00251979  0.35265431  1
  O2-  O464  1  0.80926316  -0.00550149  0.62452020  1
  O2-  O465  1  0.85868602  0.50201699  0.03325860  1
  O2-  O466  1  0.84736334  0.50466049  0.35471635  1
  O2-  O467  1  0.82885525  0.48505596  0.66824372  1
  O2-  O468  1  0.75661971  0.75743704  0.05699499  1
  O2-  O469  1  0.74615818  0.75180804  0.73569836  1
  O2-  O470  1  0.40138396  0.74652926  0.39062792  1
  O2-  O471  1  0.39738995  0.74957636  0.06017271  1
  O2-  O472  1  0.57733461  0.25065476  0.27629326  1
  O2-  O473  1  0.26543796  0.74562499  0.94705379  1
  O2-  O474  1  0.91241802  0.25354543  0.60099330  1
  O2-  O475  1  0.24798600  0.25515207  0.26335393  1
  O2-  O476  1  0.25728206  0.25281532  0.60304440  1
  O2-  O477  1  0.91815643  0.75356494  0.26901288  1
  O2-  O478  1  0.40964718  0.25047087  0.71909456  1
  O2-  O479  1  0.74984950  0.24595886  0.06081831  1
  O2-  O480  1  0.74466307  0.74881607  0.39421549  1
  O2-  O481  1  0.41262795  0.25118109  0.39098388  1
  O2-  O482  1  0.59911271  0.75213343  0.59404070  1
  O2-  O483  1  0.91942151  0.25548575  0.26124039  1
  O2-  O484  1  0.73986729  0.25829317  0.72972135  1
  O2-  O485  1  0.08251038  0.25783857  0.40450384  1
  O2-  O486  1  0.08200799  0.24720818  0.07125295  1
  O2-  O487  1  0.24746089  0.74894076  0.60500440  1
  O2-  O488  1  0.58832468  0.25639662  0.92943041  1
  O2-  O489  1  0.91435045  0.74943185  0.94012288  1
  O2-  O490  1  0.74462874  0.25230764  0.39571678  1
  O2-  O491  1  0.41502508  0.25402685  0.06368709  1
  O2-  O492  1  0.25902452  0.75405006  0.26359713  1
