# generated using pymatgen
data_Ca108Mn108O277
_symmetry_space_group_name_H-M   'P 1'
_cell_length_a   16.02536009
_cell_length_b   22.30274788
_cell_length_c   16.38679475
_cell_angle_alpha   89.99864404
_cell_angle_beta   90.00471739
_cell_angle_gamma   90.00135581
_symmetry_Int_Tables_number   1
_chemical_formula_structural   Ca108Mn108O277
_chemical_formula_sum   'Ca108 Mn108 O277'
_cell_volume   5856.79717289
_cell_formula_units_Z   1
loop_
 _symmetry_equiv_pos_site_id
 _symmetry_equiv_pos_as_xyz
  1  'x, y, z'
loop_
 _atom_type_symbol
 _atom_type_oxidation_number
  Ca2+  2.0
  Mn3.34+  3.34
  O2-  -2.0
loop_
 _atom_site_type_symbol
 _atom_site_label
 _atom_site_symmetry_multiplicity
 _atom_site_fract_x
 _atom_site_fract_y
 _atom_site_fract_z
 _atom_site_occupancy
  Ca2+  Ca0  1  0.08617795  0.25078108  0.23990651  1
  Ca2+  Ca1  1  0.07369137  0.24458938  0.58373023  1
  Ca2+  Ca2  1  0.08176400  0.24954127  0.92104935  1
  Ca2+  Ca3  1  0.10968299  0.75941794  0.24550154  1
  Ca2+  Ca4  1  0.07439596  0.76435723  0.58630232  1
  Ca2+  Ca5  1  0.09277551  0.74551162  0.92537590  1
  Ca2+  Ca6  1  0.42207376  0.26099224  0.25062222  1
  Ca2+  Ca7  1  0.41180999  0.24988460  0.56388591  1
  Ca2+  Ca8  1  0.41824950  0.24405128  0.93301783  1
  Ca2+  Ca9  1  0.40463412  0.74217488  0.26613321  1
  Ca2+  Ca10  1  0.41667134  0.75483930  0.57194310  1
  Ca2+  Ca11  1  0.39576222  0.75492410  0.91006079  1
  Ca2+  Ca12  1  0.74834426  0.24264116  0.24551265  1
  Ca2+  Ca13  1  0.76302035  0.24617943  0.55739791  1
  Ca2+  Ca14  1  0.74443483  0.24661513  0.93630559  1
  Ca2+  Ca15  1  0.72959269  0.74940604  0.24703067  1
  Ca2+  Ca16  1  0.76020272  0.75292165  0.58958214  1
  Ca2+  Ca17  1  0.76434514  0.74744736  0.91135422  1
  Ca2+  Ca18  1  0.25959655  0.25150277  0.07540415  1
  Ca2+  Ca19  1  0.27481283  0.24272491  0.41395497  1
  Ca2+  Ca20  1  0.24312293  0.24329891  0.75928843  1
  Ca2+  Ca21  1  0.24233950  0.74411781  0.08087693  1
  Ca2+  Ca22  1  0.27036148  0.75944445  0.40825865  1
  Ca2+  Ca23  1  0.25408607  0.75493126  0.75934322  1
  Ca2+  Ca24  1  0.59237714  0.25088071  0.07738674  1
  Ca2+  Ca25  1  0.58561631  0.25088052  0.40967133  1
  Ca2+  Ca26  1  0.57757333  0.25728871  0.77223531  1
  Ca2+  Ca27  1  0.58867153  0.76067094  0.09000864  1
  Ca2+  Ca28  1  0.56036206  0.73864107  0.41490581  1
  Ca2+  Ca29  1  0.58695485  0.75577254  0.74666143  1
  Ca2+  Ca30  1  0.89535591  0.24486716  0.07626866  1
  Ca2+  Ca31  1  0.89803545  0.24657861  0.42179844  1
  Ca2+  Ca32  1  0.92356143  0.24796819  0.75209080  1
  Ca2+  Ca33  1  0.92065680  0.74202150  0.05688997  1
  Ca2+  Ca34  1  0.91404052  0.74973944  0.44904259  1
  Ca2+  Ca35  1  0.90679675  0.75486354  0.75534354  1
  Ca2+  Ca36  1  0.44016775  0.59999740  0.57106300  1
  Ca2+  Ca37  1  0.23149868  0.08526196  0.74200789  1
  Ca2+  Ca38  1  0.89073934  0.60152443  0.43148624  1
  Ca2+  Ca39  1  0.11133266  0.60524334  0.22170109  1
  Ca2+  Ca40  1  0.90079408  0.09995743  0.41140958  1
  Ca2+  Ca41  1  0.88988987  0.10172741  0.41357368  1
  Ca2+  Ca42  1  0.92444720  0.59500531  0.05597583  1
  Ca2+  Ca43  1  0.43563566  0.59739590  0.56248891  1
  Ca2+  Ca44  1  0.28755788  0.59516822  0.37170257  1
  Ca2+  Ca45  1  0.73704859  0.59340946  0.58769561  1
  Ca2+  Ca46  1  0.90444876  0.60243873  0.75592044  1
  Ca2+  Ca47  1  0.27309249  0.09042884  0.06113248  1
  Ca2+  Ca48  1  0.24629311  0.59289193  0.06811987  1
  Ca2+  Ca49  1  0.77092812  0.59128554  0.91322498  1
  Ca2+  Ca50  1  0.58609917  0.08859337  0.41364088  1
  Ca2+  Ca51  1  0.74984534  0.09412536  0.57537798  1
  Ca2+  Ca52  1  0.07258007  0.60292545  0.58675327  1
  Ca2+  Ca53  1  0.07169641  0.09600909  0.25803539  1
  Ca2+  Ca54  1  0.40506717  0.07761745  0.24877001  1
  Ca2+  Ca55  1  0.91633511  0.59138084  0.06009980  1
  Ca2+  Ca56  1  0.73226996  0.58682580  0.58611111  1
  Ca2+  Ca57  1  0.74496683  0.08854681  0.94272848  1
  Ca2+  Ca58  1  0.11821304  0.61074685  0.21976875  1
  Ca2+  Ca59  1  0.26036618  0.60147652  0.77737474  1
  Ca2+  Ca60  1  0.60483879  0.58599654  0.09082372  1
  Ca2+  Ca61  1  0.88202985  0.10332367  0.09212669  1
  Ca2+  Ca62  1  0.10436420  0.60652227  0.93732929  1
  Ca2+  Ca63  1  0.58912464  0.09253973  0.07290847  1
  Ca2+  Ca64  1  0.08927002  0.09820106  0.90774158  1
  Ca2+  Ca65  1  0.41501001  0.07918921  0.25148958  1
  Ca2+  Ca66  1  0.09992789  0.09892529  0.90709123  1
  Ca2+  Ca67  1  0.39445004  0.10228456  0.55550245  1
  Ca2+  Ca68  1  0.59110893  0.57337986  0.72728493  1
  Ca2+  Ca69  1  0.76477008  0.58515353  0.91266529  1
  Ca2+  Ca70  1  0.37495107  0.57842879  0.92530769  1
  Ca2+  Ca71  1  0.28860140  0.60260285  0.37074592  1
  Ca2+  Ca72  1  0.74067688  0.41601621  0.92912245  1
  Ca2+  Ca73  1  0.09055238  0.40711070  0.24660251  1
  Ca2+  Ca74  1  0.90604422  0.90270338  0.08497233  1
  Ca2+  Ca75  1  0.89685725  0.40475948  0.75013238  1
  Ca2+  Ca76  1  0.73938899  0.90627508  0.91229134  1
  Ca2+  Ca77  1  0.75077031  0.90585101  0.91291340  1
  Ca2+  Ca78  1  0.44834912  0.41185493  0.58397449  1
  Ca2+  Ca79  1  0.26742320  0.42916560  0.08838716  1
  Ca2+  Ca80  1  0.58335947  0.90285977  0.41312700  1
  Ca2+  Ca81  1  0.09820979  0.40551253  0.92450120  1
  Ca2+  Ca82  1  0.59009604  0.41174223  0.41492430  1
  Ca2+  Ca83  1  0.40489077  0.41872966  0.94065609  1
  Ca2+  Ca84  1  0.58963373  0.41072689  0.75561894  1
  Ca2+  Ca85  1  0.25615756  0.40113930  0.40795837  1
  Ca2+  Ca86  1  0.71981561  0.42262029  0.59568741  1
  Ca2+  Ca87  1  0.08767634  0.90462717  0.90754857  1
  Ca2+  Ca88  1  0.26859935  0.90934819  0.08095300  1
  Ca2+  Ca89  1  0.72549771  0.41659552  0.59297824  1
  Ca2+  Ca90  1  0.58575230  0.90544312  0.74558376  1
  Ca2+  Ca91  1  0.91860403  0.90097204  0.08648925  1
  Ca2+  Ca92  1  0.41480056  0.90478458  0.57966048  1
  Ca2+  Ca93  1  0.89461741  0.40998505  0.07851044  1
  Ca2+  Ca94  1  0.10303269  0.40605595  0.24675710  1
  Ca2+  Ca95  1  0.09786055  0.91427980  0.59993122  1
  Ca2+  Ca96  1  0.90475319  0.90012907  0.41722798  1
  Ca2+  Ca97  1  0.40435787  0.91130666  0.24800295  1
  Ca2+  Ca98  1  0.90381582  0.40240451  0.41875726  1
  Ca2+  Ca99  1  0.25689847  0.39956148  0.75475660  1
  Ca2+  Ca100  1  0.74249512  0.89791868  0.25164093  1
  Ca2+  Ca101  1  0.90679614  0.41143575  0.07535619  1
  Ca2+  Ca102  1  0.24080392  0.90793517  0.75167859  1
  Ca2+  Ca103  1  0.39944886  0.42507002  0.94121880  1
  Ca2+  Ca104  1  0.89159071  0.40372524  0.41825945  1
  Ca2+  Ca105  1  0.91719368  0.90154813  0.41673836  1
  Ca2+  Ca106  1  0.08829042  0.38637416  0.57975349  1
  Ca2+  Ca107  1  0.43652685  0.41445269  0.58580551  1
  Mn3.34+  Mn108  1  0.08529212  0.32985364  0.08159907  1
  Mn3.34+  Mn109  1  0.08640122  0.32182399  0.41650665  1
  Mn3.34+  Mn110  1  0.08540761  0.32593103  0.75363593  1
  Mn3.34+  Mn111  1  0.08647336  0.83043901  0.08633657  1
  Mn3.34+  Mn112  1  0.09227798  0.83929260  0.41468454  1
  Mn3.34+  Mn113  1  0.08214279  0.84089097  0.75193890  1
  Mn3.34+  Mn114  1  0.42386469  0.33641813  0.08892019  1
  Mn3.34+  Mn115  1  0.42174453  0.33104975  0.41053429  1
  Mn3.34+  Mn116  1  0.41658081  0.33476530  0.75535964  1
  Mn3.34+  Mn117  1  0.41825956  0.84068258  0.08531920  1
  Mn3.34+  Mn118  1  0.41545540  0.83727323  0.41577376  1
  Mn3.34+  Mn119  1  0.41721201  0.83132171  0.74961585  1
  Mn3.34+  Mn120  1  0.74072780  0.33615088  0.08986352  1
  Mn3.34+  Mn121  1  0.74280691  0.33124872  0.41468839  1
  Mn3.34+  Mn122  1  0.74782042  0.33573883  0.75685416  1
  Mn3.34+  Mn123  1  0.74392807  0.83084050  0.08432761  1
  Mn3.34+  Mn124  1  0.74327274  0.82591364  0.41964115  1
  Mn3.34+  Mn125  1  0.74918457  0.83489516  0.74602556  1
  Mn3.34+  Mn126  1  0.25951559  0.33604876  0.24343448  1
  Mn3.34+  Mn127  1  0.25271676  0.32649006  0.58177772  1
  Mn3.34+  Mn128  1  0.25148425  0.33242357  0.91368435  1
  Mn3.34+  Mn129  1  0.25236795  0.83905283  0.24676992  1
  Mn3.34+  Mn130  1  0.25037555  0.83470214  0.58185425  1
  Mn3.34+  Mn131  1  0.25119267  0.83260082  0.91752804  1
  Mn3.34+  Mn132  1  0.58446571  0.33898334  0.24629704  1
  Mn3.34+  Mn133  1  0.58463677  0.32357992  0.58617720  1
  Mn3.34+  Mn134  1  0.58295366  0.33566524  0.92106691  1
  Mn3.34+  Mn135  1  0.57550880  0.83313888  0.24725931  1
  Mn3.34+  Mn136  1  0.58557027  0.83366668  0.58045459  1
  Mn3.34+  Mn137  1  0.57110396  0.83690211  0.92042781  1
  Mn3.34+  Mn138  1  0.91343130  0.32841715  0.24621122  1
  Mn3.34+  Mn139  1  0.91550956  0.33068222  0.58552043  1
  Mn3.34+  Mn140  1  0.91734872  0.32990257  0.91255762  1
  Mn3.34+  Mn141  1  0.91968771  0.82683996  0.24736317  1
  Mn3.34+  Mn142  1  0.91556159  0.83410993  0.59138510  1
  Mn3.34+  Mn143  1  0.91934277  0.83171869  0.90929454  1
  Mn3.34+  Mn144  1  0.74326916  0.16348748  0.75663081  1
  Mn3.34+  Mn145  1  0.42302735  0.65759242  0.09257337  1
  Mn3.34+  Mn146  1  0.41698799  0.16443887  0.75684938  1
  Mn3.34+  Mn147  1  0.41724280  0.16699192  0.08020929  1
  Mn3.34+  Mn148  1  0.91703014  0.16626195  0.91413060  1
  Mn3.34+  Mn149  1  0.73893550  0.65969107  0.41829805  1
  Mn3.34+  Mn150  1  0.08014736  0.16235181  0.74818354  1
  Mn3.34+  Mn151  1  0.75420678  0.15925348  0.75761796  1
  Mn3.34+  Mn152  1  0.91784261  0.67921218  0.25091993  1
  Mn3.34+  Mn153  1  0.25577655  0.16709860  0.24942460  1
  Mn3.34+  Mn154  1  0.91804906  0.16978575  0.24635571  1
  Mn3.34+  Mn155  1  0.07560648  0.66565875  0.42173631  1
  Mn3.34+  Mn156  1  0.08799694  0.67271453  0.75298247  1
  Mn3.34+  Mn157  1  0.25464296  0.66813601  0.58543912  1
  Mn3.34+  Mn158  1  0.23648632  0.16444176  0.57827019  1
  Mn3.34+  Mn159  1  0.24356342  0.15919048  0.24834759  1
  Mn3.34+  Mn160  1  0.40704130  0.17012233  0.75605450  1
  Mn3.34+  Mn161  1  0.08582513  0.16776308  0.42228887  1
  Mn3.34+  Mn162  1  0.58346289  0.67236831  0.58402870  1
  Mn3.34+  Mn163  1  0.58089255  0.66625592  0.25565736  1
  Mn3.34+  Mn164  1  0.58499337  0.16412010  0.58560030  1
  Mn3.34+  Mn165  1  0.07773001  0.66814181  0.75288857  1
  Mn3.34+  Mn166  1  0.74877726  0.66445550  0.75012855  1
  Mn3.34+  Mn167  1  0.58125809  0.16480104  0.24719507  1
  Mn3.34+  Mn168  1  0.74953458  0.66602489  0.08610865  1
  Mn3.34+  Mn169  1  0.59143957  0.16007402  0.24656240  1
  Mn3.34+  Mn170  1  0.90533863  0.67335619  0.24950270  1
  Mn3.34+  Mn171  1  0.58134239  0.16387936  0.91873324  1
  Mn3.34+  Mn172  1  0.41454759  0.66354236  0.09188501  1
  Mn3.34+  Mn173  1  0.41560505  0.66683546  0.75085370  1
  Mn3.34+  Mn174  1  0.57352169  0.66247229  0.91241714  1
  Mn3.34+  Mn175  1  0.08875870  0.67228067  0.41988648  1
  Mn3.34+  Mn176  1  0.92164795  0.16530912  0.58696972  1
  Mn3.34+  Mn177  1  0.58479601  0.66688793  0.91344630  1
  Mn3.34+  Mn178  1  0.57569593  0.16988074  0.58677115  1
  Mn3.34+  Mn179  1  0.08148393  0.16737059  0.08373836  1
  Mn3.34+  Mn180  1  0.87781312  0.50459763  0.25773860  1
  Mn3.34+  Mn181  1  0.92288093  0.49517056  0.90907469  1
  Mn3.34+  Mn182  1  0.24576926  -0.00036524  0.59301534  1
  Mn3.34+  Mn183  1  0.59341115  -0.00321547  0.24930665  1
  Mn3.34+  Mn184  1  0.58391654  0.50229407  0.92677336  1
  Mn3.34+  Mn185  1  0.24603969  0.50433314  0.58051822  1
  Mn3.34+  Mn186  1  0.09608750  0.49664665  0.76161637  1
  Mn3.34+  Mn187  1  0.60723919  0.50369476  0.26263598  1
  Mn3.34+  Mn188  1  0.89108809  0.50574811  0.25446157  1
  Mn3.34+  Mn189  1  0.10006071  0.00015724  0.40571602  1
  Mn3.34+  Mn190  1  0.42663045  0.00155189  0.75670064  1
  Mn3.34+  Mn191  1  0.24394145  0.49733498  0.56734353  1
  Mn3.34+  Mn192  1  0.11433970  -0.00027313  0.39900571  1
  Mn3.34+  Mn193  1  0.07972850  -0.00189429  0.09541297  1
  Mn3.34+  Mn194  1  0.09220741  0.50202776  0.41602638  1
  Mn3.34+  Mn195  1  0.74662491  0.00210573  0.74629601  1
  Mn3.34+  Mn196  1  0.41659021  -0.00369054  0.75700172  1
  Mn3.34+  Mn197  1  0.93136586  0.49720532  0.58262519  1
  Mn3.34+  Mn198  1  0.26091143  -0.00295707  0.92879068  1
  Mn3.34+  Mn199  1  0.08622775  0.49646013  0.07781139  1
  Mn3.34+  Mn200  1  0.09192928  0.00194819  0.09536885  1
  Mn3.34+  Mn201  1  0.91878256  0.00255907  0.91507274  1
  Mn3.34+  Mn202  1  0.07713161  0.49641288  0.41699083  1
  Mn3.34+  Mn203  1  0.91597778  0.50231249  0.58280253  1
  Mn3.34+  Mn204  1  0.92851419  0.00372479  0.60511787  1
  Mn3.34+  Mn205  1  0.91237934  0.00036533  0.25372999  1
  Mn3.34+  Mn206  1  0.58798467  -0.00353898  0.58654287  1
  Mn3.34+  Mn207  1  0.59414558  0.49881377  0.25971907  1
  Mn3.34+  Mn208  1  0.91656641  -0.00290200  0.60647579  1
  Mn3.34+  Mn209  1  0.08100073  0.50124858  0.76471573  1
  Mn3.34+  Mn210  1  0.74917001  -0.00243395  0.41288580  1
  Mn3.34+  Mn211  1  0.74525055  -0.00229726  0.08327160  1
  Mn3.34+  Mn212  1  0.40941401  -0.00371154  0.39860239  1
  Mn3.34+  Mn213  1  0.41654576  0.50195443  0.74876929  1
  Mn3.34+  Mn214  1  0.57570682  0.00258017  0.93250696  1
  Mn3.34+  Mn215  1  0.41307187  0.49281293  0.39433304  1
  O2-  O216  1  0.00070202  0.14719202  0.00179658  1
  O2-  O217  1  0.00241033  0.17248482  0.33454996  1
  O2-  O218  1  0.00008634  0.17997438  0.67004538  1
  O2-  O219  1  -0.00389161  0.65981588  0.00763870  1
  O2-  O220  1  -0.00161937  0.64901073  0.32873031  1
  O2-  O221  1  -0.00106309  0.65453818  0.67551701  1
  O2-  O222  1  0.33292618  0.17234822  0.00775398  1
  O2-  O223  1  0.33443073  0.14948441  0.32816665  1
  O2-  O224  1  0.32488833  0.15930027  0.67215129  1
  O2-  O225  1  0.34181620  0.66354909  0.00480630  1
  O2-  O226  1  0.33126202  0.68072003  0.33882186  1
  O2-  O227  1  0.34057499  0.64158671  0.66173685  1
  O2-  O228  1  0.66236758  0.16150039  -0.00735073  1
  O2-  O229  1  0.66083914  0.15805720  0.33457002  1
  O2-  O230  1  0.66205674  0.18609172  0.67144977  1
  O2-  O231  1  0.66802962  0.64124440  -0.00522453  1
  O2-  O232  1  0.66688756  0.67757197  0.33461064  1
  O2-  O233  1  0.66283301  0.65530225  0.66982303  1
  O2-  O234  1  0.16149321  0.15526291  0.00269526  1
  O2-  O235  1  0.16322925  0.16630378  0.33187999  1
  O2-  O236  1  0.16340531  0.17991105  0.66904911  1
  O2-  O237  1  0.16573678  0.67307014  0.01095281  1
  O2-  O238  1  0.16529151  0.65062566  0.33925678  1
  O2-  O239  1  0.16955705  0.64997818  0.67421859  1
  O2-  O240  1  0.50270947  0.15666809  0.00361982  1
  O2-  O241  1  0.50123134  0.14189504  0.32334492  1
  O2-  O242  1  0.49068794  0.15390001  0.66401919  1
  O2-  O243  1  0.50510377  0.66243617  0.01082935  1
  O2-  O244  1  0.50131741  0.66475491  0.32748724  1
  O2-  O245  1  0.50284636  0.64875200  0.66970402  1
  O2-  O246  1  0.83481555  0.15956302  -0.01057840  1
  O2-  O247  1  0.84474313  0.17349555  0.33296090  1
  O2-  O248  1  0.82388146  0.15982885  0.66440879  1
  O2-  O249  1  0.82851299  0.65833020  -0.00180782  1
  O2-  O250  1  0.83215474  0.67744132  0.33675964  1
  O2-  O251  1  0.81997262  0.64962696  0.66442199  1
  O2-  O252  1  -0.00224621  0.35370849  0.00162433  1
  O2-  O253  1  -0.00046468  0.33518341  0.33134875  1
  O2-  O254  1  0.00015553  0.33677918  0.67095275  1
  O2-  O255  1  -0.00499593  0.83732600  0.00524294  1
  O2-  O256  1  -0.00676151  0.84479110  0.33620077  1
  O2-  O257  1  0.00615927  0.84826129  0.66044339  1
  O2-  O258  1  0.33265452  0.32998828  -0.00548739  1
  O2-  O259  1  0.33495257  0.34197180  0.33240975  1
  O2-  O260  1  0.34033019  0.34871545  0.66018291  1
  O2-  O261  1  0.33058497  0.83334735  0.00554545  1
  O2-  O262  1  0.33773454  0.84417833  0.33044059  1
  O2-  O263  1  0.33251279  0.85002161  0.66771029  1
  O2-  O264  1  0.66721232  0.34238106  -0.00151179  1
  O2-  O265  1  0.66075964  0.34327417  0.34061402  1
  O2-  O266  1  0.66384502  0.33084929  0.67289308  1
  O2-  O267  1  0.66489470  0.85205225  0.00048493  1
  O2-  O268  1  0.66589045  0.83439056  0.33254057  1
  O2-  O269  1  0.66265313  0.84110674  0.67021751  1
  O2-  O270  1  0.16801602  0.33530370  -0.00325273  1
  O2-  O271  1  0.16496494  0.34024863  0.33038435  1
  O2-  O272  1  0.17020231  0.31976462  0.66870715  1
  O2-  O273  1  0.15967897  0.84056238  -0.00454722  1
  O2-  O274  1  0.16796804  0.83986100  0.33154417  1
  O2-  O275  1  0.16907040  0.84339884  0.66821137  1
  O2-  O276  1  0.49170438  0.34862100  -0.01015440  1
  O2-  O277  1  0.50695749  0.34562398  0.33874705  1
  O2-  O278  1  0.50440992  0.34790358  0.67023380  1
  O2-  O279  1  0.49155018  0.81510251  0.00431269  1
  O2-  O280  1  0.49860176  0.84835480  0.33204758  1
  O2-  O281  1  0.49943330  0.84839076  0.66332530  1
  O2-  O282  1  0.83404095  0.34488475  -0.00596174  1
  O2-  O283  1  0.83495397  0.34009826  0.33408641  1
  O2-  O284  1  0.82140275  0.34756865  0.66133689  1
  O2-  O285  1  0.83003014  0.84657822  -0.00022236  1
  O2-  O286  1  0.83324495  0.82066530  0.33281927  1
  O2-  O287  1  0.83444898  0.83452844  0.67096242  1
  O2-  O288  1  0.00275598  0.18582048  0.16807165  1
  O2-  O289  1  -0.00445561  0.18331113  0.49113229  1
  O2-  O290  1  0.00522949  0.18103860  0.83496867  1
  O2-  O291  1  -0.00114119  0.68214602  0.17334823  1
  O2-  O292  1  -0.00191185  0.67610065  0.50102341  1
  O2-  O293  1  0.00002683  0.68000526  0.83194293  1
  O2-  O294  1  0.33536815  0.18584413  0.16900375  1
  O2-  O295  1  0.32525952  0.18440708  0.51352987  1
  O2-  O296  1  0.32898281  0.18545757  0.83521799  1
  O2-  O297  1  0.33428924  0.68361231  0.16087392  1
  O2-  O298  1  0.33277635  0.66649648  0.50601968  1
  O2-  O299  1  0.33538347  0.67842466  0.82566251  1
  O2-  O300  1  0.66081755  0.17804420  0.16345255  1
  O2-  O301  1  0.66558867  0.18134990  0.50839478  1
  O2-  O302  1  0.66594201  0.18757180  0.83611079  1
  O2-  O303  1  0.66191463  0.67364531  0.15878185  1
  O2-  O304  1  0.66761787  0.68113376  0.50779580  1
  O2-  O305  1  0.66929285  0.67624809  0.83371896  1
  O2-  O306  1  0.16772442  0.18262216  0.16660906  1
  O2-  O307  1  0.16362986  0.19573815  0.49735443  1
  O2-  O308  1  0.15621226  0.18104158  0.83168573  1
  O2-  O309  1  0.16211489  0.68351724  0.16599619  1
  O2-  O310  1  0.16059250  0.68037402  0.51371731  1
  O2-  O311  1  0.16453283  0.67838252  0.83325608  1
  O2-  O312  1  0.49703374  0.17614600  0.17182502  1
  O2-  O313  1  0.49995787  0.17820782  0.50193828  1
  O2-  O314  1  0.49960203  0.18020108  0.83355620  1
  O2-  O315  1  0.50321857  0.68141864  0.16450475  1
  O2-  O316  1  0.49720069  0.67917952  0.51294011  1
  O2-  O317  1  0.49882037  0.68718932  0.83043384  1
  O2-  O318  1  0.84103655  0.18521019  0.17130587  1
  O2-  O319  1  0.83967515  0.16662658  0.50418636  1
  O2-  O320  1  0.83542376  0.19023992  0.83083709  1
  O2-  O321  1  0.83427286  0.69346798  0.16422579  1
  O2-  O322  1  0.82051789  0.68296514  0.49198227  1
  O2-  O323  1  0.82680978  0.66954346  0.83012958  1
  O2-  O324  1  0.00609135  0.32618134  0.17251655  1
  O2-  O325  1  -0.00122859  0.31887647  0.49456575  1
  O2-  O326  1  0.00373143  0.31595798  0.83448846  1
  O2-  O327  1  -0.00052183  0.80699557  0.16281805  1
  O2-  O328  1  -0.00793280  0.83232591  0.49624430  1
  O2-  O329  1  0.00615024  0.82250120  0.83662736  1
  O2-  O330  1  0.33201663  0.32219828  0.15934898  1
  O2-  O331  1  0.33453251  0.32538067  0.49892732  1
  O2-  O332  1  0.32995041  0.31256197  0.83071488  1
  O2-  O333  1  0.33879506  0.81596105  0.16227552  1
  O2-  O334  1  0.33634675  0.82653705  0.50459486  1
  O2-  O335  1  0.33021881  0.82420188  0.82832132  1
  O2-  O336  1  0.66900081  0.31729621  0.17329897  1
  O2-  O337  1  0.67088375  0.32122850  0.50806610  1
  O2-  O338  1  0.66928543  0.31802721  0.83745679  1
  O2-  O339  1  0.67052227  0.82396692  0.17092608  1
  O2-  O340  1  0.66179450  0.81103071  0.49681214  1
  O2-  O341  1  0.66928363  0.83114597  0.83755684  1
  O2-  O342  1  0.16478491  0.32099402  0.17034479  1
  O2-  O343  1  0.16646704  0.31323935  0.50192443  1
  O2-  O344  1  0.16707749  0.31070790  0.83698292  1
  O2-  O345  1  0.17483287  0.82026153  0.15657751  1
  O2-  O346  1  0.16229596  0.82112710  0.50688706  1
  O2-  O347  1  0.16670478  0.82373913  0.83246473  1
  O2-  O348  1  0.50347658  0.32149198  0.16626553  1
  O2-  O349  1  0.49886632  0.31923765  0.50740944  1
  O2-  O350  1  0.50369662  0.33128220  0.83140285  1
  O2-  O351  1  0.49615274  0.82029114  0.16652331  1
  O2-  O352  1  0.50071387  0.82661502  0.50045108  1
  O2-  O353  1  0.50298264  0.81707447  0.82758912  1
  O2-  O354  1  0.84314993  0.32317338  0.15688490  1
  O2-  O355  1  0.83863333  0.32642354  0.49330777  1
  O2-  O356  1  0.83781991  0.31690825  0.82514332  1
  O2-  O357  1  0.83777809  0.81646536  0.16000327  1
  O2-  O358  1  0.83370687  0.82386643  0.49780397  1
  O2-  O359  1  0.82552372  0.82910074  0.83881962  1
  O2-  O360  1  0.08887209  0.08422355  0.12289075  1
  O2-  O361  1  0.06610385  0.07825679  0.43830072  1
  O2-  O362  1  0.09298915  0.08288442  0.77311256  1
  O2-  O363  1  0.06367366  0.57471066  0.10264524  1
  O2-  O364  1  0.08085776  0.58159334  0.45065906  1
  O2-  O365  1  0.08426613  0.58261806  0.78739656  1
  O2-  O366  1  0.41019018  0.08614131  0.11469427  1
  O2-  O367  1  0.43576388  0.06473194  0.44193509  1
  O2-  O368  1  0.40177871  0.08164883  0.78497890  1
  O2-  O369  1  0.42219768  0.57744704  0.09894116  1
  O2-  O370  1  0.40809137  0.57051452  0.44166959  1
  O2-  O371  1  0.41706578  0.58267242  0.78376013  1
  O2-  O372  1  0.74123106  0.07630459  0.09329329  1
  O2-  O373  1  0.75811904  0.07512761  0.44650695  1
  O2-  O374  1  0.75296729  0.07794015  0.79788475  1
  O2-  O375  1  0.77779302  0.58532329  0.10217732  1
  O2-  O376  1  0.75976822  0.57767112  0.45561114  1
  O2-  O377  1  0.74313294  0.57877439  0.77668089  1
  O2-  O378  1  0.26634223  0.08339939  0.20704351  1
  O2-  O379  1  0.25366577  0.07736894  0.56063692  1
  O2-  O380  1  0.23070673  0.06647790  0.87936543  1
  O2-  O381  1  0.24047952  0.57475326  0.22950460  1
  O2-  O382  1  0.23704957  0.58361533  0.55314211  1
  O2-  O383  1  0.23604861  0.57092295  0.89839106  1
  O2-  O384  1  0.57530704  0.07664011  0.20949636  1
  O2-  O385  1  0.59489281  0.07833596  0.55348044  1
  O2-  O386  1  0.59454954  0.07742254  0.89538019  1
  O2-  O387  1  0.58102310  0.57972205  0.22340231  1
  O2-  O388  1  0.58375265  0.58786867  0.56817706  1
  O2-  O389  1  0.57881838  0.58110493  0.87698213  1
  O2-  O390  1  0.92921760  0.08411015  0.22971470  1
  O2-  O391  1  0.92093205  0.07468441  0.55168254  1
  O2-  O392  1  0.93506317  0.08266668  0.88788201  1
  O2-  O393  1  0.91498468  0.58451537  0.21527982  1
  O2-  O394  1  0.92239167  0.58219095  0.55997795  1
  O2-  O395  1  0.91124057  0.57621334  0.89273946  1
  O2-  O396  1  0.08910319  0.41708602  0.11107722  1
  O2-  O397  1  0.08396272  0.41498617  0.44263799  1
  O2-  O398  1  0.09998071  0.41459440  0.77981093  1
  O2-  O399  1  0.05867720  0.91649062  0.11489938  1
  O2-  O400  1  0.07303386  0.92794556  0.45512189  1
  O2-  O401  1  0.09411375  0.91844175  0.77392038  1
  O2-  O402  1  0.40485301  0.41612532  0.08186325  1
  O2-  O403  1  0.42424473  0.41905686  0.44982739  1
  O2-  O404  1  0.40479510  0.41987814  0.78713659  1
  O2-  O405  1  0.41024498  0.91688794  0.10803837  1
  O2-  O406  1  0.42968846  0.92486955  0.44333787  1
  O2-  O407  1  0.42570015  0.91525587  0.77875262  1
  O2-  O408  1  0.76669286  0.41977592  0.09842368  1
  O2-  O409  1  0.76285627  0.41872109  0.46373058  1
  O2-  O410  1  0.74003054  0.41694925  0.77106224  1
  O2-  O411  1  0.76672488  0.91701628  0.11319385  1
  O2-  O412  1  0.76608468  0.91481356  0.41625130  1
  O2-  O413  1  0.74475802  0.92115328  0.77568525  1
  O2-  O414  1  0.23754280  0.41700548  0.22481395  1
  O2-  O415  1  0.22990402  0.41600663  0.56054133  1
  O2-  O416  1  0.25483356  0.41307540  0.88996835  1
  O2-  O417  1  0.26227604  0.91718578  0.21498982  1
  O2-  O418  1  0.24769188  0.92107647  0.56066987  1
  O2-  O419  1  0.24222891  0.92141112  0.89333844  1
  O2-  O420  1  0.58393109  0.42619008  0.22155133  1
  O2-  O421  1  0.58403315  0.41847136  0.55549211  1
  O2-  O422  1  0.59287877  0.42288635  0.89130161  1
  O2-  O423  1  0.59447027  0.91613022  0.23377902  1
  O2-  O424  1  0.58330785  0.91835439  0.55122512  1
  O2-  O425  1  0.59176543  0.93041704  0.88215916  1
  O2-  O426  1  0.92709625  0.42583832  0.21496521  1
  O2-  O427  1  0.93557486  0.41585189  0.55473788  1
  O2-  O428  1  0.91826562  0.41419850  0.88395780  1
  O2-  O429  1  0.90050706  0.91753520  0.22044792  1
  O2-  O430  1  0.91110544  0.92707170  0.55088545  1
  O2-  O431  1  0.90778713  0.91971533  0.90487822  1
  O2-  O432  1  0.00350904  -0.00007350  0.00247282  1
  O2-  O433  1  0.00787350  -0.00694796  0.33311632  1
  O2-  O434  1  0.02393320  -0.00743100  0.65048049  1
  O2-  O435  1  -0.00765636  0.49189231  0.01131675  1
  O2-  O436  1  0.00087466  0.50269958  0.31993246  1
  O2-  O437  1  -0.00071741  0.50353895  0.67932305  1
  O2-  O438  1  0.32064263  -0.00134983  0.01533800  1
  O2-  O439  1  0.34012003  0.00220557  0.31723896  1
  O2-  O440  1  0.33682398  0.00037604  0.66867241  1
  O2-  O441  1  0.32826492  0.49547796  -0.00713712  1
  O2-  O442  1  0.29593508  0.49592390  0.39829072  1
  O2-  O443  1  0.32615963  0.49073753  0.66391993  1
  O2-  O444  1  0.67895110  -0.00747718  -0.01817369  1
  O2-  O445  1  0.64991638  -0.00014337  0.35561417  1
  O2-  O446  1  0.66376218  0.00254354  0.66768342  1
  O2-  O447  1  0.68820241  0.51292204  -0.03402163  1
  O2-  O448  1  0.67529538  0.48605346  0.34080914  1
  O2-  O449  1  0.68106244  0.50502732  0.63398573  1
  O2-  O450  1  0.16107830  0.00158846  -0.00334597  1
  O2-  O451  1  0.16261179  0.02708600  0.30974787  1
  O2-  O452  1  0.18005110  -0.00431923  0.67582885  1
  O2-  O453  1  0.17207160  0.49873635  0.01709910  1
  O2-  O454  1  0.15202688  0.48683736  0.32098349  1
  O2-  O455  1  0.15784453  0.50563904  0.66095932  1
  O2-  O456  1  0.51183855  0.01184241  0.01166328  1
  O2-  O457  1  0.49151625  0.00397245  0.31516034  1
  O2-  O458  1  0.49918008  -0.00650098  0.66428090  1
  O2-  O459  1  0.47794507  0.50504402  -0.04239729  1
  O2-  O460  1  0.50997656  0.49564951  0.33362917  1
  O2-  O461  1  0.49259412  0.49351799  0.65699576  1
  O2-  O462  1  0.83759544  -0.00146903  0.00510785  1
  O2-  O463  1  0.85708813  0.00486933  0.36628394  1
  O2-  O464  1  0.82286807  0.01660690  0.65533339  1
  O2-  O465  1  0.84300056  0.50197262  -0.00712355  1
  O2-  O466  1  0.85376472  0.49188378  0.36833558  1
  O2-  O467  1  0.83637063  0.48452649  0.66308585  1
  O2-  O468  1  0.59984377  0.74618595  0.93930847  1
  O2-  O469  1  0.57661814  0.75273529  0.61054152  1
  O2-  O470  1  0.57202847  0.25206078  0.93517195  1
  O2-  O471  1  0.90382071  0.25146657  0.59887999  1
  O2-  O472  1  0.41316067  0.74911278  0.71898790  1
  O2-  O473  1  0.07180145  0.75232914  0.39473816  1
  O2-  O474  1  0.41789237  0.75857062  0.40876297  1
  O2-  O475  1  0.42648056  0.25185171  0.71986085  1
  O2-  O476  1  0.25335751  0.24963461  0.27109870  1
  O2-  O477  1  0.25692877  0.74908182  0.60998620  1
  O2-  O478  1  0.24823098  0.75820682  0.27047796  1
  O2-  O479  1  0.74868263  0.25346434  0.40383572  1
  O2-  O480  1  0.07861797  0.24898246  0.05964389  1
  O2-  O481  1  0.73769260  0.75008725  0.05401672  1
  O2-  O482  1  0.42915930  0.25104810  0.06951160  1
  O2-  O483  1  0.90880024  0.75450851  0.92283919  1
  O2-  O484  1  0.92769895  0.24970161  0.94225475  1
  O2-  O485  1  0.74792163  0.25599289  0.06932775  1
  O2-  O486  1  0.74795361  0.74925668  0.73498448  1
  O2-  O487  1  0.42064523  0.25260434  0.39518678  1
  O2-  O488  1  0.08538676  0.75421421  0.72401714  1
  O2-  O489  1  0.57701006  0.24867168  0.27232581  1
  O2-  O490  1  0.24879712  0.75431717  0.92693700  1
  O2-  O491  1  0.92314522  0.75532222  0.60095601  1
  O2-  O492  1  0.58281346  0.75105865  0.25889127  1
