# generated using pymatgen
data_Ca108Mn108O277
_symmetry_space_group_name_H-M   'P 1'
_cell_length_a   16.03196519
_cell_length_b   22.31315066
_cell_length_c   16.39192878
_cell_angle_alpha   89.99565850
_cell_angle_beta   89.99722109
_cell_angle_gamma   90.00878634
_symmetry_Int_Tables_number   1
_chemical_formula_structural   Ca108Mn108O277
_chemical_formula_sum   'Ca108 Mn108 O277'
_cell_volume   5863.78057678
_cell_formula_units_Z   1
loop_
 _symmetry_equiv_pos_site_id
 _symmetry_equiv_pos_as_xyz
  1  'x, y, z'
loop_
 _atom_type_symbol
 _atom_type_oxidation_number
  Ca2+  2.0
  Mn3.34+  3.34
  O2-  -2.0
loop_
 _atom_site_type_symbol
 _atom_site_label
 _atom_site_symmetry_multiplicity
 _atom_site_fract_x
 _atom_site_fract_y
 _atom_site_fract_z
 _atom_site_occupancy
  Ca2+  Ca0  1  0.09762725  0.24488214  0.23694158  1
  Ca2+  Ca1  1  0.11697452  0.24881244  0.58939959  1
  Ca2+  Ca2  1  0.10297401  0.25768556  0.92325370  1
  Ca2+  Ca3  1  0.09699567  0.74383046  0.26729437  1
  Ca2+  Ca4  1  0.08305963  0.75841034  0.56630093  1
  Ca2+  Ca5  1  0.07967854  0.75638727  0.91778403  1
  Ca2+  Ca6  1  0.41014355  0.24413792  0.24490795  1
  Ca2+  Ca7  1  0.40099393  0.22900115  0.58353560  1
  Ca2+  Ca8  1  0.41187586  0.24533639  0.91653769  1
  Ca2+  Ca9  1  0.38913816  0.75670992  0.25568537  1
  Ca2+  Ca10  1  0.40671588  0.76421914  0.57501320  1
  Ca2+  Ca11  1  0.43507690  0.74824167  0.91314068  1
  Ca2+  Ca12  1  0.74523477  0.25058579  0.24763024  1
  Ca2+  Ca13  1  0.73247430  0.25464726  0.56948364  1
  Ca2+  Ca14  1  0.74111374  0.24763089  0.93472571  1
  Ca2+  Ca15  1  0.75451169  0.75251529  0.24712179  1
  Ca2+  Ca16  1  0.75748086  0.75204944  0.58724525  1
  Ca2+  Ca17  1  0.73743032  0.74316724  0.91566004  1
  Ca2+  Ca18  1  0.25271752  0.23198241  0.09572861  1
  Ca2+  Ca19  1  0.26593981  0.25459884  0.41106647  1
  Ca2+  Ca20  1  0.26415876  0.24268128  0.74400627  1
  Ca2+  Ca21  1  0.23623208  0.74665223  0.09542659  1
  Ca2+  Ca22  1  0.22374736  0.73942755  0.41212343  1
  Ca2+  Ca23  1  0.24158235  0.76419607  0.74863884  1
  Ca2+  Ca24  1  0.59480357  0.23023047  0.08563509  1
  Ca2+  Ca25  1  0.58281243  0.25518373  0.41911121  1
  Ca2+  Ca26  1  0.56492720  0.24830178  0.74172411  1
  Ca2+  Ca27  1  0.60222116  0.74621283  0.06378974  1
  Ca2+  Ca28  1  0.59302328  0.75156134  0.42016231  1
  Ca2+  Ca29  1  0.59894238  0.75392729  0.76577983  1
  Ca2+  Ca30  1  0.91118773  0.24448970  0.09701103  1
  Ca2+  Ca31  1  0.89452059  0.25015848  0.40347995  1
  Ca2+  Ca32  1  0.90889536  0.25797208  0.75095524  1
  Ca2+  Ca33  1  0.90758202  0.75255423  0.07668469  1
  Ca2+  Ca34  1  0.93438442  0.75145686  0.42041453  1
  Ca2+  Ca35  1  0.90755820  0.75750007  0.75163082  1
  Ca2+  Ca36  1  0.23908122  0.59780716  0.11316367  1
  Ca2+  Ca37  1  0.91328561  0.10605315  0.11405962  1
  Ca2+  Ca38  1  0.39888729  0.10164002  0.23529223  1
  Ca2+  Ca39  1  0.26072017  0.09661413  0.73352230  1
  Ca2+  Ca40  1  0.45808608  0.10921149  0.91581425  1
  Ca2+  Ca41  1  0.25886730  0.58472533  0.75748478  1
  Ca2+  Ca42  1  0.60152145  0.59168222  0.73653446  1
  Ca2+  Ca43  1  0.73247749  0.61066431  0.91876148  1
  Ca2+  Ca44  1  0.91728341  0.07416460  0.75124718  1
  Ca2+  Ca45  1  0.11336320  0.09339048  0.58750105  1
  Ca2+  Ca46  1  0.91700855  0.59756948  0.41325553  1
  Ca2+  Ca47  1  0.89281609  0.61706796  0.08647367  1
  Ca2+  Ca48  1  0.24874931  0.09724517  0.41162678  1
  Ca2+  Ca49  1  0.09161889  0.08978335  0.93281761  1
  Ca2+  Ca50  1  0.08463479  0.08965228  0.24336317  1
  Ca2+  Ca51  1  0.24606641  0.58327417  0.75761509  1
  Ca2+  Ca52  1  0.70445094  0.09735746  0.95755135  1
  Ca2+  Ca53  1  0.74718676  0.58732290  0.58198230  1
  Ca2+  Ca54  1  0.43880160  0.59155197  0.92181288  1
  Ca2+  Ca55  1  0.75468979  0.11191787  0.22888288  1
  Ca2+  Ca56  1  0.74422018  0.58331612  0.26732726  1
  Ca2+  Ca57  1  0.61222604  0.60252161  0.06227363  1
  Ca2+  Ca58  1  0.08354783  0.59529305  0.55524812  1
  Ca2+  Ca59  1  0.22622925  0.58033113  0.37240419  1
  Ca2+  Ca60  1  0.61483539  0.57054878  0.42210386  1
  Ca2+  Ca61  1  0.91408108  0.08756771  0.35916700  1
  Ca2+  Ca62  1  0.09039851  0.59743958  0.26124025  1
  Ca2+  Ca63  1  0.70795024  0.07164276  0.59272034  1
  Ca2+  Ca64  1  0.57486328  0.09939452  0.41531498  1
  Ca2+  Ca65  1  0.25417340  0.10463219  0.41580100  1
  Ca2+  Ca66  1  0.08441475  0.59123577  0.94362634  1
  Ca2+  Ca67  1  0.90438570  0.07382574  0.75200505  1
  Ca2+  Ca68  1  0.92716043  0.59694279  0.41556203  1
  Ca2+  Ca69  1  0.59679826  0.58839080  0.74450408  1
  Ca2+  Ca70  1  0.07509274  0.59577483  0.56275944  1
  Ca2+  Ca71  1  0.71437791  0.09817718  0.96068650  1
  Ca2+  Ca72  1  0.90704352  0.90648699  0.75131726  1
  Ca2+  Ca73  1  0.92368601  0.40539908  0.74176849  1
  Ca2+  Ca74  1  0.25919692  0.90413750  0.09418356  1
  Ca2+  Ca75  1  0.21711520  0.91468846  0.41947401  1
  Ca2+  Ca76  1  0.42722579  0.40231077  0.24564200  1
  Ca2+  Ca77  1  0.09648542  0.42242524  0.27058519  1
  Ca2+  Ca78  1  0.91081175  0.40715919  0.74066153  1
  Ca2+  Ca79  1  0.61312561  0.42271468  0.39651925  1
  Ca2+  Ca80  1  0.74192785  0.91018404  0.59359876  1
  Ca2+  Ca81  1  0.07431143  0.90475122  0.92305639  1
  Ca2+  Ca82  1  0.92041985  0.39396114  0.08882000  1
  Ca2+  Ca83  1  0.95380473  0.92841875  0.36660805  1
  Ca2+  Ca84  1  0.25152077  0.39780442  0.75422615  1
  Ca2+  Ca85  1  0.71933310  0.42014482  0.57916587  1
  Ca2+  Ca86  1  0.75925405  0.90974467  0.25337294  1
  Ca2+  Ca87  1  0.41850382  0.40428593  0.91624201  1
  Ca2+  Ca88  1  0.24787236  0.41022061  0.08582622  1
  Ca2+  Ca89  1  0.58002905  0.39365564  0.09338240  1
  Ca2+  Ca90  1  0.44019898  0.40400218  0.58812663  1
  Ca2+  Ca91  1  0.57602497  0.89895621  0.42195035  1
  Ca2+  Ca92  1  0.25892638  0.41069114  0.08707618  1
  Ca2+  Ca93  1  0.24623097  0.90303587  0.09377538  1
  Ca2+  Ca94  1  0.61518748  0.93425537  0.73262057  1
  Ca2+  Ca95  1  0.41626069  0.90556632  0.91407278  1
  Ca2+  Ca96  1  0.75397962  0.90776073  0.91487193  1
  Ca2+  Ca97  1  0.25611392  0.90888058  0.73790916  1
  Ca2+  Ca98  1  0.42893415  0.90506664  0.91385638  1
  Ca2+  Ca99  1  0.58810157  0.89925680  0.42135938  1
  Ca2+  Ca100  1  0.91334719  0.91077672  0.08305241  1
  Ca2+  Ca101  1  0.10698478  0.42224221  0.27144456  1
  Ca2+  Ca102  1  0.24587781  0.40852180  0.40935129  1
  Ca2+  Ca103  1  0.07917574  0.40124293  0.57145835  1
  Ca2+  Ca104  1  0.89891785  0.40845230  0.41604923  1
  Ca2+  Ca105  1  0.73307046  0.39742454  0.91232622  1
  Ca2+  Ca106  1  0.74549294  0.39814900  0.91424520  1
  Ca2+  Ca107  1  0.58829406  0.91018735  0.07610217  1
  Mn3.34+  Mn108  1  0.08378405  0.33128009  0.08483937  1
  Mn3.34+  Mn109  1  0.08139502  0.33273954  0.42003518  1
  Mn3.34+  Mn110  1  0.08636550  0.33302091  0.75248608  1
  Mn3.34+  Mn111  1  0.07867554  0.83572008  0.09311538  1
  Mn3.34+  Mn112  1  0.07789110  0.83765151  0.41779230  1
  Mn3.34+  Mn113  1  0.08074534  0.83821235  0.74563348  1
  Mn3.34+  Mn114  1  0.41748728  0.32834007  0.08367699  1
  Mn3.34+  Mn115  1  0.42089233  0.33428636  0.41768150  1
  Mn3.34+  Mn116  1  0.41965071  0.33238947  0.74871914  1
  Mn3.34+  Mn117  1  0.42113549  0.83390443  0.09213239  1
  Mn3.34+  Mn118  1  0.40741761  0.83334557  0.41533638  1
  Mn3.34+  Mn119  1  0.42455671  0.83873544  0.74227658  1
  Mn3.34+  Mn120  1  0.74904653  0.32561377  0.09163535  1
  Mn3.34+  Mn121  1  0.74702472  0.33705706  0.41422006  1
  Mn3.34+  Mn122  1  0.74055812  0.33132250  0.74295584  1
  Mn3.34+  Mn123  1  0.74990540  0.83351204  0.08728064  1
  Mn3.34+  Mn124  1  0.75652042  0.82837564  0.41883161  1
  Mn3.34+  Mn125  1  0.74989779  0.83793489  0.75171326  1
  Mn3.34+  Mn126  1  0.25350097  0.33145391  0.24981306  1
  Mn3.34+  Mn127  1  0.25584750  0.33212475  0.58051995  1
  Mn3.34+  Mn128  1  0.25059806  0.33414417  0.91538298  1
  Mn3.34+  Mn129  1  0.24510179  0.83502003  0.25962518  1
  Mn3.34+  Mn130  1  0.24626513  0.83578252  0.57892932  1
  Mn3.34+  Mn131  1  0.25070084  0.82939015  0.91353945  1
  Mn3.34+  Mn132  1  0.58372309  0.33434933  0.25203973  1
  Mn3.34+  Mn133  1  0.58034170  0.33397692  0.57979832  1
  Mn3.34+  Mn134  1  0.57719936  0.32515137  0.91497553  1
  Mn3.34+  Mn135  1  0.57982348  0.83483919  0.24200853  1
  Mn3.34+  Mn136  1  0.57285364  0.83940301  0.59134382  1
  Mn3.34+  Mn137  1  0.58746832  0.83238605  0.91312942  1
  Mn3.34+  Mn138  1  0.91763563  0.32933276  0.25053611  1
  Mn3.34+  Mn139  1  0.91300318  0.33039719  0.57641246  1
  Mn3.34+  Mn140  1  0.92321962  0.33308517  0.91721178  1
  Mn3.34+  Mn141  1  0.91921009  0.83627110  0.24485100  1
  Mn3.34+  Mn142  1  0.91715393  0.83404966  0.58062289  1
  Mn3.34+  Mn143  1  0.91497639  0.83375720  0.91554413  1
  Mn3.34+  Mn144  1  0.91728428  0.16957290  0.58178719  1
  Mn3.34+  Mn145  1  0.91220323  0.67376157  0.24579945  1
  Mn3.34+  Mn146  1  0.90791119  0.16353379  0.57860472  1
  Mn3.34+  Mn147  1  0.07676323  0.66849071  0.09141425  1
  Mn3.34+  Mn148  1  0.57362790  0.65376546  0.24537107  1
  Mn3.34+  Mn149  1  0.75038458  0.66827799  0.42119905  1
  Mn3.34+  Mn150  1  0.08606449  0.16588746  0.75893429  1
  Mn3.34+  Mn151  1  0.41058423  0.66616696  0.42175562  1
  Mn3.34+  Mn152  1  0.91333666  0.67246744  0.91724059  1
  Mn3.34+  Mn153  1  0.42070664  0.16465390  0.74907283  1
  Mn3.34+  Mn154  1  0.41961125  0.67341564  0.74662984  1
  Mn3.34+  Mn155  1  0.07593851  0.16527297  0.41937650  1
  Mn3.34+  Mn156  1  0.74457168  0.16774400  0.41436569  1
  Mn3.34+  Mn157  1  0.73505687  0.15664345  0.75262251  1
  Mn3.34+  Mn158  1  0.74557621  0.16220827  0.75045729  1
  Mn3.34+  Mn159  1  0.07518571  0.17701835  0.41491166  1
  Mn3.34+  Mn160  1  0.57307090  0.16117766  0.57766433  1
  Mn3.34+  Mn161  1  0.06919550  0.66047790  0.75358117  1
  Mn3.34+  Mn162  1  0.58571614  0.66212212  0.57477506  1
  Mn3.34+  Mn163  1  0.08879467  0.16694351  0.08896849  1
  Mn3.34+  Mn164  1  0.25397779  0.16863863  0.91774240  1
  Mn3.34+  Mn165  1  0.91456691  0.16903080  0.91650226  1
  Mn3.34+  Mn166  1  0.58564354  0.66132301  0.24787928  1
  Mn3.34+  Mn167  1  0.41325241  0.67188327  0.73682582  1
  Mn3.34+  Mn168  1  0.24926825  0.66879835  0.92055159  1
  Mn3.34+  Mn169  1  0.42232056  0.66520836  0.09111846  1
  Mn3.34+  Mn170  1  0.92611752  0.16485979  0.91602176  1
  Mn3.34+  Mn171  1  0.41609990  0.17004056  0.41320670  1
  Mn3.34+  Mn172  1  0.24625009  0.66856540  0.58039428  1
  Mn3.34+  Mn173  1  0.41947093  0.16633929  0.08036207  1
  Mn3.34+  Mn174  1  0.58017889  0.16678680  0.24902547  1
  Mn3.34+  Mn175  1  0.75741105  0.66893566  0.74952050  1
  Mn3.34+  Mn176  1  0.41053864  0.67093850  0.08917934  1
  Mn3.34+  Mn177  1  0.91121049  0.66759372  0.58569938  1
  Mn3.34+  Mn178  1  0.42070324  0.66093203  0.42296233  1
  Mn3.34+  Mn179  1  0.08213922  0.66687468  0.75018214  1
  Mn3.34+  Mn180  1  0.08446285  0.00192583  0.08511127  1
  Mn3.34+  Mn181  1  0.25358629  -0.00322621  0.59647271  1
  Mn3.34+  Mn182  1  0.07757130  0.50222147  0.09418307  1
  Mn3.34+  Mn183  1  0.91273379  0.50375465  0.24224914  1
  Mn3.34+  Mn184  1  0.09078283  0.00157438  0.75308629  1
  Mn3.34+  Mn185  1  0.75421688  0.49960527  0.09438424  1
  Mn3.34+  Mn186  1  0.24884523  0.49696054  0.58429288  1
  Mn3.34+  Mn187  1  0.75437537  0.50190936  0.74399189  1
  Mn3.34+  Mn188  1  0.24664570  -0.00186631  0.27116090  1
  Mn3.34+  Mn189  1  0.91934988  0.00308758  0.57043327  1
  Mn3.34+  Mn190  1  0.75536125  -0.00328458  0.41988791  1
  Mn3.34+  Mn191  1  0.42005087  0.00206928  0.08174003  1
  Mn3.34+  Mn192  1  0.42357319  0.50077617  0.08561642  1
  Mn3.34+  Mn193  1  0.91795794  -0.00161676  0.92731456  1
  Mn3.34+  Mn194  1  0.41426289  0.50504413  0.40724222  1
  Mn3.34+  Mn195  1  0.25995621  0.00800115  0.91302407  1
  Mn3.34+  Mn196  1  0.73888376  0.49508724  0.09291516  1
  Mn3.34+  Mn197  1  0.24683914  0.00115126  0.91045734  1
  Mn3.34+  Mn198  1  0.58012863  0.00104804  0.25106580  1
  Mn3.34+  Mn199  1  0.91249364  0.50717184  0.91696274  1
  Mn3.34+  Mn200  1  0.41590393  -0.00297178  0.43611642  1
  Mn3.34+  Mn201  1  0.58327298  0.49852450  0.91620259  1
  Mn3.34+  Mn202  1  0.07282552  0.50362455  0.74558403  1
  Mn3.34+  Mn203  1  0.91825031  0.49767035  0.58021315  1
  Mn3.34+  Mn204  1  0.42505424  0.49736567  0.40801133  1
  Mn3.34+  Mn205  1  0.24492521  0.49789308  0.93041542  1
  Mn3.34+  Mn206  1  0.89881914  0.49733269  0.24602094  1
  Mn3.34+  Mn207  1  0.26358041  0.50222713  0.58199966  1
  Mn3.34+  Mn208  1  0.92926104  -0.00369215  0.57172556  1
  Mn3.34+  Mn209  1  0.74810576  -0.00247212  0.08409055  1
  Mn3.34+  Mn210  1  0.74183291  0.00329088  0.41784004  1
  Mn3.34+  Mn211  1  0.58053672  -0.00365649  0.91096569  1
  Mn3.34+  Mn212  1  0.92562946  0.50089178  0.91553082  1
  Mn3.34+  Mn213  1  0.42510219  0.00600101  0.73440798  1
  Mn3.34+  Mn214  1  0.42574173  0.00239174  0.43669565  1
  Mn3.34+  Mn215  1  0.42637079  0.49752291  0.75188859  1
  O2-  O216  1  -0.00118376  0.15292864  0.00454302  1
  O2-  O217  1  -0.00542273  0.18603520  0.33579923  1
  O2-  O218  1  -0.01100703  0.15272314  0.67850829  1
  O2-  O219  1  -0.00431919  0.66422077  0.00476903  1
  O2-  O220  1  -0.00972142  0.66037737  0.32859565  1
  O2-  O221  1  -0.00091231  0.64311421  0.66285442  1
  O2-  O222  1  0.34112724  0.14855891  -0.01027109  1
  O2-  O223  1  0.33440861  0.15211796  0.33489958  1
  O2-  O224  1  0.33740572  0.15908827  0.67166238  1
  O2-  O225  1  0.34249339  0.65397110  -0.00123790  1
  O2-  O226  1  0.33165865  0.64713565  0.34717815  1
  O2-  O227  1  0.32280823  0.65020713  0.67011448  1
  O2-  O228  1  0.66294100  0.18070965  -0.00684503  1
  O2-  O229  1  0.66425620  0.14810383  0.33499521  1
  O2-  O230  1  0.66010979  0.15052077  0.66398115  1
  O2-  O231  1  0.67433526  0.67414733  0.00142963  1
  O2-  O232  1  0.65902051  0.65438063  0.34016076  1
  O2-  O233  1  0.66309529  0.65886876  0.66453089  1
  O2-  O234  1  0.16610342  0.15788948  -0.00518078  1
  O2-  O235  1  0.15790611  0.15654961  0.33435782  1
  O2-  O236  1  0.15886634  0.16553616  0.67318423  1
  O2-  O237  1  0.16142247  0.66136997  0.00608136  1
  O2-  O238  1  0.16067158  0.66337268  0.33660194  1
  O2-  O239  1  0.16233520  0.63639275  0.66917524  1
  O2-  O240  1  0.50028654  0.17962178  0.00108626  1
  O2-  O241  1  0.49281573  0.14975400  0.32887159  1
  O2-  O242  1  0.49966084  0.16507012  0.66483249  1
  O2-  O243  1  0.50170501  0.66480242  0.00909539  1
  O2-  O244  1  0.49762166  0.65845287  0.33161067  1
  O2-  O245  1  0.50193842  0.66345072  0.65893488  1
  O2-  O246  1  0.83263222  0.14211437  -0.01104683  1
  O2-  O247  1  0.82522792  0.16498080  0.33533649  1
  O2-  O248  1  0.82191202  0.13414980  0.66749706  1
  O2-  O249  1  0.83044484  0.67058273  -0.00901646  1
  O2-  O250  1  0.82955143  0.65447896  0.33271652  1
  O2-  O251  1  0.82409889  0.65438891  0.65724933  1
  O2-  O252  1  0.00063629  0.34198109  0.00437288  1
  O2-  O253  1  0.00311668  0.32846849  0.33352992  1
  O2-  O254  1  -0.00337302  0.33557185  0.66721366  1
  O2-  O255  1  -0.00032629  0.84071431  0.00406282  1
  O2-  O256  1  -0.00568866  0.82932859  0.33087032  1
  O2-  O257  1  -0.00967484  0.84848624  0.67230733  1
  O2-  O258  1  0.33354365  0.35352764  0.00041445  1
  O2-  O259  1  0.33564423  0.35318370  0.33151982  1
  O2-  O260  1  0.33652087  0.35532548  0.66212577  1
  O2-  O261  1  0.33763666  0.84811243  -0.00010484  1
  O2-  O262  1  0.33192304  0.85370389  0.33439653  1
  O2-  O263  1  0.33536056  0.83537995  0.66802214  1
  O2-  O264  1  0.66756131  0.33296259  -0.00131103  1
  O2-  O265  1  0.66942272  0.34387489  0.32958603  1
  O2-  O266  1  0.67007515  0.34406885  0.65587449  1
  O2-  O267  1  0.66700487  0.84311076  0.00126451  1
  O2-  O268  1  0.66539249  0.84464979  0.33156803  1
  O2-  O269  1  0.65906513  0.84219223  0.67318505  1
  O2-  O270  1  0.16856315  0.35314582  0.00488439  1
  O2-  O271  1  0.16612665  0.34100790  0.33223199  1
  O2-  O272  1  0.16363406  0.34321468  0.66179640  1
  O2-  O273  1  0.16806569  0.84283906  0.00292153  1
  O2-  O274  1  0.16254404  0.84467153  0.33541737  1
  O2-  O275  1  0.17062033  0.84643581  0.67073710  1
  O2-  O276  1  0.49889491  0.34076879  0.00108491  1
  O2-  O277  1  0.50614579  0.35433471  0.34293839  1
  O2-  O278  1  0.50542833  0.34060959  0.67132538  1
  O2-  O279  1  0.49995000  0.84241663  0.00009239  1
  O2-  O280  1  0.50721751  0.83625232  0.33764419  1
  O2-  O281  1  0.50145455  0.79640643  0.67004180  1
  O2-  O282  1  0.83210555  0.35290573  -0.00488919  1
  O2-  O283  1  0.83917263  0.33235399  0.33699668  1
  O2-  O284  1  0.83287815  0.35413497  0.66048798  1
  O2-  O285  1  0.83283858  0.84004469  0.00260146  1
  O2-  O286  1  0.83447217  0.84112163  0.32967489  1
  O2-  O287  1  0.82907118  0.84577648  0.66529892  1
  O2-  O288  1  0.00530997  0.18156150  0.16195384  1
  O2-  O289  1  0.00500001  0.19822578  0.50412391  1
  O2-  O290  1  0.00485847  0.19300910  0.84114751  1
  O2-  O291  1  -0.00476654  0.69165205  0.16653595  1
  O2-  O292  1  -0.00511212  0.67009289  0.50605913  1
  O2-  O293  1  0.00826061  0.68113758  0.84451103  1
  O2-  O294  1  0.34237162  0.17456629  0.16364691  1
  O2-  O295  1  0.32586326  0.17817320  0.48131899  1
  O2-  O296  1  0.33174557  0.17856941  0.83228414  1
  O2-  O297  1  0.32809074  0.68433099  0.16219468  1
  O2-  O298  1  0.33719301  0.68493131  0.50841584  1
  O2-  O299  1  0.33558810  0.68704264  0.82866238  1
  O2-  O300  1  0.66623918  0.17949818  0.18168249  1
  O2-  O301  1  0.66135523  0.17638326  0.49761610  1
  O2-  O302  1  0.67335395  0.18305608  0.83929929  1
  O2-  O303  1  0.66050134  0.69064847  0.17394597  1
  O2-  O304  1  0.67113545  0.68775963  0.50610409  1
  O2-  O305  1  0.66894436  0.67329452  0.82062876  1
  O2-  O306  1  0.16261690  0.17140244  0.16726469  1
  O2-  O307  1  0.16690285  0.18285801  0.49126243  1
  O2-  O308  1  0.16752843  0.18972065  0.83361193  1
  O2-  O309  1  0.15786140  0.68056390  0.16469053  1
  O2-  O310  1  0.15837012  0.67597858  0.51328133  1
  O2-  O311  1  0.17326878  0.68153138  0.82257113  1
  O2-  O312  1  0.49791431  0.18200460  0.16879236  1
  O2-  O313  1  0.50058170  0.18403869  0.49138499  1
  O2-  O314  1  0.49463845  0.18462952  0.83070381  1
  O2-  O315  1  0.49443867  0.69202664  0.17330866  1
  O2-  O316  1  0.50509923  0.68684858  0.49459335  1
  O2-  O317  1  0.49808584  0.68129113  0.82493106  1
  O2-  O318  1  0.84017277  0.18164809  0.17676868  1
  O2-  O319  1  0.83038626  0.18409818  0.49602614  1
  O2-  O320  1  0.85234747  0.17668784  0.81438914  1
  O2-  O321  1  0.83575373  0.69359746  0.16896373  1
  O2-  O322  1  0.84081243  0.68189340  0.49236322  1
  O2-  O323  1  0.83393830  0.68336534  0.83324181  1
  O2-  O324  1  0.00092914  0.31406343  0.16796306  1
  O2-  O325  1  0.00266465  0.31447171  0.50153257  1
  O2-  O326  1  -0.00214406  0.31491120  0.82875551  1
  O2-  O327  1  -0.00410279  0.81116223  0.16532731  1
  O2-  O328  1  -0.00392191  0.82135555  0.50033266  1
  O2-  O329  1  0.00077159  0.82550227  0.83504425  1
  O2-  O330  1  0.32876319  0.33253206  0.16149889  1
  O2-  O331  1  0.33153477  0.32520679  0.49356537  1
  O2-  O332  1  0.33364071  0.32240225  0.83182957  1
  O2-  O333  1  0.32450364  0.82011540  0.15803927  1
  O2-  O334  1  0.32537466  0.81821434  0.49394413  1
  O2-  O335  1  0.34021628  0.81926360  0.83401477  1
  O2-  O336  1  0.65819001  0.31494439  0.16291144  1
  O2-  O337  1  0.66305536  0.32645964  0.49458531  1
  O2-  O338  1  0.67067267  0.31508275  0.84207770  1
  O2-  O339  1  0.66603863  0.81280513  0.16431178  1
  O2-  O340  1  0.66536234  0.81758079  0.49789802  1
  O2-  O341  1  0.67442246  0.82464257  0.83867847  1
  O2-  O342  1  0.17037850  0.32249946  0.16466981  1
  O2-  O343  1  0.16767970  0.31534456  0.49438839  1
  O2-  O344  1  0.17341608  0.31694880  0.82640002  1
  O2-  O345  1  0.16924724  0.82035140  0.16366492  1
  O2-  O346  1  0.16731827  0.82548721  0.49657988  1
  O2-  O347  1  0.16326910  0.82097714  0.83582899  1
  O2-  O348  1  0.49218610  0.31883497  0.17163454  1
  O2-  O349  1  0.49210596  0.31719736  0.50567569  1
  O2-  O350  1  0.49383706  0.31491410  0.83790310  1
  O2-  O351  1  0.49918020  0.80497563  0.16587179  1
  O2-  O352  1  0.50465045  0.81730692  0.49800968  1
  O2-  O353  1  0.49640565  0.82259706  0.83483715  1
  O2-  O354  1  0.83890017  0.31948379  0.16594493  1
  O2-  O355  1  0.83321756  0.32071669  0.49633276  1
  O2-  O356  1  0.83342497  0.32920572  0.82640004  1
  O2-  O357  1  0.83334273  0.81567271  0.16679432  1
  O2-  O358  1  0.83278521  0.81280337  0.50190336  1
  O2-  O359  1  0.83402096  0.82326261  0.83301310  1
  O2-  O360  1  0.06909333  0.08189787  0.10448261  1
  O2-  O361  1  0.08748398  0.08678783  0.45190458  1
  O2-  O362  1  0.05759068  0.07918113  0.79125371  1
  O2-  O363  1  0.07028149  0.58326157  0.11739618  1
  O2-  O364  1  0.04784604  0.56320054  0.44195941  1
  O2-  O365  1  0.10281288  0.57896180  0.80221179  1
  O2-  O366  1  0.43177872  0.08236203  0.09888824  1
  O2-  O367  1  0.41131411  0.08478608  0.44804763  1
  O2-  O368  1  0.41211802  0.07938774  0.78210257  1
  O2-  O369  1  0.40771523  0.58054831  0.11606514  1
  O2-  O370  1  0.43161474  0.57587455  0.45875625  1
  O2-  O371  1  0.39827690  0.57897418  0.78734171  1
  O2-  O372  1  0.75137517  0.07796903  0.09540306  1
  O2-  O373  1  0.75614684  0.08238765  0.45014571  1
  O2-  O374  1  0.76650859  0.08082047  0.80482739  1
  O2-  O375  1  0.75880367  0.57987415  0.12006110  1
  O2-  O376  1  0.75481458  0.58772393  0.44644293  1
  O2-  O377  1  0.74325629  0.58083564  0.77888248  1
  O2-  O378  1  0.24969632  0.06480233  0.22256131  1
  O2-  O379  1  0.24311287  0.06597415  0.53784036  1
  O2-  O380  1  0.23281347  0.08483721  0.87368579  1
  O2-  O381  1  0.22160738  0.56445732  0.23342429  1
  O2-  O382  1  0.24097340  0.58049742  0.53944733  1
  O2-  O383  1  0.25114579  0.58253795  0.89215625  1
  O2-  O384  1  0.57931275  0.08052561  0.22927498  1
  O2-  O385  1  0.57614025  0.08234377  0.54805404  1
  O2-  O386  1  0.59056494  0.07667331  0.89846058  1
  O2-  O387  1  0.60257186  0.57931959  0.19989945  1
  O2-  O388  1  0.59645218  0.58486365  0.55841578  1
  O2-  O389  1  0.57399383  0.57502205  0.87245449  1
  O2-  O390  1  0.93824240  0.06736857  0.23158219  1
  O2-  O391  1  0.94243068  0.08262337  0.53864861  1
  O2-  O392  1  0.92987180  0.07914031  0.88663272  1
  O2-  O393  1  0.90095215  0.58312582  0.21520609  1
  O2-  O394  1  0.90492986  0.57984338  0.55162672  1
  O2-  O395  1  0.91896730  0.58803248  0.89942922  1
  O2-  O396  1  0.07759928  0.41963981  0.12643503  1
  O2-  O397  1  0.08435893  0.41376630  0.42739068  1
  O2-  O398  1  0.05878290  0.41994740  0.76859046  1
  O2-  O399  1  0.10792451  0.92236869  0.10632487  1
  O2-  O400  1  0.07550876  0.91878492  0.43286784  1
  O2-  O401  1  0.09204848  0.92165475  0.78534572  1
  O2-  O402  1  0.41955120  0.41893342  0.11072742  1
  O2-  O403  1  0.41118862  0.42510307  0.45309367  1
  O2-  O404  1  0.41563556  0.41805864  0.77817968  1
  O2-  O405  1  0.40415324  0.92215371  0.11490999  1
  O2-  O406  1  0.43666565  0.91451232  0.45018366  1
  O2-  O407  1  0.41453968  0.92789721  0.78213083  1
  O2-  O408  1  0.73666401  0.41249052  0.10376477  1
  O2-  O409  1  0.75695856  0.41711092  0.44158493  1
  O2-  O410  1  0.75535072  0.42388941  0.78461360  1
  O2-  O411  1  0.75307598  0.91909198  0.11750161  1
  O2-  O412  1  0.73326998  0.91567073  0.44780361  1
  O2-  O413  1  0.75496305  0.91852882  0.77525333  1
  O2-  O414  1  0.23607070  0.41917945  0.22086487  1
  O2-  O415  1  0.23628923  0.41873294  0.54665297  1
  O2-  O416  1  0.25425143  0.41948861  0.88560538  1
  O2-  O417  1  0.24559949  0.92440777  0.22532325  1
  O2-  O418  1  0.25715408  0.91988265  0.55641146  1
  O2-  O419  1  0.27004202  0.92024730  0.87991440  1
  O2-  O420  1  0.57137662  0.41466545  0.22455680  1
  O2-  O421  1  0.57778488  0.41643967  0.55062600  1
  O2-  O422  1  0.59828724  0.41683859  0.90281496  1
  O2-  O423  1  0.58884965  0.92290288  0.21081776  1
  O2-  O424  1  0.59248234  0.91692372  0.55206550  1
  O2-  O425  1  0.56995664  0.91648778  0.87858240  1
  O2-  O426  1  0.91525363  0.41745961  0.22476034  1
  O2-  O427  1  0.93326186  0.41590702  0.55211348  1
  O2-  O428  1  0.90967547  0.42338091  0.87488743  1
  O2-  O429  1  0.91122243  0.91448077  0.22272982  1
  O2-  O430  1  0.90026747  0.91761568  0.54950464  1
  O2-  O431  1  0.91406561  0.91831782  0.89116263  1
  O2-  O432  1  -0.00397705  -0.01554260  0.01191849  1
  O2-  O433  1  0.01154701  0.01876737  0.32295720  1
  O2-  O434  1  -0.00552532  0.00186765  0.67584928  1
  O2-  O435  1  0.00421305  0.50555979  0.00071190  1
  O2-  O436  1  0.01099318  0.49580170  0.30146275  1
  O2-  O437  1  0.02658112  0.50744581  0.62971156  1
  O2-  O438  1  0.32422682  -0.01327592  0.00841947  1
  O2-  O439  1  0.33919049  0.00241020  0.34258140  1
  O2-  O440  1  0.31946659  -0.00081474  0.69300070  1
  O2-  O441  1  0.33247933  0.48605201  0.01143107  1
  O2-  O442  1  0.31673834  0.49502041  0.36206463  1
  O2-  O443  1  0.33496617  0.50237862  0.67626540  1
  O2-  O444  1  0.66603825  -0.01116833  -0.00617752  1
  O2-  O445  1  0.67926391  -0.00950077  0.31862961  1
  O2-  O446  1  0.68289590  -0.01183723  0.64581992  1
  O2-  O447  1  0.67205641  0.51855597  -0.00305975  1
  O2-  O448  1  0.67758986  0.51023399  0.33664739  1
  O2-  O449  1  0.68241566  0.51384967  0.66077873  1
  O2-  O450  1  0.15728509  0.00413535  -0.01180314  1
  O2-  O451  1  0.18395637  0.01671037  0.35536724  1
  O2-  O452  1  0.16735029  0.02142137  0.66884384  1
  O2-  O453  1  0.17583635  0.50749837  0.02984182  1
  O2-  O454  1  0.16012453  0.50185356  0.31911838  1
  O2-  O455  1  0.18210578  0.51061820  0.68304039  1
  O2-  O456  1  0.48872792  -0.01827112  -0.01382428  1
  O2-  O457  1  0.52106822  -0.00561618  0.36148984  1
  O2-  O458  1  0.51800208  -0.00282464  0.68813228  1
  O2-  O459  1  0.49711736  0.50863893  -0.00718762  1
  O2-  O460  1  0.52323182  0.50209958  0.36176205  1
  O2-  O461  1  0.51960107  0.51535248  0.69922270  1
  O2-  O462  1  0.82579567  -0.00528664  -0.00407263  1
  O2-  O463  1  0.84694604  -0.00625776  0.35231043  1
  O2-  O464  1  0.84122379  0.01548887  0.66095987  1
  O2-  O465  1  0.83253177  0.48457808  0.00185660  1
  O2-  O466  1  0.85673371  0.51618833  0.35152766  1
  O2-  O467  1  0.85075653  0.48506883  0.67789755  1
  O2-  O468  1  0.25205987  0.74905737  0.94711689  1
  O2-  O469  1  0.09329226  0.25073953  0.05981645  1
  O2-  O470  1  0.74576534  0.74891046  0.38658682  1
  O2-  O471  1  0.58394292  0.75470235  0.92566896  1
  O2-  O472  1  0.75641564  0.24328078  0.71781315  1
  O2-  O473  1  0.39704722  0.25081483  0.06128882  1
  O2-  O474  1  0.91898396  0.74876029  0.61203047  1
  O2-  O475  1  0.25866794  0.25569745  0.60551879  1
  O2-  O476  1  0.25537475  0.25168130  0.94856817  1
  O2-  O477  1  0.92577608  0.75336377  0.93380135  1
  O2-  O478  1  0.41145712  0.74982562  0.39119814  1
  O2-  O479  1  0.73809613  0.25031303  0.39767431  1
  O2-  O480  1  0.08132685  0.75468864  0.40952358  1
  O2-  O481  1  0.76367156  0.25021042  0.07010165  1
  O2-  O482  1  0.89489619  0.24882040  0.94770716  1
  O2-  O483  1  0.41632268  0.25281671  0.38502611  1
  O2-  O484  1  0.24990602  0.75652334  0.27613899  1
  O2-  O485  1  0.59080256  0.24990610  0.60149885  1
  O2-  O486  1  0.57791591  0.24934094  0.28067617  1
  O2-  O487  1  0.75206362  0.75148223  0.72735103  1
  O2-  O488  1  0.41062215  0.25159366  0.72391716  1
  O2-  O489  1  0.25724980  0.25366663  0.26827056  1
  O2-  O490  1  0.07777722  0.74952659  0.72087044  1
  O2-  O491  1  0.23906909  0.74940329  0.61090182  1
  O2-  O492  1  0.89309449  0.24915218  0.61573610  1
