# generated using pymatgen
data_Ca108Mn108O277
_symmetry_space_group_name_H-M   'P 1'
_cell_length_a   16.03007552
_cell_length_b   22.31100426
_cell_length_c   16.39287178
_cell_angle_alpha   90.00101252
_cell_angle_beta   90.00166878
_cell_angle_gamma   90.00079763
_symmetry_Int_Tables_number   1
_chemical_formula_structural   Ca108Mn108O277
_chemical_formula_sum   'Ca108 Mn108 O277'
_cell_volume   5862.86277414
_cell_formula_units_Z   1
loop_
 _symmetry_equiv_pos_site_id
 _symmetry_equiv_pos_as_xyz
  1  'x, y, z'
loop_
 _atom_type_symbol
 _atom_type_oxidation_number
  Ca2+  2.0
  Mn3.34+  3.34
  O2-  -2.0
loop_
 _atom_site_type_symbol
 _atom_site_label
 _atom_site_symmetry_multiplicity
 _atom_site_fract_x
 _atom_site_fract_y
 _atom_site_fract_z
 _atom_site_occupancy
  Ca2+  Ca0  1  0.08725478  0.25608020  0.26414621  1
  Ca2+  Ca1  1  0.07992927  0.24390506  0.58046903  1
  Ca2+  Ca2  1  0.07918661  0.23720800  0.90152833  1
  Ca2+  Ca3  1  0.07986140  0.75096044  0.25964977  1
  Ca2+  Ca4  1  0.07780763  0.74689675  0.59272673  1
  Ca2+  Ca5  1  0.07766998  0.75829245  0.90605140  1
  Ca2+  Ca6  1  0.42524330  0.25210113  0.25801654  1
  Ca2+  Ca7  1  0.42884521  0.24726001  0.58360877  1
  Ca2+  Ca8  1  0.40787801  0.26064996  0.90645779  1
  Ca2+  Ca9  1  0.40668231  0.75001154  0.25449825  1
  Ca2+  Ca10  1  0.42828268  0.74757000  0.58169708  1
  Ca2+  Ca11  1  0.44535832  0.74255299  0.90843019  1
  Ca2+  Ca12  1  0.73379430  0.25259871  0.25452275  1
  Ca2+  Ca13  1  0.73805832  0.24017873  0.58748391  1
  Ca2+  Ca14  1  0.75980189  0.25742348  0.90862501  1
  Ca2+  Ca15  1  0.75291858  0.77265218  0.24928586  1
  Ca2+  Ca16  1  0.74772798  0.75621971  0.58886786  1
  Ca2+  Ca17  1  0.73832222  0.75523707  0.91204806  1
  Ca2+  Ca18  1  0.23343219  0.25015535  0.08066233  1
  Ca2+  Ca19  1  0.23346394  0.25237536  0.42713413  1
  Ca2+  Ca20  1  0.22871891  0.24523063  0.74473374  1
  Ca2+  Ca21  1  0.26012613  0.74950983  0.10641854  1
  Ca2+  Ca22  1  0.27458009  0.73800301  0.41284020  1
  Ca2+  Ca23  1  0.23291100  0.74449565  0.73803342  1
  Ca2+  Ca24  1  0.58683862  0.25866123  0.09438058  1
  Ca2+  Ca25  1  0.58072231  0.24774318  0.42713711  1
  Ca2+  Ca26  1  0.59153051  0.25333989  0.73997679  1
  Ca2+  Ca27  1  0.57570635  0.74698638  0.06368406  1
  Ca2+  Ca28  1  0.56587827  0.74814002  0.42728010  1
  Ca2+  Ca29  1  0.57682486  0.73581488  0.75316105  1
  Ca2+  Ca30  1  0.93094488  0.24886668  0.06926217  1
  Ca2+  Ca31  1  0.93694713  0.25420622  0.43158862  1
  Ca2+  Ca32  1  0.92947496  0.24881927  0.74608027  1
  Ca2+  Ca33  1  0.91806265  0.76376242  0.08280220  1
  Ca2+  Ca34  1  0.92164011  0.74977594  0.42008482  1
  Ca2+  Ca35  1  0.93385595  0.73648366  0.74966629  1
  Ca2+  Ca36  1  0.44086020  0.06671154  0.29361008  1
  Ca2+  Ca37  1  0.75405026  0.57983822  0.26359220  1
  Ca2+  Ca38  1  0.27674453  0.56725248  0.07303713  1
  Ca2+  Ca39  1  0.39663397  0.58788448  0.25644121  1
  Ca2+  Ca40  1  0.24829027  0.59338474  0.42448522  1
  Ca2+  Ca41  1  0.58847123  0.10264679  0.42971868  1
  Ca2+  Ca42  1  0.92145989  0.10278359  0.42550518  1
  Ca2+  Ca43  1  0.55076293  0.60687950  0.43543825  1
  Ca2+  Ca44  1  0.24814452  0.58989403  0.73561183  1
  Ca2+  Ca45  1  0.94504335  0.09962594  0.74978760  1
  Ca2+  Ca46  1  0.40996803  0.09162767  0.91339182  1
  Ca2+  Ca47  1  0.58581110  0.10080446  0.72647589  1
  Ca2+  Ca48  1  0.76118043  0.09553897  0.91275655  1
  Ca2+  Ca49  1  0.08020502  0.08991154  0.24700539  1
  Ca2+  Ca50  1  0.43113923  0.61232567  0.57411807  1
  Ca2+  Ca51  1  0.75370123  0.59054131  0.59016079  1
  Ca2+  Ca52  1  0.72536116  0.59768601  0.90689788  1
  Ca2+  Ca53  1  0.08278148  0.10580017  0.58194132  1
  Ca2+  Ca54  1  0.59181171  0.08280916  0.10626146  1
  Ca2+  Ca55  1  0.73779094  0.59808878  0.90974033  1
  Ca2+  Ca56  1  0.46327474  0.59571690  0.91164464  1
  Ca2+  Ca57  1  0.09241833  0.09189281  0.24717510  1
  Ca2+  Ca58  1  0.59597593  0.09551383  0.72761152  1
  Ca2+  Ca59  1  0.05354924  0.60715667  0.59451100  1
  Ca2+  Ca60  1  0.22278686  0.07607663  0.06927858  1
  Ca2+  Ca61  1  0.05583634  0.61438820  0.89277222  1
  Ca2+  Ca62  1  0.42272742  0.09083337  0.91408730  1
  Ca2+  Ca63  1  0.76658697  0.57940735  0.26221661  1
  Ca2+  Ca64  1  0.94697940  0.59379311  0.42385414  1
  Ca2+  Ca65  1  0.26449342  0.56872704  0.07112289  1
  Ca2+  Ca66  1  0.91014249  0.10348580  0.42627647  1
  Ca2+  Ca67  1  0.21804402  0.09967710  0.75203162  1
  Ca2+  Ca68  1  0.42639200  0.10011697  0.57092443  1
  Ca2+  Ca69  1  0.24289514  0.10896307  0.41992059  1
  Ca2+  Ca70  1  0.40550521  0.58351422  0.25306403  1
  Ca2+  Ca71  1  0.04392264  0.61405798  0.88887058  1
  Ca2+  Ca72  1  0.58297133  0.39769407  0.41679504  1
  Ca2+  Ca73  1  0.28080362  0.91287260  0.41897980  1
  Ca2+  Ca74  1  0.74979382  0.40502137  0.58254917  1
  Ca2+  Ca75  1  0.26408507  0.41436771  0.07724800  1
  Ca2+  Ca76  1  0.24192102  0.90838611  0.08392186  1
  Ca2+  Ca77  1  0.26393331  0.40934549  0.75684779  1
  Ca2+  Ca78  1  0.93607282  0.40640966  0.41819370  1
  Ca2+  Ca79  1  0.24246450  0.90311025  0.74393007  1
  Ca2+  Ca80  1  0.41256966  0.90578605  0.91635097  1
  Ca2+  Ca81  1  0.59194386  0.40942484  0.74592305  1
  Ca2+  Ca82  1  0.58948645  0.89416928  0.75003418  1
  Ca2+  Ca83  1  0.42590178  0.91416718  0.25642025  1
  Ca2+  Ca84  1  0.56468844  0.40635301  0.08454064  1
  Ca2+  Ca85  1  0.90951484  0.90699163  0.40268874  1
  Ca2+  Ca86  1  0.25319337  0.41403802  0.07758855  1
  Ca2+  Ca87  1  0.26964743  0.90938287  0.41501153  1
  Ca2+  Ca88  1  0.59906480  0.91004787  0.08699567  1
  Ca2+  Ca89  1  0.08827009  0.40412498  0.56940117  1
  Ca2+  Ca90  1  0.08075914  0.90672588  0.59187096  1
  Ca2+  Ca91  1  0.43692743  0.91759713  0.25225489  1
  Ca2+  Ca92  1  0.89838476  0.90806656  0.40073716  1
  Ca2+  Ca93  1  0.76408915  0.90337495  0.92089074  1
  Ca2+  Ca94  1  0.42544513  0.90594105  0.91698271  1
  Ca2+  Ca95  1  0.23414394  0.91388564  0.08183359  1
  Ca2+  Ca96  1  0.06296949  0.91199441  0.23953142  1
  Ca2+  Ca97  1  0.57446995  0.92423292  0.41095127  1
  Ca2+  Ca98  1  0.08433429  0.40070335  0.92341826  1
  Ca2+  Ca99  1  0.75074255  0.39835275  0.25766839  1
  Ca2+  Ca100  1  0.25281785  0.40795713  0.75652859  1
  Ca2+  Ca101  1  0.56398287  0.92397478  0.41026763  1
  Ca2+  Ca102  1  0.41942005  0.40491869  0.57750130  1
  Ca2+  Ca103  1  0.40831464  0.42373662  0.93174248  1
  Ca2+  Ca104  1  0.41420774  0.40610924  0.24991461  1
  Ca2+  Ca105  1  0.06229982  0.91480590  0.92791100  1
  Ca2+  Ca106  1  0.92153418  0.39224313  0.08794704  1
  Ca2+  Ca107  1  0.07226524  0.91393117  0.92465083  1
  Mn3.34+  Mn108  1  0.08272390  0.33005179  0.08866726  1
  Mn3.34+  Mn109  1  0.08866338  0.33574567  0.41608831  1
  Mn3.34+  Mn110  1  0.07845801  0.33351250  0.74847985  1
  Mn3.34+  Mn111  1  0.07757344  0.83403132  0.08785886  1
  Mn3.34+  Mn112  1  0.08692209  0.82715512  0.42539142  1
  Mn3.34+  Mn113  1  0.07851545  0.83209399  0.74893696  1
  Mn3.34+  Mn114  1  0.41606448  0.33352418  0.08402304  1
  Mn3.34+  Mn115  1  0.41005952  0.33349581  0.41833119  1
  Mn3.34+  Mn116  1  0.42250287  0.33433974  0.75086461  1
  Mn3.34+  Mn117  1  0.41903959  0.83147325  0.08863681  1
  Mn3.34+  Mn118  1  0.42143054  0.83018195  0.42214508  1
  Mn3.34+  Mn119  1  0.41494621  0.82734821  0.74628651  1
  Mn3.34+  Mn120  1  0.75102758  0.33121046  0.08105531  1
  Mn3.34+  Mn121  1  0.75432865  0.32942276  0.42184918  1
  Mn3.34+  Mn122  1  0.75687987  0.33553289  0.75266189  1
  Mn3.34+  Mn123  1  0.75298352  0.83730383  0.08351931  1
  Mn3.34+  Mn124  1  0.74276926  0.83617408  0.42130136  1
  Mn3.34+  Mn125  1  0.75899006  0.83264585  0.74630146  1
  Mn3.34+  Mn126  1  0.24781891  0.33795447  0.25209133  1
  Mn3.34+  Mn127  1  0.25345871  0.33373471  0.58062366  1
  Mn3.34+  Mn128  1  0.24873977  0.33353230  0.91491966  1
  Mn3.34+  Mn129  1  0.24600787  0.83495982  0.25159817  1
  Mn3.34+  Mn130  1  0.24911560  0.83249595  0.58056958  1
  Mn3.34+  Mn131  1  0.25014066  0.83201277  0.91289465  1
  Mn3.34+  Mn132  1  0.58180738  0.33159292  0.25115284  1
  Mn3.34+  Mn133  1  0.58492970  0.33111733  0.58355568  1
  Mn3.34+  Mn134  1  0.58607423  0.33645238  0.91264959  1
  Mn3.34+  Mn135  1  0.58920938  0.83781860  0.24765554  1
  Mn3.34+  Mn136  1  0.58619022  0.83889476  0.58270843  1
  Mn3.34+  Mn137  1  0.58821610  0.83497231  0.91450222  1
  Mn3.34+  Mn138  1  0.91730933  0.32997548  0.24927283  1
  Mn3.34+  Mn139  1  0.91595134  0.33512642  0.58700224  1
  Mn3.34+  Mn140  1  0.91664788  0.32896561  0.91203577  1
  Mn3.34+  Mn141  1  0.91243189  0.83491516  0.24827328  1
  Mn3.34+  Mn142  1  0.91363338  0.83878163  0.58409642  1
  Mn3.34+  Mn143  1  0.91238006  0.83492486  0.91074640  1
  Mn3.34+  Mn144  1  0.75815358  0.66789236  0.74693825  1
  Mn3.34+  Mn145  1  0.57892361  0.67101621  0.24951442  1
  Mn3.34+  Mn146  1  0.75710543  0.66648163  0.42737094  1
  Mn3.34+  Mn147  1  0.58324848  0.16294343  0.25536640  1
  Mn3.34+  Mn148  1  0.74841656  0.66296538  0.74507521  1
  Mn3.34+  Mn149  1  0.08292128  0.66660545  0.08995087  1
  Mn3.34+  Mn150  1  0.25100136  0.16912218  0.58406277  1
  Mn3.34+  Mn151  1  0.40780193  0.17002659  0.08903447  1
  Mn3.34+  Mn152  1  0.76208346  0.66412334  0.08641164  1
  Mn3.34+  Mn153  1  0.08953389  0.66486082  0.42472697  1
  Mn3.34+  Mn154  1  0.74735591  0.16308391  0.08333622  1
  Mn3.34+  Mn155  1  0.74481437  0.67130132  0.42389366  1
  Mn3.34+  Mn156  1  0.74703380  0.16830760  0.42049368  1
  Mn3.34+  Mn157  1  0.58448419  0.16643944  0.91025414  1
  Mn3.34+  Mn158  1  0.41934798  0.66515627  0.08318467  1
  Mn3.34+  Mn159  1  0.25864451  0.66886056  0.91517861  1
  Mn3.34+  Mn160  1  0.08258365  0.16464609  0.07688546  1
  Mn3.34+  Mn161  1  0.91539859  0.16927644  0.24556199  1
  Mn3.34+  Mn162  1  0.91394488  0.16927336  0.58820493  1
  Mn3.34+  Mn163  1  0.91993793  0.66950585  0.25590991  1
  Mn3.34+  Mn164  1  0.41203172  0.16600139  0.41764379  1
  Mn3.34+  Mn165  1  0.75796038  0.15892066  0.08609730  1
  Mn3.34+  Mn166  1  0.24045329  0.66178319  0.25313794  1
  Mn3.34+  Mn167  1  0.24927879  0.65891081  0.91118771  1
  Mn3.34+  Mn168  1  0.74785471  0.66938837  0.08536699  1
  Mn3.34+  Mn169  1  0.92252309  0.16286083  0.91277156  1
  Mn3.34+  Mn170  1  0.75622866  0.17137124  0.75100211  1
  Mn3.34+  Mn171  1  0.24639632  0.16843752  0.91528865  1
  Mn3.34+  Mn172  1  0.07265766  0.66178926  0.09197927  1
  Mn3.34+  Mn173  1  0.41119460  0.17148364  0.74849777  1
  Mn3.34+  Mn174  1  0.90660716  0.16256766  0.24363631  1
  Mn3.34+  Mn175  1  0.25012399  0.66347761  0.58148948  1
  Mn3.34+  Mn176  1  0.24943612  0.17004390  0.24836959  1
  Mn3.34+  Mn177  1  0.58874695  0.66519456  0.24764130  1
  Mn3.34+  Mn178  1  0.41970715  0.16451116  0.09167030  1
  Mn3.34+  Mn179  1  0.42242644  0.66428200  0.74830917  1
  Mn3.34+  Mn180  1  0.25466015  0.00434008  0.25303514  1
  Mn3.34+  Mn181  1  0.42444269  0.00269923  0.07775966  1
  Mn3.34+  Mn182  1  0.09070261  -0.00443526  0.42473166  1
  Mn3.34+  Mn183  1  0.91752026  -0.00045790  0.58182615  1
  Mn3.34+  Mn184  1  0.90577780  0.49207767  0.90490369  1
  Mn3.34+  Mn185  1  0.06511882  0.49387442  0.73836492  1
  Mn3.34+  Mn186  1  0.59937192  0.00283101  0.92444160  1
  Mn3.34+  Mn187  1  0.75637202  -0.00258727  0.74460672  1
  Mn3.34+  Mn188  1  0.07529570  0.00005562  0.42085627  1
  Mn3.34+  Mn189  1  0.59062008  0.00304149  0.58136647  1
  Mn3.34+  Mn190  1  0.75693737  0.49365907  0.74138376  1
  Mn3.34+  Mn191  1  0.22788259  0.49546987  0.27490073  1
  Mn3.34+  Mn192  1  0.57925382  0.49464876  0.92208992  1
  Mn3.34+  Mn193  1  0.24141431  0.00342243  0.58421254  1
  Mn3.34+  Mn194  1  0.07032076  0.49707364  0.08412253  1
  Mn3.34+  Mn195  1  0.40572179  0.00168484  0.73949589  1
  Mn3.34+  Mn196  1  0.91606816  0.00594430  0.93788011  1
  Mn3.34+  Mn197  1  0.24096171  0.00149184  0.91447026  1
  Mn3.34+  Mn198  1  0.75505678  0.00501851  0.39927951  1
  Mn3.34+  Mn199  1  0.75965163  -0.00140250  0.07612898  1
  Mn3.34+  Mn200  1  0.75041597  0.49885707  0.41947294  1
  Mn3.34+  Mn201  1  0.74631328  0.50070721  0.07930163  1
  Mn3.34+  Mn202  1  0.94033862  0.49956712  0.25625585  1
  Mn3.34+  Mn203  1  0.07723303  0.50112870  0.73964905  1
  Mn3.34+  Mn204  1  0.42267145  0.50287106  0.74690597  1
  Mn3.34+  Mn205  1  0.95354996  0.50038416  0.25999092  1
  Mn3.34+  Mn206  1  0.58258093  0.49684784  0.59252478  1
  Mn3.34+  Mn207  1  0.07856975  -0.00349023  0.73911138  1
  Mn3.34+  Mn208  1  0.91831088  0.49843128  0.90155562  1
  Mn3.34+  Mn209  1  0.41933132  -0.00496460  0.73906938  1
  Mn3.34+  Mn210  1  0.75998027  0.49496398  0.07729698  1
  Mn3.34+  Mn211  1  0.25774840  0.49712363  0.58472635  1
  Mn3.34+  Mn212  1  0.76572160  0.00269395  0.74835468  1
  Mn3.34+  Mn213  1  0.58295694  0.50100523  0.24743780  1
  Mn3.34+  Mn214  1  0.41303490  0.49847316  0.41054082  1
  Mn3.34+  Mn215  1  0.90986322  0.49780691  0.58364109  1
  O2-  O216  1  -0.00074492  0.16175515  0.00018687  1
  O2-  O217  1  -0.00579032  0.16377650  0.33228054  1
  O2-  O218  1  -0.00008993  0.16139577  0.65803962  1
  O2-  O219  1  -0.00261851  0.65693625  0.00699423  1
  O2-  O220  1  0.00320702  0.67200845  0.34140817  1
  O2-  O221  1  -0.00704866  0.68074781  0.65548052  1
  O2-  O222  1  0.33378722  0.14371407  0.00694986  1
  O2-  O223  1  0.32602072  0.18011102  0.33797664  1
  O2-  O224  1  0.33214118  0.14607032  0.67250617  1
  O2-  O225  1  0.32924767  0.64868023  0.00363911  1
  O2-  O226  1  0.32295366  0.64694332  0.33025007  1
  O2-  O227  1  0.32714818  0.66058354  0.67207724  1
  O2-  O228  1  0.66346981  0.14810347  -0.00308687  1
  O2-  O229  1  0.66622811  0.17184303  0.33781746  1
  O2-  O230  1  0.67436338  0.16435931  0.67282635  1
  O2-  O231  1  0.66921162  0.64948186  0.00742083  1
  O2-  O232  1  0.66731525  0.64093161  0.34189509  1
  O2-  O233  1  0.67402660  0.66155458  0.66313601  1
  O2-  O234  1  0.17239510  0.15521264  0.00322912  1
  O2-  O235  1  0.16452240  0.15615221  0.32291214  1
  O2-  O236  1  0.17003177  0.16111972  0.66034754  1
  O2-  O237  1  0.16515827  0.65589522  -0.00355456  1
  O2-  O238  1  0.16388608  0.67649892  0.33820665  1
  O2-  O239  1  0.16772252  0.66605627  0.65710422  1
  O2-  O240  1  0.49881114  0.14938304  -0.00494410  1
  O2-  O241  1  0.49244515  0.16637588  0.33302881  1
  O2-  O242  1  0.49345491  0.15620984  0.67268786  1
  O2-  O243  1  0.49511116  0.66497867  0.00376414  1
  O2-  O244  1  0.49251162  0.64790950  0.32180771  1
  O2-  O245  1  0.49672181  0.66923750  0.66748067  1
  O2-  O246  1  0.83674816  0.15229522  0.00388980  1
  O2-  O247  1  0.83331647  0.17874256  0.33522563  1
  O2-  O248  1  0.84229648  0.15567212  0.67997071  1
  O2-  O249  1  0.82511518  0.65768693  -0.00711057  1
  O2-  O250  1  0.83335267  0.64377481  0.34206566  1
  O2-  O251  1  0.83470043  0.66624955  0.66554698  1
  O2-  O252  1  0.00180187  0.34063834  0.00279959  1
  O2-  O253  1  -0.00524278  0.32998076  0.33563364  1
  O2-  O254  1  0.00359873  0.35278176  0.66359318  1
  O2-  O255  1  0.00051801  0.83463931  -0.00378118  1
  O2-  O256  1  0.00341958  0.83109191  0.34072624  1
  O2-  O257  1  0.00128638  0.84187599  0.66255553  1
  O2-  O258  1  0.33410178  0.34843257  -0.00144036  1
  O2-  O259  1  0.33660188  0.31944647  0.32776807  1
  O2-  O260  1  0.33731499  0.35348217  0.66859977  1
  O2-  O261  1  0.32769253  0.85283193  0.00362321  1
  O2-  O262  1  0.34072784  0.85210565  0.32544719  1
  O2-  O263  1  0.32334403  0.82904779  0.67211688  1
  O2-  O264  1  0.65600998  0.33490773  0.00707864  1
  O2-  O265  1  0.66636772  0.33544730  0.33611568  1
  O2-  O266  1  0.66601448  0.34473741  0.66688052  1
  O2-  O267  1  0.66949004  0.84953882  -0.00387420  1
  O2-  O268  1  0.65909817  0.85693523  0.34061269  1
  O2-  O269  1  0.66915488  0.83599861  0.66513331  1
  O2-  O270  1  0.17201323  0.34911563  0.00772437  1
  O2-  O271  1  0.17086363  0.32456389  0.33363547  1
  O2-  O272  1  0.17306166  0.35387661  0.67193951  1
  O2-  O273  1  0.16364829  0.84723866  -0.00498362  1
  O2-  O274  1  0.17443686  0.85194850  0.34519448  1
  O2-  O275  1  0.16425693  0.84128379  0.66551399  1
  O2-  O276  1  0.49670110  0.34396380  -0.00296186  1
  O2-  O277  1  0.49636390  0.33560231  0.33281245  1
  O2-  O278  1  0.50276790  0.35120490  0.66644911  1
  O2-  O279  1  0.50131466  0.84777306  0.00359862  1
  O2-  O280  1  0.50151158  0.85061967  0.33508256  1
  O2-  O281  1  0.50602428  0.83189479  0.67016151  1
  O2-  O282  1  0.83685657  0.33827537  0.00250651  1
  O2-  O283  1  0.82885404  0.32003290  0.33016604  1
  O2-  O284  1  0.82843163  0.34600357  0.66226849  1
  O2-  O285  1  0.83348582  0.82752744  -0.00525681  1
  O2-  O286  1  0.82801375  0.84117306  0.33257628  1
  O2-  O287  1  0.84070503  0.81248738  0.66473973  1
  O2-  O288  1  0.00052002  0.18395227  0.16912417  1
  O2-  O289  1  -0.01057650  0.17359611  0.50258499  1
  O2-  O290  1  -0.00976114  0.17693309  0.83052439  1
  O2-  O291  1  -0.00408065  0.69182586  0.17164812  1
  O2-  O292  1  0.00972172  0.68564199  0.49528168  1
  O2-  O293  1  -0.00392910  0.69354900  0.85305507  1
  O2-  O294  1  0.33151846  0.19506141  0.17264515  1
  O2-  O295  1  0.33603324  0.18289089  0.50099340  1
  O2-  O296  1  0.34155689  0.17704606  0.84445390  1
  O2-  O297  1  0.33130832  0.67098533  0.17021008  1
  O2-  O298  1  0.33498024  0.68499111  0.51503220  1
  O2-  O299  1  0.33535275  0.68656162  0.83563483  1
  O2-  O300  1  0.66386602  0.17400366  0.16215775  1
  O2-  O301  1  0.66846117  0.18313803  0.49101159  1
  O2-  O302  1  0.66384454  0.18455603  0.83112793  1
  O2-  O303  1  0.67432108  0.68308132  0.17237765  1
  O2-  O304  1  0.66627016  0.68297705  0.50204577  1
  O2-  O305  1  0.67153575  0.66959689  0.83044106  1
  O2-  O306  1  0.16159282  0.18576098  0.17154269  1
  O2-  O307  1  0.17276609  0.17682141  0.50489564  1
  O2-  O308  1  0.17450805  0.17776354  0.83475421  1
  O2-  O309  1  0.16461847  0.68080794  0.16676795  1
  O2-  O310  1  0.17532629  0.68640435  0.49499701  1
  O2-  O311  1  0.16664851  0.68468868  0.83989609  1
  O2-  O312  1  0.50369208  0.18294978  0.16228054  1
  O2-  O313  1  0.49250941  0.18041877  0.49008994  1
  O2-  O314  1  0.49657901  0.18374223  0.83574579  1
  O2-  O315  1  0.49456583  0.68333957  0.16750265  1
  O2-  O316  1  0.50338495  0.68214466  0.50509235  1
  O2-  O317  1  0.49882959  0.67158338  0.82944040  1
  O2-  O318  1  0.82994283  0.19556649  0.16955723  1
  O2-  O319  1  0.83552215  0.18246887  0.49454521  1
  O2-  O320  1  0.82495701  0.17652366  0.84492975  1
  O2-  O321  1  0.82782251  0.67870500  0.17638834  1
  O2-  O322  1  0.83424569  0.69062112  0.50202531  1
  O2-  O323  1  0.82304556  0.67731493  0.83641270  1
  O2-  O324  1  -0.00260546  0.31139535  0.16505765  1
  O2-  O325  1  0.00039997  0.32786272  0.50507954  1
  O2-  O326  1  0.00900032  0.31934061  0.84088474  1
  O2-  O327  1  0.00373159  0.82128304  0.17474847  1
  O2-  O328  1  0.00080897  0.81151838  0.50249588  1
  O2-  O329  1  0.00510847  0.82883945  0.83943437  1
  O2-  O330  1  0.33019084  0.32247023  0.16241913  1
  O2-  O331  1  0.33679327  0.31391366  0.50370225  1
  O2-  O332  1  0.32927351  0.32614910  0.82814080  1
  O2-  O333  1  0.32776860  0.82895302  0.16364956  1
  O2-  O334  1  0.32462678  0.82252218  0.48894049  1
  O2-  O335  1  0.34381076  0.81951871  0.84872565  1
  O2-  O336  1  0.66725577  0.32651269  0.17007014  1
  O2-  O337  1  0.66769715  0.31743810  0.49958727  1
  O2-  O338  1  0.66715016  0.31556555  0.83274207  1
  O2-  O339  1  0.66032016  0.82223616  0.15966132  1
  O2-  O340  1  0.66348610  0.81227410  0.49983548  1
  O2-  O341  1  0.66671955  0.83113307  0.83383224  1
  O2-  O342  1  0.16826627  0.31798758  0.16741331  1
  O2-  O343  1  0.16378566  0.32293178  0.51043780  1
  O2-  O344  1  0.17023881  0.32223582  0.83146909  1
  O2-  O345  1  0.16880267  0.82211132  0.16275241  1
  O2-  O346  1  0.16717961  0.80771476  0.50376911  1
  O2-  O347  1  0.17163318  0.81874015  0.82972996  1
  O2-  O348  1  0.49873384  0.32196945  0.16540291  1
  O2-  O349  1  0.50034776  0.32172600  0.49804034  1
  O2-  O350  1  0.50367144  0.31387140  0.83055512  1
  O2-  O351  1  0.49378055  0.81805273  0.17935563  1
  O2-  O352  1  0.50178172  0.81871262  0.50264399  1
  O2-  O353  1  0.49883851  0.82723798  0.83843299  1
  O2-  O354  1  0.83333871  0.31635889  0.16837300  1
  O2-  O355  1  0.83564618  0.31426557  0.50009869  1
  O2-  O356  1  0.84130679  0.31609496  0.82724452  1
  O2-  O357  1  0.83703194  0.82367099  0.16145666  1
  O2-  O358  1  0.83838255  0.82270855  0.49299015  1
  O2-  O359  1  0.83046404  0.81415242  0.83632653  1
  O2-  O360  1  0.09117789  0.08429124  0.11494803  1
  O2-  O361  1  0.06676470  0.08106786  0.44321532  1
  O2-  O362  1  0.08177374  0.07153319  0.76763567  1
  O2-  O363  1  0.08804848  0.58000423  0.11214130  1
  O2-  O364  1  0.09001063  0.58969152  0.45681760  1
  O2-  O365  1  0.09111124  0.57934045  0.77100696  1
  O2-  O366  1  0.41588043  0.08354980  0.12538687  1
  O2-  O367  1  0.40923077  0.08504025  0.42956149  1
  O2-  O368  1  0.42402522  0.08015850  0.78135088  1
  O2-  O369  1  0.40779198  0.58102995  0.11571959  1
  O2-  O370  1  0.40729317  0.57316377  0.44834895  1
  O2-  O371  1  0.40198442  0.58192705  0.77906148  1
  O2-  O372  1  0.75191439  0.07869749  0.11830071  1
  O2-  O373  1  0.76761839  0.08605517  0.43101672  1
  O2-  O374  1  0.73390331  0.08271246  0.77972201  1
  O2-  O375  1  0.75423292  0.57735358  0.12935103  1
  O2-  O376  1  0.75352670  0.58322048  0.45396943  1
  O2-  O377  1  0.75820120  0.57897392  0.77452844  1
  O2-  O378  1  0.23648154  0.08197611  0.21312540  1
  O2-  O379  1  0.25260542  0.08307817  0.55334489  1
  O2-  O380  1  0.26963642  0.08190835  0.88784945  1
  O2-  O381  1  0.25466801  0.56686850  0.20749852  1
  O2-  O382  1  0.25486915  0.57866218  0.56143328  1
  O2-  O383  1  0.22266394  0.57995401  0.88944444  1
  O2-  O384  1  0.57103994  0.08300580  0.23963538  1
  O2-  O385  1  0.57490787  0.08124064  0.56350518  1
  O2-  O386  1  0.57329672  0.07866704  0.86238257  1
  O2-  O387  1  0.60197956  0.58166451  0.21111940  1
  O2-  O388  1  0.59084575  0.56783832  0.55231459  1
  O2-  O389  1  0.60014741  0.56666776  0.87988364  1
  O2-  O390  1  0.93967421  0.08079779  0.24022681  1
  O2-  O391  1  0.91726752  0.08204274  0.55794512  1
  O2-  O392  1  0.90538544  0.07994230  0.88390862  1
  O2-  O393  1  0.90706958  0.58121640  0.22434583  1
  O2-  O394  1  0.91143829  0.57309828  0.54832055  1
  O2-  O395  1  0.91869860  0.57708311  0.87004269  1
  O2-  O396  1  0.06988625  0.41527777  0.11043587  1
  O2-  O397  1  0.07467202  0.41512095  0.43451609  1
  O2-  O398  1  0.09184638  0.42048528  0.78827353  1
  O2-  O399  1  0.09075488  0.91540120  0.10398188  1
  O2-  O400  1  0.08400922  0.91524778  0.45199534  1
  O2-  O401  1  0.09301159  0.92089780  0.78795526  1
  O2-  O402  1  0.41772159  0.41439635  0.11017276  1
  O2-  O403  1  0.43369567  0.42065425  0.43683985  1
  O2-  O404  1  0.41071567  0.42185806  0.78651465  1
  O2-  O405  1  0.41422064  0.92076375  0.11801984  1
  O2-  O406  1  0.41737615  0.91574115  0.44427602  1
  O2-  O407  1  0.41097924  0.91576590  0.77849357  1
  O2-  O408  1  0.75933998  0.41792140  0.11805156  1
  O2-  O409  1  0.75085710  0.41598124  0.43721536  1
  O2-  O410  1  0.74026207  0.41676531  0.78019277  1
  O2-  O411  1  0.74804042  0.91861168  0.09963336  1
  O2-  O412  1  0.76283083  0.92285229  0.43578339  1
  O2-  O413  1  0.75417196  0.91745660  0.77948599  1
  O2-  O414  1  0.26069109  0.42717367  0.21510537  1
  O2-  O415  1  0.26116489  0.41749801  0.55516202  1
  O2-  O416  1  0.24671650  0.41804970  0.89243375  1
  O2-  O417  1  0.23805420  0.92247171  0.21764467  1
  O2-  O418  1  0.23235078  0.92294652  0.54564227  1
  O2-  O419  1  0.26393118  0.92212993  0.87874540  1
  O2-  O420  1  0.57683490  0.41763901  0.23050283  1
  O2-  O421  1  0.59257607  0.42080019  0.55032302  1
  O2-  O422  1  0.56676665  0.42206608  0.88134192  1
  O2-  O423  1  0.57116928  0.91775229  0.21861842  1
  O2-  O424  1  0.58745706  0.92414036  0.54817978  1
  O2-  O425  1  0.56505392  0.92165471  0.88680131  1
  O2-  O426  1  0.90812172  0.42118232  0.22206369  1
  O2-  O427  1  0.90429876  0.41827912  0.55090339  1
  O2-  O428  1  0.92167285  0.41176007  0.90008932  1
  O2-  O429  1  0.92466096  0.91547101  0.26108875  1
  O2-  O430  1  0.93341823  0.92226378  0.53832816  1
  O2-  O431  1  0.92253434  0.92399630  0.90043165  1
  O2-  O432  1  0.02510016  0.00289008  -0.03871096  1
  O2-  O433  1  0.03224447  -0.00308704  0.31235333  1
  O2-  O434  1  0.02374952  0.00069519  0.63787998  1
  O2-  O435  1  0.01455006  0.50134077  -0.02488509  1
  O2-  O436  1  -0.01823036  0.50377048  0.36815773  1
  O2-  O437  1  0.01325130  0.49902072  0.63409675  1
  O2-  O438  1  0.33194843  -0.00614600  -0.00335046  1
  O2-  O439  1  0.34087622  -0.02081307  0.32154919  1
  O2-  O440  1  0.33456241  -0.00366212  0.65188704  1
  O2-  O441  1  0.32709225  0.48981212  0.02170542  1
  O2-  O442  1  0.33778814  0.50291100  0.31847032  1
  O2-  O443  1  0.31869962  0.49450368  0.69151513  1
  O2-  O444  1  0.64046864  0.00308838  0.04033843  1
  O2-  O445  1  0.64047030  0.00905828  0.40067777  1
  O2-  O446  1  0.65195122  0.00382353  0.68798664  1
  O2-  O447  1  0.66639405  0.49701681  -0.00397099  1
  O2-  O448  1  0.67564908  0.50649406  0.32074679  1
  O2-  O449  1  0.65401242  0.49277491  0.67737660  1
  O2-  O450  1  0.17582411  -0.01725702  0.00842523  1
  O2-  O451  1  0.18652443  0.00918015  0.35440564  1
  O2-  O452  1  0.18027539  -0.00823765  0.68620410  1
  O2-  O453  1  0.17873638  0.49420333  0.04273673  1
  O2-  O454  1  0.17339936  0.52390247  0.35466069  1
  O2-  O455  1  0.17036774  0.49196481  0.66916900  1
  O2-  O456  1  0.47942497  0.00855805  -0.03407295  1
  O2-  O457  1  0.49643497  -0.01899604  0.32755126  1
  O2-  O458  1  0.49995498  0.01045650  0.66014260  1
  O2-  O459  1  0.48887660  0.50224461  -0.02355008  1
  O2-  O460  1  0.49075240  0.51644427  0.31911237  1
  O2-  O461  1  0.48414296  0.48781621  0.64622362  1
  O2-  O462  1  0.79752882  0.00088955  -0.04105951  1
  O2-  O463  1  0.87802962  0.00635408  0.40010942  1
  O2-  O464  1  0.85716962  0.00918809  0.68001395  1
  O2-  O465  1  0.83087302  0.52088840  -0.00957141  1
  O2-  O466  1  0.82867093  0.50333692  0.31552177  1
  O2-  O467  1  0.80785355  0.50041544  0.63397052  1
  O2-  O468  1  0.08747413  0.24991233  0.05163779  1
  O2-  O469  1  0.08183235  0.25668735  0.72580664  1
  O2-  O470  1  0.08301024  0.25328038  0.41303475  1
  O2-  O471  1  0.25392772  0.25246065  0.61025366  1
  O2-  O472  1  0.42108558  0.74834587  0.73989670  1
  O2-  O473  1  0.57861610  0.25389772  0.60318717  1
  O2-  O474  1  0.08129976  0.75429260  0.73455215  1
  O2-  O475  1  0.40597670  0.74998730  0.05976995  1
  O2-  O476  1  0.74650350  0.74905541  0.38343721  1
  O2-  O477  1  0.74105723  0.24420366  0.05652997  1
  O2-  O478  1  0.90005090  0.75009220  0.27575147  1
  O2-  O479  1  0.42155581  0.24844577  0.05083994  1
  O2-  O480  1  0.91270496  0.24758351  0.93542105  1
  O2-  O481  1  0.59067937  0.75500961  0.92960595  1
  O2-  O482  1  0.75605270  0.25239952  0.72710044  1
  O2-  O483  1  0.08739997  0.74894869  0.06115072  1
  O2-  O484  1  0.58417357  0.24980386  0.25949590  1
  O2-  O485  1  0.25827904  0.25039028  0.94270518  1
  O2-  O486  1  0.73168404  0.74943073  0.74149379  1
  O2-  O487  1  0.42014589  0.75375578  0.38890224  1
  O2-  O488  1  0.40840360  0.25198970  0.72290342  1
  O2-  O489  1  0.74313565  0.75290689  0.06336341  1
  O2-  O490  1  0.92142009  0.25268913  0.60677984  1
  O2-  O491  1  0.59552277  0.75204008  0.28347178  1
  O2-  O492  1  0.25802111  0.75410878  0.26623183  1
