# generated using pymatgen
data_Ca108Mn108O277
_symmetry_space_group_name_H-M   'P 1'
_cell_length_a   16.00106290
_cell_length_b   22.26924207
_cell_length_c   16.36870355
_cell_angle_alpha   89.99915255
_cell_angle_beta   89.99944295
_cell_angle_gamma   89.99992435
_symmetry_Int_Tables_number   1
_chemical_formula_structural   Ca108Mn108O277
_chemical_formula_sum   'Ca108 Mn108 O277'
_cell_volume   5832.68539276
_cell_formula_units_Z   1
loop_
 _symmetry_equiv_pos_site_id
 _symmetry_equiv_pos_as_xyz
  1  'x, y, z'
loop_
 _atom_type_symbol
 _atom_type_oxidation_number
  Ca2+  2.0
  Mn3.34+  3.34
  O2-  -2.0
loop_
 _atom_site_type_symbol
 _atom_site_label
 _atom_site_symmetry_multiplicity
 _atom_site_fract_x
 _atom_site_fract_y
 _atom_site_fract_z
 _atom_site_occupancy
  Ca2+  Ca0  1  0.08958017  0.26214556  0.24671346  1
  Ca2+  Ca1  1  0.08796560  0.25741510  0.58908646  1
  Ca2+  Ca2  1  0.08682252  0.25292556  0.91368119  1
  Ca2+  Ca3  1  0.07872756  0.74883960  0.24349132  1
  Ca2+  Ca4  1  0.08365487  0.74718168  0.58970760  1
  Ca2+  Ca5  1  0.07853641  0.75685663  0.91729403  1
  Ca2+  Ca6  1  0.42442953  0.24762333  0.25208384  1
  Ca2+  Ca7  1  0.41358537  0.24859854  0.57793901  1
  Ca2+  Ca8  1  0.41993564  0.24866533  0.91978283  1
  Ca2+  Ca9  1  0.40879244  0.75324071  0.24782734  1
  Ca2+  Ca10  1  0.41752084  0.74432575  0.59310017  1
  Ca2+  Ca11  1  0.43356086  0.74771732  0.90852649  1
  Ca2+  Ca12  1  0.73527872  0.24849841  0.26488242  1
  Ca2+  Ca13  1  0.75196244  0.24482396  0.57656520  1
  Ca2+  Ca14  1  0.74058123  0.25766336  0.90839838  1
  Ca2+  Ca15  1  0.76075834  0.75127843  0.24340409  1
  Ca2+  Ca16  1  0.74920418  0.75261851  0.57842860  1
  Ca2+  Ca17  1  0.73776393  0.75054686  0.92727585  1
  Ca2+  Ca18  1  0.25979785  0.25167340  0.08110496  1
  Ca2+  Ca19  1  0.26507249  0.25525562  0.42458962  1
  Ca2+  Ca20  1  0.25372592  0.24908073  0.74432412  1
  Ca2+  Ca21  1  0.24780669  0.75098318  0.09249748  1
  Ca2+  Ca22  1  0.25372256  0.74825513  0.41290718  1
  Ca2+  Ca23  1  0.25726202  0.75138880  0.74553064  1
  Ca2+  Ca24  1  0.56788722  0.24841217  0.08505220  1
  Ca2+  Ca25  1  0.58042657  0.25043852  0.41441768  1
  Ca2+  Ca26  1  0.57876903  0.25245824  0.75225212  1
  Ca2+  Ca27  1  0.58908703  0.74676124  0.06911610  1
  Ca2+  Ca28  1  0.58543219  0.75101202  0.41997576  1
  Ca2+  Ca29  1  0.57029986  0.74838237  0.75973310  1
  Ca2+  Ca30  1  0.92451725  0.26079480  0.07866023  1
  Ca2+  Ca31  1  0.90455891  0.25350114  0.42583767  1
  Ca2+  Ca32  1  0.91639070  0.25398341  0.74289729  1
  Ca2+  Ca33  1  0.91013155  0.74885989  0.09182600  1
  Ca2+  Ca34  1  0.90933098  0.74629829  0.40935257  1
  Ca2+  Ca35  1  0.92238431  0.75455023  0.74961124  1
  Ca2+  Ca36  1  0.58373396  0.10509410  0.42335926  1
  Ca2+  Ca37  1  0.08088684  0.09378305  0.59022850  1
  Ca2+  Ca38  1  0.26534835  0.09925450  0.42846513  1
  Ca2+  Ca39  1  0.92042168  0.59043337  0.09908067  1
  Ca2+  Ca40  1  0.92493506  0.58900392  0.74246507  1
  Ca2+  Ca41  1  0.57808578  0.59545495  0.43384759  1
  Ca2+  Ca42  1  0.74865484  0.09213402  0.91112471  1
  Ca2+  Ca43  1  0.26867055  0.59461956  0.42737643  1
  Ca2+  Ca44  1  0.41326543  0.59290201  0.25247107  1
  Ca2+  Ca45  1  0.41143755  0.09789969  0.91513825  1
  Ca2+  Ca46  1  0.42521064  0.59303821  0.89970109  1
  Ca2+  Ca47  1  0.59330529  0.59342824  0.06618305  1
  Ca2+  Ca48  1  0.76172886  0.59456770  0.23159356  1
  Ca2+  Ca49  1  0.90956507  0.08669482  0.08720658  1
  Ca2+  Ca50  1  0.09872263  0.08957052  0.90179318  1
  Ca2+  Ca51  1  0.40267724  0.59494090  0.25559076  1
  Ca2+  Ca52  1  0.08172347  0.08794987  0.24256285  1
  Ca2+  Ca53  1  0.23717770  0.58841473  0.08432170  1
  Ca2+  Ca54  1  0.26199834  0.09389360  0.07458659  1
  Ca2+  Ca55  1  0.41519246  0.59138208  0.57916858  1
  Ca2+  Ca56  1  0.75363849  0.59711678  0.56890870  1
  Ca2+  Ca57  1  0.57873937  0.09868339  0.74962430  1
  Ca2+  Ca58  1  0.92237402  0.08675920  0.08699103  1
  Ca2+  Ca59  1  0.73618313  0.09389944  0.91024233  1
  Ca2+  Ca60  1  0.89513574  0.09411603  0.43434533  1
  Ca2+  Ca61  1  0.25840155  0.58877714  0.74724527  1
  Ca2+  Ca62  1  0.77141824  0.59548127  0.23498358  1
  Ca2+  Ca63  1  0.09267068  0.58588195  0.91689971  1
  Ca2+  Ca64  1  0.91625041  0.09198402  0.73894384  1
  Ca2+  Ca65  1  0.56619846  0.59516131  0.43613075  1
  Ca2+  Ca66  1  0.92839794  0.09235645  0.73879154  1
  Ca2+  Ca67  1  0.59462408  0.10518249  0.42333408  1
  Ca2+  Ca68  1  0.56512864  0.10045931  0.09080525  1
  Ca2+  Ca69  1  0.06869670  0.09451242  0.59036028  1
  Ca2+  Ca70  1  0.56902317  0.59285433  0.76011731  1
  Ca2+  Ca71  1  0.74206709  0.09521502  0.25670568  1
  Ca2+  Ca72  1  0.26042799  0.91064273  0.08025860  1
  Ca2+  Ca73  1  0.25022016  0.41110522  0.07949990  1
  Ca2+  Ca74  1  0.41509434  0.90633750  0.23953948  1
  Ca2+  Ca75  1  0.75341845  0.40948382  0.23680450  1
  Ca2+  Ca76  1  0.25865035  0.41303220  0.75203477  1
  Ca2+  Ca77  1  0.76614147  0.40863374  0.23718302  1
  Ca2+  Ca78  1  0.07317221  0.90715190  0.24537890  1
  Ca2+  Ca79  1  0.57619021  0.41276047  0.74933230  1
  Ca2+  Ca80  1  0.08781882  0.41218463  0.91461757  1
  Ca2+  Ca81  1  0.07366846  0.90873601  0.58284928  1
  Ca2+  Ca82  1  0.41143489  0.41273115  0.90387637  1
  Ca2+  Ca83  1  0.91679651  0.90615355  0.08867732  1
  Ca2+  Ca84  1  0.07682567  0.41274224  0.24070997  1
  Ca2+  Ca85  1  0.57424249  0.90646494  0.08481310  1
  Ca2+  Ca86  1  0.41559074  0.90304838  0.58479406  1
  Ca2+  Ca87  1  0.75638065  0.90815492  0.25060200  1
  Ca2+  Ca88  1  0.25001627  0.90364239  0.42187509  1
  Ca2+  Ca89  1  0.74001573  0.41067526  0.91353977  1
  Ca2+  Ca90  1  0.09159785  0.91142744  0.90337062  1
  Ca2+  Ca91  1  0.58617636  0.90655552  0.08470018  1
  Ca2+  Ca92  1  0.92379439  0.40909997  0.42367150  1
  Ca2+  Ca93  1  0.92306853  0.41599219  0.09381773  1
  Ca2+  Ca94  1  0.41479715  0.40387957  0.24892429  1
  Ca2+  Ca95  1  0.26047941  0.40875125  0.43299121  1
  Ca2+  Ca96  1  0.91186065  0.40747866  0.74635690  1
  Ca2+  Ca97  1  0.09977134  0.41208959  0.91463989  1
  Ca2+  Ca98  1  0.91108462  0.90999122  0.75709985  1
  Ca2+  Ca99  1  0.08625679  0.90945742  0.58318981  1
  Ca2+  Ca100  1  0.59390547  0.90478124  0.42601251  1
  Ca2+  Ca101  1  0.58054836  0.90380265  0.75578748  1
  Ca2+  Ca102  1  0.58643044  0.40848217  0.08015462  1
  Ca2+  Ca103  1  0.24802515  0.91051302  0.08054789  1
  Ca2+  Ca104  1  0.92397716  0.91059074  0.75778388  1
  Ca2+  Ca105  1  0.41208442  0.90738977  0.90701832  1
  Ca2+  Ca106  1  0.90602861  0.91058169  0.42248839  1
  Ca2+  Ca107  1  0.73960522  0.40777070  0.58082238  1
  Mn3.34+  Mn108  1  0.08535255  0.33521032  0.08498811  1
  Mn3.34+  Mn109  1  0.08591921  0.33711824  0.42142416  1
  Mn3.34+  Mn110  1  0.08465462  0.33206374  0.74423296  1
  Mn3.34+  Mn111  1  0.08108824  0.82934649  0.08206409  1
  Mn3.34+  Mn112  1  0.08180004  0.83183968  0.41469456  1
  Mn3.34+  Mn113  1  0.08743040  0.83317107  0.75184623  1
  Mn3.34+  Mn114  1  0.41716460  0.32972260  0.08373099  1
  Mn3.34+  Mn115  1  0.42093517  0.33576619  0.42190067  1
  Mn3.34+  Mn116  1  0.41717853  0.33609213  0.74459657  1
  Mn3.34+  Mn117  1  0.41672514  0.83230902  0.08198639  1
  Mn3.34+  Mn118  1  0.41748576  0.82853779  0.41838994  1
  Mn3.34+  Mn119  1  0.41460831  0.83019714  0.74968712  1
  Mn3.34+  Mn120  1  0.74882890  0.33484798  0.08165197  1
  Mn3.34+  Mn121  1  0.74550730  0.32782642  0.41970929  1
  Mn3.34+  Mn122  1  0.74714676  0.33238069  0.74671432  1
  Mn3.34+  Mn123  1  0.75101892  0.82887699  0.08169887  1
  Mn3.34+  Mn124  1  0.75028004  0.83875191  0.41997921  1
  Mn3.34+  Mn125  1  0.74641744  0.83427675  0.75056407  1
  Mn3.34+  Mn126  1  0.25146829  0.33424229  0.25306450  1
  Mn3.34+  Mn127  1  0.25225650  0.33614766  0.58431463  1
  Mn3.34+  Mn128  1  0.25356856  0.33574002  0.91495871  1
  Mn3.34+  Mn129  1  0.24846656  0.83020820  0.25264452  1
  Mn3.34+  Mn130  1  0.25191508  0.82760305  0.58471374  1
  Mn3.34+  Mn131  1  0.25103953  0.83350623  0.91205630  1
  Mn3.34+  Mn132  1  0.58009453  0.33015586  0.25382641  1
  Mn3.34+  Mn133  1  0.57728675  0.34319943  0.57963731  1
  Mn3.34+  Mn134  1  0.58009814  0.33433678  0.91533898  1
  Mn3.34+  Mn135  1  0.58481240  0.83429875  0.25402328  1
  Mn3.34+  Mn136  1  0.58573575  0.82910522  0.58498300  1
  Mn3.34+  Mn137  1  0.58640597  0.82822594  0.91378909  1
  Mn3.34+  Mn138  1  0.91843300  0.33495180  0.25217576  1
  Mn3.34+  Mn139  1  0.91820623  0.33648099  0.58246273  1
  Mn3.34+  Mn140  1  0.91455052  0.33427728  0.91513419  1
  Mn3.34+  Mn141  1  0.91558685  0.83065451  0.25118462  1
  Mn3.34+  Mn142  1  0.91122135  0.83040758  0.58208521  1
  Mn3.34+  Mn143  1  0.91262278  0.83493934  0.91920642  1
  Mn3.34+  Mn144  1  0.57972714  0.66622810  0.25067033  1
  Mn3.34+  Mn145  1  0.07780987  0.17151114  0.42037575  1
  Mn3.34+  Mn146  1  0.25442629  0.16927233  0.24896310  1
  Mn3.34+  Mn147  1  0.74247725  0.17292514  0.08545407  1
  Mn3.34+  Mn148  1  0.26586490  0.16564340  0.24904988  1
  Mn3.34+  Mn149  1  0.91647168  0.66289514  0.25205875  1
  Mn3.34+  Mn150  1  0.41530608  0.16621834  0.74631839  1
  Mn3.34+  Mn151  1  0.58024283  0.66238031  0.58376771  1
  Mn3.34+  Mn152  1  0.08571374  0.66460414  0.41845753  1
  Mn3.34+  Mn153  1  0.74107304  0.66778171  0.75246894  1
  Mn3.34+  Mn154  1  0.57648535  0.17000114  0.91775805  1
  Mn3.34+  Mn155  1  0.08250757  0.66099978  0.09325851  1
  Mn3.34+  Mn156  1  0.91266333  0.17107114  0.91615680  1
  Mn3.34+  Mn157  1  0.58195856  0.16856918  0.58333995  1
  Mn3.34+  Mn158  1  0.09055350  0.16549832  0.74848630  1
  Mn3.34+  Mn159  1  0.75125325  0.66313453  0.75069213  1
  Mn3.34+  Mn160  1  0.91217969  0.17478930  0.25164609  1
  Mn3.34+  Mn161  1  0.08339244  0.66651790  0.74015887  1
  Mn3.34+  Mn162  1  0.91229411  0.17461570  0.25166285  1
  Mn3.34+  Mn163  1  0.59226894  0.67202713  0.25079050  1
  Mn3.34+  Mn164  1  0.25475042  0.66208657  0.91499320  1
  Mn3.34+  Mn165  1  0.09087877  0.16906900  0.08124724  1
  Mn3.34+  Mn166  1  0.74754175  0.16858191  0.73949963  1
  Mn3.34+  Mn167  1  0.25362549  0.16397246  0.91179276  1
  Mn3.34+  Mn168  1  0.24373745  0.67061100  0.91548388  1
  Mn3.34+  Mn169  1  0.07398358  0.65892622  0.41837991  1
  Mn3.34+  Mn170  1  0.57513805  0.16772369  0.25133111  1
  Mn3.34+  Mn171  1  0.92319972  0.16596687  0.91659412  1
  Mn3.34+  Mn172  1  0.90925684  0.66478756  0.92298270  1
  Mn3.34+  Mn173  1  0.41981708  0.66668234  0.07796520  1
  Mn3.34+  Mn174  1  0.92112925  0.66985030  0.92088826  1
  Mn3.34+  Mn175  1  0.08873804  0.16668204  0.41919878  1
  Mn3.34+  Mn176  1  0.26147010  0.16921408  0.58582453  1
  Mn3.34+  Mn177  1  0.91543694  0.66211558  0.57872009  1
  Mn3.34+  Mn178  1  0.25318202  0.66190620  0.58446238  1
  Mn3.34+  Mn179  1  0.24747477  0.66794312  0.24967144  1
  Mn3.34+  Mn180  1  0.74889292  -0.00125153  0.74871664  1
  Mn3.34+  Mn181  1  0.40884969  0.00617843  0.42494394  1
  Mn3.34+  Mn182  1  0.24340266  0.50291372  0.25312196  1
  Mn3.34+  Mn183  1  0.59264013  0.00410685  0.25220942  1
  Mn3.34+  Mn184  1  0.08265204  0.50146515  0.73879460  1
  Mn3.34+  Mn185  1  0.08336842  0.00011520  0.08147497  1
  Mn3.34+  Mn186  1  0.07732718  -0.00121754  0.41656092  1
  Mn3.34+  Mn187  1  0.42348941  0.00013264  0.42575949  1
  Mn3.34+  Mn188  1  0.91277154  0.00204474  0.58835028  1
  Mn3.34+  Mn189  1  0.91641278  0.50243619  0.92457763  1
  Mn3.34+  Mn190  1  0.90541794  0.49802657  0.92324594  1
  Mn3.34+  Mn191  1  0.76388375  0.50405437  0.41667757  1
  Mn3.34+  Mn192  1  0.59084448  -0.00259323  0.58625234  1
  Mn3.34+  Mn193  1  0.75107998  -0.00054378  0.08621866  1
  Mn3.34+  Mn194  1  0.07375031  0.49976247  0.40724585  1
  Mn3.34+  Mn195  1  0.57748228  0.00351132  0.58601711  1
  Mn3.34+  Mn196  1  0.24662682  0.00482567  0.58879836  1
  Mn3.34+  Mn197  1  0.58132487  0.49491838  0.24832704  1
  Mn3.34+  Mn198  1  0.57037165  0.49840244  0.25053893  1
  Mn3.34+  Mn199  1  0.58393946  -0.00335209  0.91763940  1
  Mn3.34+  Mn200  1  0.41258537  0.49993376  0.07135927  1
  Mn3.34+  Mn201  1  0.57351039  0.00182208  0.91758439  1
  Mn3.34+  Mn202  1  0.58206899  0.00006838  0.24990937  1
  Mn3.34+  Mn203  1  0.92049603  0.50152600  0.58814936  1
  Mn3.34+  Mn204  1  0.24283348  0.00054014  0.24894244  1
  Mn3.34+  Mn205  1  0.91323801  -0.00231138  0.91915118  1
  Mn3.34+  Mn206  1  0.90891860  -0.00221173  0.26347059  1
  Mn3.34+  Mn207  1  0.58837838  0.50397367  0.93037144  1
  Mn3.34+  Mn208  1  0.25708574  0.00159770  0.92426967  1
  Mn3.34+  Mn209  1  0.25348648  -0.00313750  0.24672258  1
  Mn3.34+  Mn210  1  0.75018679  0.49748503  0.41815624  1
  Mn3.34+  Mn211  1  0.74447746  0.49908495  0.73479682  1
  Mn3.34+  Mn212  1  0.41275836  0.00164141  0.74948555  1
  Mn3.34+  Mn213  1  0.25401937  0.49804654  0.25386429  1
  Mn3.34+  Mn214  1  0.25285268  0.49862771  0.59880422  1
  Mn3.34+  Mn215  1  0.25828277  -0.00011189  0.58654234  1
  O2-  O216  1  -0.00202498  0.16077574  0.00855430  1
  O2-  O217  1  0.00304993  0.16462382  0.33028779  1
  O2-  O218  1  0.00217470  0.16267687  0.67009923  1
  O2-  O219  1  0.00526794  0.66458603  0.00067267  1
  O2-  O220  1  0.00034757  0.67076305  0.33307437  1
  O2-  O221  1  -0.00897076  0.67255837  0.66778613  1
  O2-  O222  1  0.32564030  0.16918525  -0.00599199  1
  O2-  O223  1  0.33025710  0.16652757  0.33944116  1
  O2-  O224  1  0.33332741  0.16988792  0.66938618  1
  O2-  O225  1  0.33066780  0.66779913  0.00078864  1
  O2-  O226  1  0.33509494  0.66567177  0.32506673  1
  O2-  O227  1  0.32858462  0.66957440  0.66209862  1
  O2-  O228  1  0.67046585  0.16360438  -0.00671869  1
  O2-  O229  1  0.66137276  0.16063345  0.32974156  1
  O2-  O230  1  0.66100016  0.17060179  0.66898923  1
  O2-  O231  1  0.66428019  0.66817533  0.00458577  1
  O2-  O232  1  0.66756748  0.66515085  0.33636161  1
  O2-  O233  1  0.66679385  0.66812154  0.66191093  1
  O2-  O234  1  0.16831802  0.16800957  -0.00467624  1
  O2-  O235  1  0.16658358  0.16175261  0.32707296  1
  O2-  O236  1  0.16003511  0.16304847  0.65732802  1
  O2-  O237  1  0.16651379  0.66962906  -0.00109148  1
  O2-  O238  1  0.16901656  0.66675091  0.33721053  1
  O2-  O239  1  0.17192832  0.67300893  0.66685191  1
  O2-  O240  1  0.50160649  0.16363789  -0.00233035  1
  O2-  O241  1  0.50799597  0.16462626  0.33710616  1
  O2-  O242  1  0.50480734  0.17054006  0.67156179  1
  O2-  O243  1  0.49984793  0.66480424  0.00284168  1
  O2-  O244  1  0.49871057  0.66657027  0.33199143  1
  O2-  O245  1  0.50563923  0.67114165  0.66190640  1
  O2-  O246  1  0.82976409  0.16352270  0.00600055  1
  O2-  O247  1  0.83027611  0.16768208  0.33504285  1
  O2-  O248  1  0.84079777  0.16683725  0.67634787  1
  O2-  O249  1  0.83501862  0.66784570  0.00333569  1
  O2-  O250  1  0.82817304  0.66946480  0.32140131  1
  O2-  O251  1  0.83291246  0.66734774  0.66850627  1
  O2-  O252  1  0.00268653  0.33571829  -0.00170734  1
  O2-  O253  1  -0.00042891  0.32827429  0.33231362  1
  O2-  O254  1  -0.00492769  0.32594204  0.66903797  1
  O2-  O255  1  0.00057168  0.83464722  -0.00160798  1
  O2-  O256  1  -0.00155587  0.83540533  0.33225481  1
  O2-  O257  1  -0.00045049  0.83325372  0.66446111  1
  O2-  O258  1  0.33144375  0.33027279  0.00028795  1
  O2-  O259  1  0.33286448  0.33344700  0.33182571  1
  O2-  O260  1  0.32880321  0.33030576  0.67017075  1
  O2-  O261  1  0.32905763  0.83299595  0.00251106  1
  O2-  O262  1  0.33545399  0.83059542  0.33467369  1
  O2-  O263  1  0.33642147  0.82737860  0.66294329  1
  O2-  O264  1  0.66679171  0.32970452  -0.00064109  1
  O2-  O265  1  0.67422614  0.33534408  0.32482318  1
  O2-  O266  1  0.66517325  0.32887706  0.66416891  1
  O2-  O267  1  0.65930710  0.83611370  0.00736916  1
  O2-  O268  1  0.67003650  0.82872670  0.33679622  1
  O2-  O269  1  0.66407124  0.82578299  0.66896090  1
  O2-  O270  1  0.16563156  0.33038450  -0.00436947  1
  O2-  O271  1  0.16468471  0.33337683  0.33096083  1
  O2-  O272  1  0.17067214  0.33069436  0.66932648  1
  O2-  O273  1  0.17094049  0.83290932  0.00160064  1
  O2-  O274  1  0.16683463  0.83543347  0.33478426  1
  O2-  O275  1  0.16085627  0.83091760  0.65899686  1
  O2-  O276  1  0.50117787  0.33474891  0.00043134  1
  O2-  O277  1  0.49629731  0.33113566  0.32917169  1
  O2-  O278  1  0.50610379  0.32603148  0.66718515  1
  O2-  O279  1  0.50304688  0.83807025  0.00254578  1
  O2-  O280  1  0.49831792  0.82977426  0.33445339  1
  O2-  O281  1  0.49971927  0.83125365  0.66545221  1
  O2-  O282  1  0.83283373  0.32776712  0.00251714  1
  O2-  O283  1  0.83193622  0.33212430  0.32974500  1
  O2-  O284  1  0.83475858  0.32924930  0.66643699  1
  O2-  O285  1  0.83672625  0.83198157  0.00402055  1
  O2-  O286  1  0.83122937  0.82951213  0.33511646  1
  O2-  O287  1  0.83882905  0.82942464  0.67287182  1
  O2-  O288  1  -0.00116982  0.16748881  0.16540806  1
  O2-  O289  1  -0.00228412  0.16829935  0.50588227  1
  O2-  O290  1  0.00155313  0.16593649  0.82782485  1
  O2-  O291  1  -0.00366234  0.67057459  0.16443567  1
  O2-  O292  1  -0.00041571  0.67579224  0.50303907  1
  O2-  O293  1  -0.00188349  0.66684461  0.83629311  1
  O2-  O294  1  0.33118336  0.16693480  0.15951804  1
  O2-  O295  1  0.32505428  0.16945441  0.50014828  1
  O2-  O296  1  0.33630559  0.17339164  0.83607718  1
  O2-  O297  1  0.33488816  0.66466078  0.16873894  1
  O2-  O298  1  0.32703890  0.67651574  0.50458625  1
  O2-  O299  1  0.33107086  0.67049325  0.83494503  1
  O2-  O300  1  0.66727014  0.17048623  0.16741838  1
  O2-  O301  1  0.66079551  0.17166719  0.50374042  1
  O2-  O302  1  0.67052153  0.16360673  0.83644056  1
  O2-  O303  1  0.66639803  0.66576112  0.16815775  1
  O2-  O304  1  0.65960560  0.67312659  0.50244074  1
  O2-  O305  1  0.66487375  0.66940466  0.83172571  1
  O2-  O306  1  0.16703160  0.16564510  0.17066982  1
  O2-  O307  1  0.16679574  0.16387085  0.50620575  1
  O2-  O308  1  0.16289632  0.17356165  0.83872325  1
  O2-  O309  1  0.17216251  0.67044405  0.16374173  1
  O2-  O310  1  0.16838478  0.67328310  0.49948251  1
  O2-  O311  1  0.16414559  0.67035942  0.83331189  1
  O2-  O312  1  0.50571700  0.16919826  0.16679028  1
  O2-  O313  1  0.51066732  0.17232859  0.50086336  1
  O2-  O314  1  0.50080669  0.16591328  0.83312595  1
  O2-  O315  1  0.49681499  0.66503573  0.16943550  1
  O2-  O316  1  0.50613029  0.67464191  0.50035160  1
  O2-  O317  1  0.49761213  0.66495612  0.83194024  1
  O2-  O318  1  0.83338516  0.17161910  0.16070056  1
  O2-  O319  1  0.83532423  0.17086570  0.49768225  1
  O2-  O320  1  0.82764436  0.16273483  0.83201931  1
  O2-  O321  1  0.83614632  0.66799927  0.17022829  1
  O2-  O322  1  0.83427955  0.67950340  0.50995467  1
  O2-  O323  1  0.83797996  0.66703440  0.82974750  1
  O2-  O324  1  -0.00195190  0.32630165  0.16734858  1
  O2-  O325  1  -0.00458933  0.32320301  0.49780974  1
  O2-  O326  1  0.00383439  0.33509579  0.83623918  1
  O2-  O327  1  -0.00005617  0.83348183  0.16741355  1
  O2-  O328  1  0.00160496  0.83032594  0.50453618  1
  O2-  O329  1  -0.00239024  0.83284496  0.83136298  1
  O2-  O330  1  0.33212068  0.33278101  0.16640487  1
  O2-  O331  1  0.32862007  0.32886296  0.49780155  1
  O2-  O332  1  0.33221879  0.32743445  0.83517775  1
  O2-  O333  1  0.33141307  0.83470596  0.16428921  1
  O2-  O334  1  0.33221387  0.82446121  0.49892721  1
  O2-  O335  1  0.33663072  0.82388607  0.83768364  1
  O2-  O336  1  0.67086852  0.32980707  0.16749653  1
  O2-  O337  1  0.66740261  0.32498078  0.50685248  1
  O2-  O338  1  0.66750577  0.33220598  0.83479176  1
  O2-  O339  1  0.66357399  0.83640082  0.16493252  1
  O2-  O340  1  0.66453002  0.81898057  0.49586509  1
  O2-  O341  1  0.66396245  0.82942636  0.82986689  1
  O2-  O342  1  0.16644440  0.33089333  0.16719248  1
  O2-  O343  1  0.17014589  0.32789386  0.49782310  1
  O2-  O344  1  0.16436199  0.32989207  0.83877229  1
  O2-  O345  1  0.16940737  0.83580871  0.16261125  1
  O2-  O346  1  0.16636279  0.83062179  0.50357993  1
  O2-  O347  1  0.16385979  0.82388674  0.83814636  1
  O2-  O348  1  0.50162672  0.33325084  0.16633246  1
  O2-  O349  1  0.50359995  0.32067918  0.50318634  1
  O2-  O350  1  0.50029224  0.33128809  0.83454287  1
  O2-  O351  1  0.50122486  0.83527807  0.16445151  1
  O2-  O352  1  0.50075776  0.82312566  0.50024125  1
  O2-  O353  1  0.49965398  0.83315021  0.83438970  1
  O2-  O354  1  0.83282779  0.32288647  0.16783523  1
  O2-  O355  1  0.83487303  0.32793441  0.50099883  1
  O2-  O356  1  0.83235270  0.33198210  0.83252564  1
  O2-  O357  1  0.83260059  0.83294836  0.16757755  1
  O2-  O358  1  0.83460451  0.81959604  0.49530411  1
  O2-  O359  1  0.84020487  0.83187373  0.82733397  1
  O2-  O360  1  0.07541255  0.08295341  0.09810025  1
  O2-  O361  1  0.08306756  0.08158693  0.43037752  1
  O2-  O362  1  0.06723180  0.08226228  0.76016014  1
  O2-  O363  1  0.08729199  0.58314404  0.08479272  1
  O2-  O364  1  0.08992521  0.57880594  0.42948028  1
  O2-  O365  1  0.08205232  0.58203116  0.76612968  1
  O2-  O366  1  0.41530219  0.08120249  0.08650618  1
  O2-  O367  1  0.42163571  0.08555390  0.42762646  1
  O2-  O368  1  0.42349492  0.08177614  0.76834533  1
  O2-  O369  1  0.41715397  0.58090001  0.10242020  1
  O2-  O370  1  0.43038952  0.58098304  0.42686826  1
  O2-  O371  1  0.42059696  0.57881100  0.75717345  1
  O2-  O372  1  0.76004411  0.08138599  0.09720433  1
  O2-  O373  1  0.74556128  0.08258699  0.42173412  1
  O2-  O374  1  0.75229498  0.08076894  0.76958845  1
  O2-  O375  1  0.74460561  0.57721658  0.10696275  1
  O2-  O376  1  0.73898388  0.58329450  0.42898796  1
  O2-  O377  1  0.75225021  0.58016986  0.75803171  1
  O2-  O378  1  0.24477593  0.08198356  0.23946889  1
  O2-  O379  1  0.24308975  0.08577517  0.57048166  1
  O2-  O380  1  0.24718550  0.08106187  0.90818517  1
  O2-  O381  1  0.25533025  0.58445525  0.23683135  1
  O2-  O382  1  0.25389491  0.57824010  0.56782317  1
  O2-  O383  1  0.24813147  0.57916440  0.90423469  1
  O2-  O384  1  0.58747381  0.08495253  0.23667702  1
  O2-  O385  1  0.58386727  0.08358559  0.57101540  1
  O2-  O386  1  0.59143956  0.08386880  0.90441776  1
  O2-  O387  1  0.58194470  0.58070684  0.23870695  1
  O2-  O388  1  0.58368223  0.58049210  0.56710059  1
  O2-  O389  1  0.57595633  0.57767034  0.90307737  1
  O2-  O390  1  0.91781190  0.07930227  0.22815711  1
  O2-  O391  1  0.92978387  0.08070761  0.57182554  1
  O2-  O392  1  0.91149819  0.08020580  0.90269505  1
  O2-  O393  1  0.90300911  0.58109460  0.23467074  1
  O2-  O394  1  0.90857775  0.58076829  0.57735897  1
  O2-  O395  1  0.92041210  0.58269964  0.90049342  1
  O2-  O396  1  0.08281220  0.41676169  0.09113271  1
  O2-  O397  1  0.08163413  0.41897268  0.42268512  1
  O2-  O398  1  0.08318680  0.42006008  0.76851448  1
  O2-  O399  1  0.08887165  0.91719875  0.09289516  1
  O2-  O400  1  0.08367587  0.91633224  0.43171817  1
  O2-  O401  1  0.06801042  0.91669119  0.75670523  1
  O2-  O402  1  0.41678523  0.41919607  0.09415612  1
  O2-  O403  1  0.40834712  0.41381958  0.41500732  1
  O2-  O404  1  0.41659163  0.41698226  0.76427776  1
  O2-  O405  1  0.41507423  0.91716683  0.09601290  1
  O2-  O406  1  0.41521887  0.91769399  0.42656158  1
  O2-  O407  1  0.42290243  0.91906438  0.76157249  1
  O2-  O408  1  0.75056657  0.41994225  0.10357545  1
  O2-  O409  1  0.75531237  0.41560936  0.42537213  1
  O2-  O410  1  0.75086150  0.41832986  0.76088215  1
  O2-  O411  1  0.74185597  0.91764179  0.09682557  1
  O2-  O412  1  0.75017284  0.91753455  0.41923780  1
  O2-  O413  1  0.75713393  0.91757089  0.75691963  1
  O2-  O414  1  0.24856403  0.41662728  0.23869423  1
  O2-  O415  1  0.24898053  0.42044909  0.57259888  1
  O2-  O416  1  0.24021651  0.42005083  0.90581822  1
  O2-  O417  1  0.25283306  0.91462557  0.24074730  1
  O2-  O418  1  0.24762483  0.91708332  0.57067311  1
  O2-  O419  1  0.24980051  0.92011096  0.91564965  1
  O2-  O420  1  0.58911306  0.41341540  0.23946896  1
  O2-  O421  1  0.59104777  0.41896657  0.58380417  1
  O2-  O422  1  0.58483376  0.42169943  0.90585959  1
  O2-  O423  1  0.58144682  0.91763168  0.24001050  1
  O2-  O424  1  0.57865266  0.91625157  0.57112379  1
  O2-  O425  1  0.57959858  0.91451711  0.91011684  1
  O2-  O426  1  0.90646253  0.41958251  0.23482819  1
  O2-  O427  1  0.91068621  0.42197163  0.57106606  1
  O2-  O428  1  0.91792306  0.41620121  0.90692669  1
  O2-  O429  1  0.91582727  0.91667601  0.24031340  1
  O2-  O430  1  0.92931198  0.92036686  0.57222182  1
  O2-  O431  1  0.92177846  0.91671810  0.90258137  1
  O2-  O432  1  -0.00426551  0.00770463  0.00441967  1
  O2-  O433  1  0.00115784  0.00350609  0.32658364  1
  O2-  O434  1  -0.00042370  0.00336802  0.66362620  1
  O2-  O435  1  0.00631319  0.49995772  -0.00340063  1
  O2-  O436  1  -0.00168926  0.49582552  0.33746663  1
  O2-  O437  1  -0.00706242  0.50289242  0.67591892  1
  O2-  O438  1  0.33012596  0.00027948  0.00461322  1
  O2-  O439  1  0.33355261  0.00205670  0.33399637  1
  O2-  O440  1  0.33810845  0.00051551  0.66609473  1
  O2-  O441  1  0.33097213  0.50250998  0.00589203  1
  O2-  O442  1  0.33854961  0.50611873  0.33003422  1
  O2-  O443  1  0.33187490  0.50681554  0.66742652  1
  O2-  O444  1  0.66944146  0.00589351  0.00022191  1
  O2-  O445  1  0.66771377  0.00379834  0.33659377  1
  O2-  O446  1  0.66455134  0.00360454  0.67264946  1
  O2-  O447  1  0.66380343  0.49939721  0.00094777  1
  O2-  O448  1  0.66597042  0.50375538  0.33227319  1
  O2-  O449  1  0.66258892  0.50160483  0.67037630  1
  O2-  O450  1  0.16769804  0.00096842  0.00094923  1
  O2-  O451  1  0.16528824  0.00329943  0.33459483  1
  O2-  O452  1  0.15213015  0.00185579  0.65454781  1
  O2-  O453  1  0.16401230  0.50211371  -0.00341282  1
  O2-  O454  1  0.16590471  0.50113939  0.33864191  1
  O2-  O455  1  0.17244039  0.50313642  0.67541163  1
  O2-  O456  1  0.50075828  0.00124179  0.00568406  1
  O2-  O457  1  0.49763013  0.00103846  0.33311735  1
  O2-  O458  1  0.50024506  0.00031769  0.67075992  1
  O2-  O459  1  0.50038215  0.50269585  0.00007786  1
  O2-  O460  1  0.49527853  0.50973881  0.33101076  1
  O2-  O461  1  0.50103073  0.50823662  0.67318667  1
  O2-  O462  1  0.83507360  0.01083486  0.00579522  1
  O2-  O463  1  0.83065866  0.00354636  0.33142939  1
  O2-  O464  1  0.84392821  0.00407048  0.68279991  1
  O2-  O465  1  0.83131891  0.49992877  0.00574951  1
  O2-  O466  1  0.82821366  0.49937087  0.32410510  1
  O2-  O467  1  0.83440201  0.50201320  0.66890909  1
  O2-  O468  1  0.08456812  0.74821743  0.41562677  1
  O2-  O469  1  0.41566796  0.25429224  0.41475851  1
  O2-  O470  1  0.75178181  0.25024334  0.41426115  1
  O2-  O471  1  0.91907634  0.75264716  0.91514205  1
  O2-  O472  1  0.41538684  0.74999707  0.08623154  1
  O2-  O473  1  0.58370902  0.74974732  0.91960458  1
  O2-  O474  1  0.08139858  0.24875404  0.75032571  1
  O2-  O475  1  0.08500041  0.74858898  0.08127321  1
  O2-  O476  1  0.74725680  0.75043014  0.08194515  1
  O2-  O477  1  0.08048860  0.74959872  0.74974867  1
  O2-  O478  1  0.24549092  0.25219575  0.24995968  1
  O2-  O479  1  0.08079305  0.25033293  0.08251300  1
  O2-  O480  1  0.91775170  0.25371939  0.91856425  1
  O2-  O481  1  0.41690715  0.25152376  0.08231229  1
  O2-  O482  1  0.41801859  0.75190152  0.74995166  1
  O2-  O483  1  0.58564781  0.24945014  0.25028492  1
  O2-  O484  1  0.58542686  0.25075459  0.91744287  1
  O2-  O485  1  0.24668464  0.25049403  0.58476182  1
  O2-  O486  1  0.91902945  0.74975046  0.25050307  1
  O2-  O487  1  0.41749018  0.24884411  0.75049510  1
  O2-  O488  1  0.08443534  0.25364563  0.41261819  1
  O2-  O489  1  0.25029465  0.74925030  0.24992660  1
  O2-  O490  1  0.75077295  0.24974992  0.75369166  1
  O2-  O491  1  0.58156297  0.75395542  0.24973509  1
  O2-  O492  1  0.75311098  0.75036088  0.74901846  1
