# generated using pymatgen
data_Ca108Mn108O277
_symmetry_space_group_name_H-M   'P 1'
_cell_length_a   16.03141311
_cell_length_b   22.31040484
_cell_length_c   16.39035938
_cell_angle_alpha   89.99662853
_cell_angle_beta   89.99982764
_cell_angle_gamma   90.00265233
_symmetry_Int_Tables_number   1
_chemical_formula_structural   Ca108Mn108O277
_chemical_formula_sum   'Ca108 Mn108 O277'
_cell_volume   5862.29583846
_cell_formula_units_Z   1
loop_
 _symmetry_equiv_pos_site_id
 _symmetry_equiv_pos_as_xyz
  1  'x, y, z'
loop_
 _atom_type_symbol
 _atom_type_oxidation_number
  Ca2+  2.0
  Mn3.34+  3.34
  O2-  -2.0
loop_
 _atom_site_type_symbol
 _atom_site_label
 _atom_site_symmetry_multiplicity
 _atom_site_fract_x
 _atom_site_fract_y
 _atom_site_fract_z
 _atom_site_occupancy
  Ca2+  Ca0  1  0.09257372  0.25603307  0.24124659  1
  Ca2+  Ca1  1  0.06737918  0.24137777  0.58152760  1
  Ca2+  Ca2  1  0.08643745  0.24829680  0.91756261  1
  Ca2+  Ca3  1  0.06673901  0.74407348  0.22365920  1
  Ca2+  Ca4  1  0.07087950  0.76422360  0.59490545  1
  Ca2+  Ca5  1  0.07039208  0.73510486  0.92115260  1
  Ca2+  Ca6  1  0.40429182  0.25711572  0.23497129  1
  Ca2+  Ca7  1  0.42738205  0.24722127  0.58464254  1
  Ca2+  Ca8  1  0.42181713  0.25007269  0.91559562  1
  Ca2+  Ca9  1  0.42644973  0.75383382  0.26187717  1
  Ca2+  Ca10  1  0.43029558  0.75350986  0.58699223  1
  Ca2+  Ca11  1  0.41794132  0.73967910  0.89555848  1
  Ca2+  Ca12  1  0.75373634  0.27178374  0.25876618  1
  Ca2+  Ca13  1  0.74833272  0.24387501  0.56660822  1
  Ca2+  Ca14  1  0.74217833  0.25722560  0.91754717  1
  Ca2+  Ca15  1  0.74862924  0.75386712  0.25089206  1
  Ca2+  Ca16  1  0.74492861  0.75906173  0.59198685  1
  Ca2+  Ca17  1  0.74936321  0.75952049  0.90541311  1
  Ca2+  Ca18  1  0.24913582  0.24494230  0.08586014  1
  Ca2+  Ca19  1  0.23860158  0.25078220  0.40619009  1
  Ca2+  Ca20  1  0.24713109  0.24590472  0.76077421  1
  Ca2+  Ca21  1  0.23198666  0.75119059  0.07147888  1
  Ca2+  Ca22  1  0.27957247  0.74965124  0.41891102  1
  Ca2+  Ca23  1  0.25692334  0.75864782  0.75833024  1
  Ca2+  Ca24  1  0.57824848  0.25825599  0.07832681  1
  Ca2+  Ca25  1  0.61055002  0.24447167  0.42541999  1
  Ca2+  Ca26  1  0.58261189  0.23388551  0.74826612  1
  Ca2+  Ca27  1  0.57556884  0.76258511  0.07022954  1
  Ca2+  Ca28  1  0.56850210  0.74504826  0.42904653  1
  Ca2+  Ca29  1  0.57342301  0.73601591  0.74633908  1
  Ca2+  Ca30  1  0.92434581  0.25380719  0.08011447  1
  Ca2+  Ca31  1  0.90050413  0.24308148  0.42751767  1
  Ca2+  Ca32  1  0.92776566  0.24814172  0.74410980  1
  Ca2+  Ca33  1  0.93552494  0.74476991  0.06722911  1
  Ca2+  Ca34  1  0.90953780  0.75414718  0.41837830  1
  Ca2+  Ca35  1  0.91646596  0.74222693  0.76444887  1
  Ca2+  Ca36  1  0.78152423  0.60692323  0.90467673  1
  Ca2+  Ca37  1  0.41390667  0.08648693  0.25061722  1
  Ca2+  Ca38  1  0.92493142  0.08245865  0.72838989  1
  Ca2+  Ca39  1  0.70918398  0.07389504  0.90654820  1
  Ca2+  Ca40  1  0.73156913  0.09833395  0.58237397  1
  Ca2+  Ca41  1  0.08888433  0.09048554  0.26445977  1
  Ca2+  Ca42  1  0.06294596  0.07236320  0.59868646  1
  Ca2+  Ca43  1  0.93380444  0.59965490  0.07273970  1
  Ca2+  Ca44  1  0.09047979  0.09172758  0.90325867  1
  Ca2+  Ca45  1  0.04757417  0.59313175  0.90364628  1
  Ca2+  Ca46  1  0.79108694  0.58352187  0.26145704  1
  Ca2+  Ca47  1  0.41924261  0.10889994  0.88769046  1
  Ca2+  Ca48  1  0.24830090  0.08486951  0.07356356  1
  Ca2+  Ca49  1  0.57971108  0.58666103  0.05995265  1
  Ca2+  Ca50  1  0.61120675  0.09606470  0.43129077  1
  Ca2+  Ca51  1  0.26138107  0.60555098  0.76204299  1
  Ca2+  Ca52  1  0.25104963  0.60643777  0.76012105  1
  Ca2+  Ca53  1  0.40706551  0.58789505  0.29619314  1
  Ca2+  Ca54  1  0.02978928  0.60810429  0.23544512  1
  Ca2+  Ca55  1  0.43625473  0.60268991  0.56690269  1
  Ca2+  Ca56  1  0.74199736  0.09757712  0.58170345  1
  Ca2+  Ca57  1  0.60178843  0.09370339  0.43535897  1
  Ca2+  Ca58  1  0.07918323  0.57776524  0.61565344  1
  Ca2+  Ca59  1  0.91558783  0.59813905  0.41504856  1
  Ca2+  Ca60  1  0.21792189  0.09855761  0.41773772  1
  Ca2+  Ca61  1  0.07784931  0.08905891  0.26368880  1
  Ca2+  Ca62  1  0.72022991  0.07638607  0.90888689  1
  Ca2+  Ca63  1  0.75388328  0.08063498  0.28818379  1
  Ca2+  Ca64  1  0.23709513  0.08365596  0.07515095  1
  Ca2+  Ca65  1  0.73885644  0.60712349  0.57987093  1
  Ca2+  Ca66  1  0.22237255  0.60613852  0.07570306  1
  Ca2+  Ca67  1  0.48916982  0.10786095  0.61851179  1
  Ca2+  Ca68  1  0.90979512  0.09125592  0.43731381  1
  Ca2+  Ca69  1  0.56676865  0.07530015  0.05471610  1
  Ca2+  Ca70  1  0.40299524  0.08758338  0.25040479  1
  Ca2+  Ca71  1  0.80245374  0.58476760  0.25641831  1
  Ca2+  Ca72  1  0.23194041  0.91590956  0.73962926  1
  Ca2+  Ca73  1  0.07948476  0.89453352  0.25642704  1
  Ca2+  Ca74  1  0.24684676  0.90608275  0.09119970  1
  Ca2+  Ca75  1  0.75307610  0.90604544  0.26337393  1
  Ca2+  Ca76  1  0.08607523  0.90380631  0.91251922  1
  Ca2+  Ca77  1  0.22150295  0.91633727  0.73829335  1
  Ca2+  Ca78  1  0.07377468  0.41278647  0.26030059  1
  Ca2+  Ca79  1  0.60275745  0.91224092  0.73908232  1
  Ca2+  Ca80  1  0.58451958  0.39335405  0.75009968  1
  Ca2+  Ca81  1  0.90430244  0.41517326  0.08197133  1
  Ca2+  Ca82  1  0.58488294  0.41416696  0.41043865  1
  Ca2+  Ca83  1  0.41803363  0.40984849  0.59599242  1
  Ca2+  Ca84  1  0.76418292  0.90705969  0.26359534  1
  Ca2+  Ca85  1  0.07664267  0.90052133  0.90936807  1
  Ca2+  Ca86  1  0.24545529  0.89045476  0.41594168  1
  Ca2+  Ca87  1  0.09516079  0.41326437  0.60686544  1
  Ca2+  Ca88  1  0.90098961  0.41183571  0.07265545  1
  Ca2+  Ca89  1  0.59205639  0.91756973  0.06670400  1
  Ca2+  Ca90  1  0.74577415  0.39744394  0.58827617  1
  Ca2+  Ca91  1  0.92615294  0.41141068  0.75493291  1
  Ca2+  Ca92  1  0.40521515  0.40967990  0.59545215  1
  Ca2+  Ca93  1  0.41093533  0.89619514  0.25128825  1
  Ca2+  Ca94  1  0.24623339  0.40186782  0.08683279  1
  Ca2+  Ca95  1  0.59987907  0.40806445  0.07642597  1
  Ca2+  Ca96  1  0.24743519  0.40948915  0.40785025  1
  Ca2+  Ca97  1  0.08397178  0.41294004  0.60640313  1
  Ca2+  Ca98  1  0.42669031  0.40232299  0.90563494  1
  Ca2+  Ca99  1  0.59841249  0.90623689  0.42958626  1
  Ca2+  Ca100  1  0.06795333  0.40758304  0.90393333  1
  Ca2+  Ca101  1  0.25906834  0.40188896  0.08667729  1
  Ca2+  Ca102  1  0.93089007  0.92341356  0.71035967  1
  Ca2+  Ca103  1  0.59415391  0.91567617  0.74270476  1
  Ca2+  Ca104  1  0.59710472  0.41193073  0.41369188  1
  Ca2+  Ca105  1  0.43241982  0.90678143  0.92065001  1
  Ca2+  Ca106  1  0.91186848  0.42075020  0.39296577  1
  Ca2+  Ca107  1  0.41820701  0.40998007  0.25919465  1
  Mn3.34+  Mn108  1  0.08212745  0.33107726  0.08149100  1
  Mn3.34+  Mn109  1  0.07875547  0.33590614  0.42348837  1
  Mn3.34+  Mn110  1  0.08603983  0.33090126  0.75348463  1
  Mn3.34+  Mn111  1  0.07967204  0.83505126  0.08519112  1
  Mn3.34+  Mn112  1  0.08047082  0.82785393  0.41897205  1
  Mn3.34+  Mn113  1  0.07782277  0.83106777  0.74857641  1
  Mn3.34+  Mn114  1  0.42144081  0.33393211  0.08051946  1
  Mn3.34+  Mn115  1  0.41819474  0.32909826  0.41983789  1
  Mn3.34+  Mn116  1  0.41376946  0.32797339  0.75261382  1
  Mn3.34+  Mn117  1  0.41554007  0.83175223  0.08195992  1
  Mn3.34+  Mn118  1  0.42186424  0.83213853  0.42140440  1
  Mn3.34+  Mn119  1  0.41713469  0.83441708  0.74764024  1
  Mn3.34+  Mn120  1  0.74812610  0.33273367  0.08187272  1
  Mn3.34+  Mn121  1  0.75495421  0.33523287  0.41486852  1
  Mn3.34+  Mn122  1  0.75376635  0.32921482  0.75238097  1
  Mn3.34+  Mn123  1  0.75286444  0.83806193  0.08064247  1
  Mn3.34+  Mn124  1  0.75358459  0.83880947  0.42629166  1
  Mn3.34+  Mn125  1  0.75937117  0.83544132  0.74847162  1
  Mn3.34+  Mn126  1  0.24950669  0.33539879  0.25182392  1
  Mn3.34+  Mn127  1  0.24915881  0.32541016  0.57923417  1
  Mn3.34+  Mn128  1  0.25021565  0.33071961  0.91109130  1
  Mn3.34+  Mn129  1  0.24790495  0.82560614  0.24818226  1
  Mn3.34+  Mn130  1  0.24981734  0.83619933  0.58035247  1
  Mn3.34+  Mn131  1  0.25483328  0.83631369  0.91639330  1
  Mn3.34+  Mn132  1  0.58395784  0.33714516  0.24597212  1
  Mn3.34+  Mn133  1  0.58359644  0.32539577  0.58203112  1
  Mn3.34+  Mn134  1  0.58819272  0.33311592  0.91208057  1
  Mn3.34+  Mn135  1  0.58403549  0.83483699  0.24920084  1
  Mn3.34+  Mn136  1  0.58633567  0.84020563  0.58238242  1
  Mn3.34+  Mn137  1  0.58666900  0.83647487  0.91021382  1
  Mn3.34+  Mn138  1  0.91687189  0.33989583  0.24794783  1
  Mn3.34+  Mn139  1  0.91382217  0.33157150  0.58129734  1
  Mn3.34+  Mn140  1  0.91184265  0.33688829  0.90857509  1
  Mn3.34+  Mn141  1  0.91765947  0.82681021  0.24893951  1
  Mn3.34+  Mn142  1  0.91407256  0.83878989  0.57810654  1
  Mn3.34+  Mn143  1  0.91133802  0.83087334  0.91744438  1
  Mn3.34+  Mn144  1  0.25046484  0.16835847  0.91086482  1
  Mn3.34+  Mn145  1  0.24965101  0.16791557  0.24827909  1
  Mn3.34+  Mn146  1  0.08724313  0.66866528  0.42019619  1
  Mn3.34+  Mn147  1  0.57764520  0.17030278  0.24845952  1
  Mn3.34+  Mn148  1  0.75503300  0.16840952  0.75412512  1
  Mn3.34+  Mn149  1  0.58620411  0.66476152  0.25059700  1
  Mn3.34+  Mn150  1  0.07950641  0.66551059  0.75093172  1
  Mn3.34+  Mn151  1  0.57864581  0.16846105  0.91021328  1
  Mn3.34+  Mn152  1  0.58175714  0.66544368  0.90689906  1
  Mn3.34+  Mn153  1  0.24775509  0.67229003  0.91792280  1
  Mn3.34+  Mn154  1  0.91149851  0.16480117  0.25241011  1
  Mn3.34+  Mn155  1  0.91600808  0.16734305  0.90715025  1
  Mn3.34+  Mn156  1  0.41629345  0.67128141  0.07491531  1
  Mn3.34+  Mn157  1  0.92141170  0.17029724  0.25403492  1
  Mn3.34+  Mn158  1  0.75342935  0.67039449  0.08519528  1
  Mn3.34+  Mn159  1  0.91762442  0.16509915  0.58135542  1
  Mn3.34+  Mn160  1  0.24884168  0.67014877  0.57966062  1
  Mn3.34+  Mn161  1  0.58769553  0.16452831  0.24564352  1
  Mn3.34+  Mn162  1  0.24662976  0.66834448  0.24576538  1
  Mn3.34+  Mn163  1  0.24654782  0.16349871  0.57861175  1
  Mn3.34+  Mn164  1  0.25713376  0.16674978  0.58840303  1
  Mn3.34+  Mn165  1  0.91383021  0.67302465  0.59028992  1
  Mn3.34+  Mn166  1  0.74421273  0.66452297  0.08536321  1
  Mn3.34+  Mn167  1  0.25406424  0.67526703  0.24697350  1
  Mn3.34+  Mn168  1  0.08239522  0.16377602  0.75111803  1
  Mn3.34+  Mn169  1  0.74869572  0.66885797  0.42154813  1
  Mn3.34+  Mn170  1  0.76042963  0.15721839  0.08438508  1
  Mn3.34+  Mn171  1  0.74939922  0.16226733  0.08334639  1
  Mn3.34+  Mn172  1  0.07868219  0.67511870  0.41923948  1
  Mn3.34+  Mn173  1  0.41681770  0.16696503  0.42275837  1
  Mn3.34+  Mn174  1  0.58303833  0.67127757  0.58540181  1
  Mn3.34+  Mn175  1  0.41686564  0.16643572  0.07797163  1
  Mn3.34+  Mn176  1  0.07608141  0.16329217  0.07903072  1
  Mn3.34+  Mn177  1  0.74943472  0.67051923  0.75049630  1
  Mn3.34+  Mn178  1  0.25877155  0.66525469  0.57664301  1
  Mn3.34+  Mn179  1  0.57324976  0.66074567  0.24746860  1
  Mn3.34+  Mn180  1  0.42579464  0.50237749  0.74043361  1
  Mn3.34+  Mn181  1  0.58769345  0.49926726  0.25178886  1
  Mn3.34+  Mn182  1  0.74941998  0.50400603  0.75913074  1
  Mn3.34+  Mn183  1  0.91650579  0.00250241  0.91159242  1
  Mn3.34+  Mn184  1  0.26239220  0.50216052  0.90541415  1
  Mn3.34+  Mn185  1  0.91880066  -0.00366988  0.24988964  1
  Mn3.34+  Mn186  1  0.73764771  0.49733106  0.75949701  1
  Mn3.34+  Mn187  1  0.41760000  -0.00585412  0.08086774  1
  Mn3.34+  Mn188  1  0.23876119  -0.00161578  0.58378357  1
  Mn3.34+  Mn189  1  0.90654337  -0.00276514  0.91083310  1
  Mn3.34+  Mn190  1  0.58750192  0.50019669  0.91578711  1
  Mn3.34+  Mn191  1  0.90119654  0.50043175  0.57899383  1
  Mn3.34+  Mn192  1  0.40913951  0.00519037  0.74216967  1
  Mn3.34+  Mn193  1  0.91207974  0.50533754  0.57904999  1
  Mn3.34+  Mn194  1  0.42459984  0.00283579  0.74590056  1
  Mn3.34+  Mn195  1  0.75687459  -0.00250999  0.73442239  1
  Mn3.34+  Mn196  1  0.08203521  -0.00671070  0.41497516  1
  Mn3.34+  Mn197  1  0.24560491  -0.00388913  0.25720911  1
  Mn3.34+  Mn198  1  0.58902822  0.50422302  0.58015235  1
  Mn3.34+  Mn199  1  0.25370913  0.00344387  0.91822184  1
  Mn3.34+  Mn200  1  0.25534519  0.50098463  0.57625352  1
  Mn3.34+  Mn201  1  0.58142096  0.00175101  0.24985314  1
  Mn3.34+  Mn202  1  0.75319600  0.50224063  0.41845336  1
  Mn3.34+  Mn203  1  0.41850229  -0.00167302  0.43429629  1
  Mn3.34+  Mn204  1  0.40763369  0.00429755  0.43608299  1
  Mn3.34+  Mn205  1  0.07484308  0.50372210  0.08620034  1
  Mn3.34+  Mn206  1  0.75098150  0.50248206  0.06842604  1
  Mn3.34+  Mn207  1  0.41219203  0.50970325  0.08425982  1
  Mn3.34+  Mn208  1  0.08588787  0.49918032  0.08792394  1
  Mn3.34+  Mn209  1  0.06599114  -0.00403837  0.07935182  1
  Mn3.34+  Mn210  1  0.42483901  0.50272742  0.08500711  1
  Mn3.34+  Mn211  1  0.75498298  0.00038930  0.08016255  1
  Mn3.34+  Mn212  1  0.24875447  0.49608337  0.90434225  1
  Mn3.34+  Mn213  1  0.08632736  0.50280550  0.41380723  1
  Mn3.34+  Mn214  1  0.41498187  0.49725090  0.41787799  1
  Mn3.34+  Mn215  1  0.24484605  0.50380309  0.25773196  1
  O2-  O216  1  -0.00324441  0.17511936  -0.00806983  1
  O2-  O217  1  0.00391178  0.15778566  0.33421576  1
  O2-  O218  1  0.00379781  0.15934582  0.66490382  1
  O2-  O219  1  0.00216298  0.66145059  -0.00762018  1
  O2-  O220  1  -0.00407386  0.67222130  0.33825987  1
  O2-  O221  1  0.00510700  0.65484465  0.66216823  1
  O2-  O222  1  0.32685728  0.14970210  0.00272491  1
  O2-  O223  1  0.33306974  0.15383571  0.33654787  1
  O2-  O224  1  0.32888361  0.19043199  0.66395836  1
  O2-  O225  1  0.32280829  0.65692644  0.00743965  1
  O2-  O226  1  0.33335109  0.67401846  0.32658934  1
  O2-  O227  1  0.33631526  0.64436266  0.66031761  1
  O2-  O228  1  0.66742061  0.14500957  -0.00226353  1
  O2-  O229  1  0.66641959  0.15284687  0.33070402  1
  O2-  O230  1  0.68366381  0.17933979  0.66785295  1
  O2-  O231  1  0.67357609  0.65020731  -0.00114517  1
  O2-  O232  1  0.67356323  0.65453464  0.32372910  1
  O2-  O233  1  0.66867317  0.66461891  0.66578886  1
  O2-  O234  1  0.16285995  0.14650403  -0.00099290  1
  O2-  O235  1  0.16380615  0.16229020  0.32473586  1
  O2-  O236  1  0.16707617  0.15656350  0.66355515  1
  O2-  O237  1  0.15921879  0.66187371  -0.01410915  1
  O2-  O238  1  0.16512147  0.67475333  0.33003292  1
  O2-  O239  1  0.17068267  0.65465425  0.66063932  1
  O2-  O240  1  0.49848822  0.15389349  -0.00228879  1
  O2-  O241  1  0.49651795  0.14312516  0.33416368  1
  O2-  O242  1  0.50672353  0.19727519  0.65776015  1
  O2-  O243  1  0.50313784  0.65580306  0.00041801  1
  O2-  O244  1  0.49934781  0.65753386  0.33016432  1
  O2-  O245  1  0.50326263  0.66169714  0.65972372  1
  O2-  O246  1  0.83235797  0.16087017  -0.00904495  1
  O2-  O247  1  0.84127130  0.15028942  0.33987426  1
  O2-  O248  1  0.83610718  0.15372182  0.67296370  1
  O2-  O249  1  0.83854475  0.66043895  0.01192802  1
  O2-  O250  1  0.83033047  0.66288406  0.33878534  1
  O2-  O251  1  0.82943337  0.65416091  0.66330144  1
  O2-  O252  1  -0.00550360  0.33896862  -0.00001589  1
  O2-  O253  1  0.00003241  0.34679353  0.33541340  1
  O2-  O254  1  -0.00118084  0.34567119  0.66309297  1
  O2-  O255  1  0.00098278  0.85119202  -0.00013442  1
  O2-  O256  1  0.00359200  0.80995537  0.32758220  1
  O2-  O257  1  -0.00150894  0.83996874  0.67066369  1
  O2-  O258  1  0.33536914  0.35013032  -0.00312382  1
  O2-  O259  1  0.33721103  0.33983558  0.33433969  1
  O2-  O260  1  0.33766872  0.32639900  0.66038094  1
  O2-  O261  1  0.33199702  0.85507132  0.00033536  1
  O2-  O262  1  0.33281782  0.83050844  0.33121268  1
  O2-  O263  1  0.32306590  0.85472484  0.67524025  1
  O2-  O264  1  0.66826743  0.34105258  -0.00168834  1
  O2-  O265  1  0.66527227  0.34929023  0.33571189  1
  O2-  O266  1  0.66914566  0.32776333  0.66392908  1
  O2-  O267  1  0.66557080  0.84848113  0.00129392  1
  O2-  O268  1  0.67242374  0.83530566  0.33041986  1
  O2-  O269  1  0.66998190  0.84709053  0.66702313  1
  O2-  O270  1  0.16576884  0.35496849  -0.00406503  1
  O2-  O271  1  0.16181868  0.33695401  0.33786256  1
  O2-  O272  1  0.16692581  0.33919374  0.66106673  1
  O2-  O273  1  0.16704211  0.85204577  0.00023545  1
  O2-  O274  1  0.16934768  0.81062353  0.33291498  1
  O2-  O275  1  0.16429621  0.84354833  0.66671530  1
  O2-  O276  1  0.50459055  0.35066159  0.00122005  1
  O2-  O277  1  0.50163306  0.34970642  0.33921307  1
  O2-  O278  1  0.49707063  0.33773348  0.66177822  1
  O2-  O279  1  0.50576984  0.84877167  0.00543553  1
  O2-  O280  1  0.50372176  0.85012282  0.33470229  1
  O2-  O281  1  0.50640906  0.85146181  0.67481310  1
  O2-  O282  1  0.83836155  0.33572042  -0.00128819  1
  O2-  O283  1  0.83203244  0.35287859  0.33075423  1
  O2-  O284  1  0.83759008  0.34729341  0.67044226  1
  O2-  O285  1  0.83384958  0.83163569  0.00102765  1
  O2-  O286  1  0.82989636  0.81825266  0.33468326  1
  O2-  O287  1  0.83531206  0.84805278  0.66669109  1
  O2-  O288  1  0.00323701  0.18178777  0.17330111  1
  O2-  O289  1  -0.01097138  0.17949439  0.49979312  1
  O2-  O290  1  0.00122073  0.18610642  0.83236433  1
  O2-  O291  1  -0.01953800  0.68228625  0.16479662  1
  O2-  O292  1  0.00047191  0.68915875  0.50275299  1
  O2-  O293  1  0.00460755  0.67090509  0.82727634  1
  O2-  O294  1  0.33720493  0.17436089  0.16829010  1
  O2-  O295  1  0.33044482  0.19078346  0.49900011  1
  O2-  O296  1  0.33375302  0.18642019  0.84427952  1
  O2-  O297  1  0.33078189  0.69198002  0.16454618  1
  O2-  O298  1  0.34054579  0.68078631  0.50568617  1
  O2-  O299  1  0.32334072  0.67911051  0.83006610  1
  O2-  O300  1  0.65817782  0.18425222  0.15486791  1
  O2-  O301  1  0.66689142  0.17123210  0.50322064  1
  O2-  O302  1  0.67446246  0.17632926  0.84100660  1
  O2-  O303  1  0.65675524  0.67937444  0.16042902  1
  O2-  O304  1  0.67209277  0.68867191  0.50174825  1
  O2-  O305  1  0.67024212  0.68447989  0.83672125  1
  O2-  O306  1  0.17115131  0.17136776  0.16196879  1
  O2-  O307  1  0.17120149  0.18446561  0.50041195  1
  O2-  O308  1  0.16214163  0.17901508  0.83734945  1
  O2-  O309  1  0.16776630  0.68134128  0.16636114  1
  O2-  O310  1  0.17262966  0.68971884  0.49517421  1
  O2-  O311  1  0.17233503  0.68227829  0.82519679  1
  O2-  O312  1  0.49183044  0.18357977  0.17119905  1
  O2-  O313  1  0.50562796  0.18562632  0.48282626  1
  O2-  O314  1  0.49837720  0.18495541  0.83957038  1
  O2-  O315  1  0.49862170  0.68591017  0.16628048  1
  O2-  O316  1  0.50372757  0.67981515  0.50943033  1
  O2-  O317  1  0.50446501  0.67392822  0.83481938  1
  O2-  O318  1  0.83359990  0.18572533  0.17078697  1
  O2-  O319  1  0.82917240  0.16928580  0.51180944  1
  O2-  O320  1  0.83491091  0.19321063  0.83266476  1
  O2-  O321  1  0.81634954  0.67710306  0.17910995  1
  O2-  O322  1  0.83555054  0.68542102  0.49995556  1
  O2-  O323  1  0.82542679  0.68186253  0.83004366  1
  O2-  O324  1  0.00216432  0.31721608  0.16674360  1
  O2-  O325  1  -0.00268550  0.31475197  0.50173216  1
  O2-  O326  1  -0.00156635  0.31656539  0.83560313  1
  O2-  O327  1  -0.00113125  0.82144295  0.16645651  1
  O2-  O328  1  -0.00270136  0.81492258  0.49671507  1
  O2-  O329  1  0.01183481  0.82317105  0.84363525  1
  O2-  O330  1  0.32888820  0.32369162  0.15646983  1
  O2-  O331  1  0.33270879  0.31074453  0.49642043  1
  O2-  O332  1  0.33591321  0.31102665  0.83572223  1
  O2-  O333  1  0.33293514  0.81586656  0.16736614  1
  O2-  O334  1  0.33459707  0.82084003  0.50076222  1
  O2-  O335  1  0.33399137  0.83035034  0.83498417  1
  O2-  O336  1  0.66460927  0.31992341  0.16211211  1
  O2-  O337  1  0.66625183  0.32277667  0.49919021  1
  O2-  O338  1  0.66339129  0.31214479  0.82360607  1
  O2-  O339  1  0.66870213  0.82706178  0.17293900  1
  O2-  O340  1  0.66405036  0.82052684  0.49392609  1
  O2-  O341  1  0.66104112  0.82671813  0.82315211  1
  O2-  O342  1  0.17024286  0.32658732  0.16192470  1
  O2-  O343  1  0.16416662  0.30962494  0.49935793  1
  O2-  O344  1  0.16293258  0.31740521  0.83862313  1
  O2-  O345  1  0.16623997  0.81532072  0.16606393  1
  O2-  O346  1  0.16978353  0.81335920  0.49566936  1
  O2-  O347  1  0.17022385  0.82820388  0.83223949  1
  O2-  O348  1  0.49582140  0.31868690  0.16989631  1
  O2-  O349  1  0.50385678  0.31085697  0.49656710  1
  O2-  O350  1  0.49929445  0.31670199  0.83090238  1
  O2-  O351  1  0.49754878  0.82344042  0.17111491  1
  O2-  O352  1  0.50491833  0.82721184  0.49951984  1
  O2-  O353  1  0.49491817  0.82103465  0.83620349  1
  O2-  O354  1  0.84054927  0.32466592  0.15777219  1
  O2-  O355  1  0.82884257  0.32208806  0.50363228  1
  O2-  O356  1  0.83541582  0.30944578  0.83149314  1
  O2-  O357  1  0.82588157  0.81990029  0.17738120  1
  O2-  O358  1  0.83021284  0.81503251  0.50220455  1
  O2-  O359  1  0.83831071  0.82091335  0.82936921  1
  O2-  O360  1  0.09859545  0.07371668  0.13083068  1
  O2-  O361  1  0.07233648  0.06821150  0.45705128  1
  O2-  O362  1  0.06847755  0.08473435  0.77215796  1
  O2-  O363  1  0.08631421  0.58317566  0.11529774  1
  O2-  O364  1  0.06847931  0.58243299  0.45108088  1
  O2-  O365  1  0.11434080  0.58301310  0.76861002  1
  O2-  O366  1  0.41584378  0.07609350  0.11445526  1
  O2-  O367  1  0.42649674  0.08194214  0.47489854  1
  O2-  O368  1  0.41865372  0.08648048  0.75140757  1
  O2-  O369  1  0.41872641  0.58745727  0.11986061  1
  O2-  O370  1  0.41152461  0.57404631  0.43420646  1
  O2-  O371  1  0.36984667  0.55750143  0.80136383  1
  O2-  O372  1  0.74876114  0.08100614  0.13759152  1
  O2-  O373  1  0.74184783  0.06773197  0.45478318  1
  O2-  O374  1  0.75810064  0.07250029  0.77958634  1
  O2-  O375  1  0.73856170  0.57758894  0.12794392  1
  O2-  O376  1  0.76280869  0.58050605  0.44776958  1
  O2-  O377  1  0.74164531  0.58445817  0.77295603  1
  O2-  O378  1  0.26639751  0.07707264  0.20993760  1
  O2-  O379  1  0.24900603  0.07954797  0.54993857  1
  O2-  O380  1  0.25344776  0.08448869  0.89028189  1
  O2-  O381  1  0.26453551  0.58533172  0.21901272  1
  O2-  O382  1  0.24063168  0.58262681  0.55207478  1
  O2-  O383  1  0.24226624  0.58479587  0.89827274  1
  O2-  O384  1  0.55822316  0.08056697  0.20496778  1
  O2-  O385  1  0.60164292  0.07150168  0.55968094  1
  O2-  O386  1  0.57728663  0.08486433  0.89085068  1
  O2-  O387  1  0.57329189  0.58038193  0.20975582  1
  O2-  O388  1  0.59367162  0.58499184  0.56055465  1
  O2-  O389  1  0.60369369  0.58011534  0.89983396  1
  O2-  O390  1  0.93177397  0.07957829  0.22065764  1
  O2-  O391  1  0.91618530  0.08241920  0.57056974  1
  O2-  O392  1  0.91053553  0.08121607  0.87096917  1
  O2-  O393  1  0.91509826  0.56496782  0.20523290  1
  O2-  O394  1  0.91536339  0.58674137  0.55195112  1
  O2-  O395  1  0.91181374  0.57304977  0.91248191  1
  O2-  O396  1  0.09084487  0.41722523  0.11604699  1
  O2-  O397  1  0.09151404  0.42515648  0.46803926  1
  O2-  O398  1  0.07450713  0.41362698  0.76596656  1
  O2-  O399  1  0.09654893  0.91858291  0.12241991  1
  O2-  O400  1  0.10631522  0.91339323  0.39625564  1
  O2-  O401  1  0.08891902  0.91705768  0.77717375  1
  O2-  O402  1  0.39758101  0.42372125  0.12056754  1
  O2-  O403  1  0.41952014  0.41874891  0.46061322  1
  O2-  O404  1  0.43202181  0.41973248  0.76745557  1
  O2-  O405  1  0.40796621  0.91690473  0.11627262  1
  O2-  O406  1  0.39946015  0.91736887  0.42376222  1
  O2-  O407  1  0.41344485  0.92554469  0.78366005  1
  O2-  O408  1  0.76043109  0.42014274  0.09840327  1
  O2-  O409  1  0.73475596  0.42239756  0.45323834  1
  O2-  O410  1  0.74930047  0.41709609  0.78019391  1
  O2-  O411  1  0.74836277  0.92169443  0.12420880  1
  O2-  O412  1  0.74267170  0.91720822  0.40626755  1
  O2-  O413  1  0.74527640  0.92424863  0.77735487  1
  O2-  O414  1  0.25301238  0.42045003  0.21850528  1
  O2-  O415  1  0.26642163  0.41830755  0.54770756  1
  O2-  O416  1  0.26338506  0.41471978  0.88165883  1
  O2-  O417  1  0.24737175  0.91350542  0.23597046  1
  O2-  O418  1  0.24354986  0.92053770  0.54784149  1
  O2-  O419  1  0.23306157  0.92312511  0.88290543  1
  O2-  O420  1  0.56840338  0.41911188  0.21020895  1
  O2-  O421  1  0.57226005  0.42111963  0.54656278  1
  O2-  O422  1  0.57726726  0.41878720  0.88226302  1
  O2-  O423  1  0.59225361  0.92045750  0.22816295  1
  O2-  O424  1  0.59029422  0.91835195  0.56399953  1
  O2-  O425  1  0.57179552  0.91853584  0.87790000  1
  O2-  O426  1  0.93643685  0.42058539  0.21066775  1
  O2-  O427  1  0.90979034  0.41936337  0.54106828  1
  O2-  O428  1  0.92067412  0.41537780  0.89345910  1
  O2-  O429  1  0.90799411  0.91451323  0.24377653  1
  O2-  O430  1  0.92317795  0.91568963  0.56682778  1
  O2-  O431  1  0.92964621  0.91733773  0.88186300  1
  O2-  O432  1  0.02361527  0.00109485  -0.03992500  1
  O2-  O433  1  0.01618635  0.00425469  0.31290025  1
  O2-  O434  1  -0.00079825  0.00651145  0.67721651  1
  O2-  O435  1  0.01033565  0.48453459  -0.00434881  1
  O2-  O436  1  0.00068060  0.49556147  0.35256855  1
  O2-  O437  1  0.00389036  0.48893845  0.64945026  1
  O2-  O438  1  0.32207394  0.00442404  0.01914264  1
  O2-  O439  1  0.33509029  0.01900007  0.33925754  1
  O2-  O440  1  0.32688871  -0.00828603  0.66810004  1
  O2-  O441  1  0.32824738  0.48980035  0.00483068  1
  O2-  O442  1  0.34118812  0.48762106  0.33035230  1
  O2-  O443  1  0.34115231  0.49007840  0.65386664  1
  O2-  O444  1  0.66247499  0.01418911  0.00682207  1
  O2-  O445  1  0.65234227  0.01834479  0.33100734  1
  O2-  O446  1  0.66934116  0.00246715  0.67849919  1
  O2-  O447  1  0.64427418  0.49753337  0.02567511  1
  O2-  O448  1  0.66797640  0.49548503  0.34186304  1
  O2-  O449  1  0.67365530  0.48508571  0.65950700  1
  O2-  O450  1  0.17209983  0.00880383  0.00973776  1
  O2-  O451  1  0.16595887  0.02768425  0.33668764  1
  O2-  O452  1  0.16563541  -0.00738988  0.66427372  1
  O2-  O453  1  0.17405591  0.49839818  0.00282425  1
  O2-  O454  1  0.16119803  0.47688399  0.33497251  1
  O2-  O455  1  0.15768967  0.49566538  0.63022768  1
  O2-  O456  1  0.50113021  -0.01105602  0.01374184  1
  O2-  O457  1  0.48973960  0.01372446  0.33561663  1
  O2-  O458  1  0.51093770  -0.00373056  0.67875003  1
  O2-  O459  1  0.49068196  0.49781823  -0.01151694  1
  O2-  O460  1  0.50467903  0.48219114  0.34401217  1
  O2-  O461  1  0.49449210  0.49192607  0.64903462  1
  O2-  O462  1  0.81781719  0.01809482  -0.02030770  1
  O2-  O463  1  0.81548523  -0.00304271  0.29531326  1
  O2-  O464  1  0.84103832  0.00385536  0.67310405  1
  O2-  O465  1  0.86292362  0.50699261  0.05384779  1
  O2-  O466  1  0.84108358  0.51182050  0.34644240  1
  O2-  O467  1  0.83787404  0.49149152  0.67780150  1
  O2-  O468  1  0.08687153  0.24922261  0.72346551  1
  O2-  O469  1  0.58731254  0.75121744  0.93518100  1
  O2-  O470  1  0.42739762  0.75502045  0.40225933  1
  O2-  O471  1  0.08652454  0.74910585  0.73028378  1
  O2-  O472  1  0.73190758  0.75285998  0.06555359  1
  O2-  O473  1  0.92170264  0.75264644  0.92696590  1
  O2-  O474  1  0.75589182  0.25650015  0.39529796  1
  O2-  O475  1  0.25688233  0.75089787  0.61436609  1
  O2-  O476  1  0.24019512  0.25034361  0.94841575  1
  O2-  O477  1  0.75100577  0.24584784  0.05980363  1
  O2-  O478  1  0.09598117  0.25099159  0.06621864  1
  O2-  O479  1  0.25570875  0.75495771  0.93730283  1
  O2-  O480  1  0.58471081  0.74856947  0.27273954  1
  O2-  O481  1  0.58682516  0.24983805  0.94410469  1
  O2-  O482  1  0.08269094  0.75771679  0.05931022  1
  O2-  O483  1  0.58203309  0.75536002  0.60697248  1
  O2-  O484  1  0.42256697  0.75196005  0.04615316  1
  O2-  O485  1  0.41090526  0.75715413  0.72806471  1
  O2-  O486  1  0.41382402  0.24959887  0.05758918  1
  O2-  O487  1  0.25214067  0.25146303  0.26389099  1
  O2-  O488  1  0.58694838  0.25266551  0.28160608  1
  O2-  O489  1  0.90793649  0.25440259  0.27660331  1
  O2-  O490  1  0.75050699  0.75367074  0.72872293  1
  O2-  O491  1  0.91635815  0.75135582  0.61626616  1
  O2-  O492  1  0.90827662  0.25096454  0.60683284  1
