# generated using pymatgen
data_Ca108Mn108O277
_symmetry_space_group_name_H-M   'P 1'
_cell_length_a   16.02867117
_cell_length_b   22.31147846
_cell_length_c   16.39189356
_cell_angle_alpha   90.00017421
_cell_angle_beta   89.99606075
_cell_angle_gamma   90.00048695
_symmetry_Int_Tables_number   1
_chemical_formula_structural   Ca108Mn108O277
_chemical_formula_sum   'Ca108 Mn108 O277'
_cell_volume   5862.12389827
_cell_formula_units_Z   1
loop_
 _symmetry_equiv_pos_site_id
 _symmetry_equiv_pos_as_xyz
  1  'x, y, z'
loop_
 _atom_type_symbol
 _atom_type_oxidation_number
  Ca2+  2.0
  Mn3.34+  3.34
  O2-  -2.0
loop_
 _atom_site_type_symbol
 _atom_site_label
 _atom_site_symmetry_multiplicity
 _atom_site_fract_x
 _atom_site_fract_y
 _atom_site_fract_z
 _atom_site_occupancy
  Ca2+  Ca0  1  0.08461477  0.24750659  0.26012893  1
  Ca2+  Ca1  1  0.08872946  0.24627153  0.58357747  1
  Ca2+  Ca2  1  0.07902216  0.25552407  0.91038054  1
  Ca2+  Ca3  1  0.07636919  0.75119773  0.25675214  1
  Ca2+  Ca4  1  0.06174518  0.73768897  0.58295139  1
  Ca2+  Ca5  1  0.05890224  0.73481434  0.90605508  1
  Ca2+  Ca6  1  0.38790379  0.24871502  0.25369561  1
  Ca2+  Ca7  1  0.41628685  0.23785062  0.59503320  1
  Ca2+  Ca8  1  0.41622606  0.25279752  0.89726394  1
  Ca2+  Ca9  1  0.40870239  0.75755186  0.24112126  1
  Ca2+  Ca10  1  0.42985965  0.74583426  0.59152879  1
  Ca2+  Ca11  1  0.42273182  0.74621219  0.91630886  1
  Ca2+  Ca12  1  0.78143156  0.24781253  0.26541687  1
  Ca2+  Ca13  1  0.74893092  0.24100856  0.58356746  1
  Ca2+  Ca14  1  0.75712077  0.26819610  0.91749112  1
  Ca2+  Ca15  1  0.76161348  0.76056297  0.25138779  1
  Ca2+  Ca16  1  0.75466047  0.75271351  0.58311198  1
  Ca2+  Ca17  1  0.77281731  0.74505426  0.91478489  1
  Ca2+  Ca18  1  0.24503487  0.25990410  0.09764258  1
  Ca2+  Ca19  1  0.23429441  0.24652625  0.41215001  1
  Ca2+  Ca20  1  0.25420149  0.25163790  0.73884147  1
  Ca2+  Ca21  1  0.25037073  0.74777032  0.08555269  1
  Ca2+  Ca22  1  0.22471425  0.74271648  0.42760648  1
  Ca2+  Ca23  1  0.23866368  0.75183270  0.74490086  1
  Ca2+  Ca24  1  0.57912359  0.28011835  0.08498876  1
  Ca2+  Ca25  1  0.58711288  0.25289881  0.42692949  1
  Ca2+  Ca26  1  0.56372674  0.25910712  0.73987351  1
  Ca2+  Ca27  1  0.58016933  0.75088296  0.07613978  1
  Ca2+  Ca28  1  0.59310872  0.74834342  0.44776784  1
  Ca2+  Ca29  1  0.58830636  0.74557159  0.73724912  1
  Ca2+  Ca30  1  0.92908314  0.25148892  0.10998869  1
  Ca2+  Ca31  1  0.93176075  0.24923389  0.41161879  1
  Ca2+  Ca32  1  0.93908441  0.25300247  0.73186544  1
  Ca2+  Ca33  1  0.91626829  0.74371792  0.06539800  1
  Ca2+  Ca34  1  0.92577311  0.74200957  0.43850618  1
  Ca2+  Ca35  1  0.92010344  0.74619453  0.74437702  1
  Ca2+  Ca36  1  0.07955406  0.60035589  0.56470531  1
  Ca2+  Ca37  1  0.07790669  0.11655088  0.57039787  1
  Ca2+  Ca38  1  0.24763892  0.10577755  0.10228478  1
  Ca2+  Ca39  1  0.26418166  0.08575797  0.70523239  1
  Ca2+  Ca40  1  0.39792388  0.10533799  0.25041326  1
  Ca2+  Ca41  1  0.76688723  0.06733550  0.91763652  1
  Ca2+  Ca42  1  0.75441294  0.06910439  0.91890200  1
  Ca2+  Ca43  1  0.25607435  0.58935072  0.74118361  1
  Ca2+  Ca44  1  0.75313705  0.59570923  0.57179817  1
  Ca2+  Ca45  1  0.26840007  0.59146362  0.74237755  1
  Ca2+  Ca46  1  0.59431061  0.57462696  0.07435494  1
  Ca2+  Ca47  1  0.92104527  0.11455482  0.42822139  1
  Ca2+  Ca48  1  0.41728152  0.09526090  0.90588210  1
  Ca2+  Ca49  1  0.94347927  0.59246960  0.42698624  1
  Ca2+  Ca50  1  0.06732952  0.11202489  0.25361547  1
  Ca2+  Ca51  1  0.60032091  0.10815785  0.45583815  1
  Ca2+  Ca52  1  0.92853328  0.10492642  0.71902958  1
  Ca2+  Ca53  1  0.93821368  0.58717649  0.06459009  1
  Ca2+  Ca54  1  0.93886778  0.10460263  0.72078243  1
  Ca2+  Ca55  1  0.56117010  0.10764007  0.70419409  1
  Ca2+  Ca56  1  0.43630989  0.58218226  0.59679122  1
  Ca2+  Ca57  1  0.57699208  0.57318784  0.72404254  1
  Ca2+  Ca58  1  0.54808356  0.07277834  0.08058918  1
  Ca2+  Ca59  1  0.77163579  0.56736138  0.24341671  1
  Ca2+  Ca60  1  0.25306938  0.08559404  0.70678100  1
  Ca2+  Ca61  1  0.58405762  0.59680198  0.43274829  1
  Ca2+  Ca62  1  0.75910131  0.56927104  0.24582749  1
  Ca2+  Ca63  1  0.55132067  0.10827242  0.70715040  1
  Ca2+  Ca64  1  0.44673924  0.58203879  0.59696303  1
  Ca2+  Ca65  1  0.07338123  0.08184883  0.91465803  1
  Ca2+  Ca66  1  0.76446372  0.59091061  0.93950468  1
  Ca2+  Ca67  1  0.23221608  0.11153161  0.42102590  1
  Ca2+  Ca68  1  0.22103941  0.57498045  0.08091342  1
  Ca2+  Ca69  1  0.25935865  0.10615186  0.10255062  1
  Ca2+  Ca70  1  0.74584407  0.59842939  0.57819897  1
  Ca2+  Ca71  1  0.92794391  0.59474244  0.74076224  1
  Ca2+  Ca72  1  0.57897835  0.40747809  0.42462497  1
  Ca2+  Ca73  1  0.57843305  0.90861660  0.74789860  1
  Ca2+  Ca74  1  0.24774516  0.89468762  0.42738985  1
  Ca2+  Ca75  1  0.90478593  0.40587357  0.73569599  1
  Ca2+  Ca76  1  0.40318606  0.91221968  0.59082947  1
  Ca2+  Ca77  1  0.08362824  0.90033897  0.58888002  1
  Ca2+  Ca78  1  0.24440851  0.41385613  0.08368697  1
  Ca2+  Ca79  1  0.24058991  0.41026716  0.41473333  1
  Ca2+  Ca80  1  0.92067438  0.41304037  0.09396689  1
  Ca2+  Ca81  1  0.24917343  0.90221912  0.08032688  1
  Ca2+  Ca82  1  0.41891278  0.90584811  0.92368456  1
  Ca2+  Ca83  1  0.42384874  0.40932528  0.24321545  1
  Ca2+  Ca84  1  0.06609760  0.42392753  0.25827164  1
  Ca2+  Ca85  1  0.07028120  0.40654571  0.57095992  1
  Ca2+  Ca86  1  0.43897948  0.42655559  0.62026426  1
  Ca2+  Ca87  1  0.75173754  0.90372735  0.91580631  1
  Ca2+  Ca88  1  0.08381945  0.40945856  0.93421025  1
  Ca2+  Ca89  1  0.07628783  0.89760202  0.24477961  1
  Ca2+  Ca90  1  0.91260194  0.91043516  0.06552319  1
  Ca2+  Ca91  1  0.42297307  0.41007448  0.91213311  1
  Ca2+  Ca92  1  0.26187903  0.90200524  0.08101429  1
  Ca2+  Ca93  1  0.92055372  0.90481864  0.75835875  1
  Ca2+  Ca94  1  0.56662799  0.91669723  0.07838615  1
  Ca2+  Ca95  1  0.76150360  0.40487583  0.24466620  1
  Ca2+  Ca96  1  0.41199477  0.41028378  0.91182349  1
  Ca2+  Ca97  1  0.07940817  0.40478934  0.57537662  1
  Ca2+  Ca98  1  0.57933605  0.91513278  0.07704001  1
  Ca2+  Ca99  1  0.24496059  0.91319404  0.73678608  1
  Ca2+  Ca100  1  0.74764696  0.41789567  0.93369057  1
  Ca2+  Ca101  1  0.92370808  0.91111236  0.06461880  1
  Ca2+  Ca102  1  0.60641999  0.90117043  0.42446082  1
  Ca2+  Ca103  1  0.41564072  0.91009374  0.59096946  1
  Ca2+  Ca104  1  0.76131643  0.90701231  0.91170801  1
  Ca2+  Ca105  1  0.42852704  0.90229101  0.24876346  1
  Ca2+  Ca106  1  0.41294594  0.40969501  0.24375575  1
  Ca2+  Ca107  1  0.93084121  0.42162057  0.40800495  1
  Mn3.34+  Mn108  1  0.08200415  0.33920683  0.08855639  1
  Mn3.34+  Mn109  1  0.08196358  0.33414420  0.41569625  1
  Mn3.34+  Mn110  1  0.08706861  0.33336558  0.75233647  1
  Mn3.34+  Mn111  1  0.08425057  0.83024792  0.08075138  1
  Mn3.34+  Mn112  1  0.07632225  0.83296299  0.42148610  1
  Mn3.34+  Mn113  1  0.08375987  0.83057793  0.75051529  1
  Mn3.34+  Mn114  1  0.41536692  0.33742791  0.08312477  1
  Mn3.34+  Mn115  1  0.41676108  0.33322361  0.42627453  1
  Mn3.34+  Mn116  1  0.41372813  0.33937682  0.74695285  1
  Mn3.34+  Mn117  1  0.41973170  0.83026306  0.08460123  1
  Mn3.34+  Mn118  1  0.41860353  0.82869988  0.41817199  1
  Mn3.34+  Mn119  1  0.41467206  0.82915362  0.75581252  1
  Mn3.34+  Mn120  1  0.75324321  0.34076077  0.08665104  1
  Mn3.34+  Mn121  1  0.75085453  0.33144778  0.42197806  1
  Mn3.34+  Mn122  1  0.74396740  0.33504654  0.74611017  1
  Mn3.34+  Mn123  1  0.74589826  0.83286244  0.09021428  1
  Mn3.34+  Mn124  1  0.76052488  0.84022496  0.42174235  1
  Mn3.34+  Mn125  1  0.75065525  0.83561549  0.74325847  1
  Mn3.34+  Mn126  1  0.24401367  0.33675173  0.25207712  1
  Mn3.34+  Mn127  1  0.25419955  0.33780667  0.58242123  1
  Mn3.34+  Mn128  1  0.24698034  0.33598393  0.91575006  1
  Mn3.34+  Mn129  1  0.24752968  0.82938038  0.25426564  1
  Mn3.34+  Mn130  1  0.24877380  0.82937386  0.58248400  1
  Mn3.34+  Mn131  1  0.24590436  0.82450891  0.90931066  1
  Mn3.34+  Mn132  1  0.58765974  0.33765760  0.25319484  1
  Mn3.34+  Mn133  1  0.58787053  0.34231125  0.58535872  1
  Mn3.34+  Mn134  1  0.58791492  0.33525108  0.91321696  1
  Mn3.34+  Mn135  1  0.59162056  0.82889419  0.25408004  1
  Mn3.34+  Mn136  1  0.58822617  0.83234556  0.58470647  1
  Mn3.34+  Mn137  1  0.58417976  0.82919716  0.90984561  1
  Mn3.34+  Mn138  1  0.91963864  0.33764449  0.25289871  1
  Mn3.34+  Mn139  1  0.90610998  0.33904104  0.57493052  1
  Mn3.34+  Mn140  1  0.91623829  0.33393414  0.91474136  1
  Mn3.34+  Mn141  1  0.91184598  0.83705751  0.25323704  1
  Mn3.34+  Mn142  1  0.91325059  0.83001415  0.58437536  1
  Mn3.34+  Mn143  1  0.92271212  0.83048107  0.90881352  1
  Mn3.34+  Mn144  1  0.92260166  0.16215234  0.91754718  1
  Mn3.34+  Mn145  1  0.74349469  0.66129105  0.75723705  1
  Mn3.34+  Mn146  1  0.59496824  0.17154521  0.92175341  1
  Mn3.34+  Mn147  1  0.08215947  0.17046415  0.08541488  1
  Mn3.34+  Mn148  1  0.58130477  0.66678234  0.91306607  1
  Mn3.34+  Mn149  1  0.58270647  0.16423845  0.91784548  1
  Mn3.34+  Mn150  1  0.41896430  0.65712550  0.08124077  1
  Mn3.34+  Mn151  1  0.41614016  0.17245771  0.42343013  1
  Mn3.34+  Mn152  1  0.24360911  0.66038271  0.25224685  1
  Mn3.34+  Mn153  1  0.75056273  0.16997875  0.75493936  1
  Mn3.34+  Mn154  1  0.57874528  0.16906950  0.25683767  1
  Mn3.34+  Mn155  1  0.40473099  0.66258048  0.41883268  1
  Mn3.34+  Mn156  1  0.58805214  0.16375193  0.25405374  1
  Mn3.34+  Mn157  1  0.75375717  0.67063243  0.41685117  1
  Mn3.34+  Mn158  1  0.23165537  0.65649951  0.25267205  1
  Mn3.34+  Mn159  1  0.25147305  0.16589305  0.90872736  1
  Mn3.34+  Mn160  1  0.24471762  0.67105027  0.91121571  1
  Mn3.34+  Mn161  1  0.92802919  0.66027748  0.24491272  1
  Mn3.34+  Mn162  1  0.40910480  0.65131324  0.08131657  1
  Mn3.34+  Mn163  1  0.41479114  0.66751108  0.41658604  1
  Mn3.34+  Mn164  1  0.24688361  0.66934973  0.57864348  1
  Mn3.34+  Mn165  1  0.76098169  0.16550641  0.43206986  1
  Mn3.34+  Mn166  1  0.25066088  0.17086337  0.57770010  1
  Mn3.34+  Mn167  1  0.42010321  0.66440784  0.75814124  1
  Mn3.34+  Mn168  1  0.75378035  0.65638647  0.75786026  1
  Mn3.34+  Mn169  1  0.75831969  0.16206244  0.09264783  1
  Mn3.34+  Mn170  1  0.08198585  0.66639225  0.74868128  1
  Mn3.34+  Mn171  1  0.74779209  0.66350675  0.08579380  1
  Mn3.34+  Mn172  1  0.41822330  0.17192011  0.08220839  1
  Mn3.34+  Mn173  1  0.91741040  0.66516261  0.24547390  1
  Mn3.34+  Mn174  1  0.91308819  0.16793476  0.92040694  1
  Mn3.34+  Mn175  1  0.58204553  0.66836424  0.24716331  1
  Mn3.34+  Mn176  1  0.24152319  0.17081000  0.91093996  1
  Mn3.34+  Mn177  1  0.08480228  0.66417293  0.07736003  1
  Mn3.34+  Mn178  1  0.59081757  0.67471099  0.24799637  1
  Mn3.34+  Mn179  1  0.74557289  0.16835922  0.08933223  1
  Mn3.34+  Mn180  1  0.43032875  0.00897792  0.41625044  1
  Mn3.34+  Mn181  1  0.25176949  0.50232316  0.91644001  1
  Mn3.34+  Mn182  1  0.57657729  0.50547130  0.90575623  1
  Mn3.34+  Mn183  1  0.76934562  0.49959009  0.42802000  1
  Mn3.34+  Mn184  1  0.07701361  -0.00696524  0.74711761  1
  Mn3.34+  Mn185  1  0.91313169  -0.00130133  0.56715733  1
  Mn3.34+  Mn186  1  0.25359158  -0.00294868  0.91315941  1
  Mn3.34+  Mn187  1  0.75909975  0.49506560  0.42724313  1
  Mn3.34+  Mn188  1  0.24526154  0.49866376  0.26894789  1
  Mn3.34+  Mn189  1  0.24258884  -0.00789307  0.91146978  1
  Mn3.34+  Mn190  1  0.59209416  -0.00651951  0.58945136  1
  Mn3.34+  Mn191  1  0.23664380  0.50336979  0.91846538  1
  Mn3.34+  Mn192  1  0.62158661  0.00133336  0.27809111  1
  Mn3.34+  Mn193  1  0.07814298  0.00197695  0.42325438  1
  Mn3.34+  Mn194  1  0.25223539  0.50543253  0.57653988  1
  Mn3.34+  Mn195  1  0.75452579  -0.00005967  0.08889800  1
  Mn3.34+  Mn196  1  0.57083803  0.00087401  0.90967800  1
  Mn3.34+  Mn197  1  0.41977789  -0.00486453  0.75119168  1
  Mn3.34+  Mn198  1  0.41711289  0.00258841  0.41943738  1
  Mn3.34+  Mn199  1  0.91819581  0.49844722  0.91387580  1
  Mn3.34+  Mn200  1  0.90211057  -0.00656553  0.57015760  1
  Mn3.34+  Mn201  1  0.07995034  0.50347917  0.75274290  1
  Mn3.34+  Mn202  1  0.41789991  0.49557564  0.41914149  1
  Mn3.34+  Mn203  1  0.24938190  0.00202048  0.25342359  1
  Mn3.34+  Mn204  1  0.08974544  0.49738520  0.75302059  1
  Mn3.34+  Mn205  1  0.75105432  0.49861870  0.73586187  1
  Mn3.34+  Mn206  1  0.93396031  0.50332941  0.91107095  1
  Mn3.34+  Mn207  1  0.57852543  0.50151632  0.25036358  1
  Mn3.34+  Mn208  1  0.74566134  0.00366875  0.72650238  1
  Mn3.34+  Mn209  1  0.06600495  -0.00587782  0.42147811  1
  Mn3.34+  Mn210  1  0.90358555  0.00719196  0.26410896  1
  Mn3.34+  Mn211  1  0.23412870  -0.00260853  0.25235513  1
  Mn3.34+  Mn212  1  0.88761932  0.00513829  0.26662692  1
  Mn3.34+  Mn213  1  0.08008509  0.00492955  0.08663209  1
  Mn3.34+  Mn214  1  0.58752873  0.50148882  0.90737322  1
  Mn3.34+  Mn215  1  0.60814628  0.00084968  0.27326391  1
  O2-  O216  1  0.00209594  0.14440961  -0.00112815  1
  O2-  O217  1  0.00079678  0.17029106  0.33986344  1
  O2-  O218  1  0.00094082  0.17183654  0.65953568  1
  O2-  O219  1  0.00281484  0.67105663  0.00711448  1
  O2-  O220  1  -0.00201290  0.66522084  0.33261155  1
  O2-  O221  1  0.01193520  0.64969656  0.66386061  1
  O2-  O222  1  0.32918952  0.14696793  -0.00877897  1
  O2-  O223  1  0.33419357  0.15839542  0.34276546  1
  O2-  O224  1  0.33059226  0.16226534  0.66070010  1
  O2-  O225  1  0.32536769  0.66512980  -0.00276988  1
  O2-  O226  1  0.32991768  0.65722293  0.33190541  1
  O2-  O227  1  0.34141655  0.66198095  0.66436599  1
  O2-  O228  1  0.67128688  0.14015023  0.00223889  1
  O2-  O229  1  0.66687777  0.14878051  0.33148889  1
  O2-  O230  1  0.66465432  0.17350692  0.68450938  1
  O2-  O231  1  0.66264808  0.65538164  0.00375087  1
  O2-  O232  1  0.66765611  0.67828011  0.33688350  1
  O2-  O233  1  0.66831609  0.64549446  0.67444682  1
  O2-  O234  1  0.16697504  0.14375004  -0.00774234  1
  O2-  O235  1  0.15750104  0.16446248  0.32975489  1
  O2-  O236  1  0.17307903  0.15698378  0.66249787  1
  O2-  O237  1  0.16618018  0.68650667  -0.00074465  1
  O2-  O238  1  0.15868180  0.68258120  0.33294838  1
  O2-  O239  1  0.17823159  0.64858657  0.67044876  1
  O2-  O240  1  0.50157208  0.14422280  -0.00106361  1
  O2-  O241  1  0.50143589  0.14393328  0.33669633  1
  O2-  O242  1  0.50504500  0.18663713  0.66494426  1
  O2-  O243  1  0.50117919  0.65089940  -0.00010470  1
  O2-  O244  1  0.50019932  0.67272218  0.33491387  1
  O2-  O245  1  0.49678495  0.66303564  0.67527514  1
  O2-  O246  1  0.82921910  0.14029772  -0.00641294  1
  O2-  O247  1  0.83318724  0.16749672  0.34541539  1
  O2-  O248  1  0.83694329  0.17548213  0.68283548  1
  O2-  O249  1  0.82933638  0.66606999  0.01091078  1
  O2-  O250  1  0.82607409  0.64498493  0.32523854  1
  O2-  O251  1  0.82920393  0.64623821  0.66909098  1
  O2-  O252  1  -0.00172665  0.35005088  0.00263659  1
  O2-  O253  1  -0.00060270  0.34974543  0.33626669  1
  O2-  O254  1  -0.00355784  0.34326130  0.66614159  1
  O2-  O255  1  -0.00191008  0.83967986  0.00142134  1
  O2-  O256  1  0.00461925  0.83697096  0.32822329  1
  O2-  O257  1  -0.00035483  0.84747871  0.66772984  1
  O2-  O258  1  0.33168151  0.35508371  -0.00248945  1
  O2-  O259  1  0.33487940  0.35393335  0.32895652  1
  O2-  O260  1  0.33692676  0.34974995  0.66034404  1
  O2-  O261  1  0.33285790  0.83994492  -0.00537450  1
  O2-  O262  1  0.33863945  0.84534063  0.33215369  1
  O2-  O263  1  0.33456928  0.84118663  0.66932926  1
  O2-  O264  1  0.67039072  0.34370378  -0.00233045  1
  O2-  O265  1  0.66747164  0.35728564  0.33634627  1
  O2-  O266  1  0.66471205  0.31089364  0.66417494  1
  O2-  O267  1  0.66432892  0.84528611  0.00032424  1
  O2-  O268  1  0.66819646  0.81564409  0.34233035  1
  O2-  O269  1  0.65943097  0.84931866  0.67295625  1
  O2-  O270  1  0.16820400  0.34873449  0.00299064  1
  O2-  O271  1  0.16205539  0.35315922  0.33104643  1
  O2-  O272  1  0.15937455  0.35628821  0.66290446  1
  O2-  O273  1  0.17745890  0.82690994  0.00793043  1
  O2-  O274  1  0.16407696  0.83082636  0.33968982  1
  O2-  O275  1  0.16953830  0.84647626  0.66847752  1
  O2-  O276  1  0.49854906  0.35240494  -0.00171409  1
  O2-  O277  1  0.49804248  0.35377869  0.33568483  1
  O2-  O278  1  0.50158940  0.33588211  0.66518746  1
  O2-  O279  1  0.50467671  0.84416376  0.00049342  1
  O2-  O280  1  0.50040460  0.82645636  0.33154692  1
  O2-  O281  1  0.49290101  0.84186918  0.66443679  1
  O2-  O282  1  0.83222868  0.35017362  -0.00490753  1
  O2-  O283  1  0.83409524  0.34765901  0.33594253  1
  O2-  O284  1  0.83517869  0.32205194  0.66524218  1
  O2-  O285  1  0.82811261  0.84092684  0.00070481  1
  O2-  O286  1  0.83140543  0.82297569  0.33913382  1
  O2-  O287  1  0.83841418  0.84655748  0.67169176  1
  O2-  O288  1  0.01427952  0.18285700  0.16746219  1
  O2-  O289  1  -0.00545108  0.18710138  0.50560067  1
  O2-  O290  1  -0.00439033  0.17741515  0.83232907  1
  O2-  O291  1  0.00584833  0.68720534  0.16043407  1
  O2-  O292  1  0.00289684  0.66970340  0.49590663  1
  O2-  O293  1  -0.00380835  0.67681153  0.81411672  1
  O2-  O294  1  0.33096713  0.18321517  0.15505879  1
  O2-  O295  1  0.32949023  0.18769401  0.49491659  1
  O2-  O296  1  0.33509142  0.17453334  0.83412536  1
  O2-  O297  1  0.32665949  0.66683184  0.16432179  1
  O2-  O298  1  0.32874186  0.69169216  0.49766079  1
  O2-  O299  1  0.32846201  0.68572005  0.82689708  1
  O2-  O300  1  0.65058747  0.18079025  0.15980285  1
  O2-  O301  1  0.66873039  0.18776774  0.49715755  1
  O2-  O302  1  0.67861193  0.18791547  0.84780444  1
  O2-  O303  1  0.66767995  0.69501412  0.16258984  1
  O2-  O304  1  0.67756463  0.67897886  0.50160942  1
  O2-  O305  1  0.67091536  0.68604767  0.84004943  1
  O2-  O306  1  0.17433937  0.18061312  0.14918757  1
  O2-  O307  1  0.16729218  0.17988047  0.50173331  1
  O2-  O308  1  0.16153068  0.17200423  0.83320200  1
  O2-  O309  1  0.16552232  0.68455182  0.16112873  1
  O2-  O310  1  0.15969383  0.67924861  0.51232184  1
  O2-  O311  1  0.16796686  0.68618384  0.82906749  1
  O2-  O312  1  0.49283220  0.17698129  0.18094238  1
  O2-  O313  1  0.50264741  0.18536870  0.49227679  1
  O2-  O314  1  0.50643420  0.17589711  0.83556874  1
  O2-  O315  1  0.49606941  0.68748752  0.16856424  1
  O2-  O316  1  0.49376240  0.68248520  0.49899507  1
  O2-  O317  1  0.50127109  0.69009616  0.83049881  1
  O2-  O318  1  0.83339067  0.18523339  0.16745853  1
  O2-  O319  1  0.83801949  0.18649356  0.49858155  1
  O2-  O320  1  0.83190819  0.18800185  0.84203213  1
  O2-  O321  1  0.83146429  0.68394128  0.16930617  1
  O2-  O322  1  0.83150435  0.67648771  0.49535189  1
  O2-  O323  1  0.83297070  0.67607076  0.83113683  1
  O2-  O324  1  0.00389030  0.32370938  0.17037784  1
  O2-  O325  1  0.00318265  0.31962737  0.50743551  1
  O2-  O326  1  -0.00072659  0.31693931  0.83376427  1
  O2-  O327  1  -0.00136146  0.83239052  0.15979904  1
  O2-  O328  1  0.00271511  0.81441591  0.50573959  1
  O2-  O329  1  -0.00476715  0.81824991  0.82292678  1
  O2-  O330  1  0.33208187  0.32378743  0.16855255  1
  O2-  O331  1  0.32058732  0.32396844  0.48859667  1
  O2-  O332  1  0.33667437  0.32910742  0.84372205  1
  O2-  O333  1  0.32755717  0.82696400  0.16053448  1
  O2-  O334  1  0.33394885  0.81583854  0.49896123  1
  O2-  O335  1  0.33543668  0.80524509  0.83550704  1
  O2-  O336  1  0.67400999  0.32355235  0.17353050  1
  O2-  O337  1  0.66324097  0.32070007  0.50155120  1
  O2-  O338  1  0.66574123  0.31324758  0.83129205  1
  O2-  O339  1  0.66520444  0.80902577  0.16663514  1
  O2-  O340  1  0.67110583  0.82372773  0.50109791  1
  O2-  O341  1  0.67691167  0.82600141  0.84110357  1
  O2-  O342  1  0.16691917  0.32525936  0.16671082  1
  O2-  O343  1  0.16028948  0.32929159  0.50397097  1
  O2-  O344  1  0.16500573  0.31868789  0.83964556  1
  O2-  O345  1  0.16246499  0.81620867  0.16720169  1
  O2-  O346  1  0.16492575  0.81788479  0.50200325  1
  O2-  O347  1  0.16232704  0.81041370  0.83312192  1
  O2-  O348  1  0.48950673  0.32287187  0.17592060  1
  O2-  O349  1  0.50206045  0.31727700  0.50332726  1
  O2-  O350  1  0.49578214  0.32653328  0.84205222  1
  O2-  O351  1  0.50497016  0.81750136  0.17092093  1
  O2-  O352  1  0.49817451  0.81586945  0.50214901  1
  O2-  O353  1  0.50495413  0.81440459  0.82718052  1
  O2-  O354  1  0.83750532  0.32252912  0.16639895  1
  O2-  O355  1  0.83608545  0.30895850  0.49726252  1
  O2-  O356  1  0.83557004  0.31978344  0.82639387  1
  O2-  O357  1  0.83846006  0.82223400  0.15830496  1
  O2-  O358  1  0.83270959  0.81191429  0.49894981  1
  O2-  O359  1  0.82999588  0.82607294  0.83544827  1
  O2-  O360  1  0.10825387  0.08326318  0.11906493  1
  O2-  O361  1  0.06301301  0.08100642  0.44126194  1
  O2-  O362  1  0.05208416  0.06885691  0.78170100  1
  O2-  O363  1  0.08335945  0.58721280  0.09549594  1
  O2-  O364  1  0.07050140  0.55392553  0.44635105  1
  O2-  O365  1  0.10039171  0.58278225  0.78650588  1
  O2-  O366  1  0.39935637  0.08567049  0.11086611  1
  O2-  O367  1  0.41988341  0.08610265  0.45121852  1
  O2-  O368  1  0.43841820  0.07474652  0.77480215  1
  O2-  O369  1  0.43548710  0.57530429  0.11456977  1
  O2-  O370  1  0.42255039  0.57779971  0.45179388  1
  O2-  O371  1  0.40229750  0.58476067  0.76637866  1
  O2-  O372  1  0.74542077  0.08212289  0.11747273  1
  O2-  O373  1  0.74916849  0.09222677  0.45302569  1
  O2-  O374  1  0.75243748  0.07872153  0.78362509  1
  O2-  O375  1  0.74316450  0.58004285  0.11329746  1
  O2-  O376  1  0.72124941  0.58103263  0.43700357  1
  O2-  O377  1  0.74496760  0.57054416  0.79982886  1
  O2-  O378  1  0.25358691  0.08295367  0.23245148  1
  O2-  O379  1  0.24180458  0.08508429  0.56504336  1
  O2-  O380  1  0.25682260  0.07588545  0.86894711  1
  O2-  O381  1  0.23493038  0.57375265  0.21730018  1
  O2-  O382  1  0.26506052  0.58708809  0.55682759  1
  O2-  O383  1  0.24991787  0.58283519  0.87677607  1
  O2-  O384  1  0.57492388  0.07290999  0.21368239  1
  O2-  O385  1  0.58437249  0.07477122  0.58030889  1
  O2-  O386  1  0.60372405  0.08362047  0.88098521  1
  O2-  O387  1  0.61333059  0.58393906  0.21919876  1
  O2-  O388  1  0.57029581  0.57685694  0.55473328  1
  O2-  O389  1  0.57783574  0.58499922  0.86872382  1
  O2-  O390  1  0.93546886  0.07488660  0.21653295  1
  O2-  O391  1  0.91836986  0.08101894  0.56716407  1
  O2-  O392  1  0.90097436  0.07999861  0.87493723  1
  O2-  O393  1  0.90630568  0.58170780  0.20377455  1
  O2-  O394  1  0.84710750  0.54388935  0.51348668  1
  O2-  O395  1  0.91768781  0.58047379  0.88546855  1
  O2-  O396  1  0.08208894  0.41732312  0.11363242  1
  O2-  O397  1  0.07637818  0.41775881  0.44187002  1
  O2-  O398  1  0.06876337  0.41890609  0.78745745  1
  O2-  O399  1  0.11437971  0.92305444  0.10942736  1
  O2-  O400  1  0.09996879  0.91847554  0.45359869  1
  O2-  O401  1  0.08379729  0.91403336  0.77470687  1
  O2-  O402  1  0.40363768  0.41758240  0.11137879  1
  O2-  O403  1  0.42151675  0.41849089  0.45990613  1
  O2-  O404  1  0.42007087  0.42151379  0.77938455  1
  O2-  O405  1  0.42470894  0.91355706  0.11197904  1
  O2-  O406  1  0.41751523  0.92198448  0.45472482  1
  O2-  O407  1  0.41551589  0.91676604  0.78653736  1
  O2-  O408  1  0.76495984  0.41919073  0.10649245  1
  O2-  O409  1  0.75876314  0.41456821  0.45585419  1
  O2-  O410  1  0.75933307  0.42610672  0.78136741  1
  O2-  O411  1  0.71922631  0.91942257  0.10809604  1
  O2-  O412  1  0.74682299  0.91474308  0.42822206  1
  O2-  O413  1  0.75297980  0.92714209  0.77968041  1
  O2-  O414  1  0.25980797  0.42640815  0.21712437  1
  O2-  O415  1  0.22945098  0.42582060  0.55270867  1
  O2-  O416  1  0.24073635  0.42127575  0.88330200  1
  O2-  O417  1  0.24329925  0.91693726  0.22029441  1
  O2-  O418  1  0.26704495  0.91389923  0.55998007  1
  O2-  O419  1  0.25721364  0.91226498  0.87811748  1
  O2-  O420  1  0.56484323  0.42029271  0.21954340  1
  O2-  O421  1  0.57622793  0.41822804  0.56189827  1
  O2-  O422  1  0.59741614  0.42014881  0.88291723  1
  O2-  O423  1  0.58106920  0.92466421  0.21399208  1
  O2-  O424  1  0.56336050  0.91632261  0.55153305  1
  O2-  O425  1  0.58011165  0.91477733  0.88730420  1
  O2-  O426  1  0.91872974  0.42042441  0.23040379  1
  O2-  O427  1  0.93501629  0.41775415  0.55466752  1
  O2-  O428  1  0.91668214  0.42156818  0.87772004  1
  O2-  O429  1  0.91664254  0.93105026  0.20336777  1
  O2-  O430  1  0.91707881  0.91288037  0.55203073  1
  O2-  O431  1  0.90320810  0.91444189  0.90059825  1
  O2-  O432  1  -0.02000352  -0.00649373  0.03551141  1
  O2-  O433  1  0.01206648  -0.01101769  0.31633079  1
  O2-  O434  1  0.01141389  -0.00540772  0.64312451  1
  O2-  O435  1  -0.00562643  0.49323665  0.00645593  1
  O2-  O436  1  -0.00515849  0.50674216  0.35893326  1
  O2-  O437  1  0.00741683  0.50345393  0.66249718  1
  O2-  O438  1  0.32017938  -0.02059984  0.00720643  1
  O2-  O439  1  0.33263851  -0.00314046  0.33644139  1
  O2-  O440  1  0.33010802  -0.00645876  0.68524468  1
  O2-  O441  1  0.33012681  0.49356663  -0.00669568  1
  O2-  O442  1  0.33836425  0.48443556  0.33092536  1
  O2-  O443  1  0.34478871  0.50904876  0.63768091  1
  O2-  O444  1  0.66946964  0.00138336  -0.01204327  1
  O2-  O445  1  0.63189489  0.00110807  0.39240984  1
  O2-  O446  1  0.63141373  0.00317503  0.70870191  1
  O2-  O447  1  0.66979447  0.51560240  -0.01603163  1
  O2-  O448  1  0.68214521  0.49912388  0.32252306  1
  O2-  O449  1  0.68744695  0.52430795  0.65635845  1
  O2-  O450  1  0.15221834  0.01031171  -0.01705368  1
  O2-  O451  1  0.17312206  -0.00067579  0.35197274  1
  O2-  O452  1  0.17956089  0.00204618  0.70683624  1
  O2-  O453  1  0.17111972  0.49372359  0.01022473  1
  O2-  O454  1  0.16355731  0.48256029  0.32901915  1
  O2-  O455  1  0.18303897  0.51282510  0.67790037  1
  O2-  O456  1  0.50703339  -0.00941130  0.01321378  1
  O2-  O457  1  0.48780141  -0.01092939  0.31363431  1
  O2-  O458  1  0.48644248  -0.01710092  0.65211225  1
  O2-  O459  1  0.48928022  0.48991070  -0.02387010  1
  O2-  O460  1  0.50739373  0.49564888  0.34656499  1
  O2-  O461  1  0.49885124  0.51041980  0.66274611  1
  O2-  O462  1  0.81864155  -0.01284850  -0.01770553  1
  O2-  O463  1  0.84755061  0.01297041  0.36682573  1
  O2-  O464  1  0.85513417  0.00644338  0.68389018  1
  O2-  O465  1  0.83030839  0.50355251  -0.01759962  1
  O2-  O466  1  0.83592697  0.50851670  0.33036274  1
  O2-  O467  1  0.84789461  0.51013468  0.69640397  1
  O2-  O468  1  0.73672010  0.25368902  0.39218345  1
  O2-  O469  1  0.26754303  0.74456025  0.25751052  1
  O2-  O470  1  0.08644147  0.25625527  0.39766119  1
  O2-  O471  1  0.09291871  0.25776623  0.72888007  1
  O2-  O472  1  0.91265291  0.75235532  0.60710780  1
  O2-  O473  1  0.41229323  0.74336191  0.06572765  1
  O2-  O474  1  0.41996644  0.25357391  0.38792650  1
  O2-  O475  1  0.08396889  0.24990682  0.05102322  1
  O2-  O476  1  0.25546578  0.25259213  0.94803110  1
  O2-  O477  1  0.24746356  0.74961524  0.61014205  1
  O2-  O478  1  0.24484351  0.25919150  0.27254437  1
  O2-  O479  1  0.42346715  0.25278151  0.04987861  1
  O2-  O480  1  0.91790880  0.24757323  0.95641033  1
  O2-  O481  1  0.24520444  0.25644488  0.60427656  1
  O2-  O482  1  0.75023949  0.24725844  0.05403674  1
  O2-  O483  1  0.58025208  0.74914303  0.94286734  1
  O2-  O484  1  0.91908513  0.74658167  0.26502082  1
  O2-  O485  1  0.74580937  0.74707191  0.72505287  1
  O2-  O486  1  0.08352321  0.74936022  0.71899499  1
  O2-  O487  1  0.92348001  0.25712034  0.26913900  1
  O2-  O488  1  0.91477373  0.75271854  0.92959337  1
  O2-  O489  1  0.40573066  0.25943746  0.74393886  1
  O2-  O490  1  0.57429674  0.25037201  0.95090556  1
  O2-  O491  1  0.58420366  0.25257100  0.27885869  1
  O2-  O492  1  0.59105749  0.75446102  0.60203591  1
