# generated using pymatgen
data_Ca108Mn108O277
_symmetry_space_group_name_H-M   'P 1'
_cell_length_a   16.03566071
_cell_length_b   22.31884968
_cell_length_c   16.39677567
_cell_angle_alpha   89.99215371
_cell_angle_beta   89.99834485
_cell_angle_gamma   89.99497635
_symmetry_Int_Tables_number   1
_chemical_formula_structural   Ca108Mn108O277
_chemical_formula_sum   'Ca108 Mn108 O277'
_cell_volume   5868.36495531
_cell_formula_units_Z   1
loop_
 _symmetry_equiv_pos_site_id
 _symmetry_equiv_pos_as_xyz
  1  'x, y, z'
loop_
 _atom_type_symbol
 _atom_type_oxidation_number
  Ca2+  2.0
  Mn3.34+  3.34
  O2-  -2.0
loop_
 _atom_site_type_symbol
 _atom_site_label
 _atom_site_symmetry_multiplicity
 _atom_site_fract_x
 _atom_site_fract_y
 _atom_site_fract_z
 _atom_site_occupancy
  Ca2+  Ca0  1  0.07129800  0.24954588  0.23997736  1
  Ca2+  Ca1  1  0.09226840  0.24766938  0.57048437  1
  Ca2+  Ca2  1  0.06906418  0.24861054  0.93024321  1
  Ca2+  Ca3  1  0.09817527  0.74434233  0.26279087  1
  Ca2+  Ca4  1  0.07597774  0.73321615  0.57193078  1
  Ca2+  Ca5  1  0.08636934  0.75950944  0.92483694  1
  Ca2+  Ca6  1  0.41839103  0.26710555  0.24724691  1
  Ca2+  Ca7  1  0.40014053  0.24857049  0.58802723  1
  Ca2+  Ca8  1  0.42212775  0.25000300  0.91656459  1
  Ca2+  Ca9  1  0.42238325  0.74991406  0.23561223  1
  Ca2+  Ca10  1  0.40993530  0.75855219  0.59161558  1
  Ca2+  Ca11  1  0.41984229  0.75699589  0.91658891  1
  Ca2+  Ca12  1  0.77113845  0.25505307  0.22545242  1
  Ca2+  Ca13  1  0.76170382  0.25363360  0.59293733  1
  Ca2+  Ca14  1  0.77017973  0.22815760  0.92993312  1
  Ca2+  Ca15  1  0.73694922  0.74722962  0.22835324  1
  Ca2+  Ca16  1  0.78011441  0.74364178  0.58366864  1
  Ca2+  Ca17  1  0.74081225  0.75879021  0.93402464  1
  Ca2+  Ca18  1  0.23330884  0.25856481  0.08219719  1
  Ca2+  Ca19  1  0.24412089  0.25272770  0.43473774  1
  Ca2+  Ca20  1  0.25920316  0.25189638  0.73039223  1
  Ca2+  Ca21  1  0.24512527  0.73987605  0.11835423  1
  Ca2+  Ca22  1  0.22325548  0.74521587  0.40746036  1
  Ca2+  Ca23  1  0.25744126  0.75049282  0.74339382  1
  Ca2+  Ca24  1  0.59861621  0.25475556  0.07624420  1
  Ca2+  Ca25  1  0.57323847  0.26424238  0.41759712  1
  Ca2+  Ca26  1  0.58089971  0.23891987  0.75815303  1
  Ca2+  Ca27  1  0.59578066  0.74279001  0.10874446  1
  Ca2+  Ca28  1  0.59523060  0.75290222  0.39844707  1
  Ca2+  Ca29  1  0.57454760  0.76312457  0.75101392  1
  Ca2+  Ca30  1  0.92460965  0.23783514  0.08025345  1
  Ca2+  Ca31  1  0.94307205  0.24732804  0.39989635  1
  Ca2+  Ca32  1  0.90997208  0.25491016  0.75629832  1
  Ca2+  Ca33  1  0.90448127  0.75392109  0.09261272  1
  Ca2+  Ca34  1  0.93447466  0.75431861  0.43368748  1
  Ca2+  Ca35  1  0.92634080  0.75528033  0.72637201  1
  Ca2+  Ca36  1  0.39146119  0.58111411  0.93138450  1
  Ca2+  Ca37  1  0.12233212  0.59721197  0.26237049  1
  Ca2+  Ca38  1  0.59404197  0.57541988  0.73200807  1
  Ca2+  Ca39  1  0.60704571  0.11414733  0.03582425  1
  Ca2+  Ca40  1  0.58229653  0.57588670  0.73386783  1
  Ca2+  Ca41  1  0.42182774  0.59351408  0.24968907  1
  Ca2+  Ca42  1  0.57695128  0.57582562  0.41123129  1
  Ca2+  Ca43  1  0.95594085  0.59340682  0.43400553  1
  Ca2+  Ca44  1  0.90908544  0.09806397  0.78521095  1
  Ca2+  Ca45  1  0.39180081  0.11410663  0.58513910  1
  Ca2+  Ca46  1  0.41096514  0.08250641  0.26499617  1
  Ca2+  Ca47  1  0.76280436  0.58670513  0.92914779  1
  Ca2+  Ca48  1  0.05509626  0.10433245  0.23750422  1
  Ca2+  Ca49  1  0.11527113  0.57319140  0.93575517  1
  Ca2+  Ca50  1  0.25302447  0.59131585  0.72483390  1
  Ca2+  Ca51  1  0.37904819  0.57813503  0.92806413  1
  Ca2+  Ca52  1  0.22839511  0.09995768  0.08082439  1
  Ca2+  Ca53  1  0.12146218  0.59056810  0.25787437  1
  Ca2+  Ca54  1  0.75451576  0.08812842  0.60497589  1
  Ca2+  Ca55  1  0.22039342  0.61344759  0.43960469  1
  Ca2+  Ca56  1  0.43294838  0.59158503  0.24982461  1
  Ca2+  Ca57  1  0.89898069  0.58821519  0.67406692  1
  Ca2+  Ca58  1  0.39042876  0.59314438  0.58949818  1
  Ca2+  Ca59  1  0.61316129  0.10947820  0.04116584  1
  Ca2+  Ca60  1  0.24940456  0.58830811  0.08280386  1
  Ca2+  Ca61  1  0.59123627  0.59665303  0.08988088  1
  Ca2+  Ca62  1  0.91372107  0.58663403  0.07457474  1
  Ca2+  Ca63  1  0.74306155  0.08731428  0.60485280  1
  Ca2+  Ca64  1  0.58294826  0.59147476  0.09263677  1
  Ca2+  Ca65  1  0.78764982  0.11101152  0.21729052  1
  Ca2+  Ca66  1  0.70666250  0.58748328  0.24957578  1
  Ca2+  Ca67  1  0.93683597  0.09476315  0.39765541  1
  Ca2+  Ca68  1  0.03595702  0.09008074  0.95667819  1
  Ca2+  Ca69  1  0.75153794  0.58335973  0.93323979  1
  Ca2+  Ca70  1  0.91408969  0.09477019  0.77722281  1
  Ca2+  Ca71  1  0.71624511  0.58408906  0.24718721  1
  Ca2+  Ca72  1  0.57977465  0.39972043  0.10028633  1
  Ca2+  Ca73  1  0.90733390  0.91392032  0.06501800  1
  Ca2+  Ca74  1  0.42656195  0.40330064  0.58022689  1
  Ca2+  Ca75  1  0.75165552  0.39151158  0.92050984  1
  Ca2+  Ca76  1  0.91230615  0.39877371  0.08003082  1
  Ca2+  Ca77  1  0.91848197  0.91333427  0.06425493  1
  Ca2+  Ca78  1  0.41400430  0.40194621  0.57802359  1
  Ca2+  Ca79  1  0.07641570  0.91536913  0.25854015  1
  Ca2+  Ca80  1  0.24950208  0.90868016  0.07581592  1
  Ca2+  Ca81  1  0.06333254  0.92186343  0.90853657  1
  Ca2+  Ca82  1  0.58040535  0.42528170  0.37935042  1
  Ca2+  Ca83  1  0.75964164  0.41273996  0.58282128  1
  Ca2+  Ca84  1  0.07110153  0.39783041  0.58461308  1
  Ca2+  Ca85  1  0.57662223  0.90781955  0.07899582  1
  Ca2+  Ca86  1  0.40753971  0.91056042  0.25796458  1
  Ca2+  Ca87  1  0.25373264  0.91606990  0.41179644  1
  Ca2+  Ca88  1  0.92144428  0.40146354  0.41924498  1
  Ca2+  Ca89  1  0.75080445  0.90284058  0.59620120  1
  Ca2+  Ca90  1  0.58707720  0.90939345  0.73995122  1
  Ca2+  Ca91  1  0.07088516  0.91793487  0.58621093  1
  Ca2+  Ca92  1  0.41025324  0.90829428  0.91451036  1
  Ca2+  Ca93  1  0.56467406  0.89916060  0.41861793  1
  Ca2+  Ca94  1  0.76317733  0.90226271  0.59602874  1
  Ca2+  Ca95  1  0.75761738  0.90475224  0.24633703  1
  Ca2+  Ca96  1  0.58795147  0.90875502  0.07954965  1
  Ca2+  Ca97  1  0.08664289  0.40557818  0.24524938  1
  Ca2+  Ca98  1  0.58694634  0.39643744  0.75317333  1
  Ca2+  Ca99  1  0.25686269  0.41612879  0.05143204  1
  Ca2+  Ca100  1  0.24129278  0.91675384  0.41360575  1
  Ca2+  Ca101  1  0.92274646  0.39919984  0.08097676  1
  Ca2+  Ca102  1  0.24464572  0.91140181  0.74044344  1
  Ca2+  Ca103  1  0.06727945  0.91515855  0.59520097  1
  Ca2+  Ca104  1  0.07515951  0.91973942  0.91095768  1
  Ca2+  Ca105  1  0.77155863  0.41004537  0.58094558  1
  Ca2+  Ca106  1  0.08735140  0.91447622  0.25811393  1
  Ca2+  Ca107  1  0.41522286  0.91553032  0.91684927  1
  Mn3.34+  Mn108  1  0.08691353  0.33216823  0.07999467  1
  Mn3.34+  Mn109  1  0.09133381  0.33580568  0.41342716  1
  Mn3.34+  Mn110  1  0.08571025  0.33150062  0.75506721  1
  Mn3.34+  Mn111  1  0.08312401  0.83201287  0.08561691  1
  Mn3.34+  Mn112  1  0.08111422  0.83790273  0.42138507  1
  Mn3.34+  Mn113  1  0.08333098  0.83572300  0.75106606  1
  Mn3.34+  Mn114  1  0.41594662  0.33190741  0.08169800  1
  Mn3.34+  Mn115  1  0.41074585  0.33983098  0.41085728  1
  Mn3.34+  Mn116  1  0.41513850  0.32869278  0.75847976  1
  Mn3.34+  Mn117  1  0.41531709  0.83373019  0.08536232  1
  Mn3.34+  Mn118  1  0.41201784  0.82986620  0.42025428  1
  Mn3.34+  Mn119  1  0.41515020  0.83730595  0.74510243  1
  Mn3.34+  Mn120  1  0.75054808  0.32915779  0.08280229  1
  Mn3.34+  Mn121  1  0.74901885  0.33252172  0.41456031  1
  Mn3.34+  Mn122  1  0.75201054  0.32846638  0.75624863  1
  Mn3.34+  Mn123  1  0.75013207  0.83369370  0.08092283  1
  Mn3.34+  Mn124  1  0.75268437  0.83318941  0.41578257  1
  Mn3.34+  Mn125  1  0.75531069  0.83005288  0.75965454  1
  Mn3.34+  Mn126  1  0.25085361  0.33604275  0.24906425  1
  Mn3.34+  Mn127  1  0.24785502  0.33546300  0.58416875  1
  Mn3.34+  Mn128  1  0.24751568  0.33788922  0.90709115  1
  Mn3.34+  Mn129  1  0.25219344  0.83374884  0.24709445  1
  Mn3.34+  Mn130  1  0.24940246  0.83307739  0.57771512  1
  Mn3.34+  Mn131  1  0.24703548  0.83378095  0.91126728  1
  Mn3.34+  Mn132  1  0.58677168  0.33816249  0.24969166  1
  Mn3.34+  Mn133  1  0.58760425  0.33907548  0.57640519  1
  Mn3.34+  Mn134  1  0.58058396  0.33164005  0.91611542  1
  Mn3.34+  Mn135  1  0.58310242  0.83233196  0.25152976  1
  Mn3.34+  Mn136  1  0.58044389  0.83014242  0.57900023  1
  Mn3.34+  Mn137  1  0.58720520  0.83706592  0.91205936  1
  Mn3.34+  Mn138  1  0.91738334  0.33262536  0.25111667  1
  Mn3.34+  Mn139  1  0.91992065  0.32852733  0.58336935  1
  Mn3.34+  Mn140  1  0.92121818  0.32819201  0.91141911  1
  Mn3.34+  Mn141  1  0.91536110  0.83565790  0.25484563  1
  Mn3.34+  Mn142  1  0.91965171  0.83301993  0.58387133  1
  Mn3.34+  Mn143  1  0.90322040  0.84025565  0.89594952  1
  Mn3.34+  Mn144  1  0.08469997  0.66548966  0.08254611  1
  Mn3.34+  Mn145  1  0.57423786  0.16858222  0.25134306  1
  Mn3.34+  Mn146  1  0.09740754  0.14835037  0.74445202  1
  Mn3.34+  Mn147  1  0.74834348  0.65842329  0.42634091  1
  Mn3.34+  Mn148  1  0.58893479  0.66020914  0.57892184  1
  Mn3.34+  Mn149  1  0.08114938  0.66446569  0.75056418  1
  Mn3.34+  Mn150  1  0.58807219  0.17429189  0.25170593  1
  Mn3.34+  Mn151  1  0.75068654  0.67346150  0.75479081  1
  Mn3.34+  Mn152  1  0.41639513  0.66574756  0.42252509  1
  Mn3.34+  Mn153  1  0.91075985  0.66484175  0.24836289  1
  Mn3.34+  Mn154  1  0.24664318  0.66880321  0.91413221  1
  Mn3.34+  Mn155  1  0.92471313  0.66567029  0.91052052  1
  Mn3.34+  Mn156  1  0.73999736  0.16991695  0.42112460  1
  Mn3.34+  Mn157  1  0.24522626  0.16293515  0.25266910  1
  Mn3.34+  Mn158  1  0.09055797  0.15145951  0.42385307  1
  Mn3.34+  Mn159  1  0.75205512  0.17710905  0.41811961  1
  Mn3.34+  Mn160  1  0.41361678  0.66849580  0.08511679  1
  Mn3.34+  Mn161  1  0.42065566  0.16492073  0.42309493  1
  Mn3.34+  Mn162  1  0.41055763  0.67056212  0.75174782  1
  Mn3.34+  Mn163  1  0.58515445  0.67036020  0.91427687  1
  Mn3.34+  Mn164  1  0.41600484  0.16557392  0.08757250  1
  Mn3.34+  Mn165  1  0.24644702  0.16849499  0.91399231  1
  Mn3.34+  Mn166  1  0.08940222  0.67121784  0.74953938  1
  Mn3.34+  Mn167  1  0.91616227  0.67173423  0.91350496  1
  Mn3.34+  Mn168  1  0.92225503  0.16560486  0.57880414  1
  Mn3.34+  Mn169  1  0.57594438  0.66620489  0.58285161  1
  Mn3.34+  Mn170  1  0.08932331  0.15494921  0.74343256  1
  Mn3.34+  Mn171  1  0.75868228  0.66239389  0.42221566  1
  Mn3.34+  Mn172  1  0.25646668  0.17160476  0.25435278  1
  Mn3.34+  Mn173  1  0.40899766  0.67634723  0.41851179  1
  Mn3.34+  Mn174  1  0.42210934  0.16743994  0.75355003  1
  Mn3.34+  Mn175  1  0.74485463  0.17004368  0.75967929  1
  Mn3.34+  Mn176  1  0.57984408  0.17133816  0.57999348  1
  Mn3.34+  Mn177  1  0.25663363  0.16421747  0.91166518  1
  Mn3.34+  Mn178  1  0.57648640  0.66358213  0.91161453  1
  Mn3.34+  Mn179  1  0.92027199  0.65955832  0.24522761  1
  Mn3.34+  Mn180  1  0.57636536  0.00598715  0.24825485  1
  Mn3.34+  Mn181  1  0.58756096  0.00043400  0.91144071  1
  Mn3.34+  Mn182  1  0.76080393  0.00720657  0.41353238  1
  Mn3.34+  Mn183  1  0.39598744  0.48864475  0.75838771  1
  Mn3.34+  Mn184  1  0.75098642  0.00177264  0.06197883  1
  Mn3.34+  Mn185  1  0.26626573  0.48837076  0.25831747  1
  Mn3.34+  Mn186  1  0.08342824  0.50016666  0.07957087  1
  Mn3.34+  Mn187  1  0.40442632  0.49523620  0.76168451  1
  Mn3.34+  Mn188  1  0.41722418  0.00060361  0.42252063  1
  Mn3.34+  Mn189  1  0.41767888  0.49631744  0.08349430  1
  Mn3.34+  Mn190  1  0.74746417  -0.00121448  0.75910868  1
  Mn3.34+  Mn191  1  0.55545229  0.00677972  0.58150727  1
  Mn3.34+  Mn192  1  0.57637296  0.49492980  0.92342182  1
  Mn3.34+  Mn193  1  0.24154444  0.49800274  0.58069590  1
  Mn3.34+  Mn194  1  0.75023196  0.50201222  0.41489034  1
  Mn3.34+  Mn195  1  0.76185116  0.49689861  0.75469590  1
  Mn3.34+  Mn196  1  0.77518113  0.49263077  0.75175872  1
  Mn3.34+  Mn197  1  0.74772511  0.00051338  0.41553896  1
  Mn3.34+  Mn198  1  0.91417504  0.00376739  0.58221442  1
  Mn3.34+  Mn199  1  0.40866354  0.50109318  0.40812307  1
  Mn3.34+  Mn200  1  0.74925908  0.49570409  0.08241626  1
  Mn3.34+  Mn201  1  0.09128804  0.49321182  0.40809055  1
  Mn3.34+  Mn202  1  0.92460154  0.49737008  0.91097553  1
  Mn3.34+  Mn203  1  0.08807900  -0.00042174  0.08092573  1
  Mn3.34+  Mn204  1  0.91268006  0.49935656  0.25905804  1
  Mn3.34+  Mn205  1  0.56911704  0.00827995  0.58114769  1
  Mn3.34+  Mn206  1  0.41504798  0.00459868  0.07516254  1
  Mn3.34+  Mn207  1  0.07415921  0.50092600  0.74996434  1
  Mn3.34+  Mn208  1  0.24175312  0.01312573  0.59107375  1
  Mn3.34+  Mn209  1  0.59120044  0.00141695  0.24499586  1
  Mn3.34+  Mn210  1  0.91770123  0.00325133  0.24787456  1
  Mn3.34+  Mn211  1  0.25305908  0.00664600  0.58915990  1
  Mn3.34+  Mn212  1  0.25091448  0.00072437  0.91327552  1
  Mn3.34+  Mn213  1  0.24652815  0.00353630  0.25298281  1
  Mn3.34+  Mn214  1  0.41510879  0.00687660  0.75159025  1
  Mn3.34+  Mn215  1  0.08408046  0.49567523  0.74903264  1
  O2-  O216  1  -0.01071049  0.17499839  -0.00354598  1
  O2-  O217  1  0.01378298  0.16625158  0.34052220  1
  O2-  O218  1  0.00393612  0.14518516  0.66772829  1
  O2-  O219  1  0.00958117  0.64872759  -0.01030302  1
  O2-  O220  1  0.00455788  0.64360028  0.31734176  1
  O2-  O221  1  0.00389197  0.65403399  0.67054887  1
  O2-  O222  1  0.32899301  0.15691345  0.00500453  1
  O2-  O223  1  0.34356112  0.16023855  0.32810760  1
  O2-  O224  1  0.33619889  0.16824361  0.67749098  1
  O2-  O225  1  0.33047999  0.65501493  0.00086258  1
  O2-  O226  1  0.33894646  0.65525445  0.33335358  1
  O2-  O227  1  0.33489906  0.66753662  0.67111760  1
  O2-  O228  1  0.66439142  0.18896853  -0.00428268  1
  O2-  O229  1  0.66879478  0.15114034  0.33558945  1
  O2-  O230  1  0.67267706  0.16581288  0.65778587  1
  O2-  O231  1  0.66689126  0.64788666  -0.00308714  1
  O2-  O232  1  0.66174961  0.64703706  0.35043733  1
  O2-  O233  1  0.66632057  0.64945703  0.67568593  1
  O2-  O234  1  0.16091938  0.15682467  -0.01458421  1
  O2-  O235  1  0.17219497  0.14448632  0.33562876  1
  O2-  O236  1  0.15934356  0.19012978  0.66741415  1
  O2-  O237  1  0.17047119  0.65524533  0.00185040  1
  O2-  O238  1  0.16580641  0.66376253  0.33183323  1
  O2-  O239  1  0.17540908  0.66580217  0.67541336  1
  O2-  O240  1  0.50233011  0.17716279  0.01661781  1
  O2-  O241  1  0.50088349  0.17060559  0.33716929  1
  O2-  O242  1  0.50011440  0.16863781  0.66135933  1
  O2-  O243  1  0.49193305  0.64154926  -0.00570085  1
  O2-  O244  1  0.49704736  0.65807713  0.33839459  1
  O2-  O245  1  0.49985017  0.63991382  0.66744512  1
  O2-  O246  1  0.84583693  0.15919169  0.01426831  1
  O2-  O247  1  0.83156565  0.16175456  0.34163296  1
  O2-  O248  1  0.83911283  0.15078080  0.66513421  1
  O2-  O249  1  0.84002735  0.65674593  0.00148749  1
  O2-  O250  1  0.82426989  0.63630856  0.32507646  1
  O2-  O251  1  0.83283363  0.68173459  0.68108595  1
  O2-  O252  1  -0.00032178  0.34135806  0.00019069  1
  O2-  O253  1  0.00238609  0.34692557  0.33047241  1
  O2-  O254  1  0.00449462  0.33027427  0.66236177  1
  O2-  O255  1  -0.00089934  0.84165935  0.00220380  1
  O2-  O256  1  0.00147426  0.85741921  0.33678403  1
  O2-  O257  1  -0.00359410  0.85382708  0.67195153  1
  O2-  O258  1  0.33326720  0.32986042  0.00395966  1
  O2-  O259  1  0.33179898  0.31678304  0.33597517  1
  O2-  O260  1  0.34122652  0.34461700  0.66443850  1
  O2-  O261  1  0.33265829  0.84528142  -0.00415206  1
  O2-  O262  1  0.32781715  0.84738045  0.33705001  1
  O2-  O263  1  0.32217156  0.82874994  0.66814557  1
  O2-  O264  1  0.66229537  0.33764554  0.00409503  1
  O2-  O265  1  0.65919839  0.34102963  0.34393094  1
  O2-  O266  1  0.67292974  0.34654190  0.65980638  1
  O2-  O267  1  0.66486715  0.85002406  -0.00009250  1
  O2-  O268  1  0.66009624  0.85315635  0.33764633  1
  O2-  O269  1  0.66957768  0.83507601  0.66562186  1
  O2-  O270  1  0.17087919  0.34188120  0.00405016  1
  O2-  O271  1  0.16975362  0.35631677  0.33209457  1
  O2-  O272  1  0.16387385  0.33617405  0.66434592  1
  O2-  O273  1  0.15884284  0.85090911  -0.01104267  1
  O2-  O274  1  0.16630925  0.85067923  0.33358545  1
  O2-  O275  1  0.16169100  0.84991453  0.65695509  1
  O2-  O276  1  0.50239768  0.31214157  0.00037834  1
  O2-  O277  1  0.49817461  0.33229102  0.33483436  1
  O2-  O278  1  0.50536157  0.34058811  0.66193006  1
  O2-  O279  1  0.49636537  0.85553914  -0.00315396  1
  O2-  O280  1  0.48955314  0.83544825  0.32665459  1
  O2-  O281  1  0.50288671  0.84716976  0.66645880  1
  O2-  O282  1  0.83684374  0.33451785  0.00228844  1
  O2-  O283  1  0.83755996  0.33031726  0.33837082  1
  O2-  O284  1  0.83110773  0.34509118  0.66622346  1
  O2-  O285  1  0.83602275  0.83649268  -0.00263666  1
  O2-  O286  1  0.82678956  0.84418435  0.32771625  1
  O2-  O287  1  0.83104513  0.82924983  0.66710145  1
  O2-  O288  1  -0.00458821  0.18042704  0.16985093  1
  O2-  O289  1  -0.00255664  0.17718305  0.49448543  1
  O2-  O290  1  0.00471900  0.17878264  0.81689079  1
  O2-  O291  1  -0.01021485  0.67883631  0.15056351  1
  O2-  O292  1  0.00327119  0.67595426  0.48987630  1
  O2-  O293  1  0.00010220  0.69202877  0.82867368  1
  O2-  O294  1  0.32639887  0.18816059  0.16350291  1
  O2-  O295  1  0.34246929  0.18791795  0.49129322  1
  O2-  O296  1  0.33484791  0.18076101  0.83712701  1
  O2-  O297  1  0.34242449  0.67461120  0.16907447  1
  O2-  O298  1  0.33089874  0.68705044  0.49882839  1
  O2-  O299  1  0.33234846  0.69269177  0.84396628  1
  O2-  O300  1  0.66304952  0.17098784  0.16758127  1
  O2-  O301  1  0.66474833  0.19744921  0.49830786  1
  O2-  O302  1  0.67121997  0.18457607  0.83218917  1
  O2-  O303  1  0.66171570  0.66053360  0.17146553  1
  O2-  O304  1  0.66685734  0.69251945  0.50371347  1
  O2-  O305  1  0.66347956  0.69203451  0.82978878  1
  O2-  O306  1  0.16629043  0.17030538  0.17173271  1
  O2-  O307  1  0.16079253  0.17977602  0.49229063  1
  O2-  O308  1  0.16982077  0.18122657  0.82475765  1
  O2-  O309  1  0.15660168  0.67097728  0.16924159  1
  O2-  O310  1  0.16940589  0.68867578  0.50382733  1
  O2-  O311  1  0.16067165  0.68931281  0.83730994  1
  O2-  O312  1  0.49113991  0.19284483  0.17291111  1
  O2-  O313  1  0.50039745  0.19484992  0.50149255  1
  O2-  O314  1  0.49462710  0.18753568  0.83321510  1
  O2-  O315  1  0.50031331  0.67025072  0.15815443  1
  O2-  O316  1  0.49820708  0.69221322  0.49560045  1
  O2-  O317  1  0.49895031  0.67329801  0.82694201  1
  O2-  O318  1  0.84122903  0.18350518  0.15621265  1
  O2-  O319  1  0.82787098  0.18942448  0.50154177  1
  O2-  O320  1  0.83588238  0.17544389  0.82573220  1
  O2-  O321  1  0.83144588  0.68052974  0.17211701  1
  O2-  O322  1  0.84357288  0.67846720  0.49176675  1
  O2-  O323  1  0.81743395  0.68078833  0.85074466  1
  O2-  O324  1  -0.00296033  0.33098660  0.16260324  1
  O2-  O325  1  -0.00321684  0.31918207  0.49674160  1
  O2-  O326  1  0.00115829  0.31098841  0.83142853  1
  O2-  O327  1  -0.00334962  0.82572534  0.16756983  1
  O2-  O328  1  0.00741074  0.83656400  0.50920270  1
  O2-  O329  1  0.00583024  0.82174643  0.84048487  1
  O2-  O330  1  0.33105934  0.31506281  0.16311237  1
  O2-  O331  1  0.34080874  0.32809261  0.50282210  1
  O2-  O332  1  0.33362633  0.31557199  0.83413581  1
  O2-  O333  1  0.33623725  0.81792643  0.16723078  1
  O2-  O334  1  0.32904893  0.80810168  0.49699777  1
  O2-  O335  1  0.33648330  0.81968184  0.83825875  1
  O2-  O336  1  0.66884495  0.32679049  0.16532111  1
  O2-  O337  1  0.66913354  0.31306606  0.50339593  1
  O2-  O338  1  0.66340560  0.31444020  0.82948788  1
  O2-  O339  1  0.66721270  0.83348474  0.16534015  1
  O2-  O340  1  0.67089242  0.82220276  0.50225779  1
  O2-  O341  1  0.66787061  0.81311007  0.83221331  1
  O2-  O342  1  0.16027324  0.32813994  0.17013383  1
  O2-  O343  1  0.16147813  0.33111882  0.50581492  1
  O2-  O344  1  0.16756534  0.30873483  0.83066502  1
  O2-  O345  1  0.16389797  0.82689848  0.17007648  1
  O2-  O346  1  0.17093863  0.82042247  0.49458485  1
  O2-  O347  1  0.17030811  0.81065229  0.82868286  1
  O2-  O348  1  0.50656787  0.31941400  0.16150700  1
  O2-  O349  1  0.49617961  0.31987059  0.50654923  1
  O2-  O350  1  0.50486948  0.31372989  0.83063628  1
  O2-  O351  1  0.50945710  0.82157236  0.15792301  1
  O2-  O352  1  0.50390313  0.81216954  0.48819627  1
  O2-  O353  1  0.49554348  0.82883158  0.83915607  1
  O2-  O354  1  0.84127677  0.33079034  0.15991732  1
  O2-  O355  1  0.82732524  0.32024633  0.50405028  1
  O2-  O356  1  0.82785446  0.31739147  0.84099198  1
  O2-  O357  1  0.83335415  0.82618846  0.16254238  1
  O2-  O358  1  0.83133039  0.82217671  0.50662253  1
  O2-  O359  1  0.83461753  0.79205132  0.83015940  1
  O2-  O360  1  0.09377928  0.07568236  0.10422991  1
  O2-  O361  1  0.07093449  0.07705765  0.43341256  1
  O2-  O362  1  0.06611971  0.07431590  0.78713791  1
  O2-  O363  1  0.08315163  0.57926108  0.11999305  1
  O2-  O364  1  0.09563882  0.56901154  0.43620662  1
  O2-  O365  1  0.08962918  0.57990565  0.79752572  1
  O2-  O366  1  0.43163772  0.07978834  0.12624125  1
  O2-  O367  1  0.43210076  0.07965075  0.45280841  1
  O2-  O368  1  0.42738755  0.08474040  0.76231739  1
  O2-  O369  1  0.41528311  0.57888299  0.11640365  1
  O2-  O370  1  0.42415376  0.58247659  0.45771718  1
  O2-  O371  1  0.40166634  0.57951495  0.79109908  1
  O2-  O372  1  0.71280534  0.06791083  0.11675029  1
  O2-  O373  1  0.74814092  0.08485930  0.46070959  1
  O2-  O374  1  0.76016759  0.08325659  0.76039808  1
  O2-  O375  1  0.74806349  0.57345988  0.11889556  1
  O2-  O376  1  0.74041389  0.57909522  0.46435077  1
  O2-  O377  1  0.74951256  0.57940082  0.78882861  1
  O2-  O378  1  0.27389806  0.08373019  0.21589669  1
  O2-  O379  1  0.26164899  0.08600221  0.55201336  1
  O2-  O380  1  0.24686471  0.08266351  0.89808908  1
  O2-  O381  1  0.24804212  0.56337204  0.20858274  1
  O2-  O382  1  0.25878952  0.57407571  0.55555563  1
  O2-  O383  1  0.25439940  0.58149768  0.87461708  1
  O2-  O384  1  0.56101888  0.08592760  0.23365768  1
  O2-  O385  1  0.60776326  0.08405841  0.54962642  1
  O2-  O386  1  0.58667704  0.07933354  0.91452454  1
  O2-  O387  1  0.56967583  0.56597875  0.21651360  1
  O2-  O388  1  0.57716949  0.58092993  0.55258005  1
  O2-  O389  1  0.60547691  0.57503079  0.86584904  1
  O2-  O390  1  0.91558079  0.08162327  0.24395733  1
  O2-  O391  1  0.89033211  0.08109132  0.54346644  1
  O2-  O392  1  0.92652523  0.05840265  0.89230130  1
  O2-  O393  1  0.91095499  0.57692170  0.20808720  1
  O2-  O394  1  0.91746071  0.57228088  0.55149606  1
  O2-  O395  1  0.89803281  0.58104761  0.87547341  1
  O2-  O396  1  0.06232591  0.42133555  0.10295036  1
  O2-  O397  1  0.06597190  0.41997349  0.44920047  1
  O2-  O398  1  0.07640575  0.41594855  0.77089826  1
  O2-  O399  1  0.08138111  0.92283221  0.12293362  1
  O2-  O400  1  0.10968223  0.92296031  0.46116881  1
  O2-  O401  1  0.09827908  0.91620001  0.78040575  1
  O2-  O402  1  0.43488476  0.41679276  0.08860626  1
  O2-  O403  1  0.43753262  0.42588239  0.44776260  1
  O2-  O404  1  0.43628671  0.41171446  0.77251402  1
  O2-  O405  1  0.42727516  0.92170739  0.12271168  1
  O2-  O406  1  0.40738613  0.91869028  0.44513293  1
  O2-  O407  1  0.40358024  0.92440588  0.78177005  1
  O2-  O408  1  0.76840332  0.41509705  0.08017535  1
  O2-  O409  1  0.74693772  0.42239294  0.44803481  1
  O2-  O410  1  0.74739434  0.41250602  0.78412739  1
  O2-  O411  1  0.75193513  0.92346873  0.10833283  1
  O2-  O412  1  0.75198328  0.92570950  0.46378441  1
  O2-  O413  1  0.73815734  0.91601109  0.75299369  1
  O2-  O414  1  0.25001263  0.41885849  0.20458965  1
  O2-  O415  1  0.27437154  0.42066551  0.56190295  1
  O2-  O416  1  0.25513859  0.41530427  0.90558217  1
  O2-  O417  1  0.26024618  0.92137045  0.21112473  1
  O2-  O418  1  0.26199945  0.92761662  0.54628550  1
  O2-  O419  1  0.25509579  0.92174440  0.87540614  1
  O2-  O420  1  0.58123154  0.41644262  0.23653454  1
  O2-  O421  1  0.58222581  0.41785995  0.55221812  1
  O2-  O422  1  0.60160237  0.41693128  0.88912942  1
  O2-  O423  1  0.58187989  0.92014233  0.21743279  1
  O2-  O424  1  0.59489319  0.92527138  0.54724766  1
  O2-  O425  1  0.57757794  0.92200027  0.87323284  1
  O2-  O426  1  0.92138150  0.42151822  0.22028728  1
  O2-  O427  1  0.90719160  0.41144416  0.55513831  1
  O2-  O428  1  0.90142439  0.41518047  0.91756945  1
  O2-  O429  1  0.91374637  0.92606438  0.20355016  1
  O2-  O430  1  0.90015559  0.92055623  0.56564495  1
  O2-  O431  1  0.92873994  0.91950458  0.90784645  1
  O2-  O432  1  0.00857687  -0.01876795  0.00633674  1
  O2-  O433  1  0.02232815  0.00153520  0.28993084  1
  O2-  O434  1  0.00636977  0.00021926  0.63736583  1
  O2-  O435  1  -0.00203932  0.51547326  0.00592717  1
  O2-  O436  1  0.00119540  0.50429543  0.33453273  1
  O2-  O437  1  -0.01100502  0.50796957  0.67682351  1
  O2-  O438  1  0.33208351  -0.02220862  -0.00423868  1
  O2-  O439  1  0.33535974  -0.00635965  0.33521230  1
  O2-  O440  1  0.32270943  -0.00305038  0.67955156  1
  O2-  O441  1  0.32971536  0.51383308  0.01262018  1
  O2-  O442  1  0.33817489  0.53127456  0.32725052  1
  O2-  O443  1  0.33593232  0.50746809  0.65973063  1
  O2-  O444  1  0.64560245  -0.00988085  0.01787928  1
  O2-  O445  1  0.66698908  0.00153656  0.33204197  1
  O2-  O446  1  0.66550476  0.00458836  0.65849032  1
  O2-  O447  1  0.66230024  0.52143216  0.00639216  1
  O2-  O448  1  0.66344347  0.51538033  0.34124710  1
  O2-  O449  1  0.65378418  0.49407046  0.69939885  1
  O2-  O450  1  0.16432575  -0.01696716  -0.00607413  1
  O2-  O451  1  0.17062206  -0.02889925  0.32931602  1
  O2-  O452  1  0.15924650  -0.02061835  0.65496569  1
  O2-  O453  1  0.17635423  0.50758615  0.02370039  1
  O2-  O454  1  0.16097008  0.49964575  0.31331048  1
  O2-  O455  1  0.17011840  0.51328125  0.67379383  1
  O2-  O456  1  0.49569301  -0.02300153  -0.01142494  1
  O2-  O457  1  0.49911841  -0.01384662  0.33201877  1
  O2-  O458  1  0.50330982  -0.01380091  0.67871403  1
  O2-  O459  1  0.49602200  0.52731551  0.00004175  1
  O2-  O460  1  0.49333733  0.51266177  0.34387643  1
  O2-  O461  1  0.49652380  0.51069581  0.68802530  1
  O2-  O462  1  0.85684449  0.00179169  0.04061487  1
  O2-  O463  1  0.82798288  -0.00737604  0.32139642  1
  O2-  O464  1  0.81582079  0.00048968  0.64512991  1
  O2-  O465  1  0.83026176  0.51638685  -0.00245926  1
  O2-  O466  1  0.83026794  0.51484715  0.33525564  1
  O2-  O467  1  0.81221243  0.49581523  0.64344513  1
  O2-  O468  1  0.24668045  0.75578328  0.26542206  1
  O2-  O469  1  0.07489997  0.75438530  0.71510638  1
  O2-  O470  1  0.41262959  0.25166880  0.72806160  1
  O2-  O471  1  0.09038750  0.74709331  0.06144176  1
  O2-  O472  1  0.57203272  0.75312635  0.95299452  1
  O2-  O473  1  0.43291333  0.75300403  0.72974540  1
  O2-  O474  1  0.22526485  0.24975223  0.27240448  1
  O2-  O475  1  0.09429109  0.25702561  0.39471664  1
  O2-  O476  1  0.74978347  0.74232506  0.38243246  1
  O2-  O477  1  0.07256726  0.75974985  0.39651194  1
  O2-  O478  1  0.93101244  0.75416311  0.58842500  1
  O2-  O479  1  0.75846046  0.24992681  0.72705904  1
  O2-  O480  1  0.92150191  0.25356373  0.25936748  1
  O2-  O481  1  0.25351203  0.25682773  0.58696443  1
  O2-  O482  1  0.08594743  0.25336065  0.07360356  1
  O2-  O483  1  0.75559072  0.25111032  0.08054312  1
  O2-  O484  1  0.60064139  0.25379511  0.27382742  1
  O2-  O485  1  0.57757105  0.74296695  0.61821173  1
  O2-  O486  1  0.91513510  0.24601002  0.61261305  1
  O2-  O487  1  0.59296205  0.75343032  0.26115041  1
  O2-  O488  1  0.92481921  0.74627049  0.27709837  1
  O2-  O489  1  0.91866265  0.24945475  0.93422532  1
  O2-  O490  1  0.24895408  0.24842979  0.94017862  1
  O2-  O491  1  0.42202678  0.74859208  0.05710607  1
  O2-  O492  1  0.74106286  0.75436031  0.07246767  1
