# generated using pymatgen
data_Ca108Mn108O277
_symmetry_space_group_name_H-M   'P 1'
_cell_length_a   16.01576718
_cell_length_b   22.28979036
_cell_length_c   16.38003165
_cell_angle_alpha   89.99853208
_cell_angle_beta   89.99854888
_cell_angle_gamma   90.00154366
_symmetry_Int_Tables_number   1
_chemical_formula_structural   Ca108Mn108O277
_chemical_formula_sum   'Ca108 Mn108 O277'
_cell_volume   5847.47625116
_cell_formula_units_Z   1
loop_
 _symmetry_equiv_pos_site_id
 _symmetry_equiv_pos_as_xyz
  1  'x, y, z'
loop_
 _atom_type_symbol
 _atom_type_oxidation_number
  Ca2+  2.0
  Mn3.34+  3.34
  O2-  -2.0
loop_
 _atom_site_type_symbol
 _atom_site_label
 _atom_site_symmetry_multiplicity
 _atom_site_fract_x
 _atom_site_fract_y
 _atom_site_fract_z
 _atom_site_occupancy
  Ca2+  Ca0  1  0.07999335  0.24116881  0.23622730  1
  Ca2+  Ca1  1  0.07138589  0.24819614  0.57653941  1
  Ca2+  Ca2  1  0.08099949  0.23751361  0.92965085  1
  Ca2+  Ca3  1  0.08191902  0.76184718  0.23819359  1
  Ca2+  Ca4  1  0.10104575  0.75919240  0.56661752  1
  Ca2+  Ca5  1  0.10182387  0.75808648  0.93292801  1
  Ca2+  Ca6  1  0.42409282  0.22401705  0.23731591  1
  Ca2+  Ca7  1  0.42425794  0.25582946  0.58419435  1
  Ca2+  Ca8  1  0.41454001  0.23849419  0.94254030  1
  Ca2+  Ca9  1  0.42965426  0.75135104  0.24003736  1
  Ca2+  Ca10  1  0.40287010  0.74999676  0.59385906  1
  Ca2+  Ca11  1  0.41454826  0.74796734  0.92118696  1
  Ca2+  Ca12  1  0.74782175  0.25392677  0.24738387  1
  Ca2+  Ca13  1  0.75588045  0.24398439  0.59467594  1
  Ca2+  Ca14  1  0.76359456  0.23542923  0.89893577  1
  Ca2+  Ca15  1  0.73913669  0.75522527  0.22732413  1
  Ca2+  Ca16  1  0.74456502  0.76754440  0.58000988  1
  Ca2+  Ca17  1  0.73259551  0.75473260  0.93970398  1
  Ca2+  Ca18  1  0.26140788  0.24157164  0.07764733  1
  Ca2+  Ca19  1  0.24815876  0.25333990  0.41694070  1
  Ca2+  Ca20  1  0.25415300  0.24917917  0.75824817  1
  Ca2+  Ca21  1  0.25442435  0.74297924  0.05821452  1
  Ca2+  Ca22  1  0.25714325  0.75132808  0.42412829  1
  Ca2+  Ca23  1  0.26939998  0.74546299  0.77397178  1
  Ca2+  Ca24  1  0.56960926  0.24328707  0.09954400  1
  Ca2+  Ca25  1  0.58617748  0.25078243  0.40175211  1
  Ca2+  Ca26  1  0.60825851  0.24217429  0.74338795  1
  Ca2+  Ca27  1  0.59221173  0.74695462  0.06922511  1
  Ca2+  Ca28  1  0.58023484  0.74824794  0.40274026  1
  Ca2+  Ca29  1  0.56919180  0.74770296  0.78204546  1
  Ca2+  Ca30  1  0.92353455  0.24349996  0.08478350  1
  Ca2+  Ca31  1  0.91569880  0.25375281  0.40917239  1
  Ca2+  Ca32  1  0.90009428  0.24131267  0.74431255  1
  Ca2+  Ca33  1  0.90502996  0.75407754  0.07777057  1
  Ca2+  Ca34  1  0.91447883  0.76221186  0.40281341  1
  Ca2+  Ca35  1  0.90486218  0.76546078  0.75928594  1
  Ca2+  Ca36  1  0.75829770  0.08499812  0.61241624  1
  Ca2+  Ca37  1  0.88207674  0.09853329  0.77330259  1
  Ca2+  Ca38  1  0.43129285  0.58671229  0.26649095  1
  Ca2+  Ca39  1  0.74374064  0.58639446  0.57577428  1
  Ca2+  Ca40  1  0.08266232  0.59739933  0.57473686  1
  Ca2+  Ca41  1  0.90534123  0.58939641  0.75444299  1
  Ca2+  Ca42  1  0.26417397  0.09834468  0.39514066  1
  Ca2+  Ca43  1  0.75153775  0.09783348  0.25178027  1
  Ca2+  Ca44  1  0.58057513  0.09923254  0.40543986  1
  Ca2+  Ca45  1  0.73118820  0.59912383  0.93239475  1
  Ca2+  Ca46  1  0.24219502  0.09107490  0.76414635  1
  Ca2+  Ca47  1  0.89177064  0.09869841  0.77617577  1
  Ca2+  Ca48  1  0.59028164  0.10268543  0.40233218  1
  Ca2+  Ca49  1  0.40622130  0.07564789  0.95406571  1
  Ca2+  Ca50  1  0.27556124  0.09709366  0.39431393  1
  Ca2+  Ca51  1  0.42000189  0.08776020  0.57434003  1
  Ca2+  Ca52  1  0.90255801  0.08963353  0.41982364  1
  Ca2+  Ca53  1  0.74212136  0.59093395  0.24168346  1
  Ca2+  Ca54  1  0.42868097  0.08892698  0.58144423  1
  Ca2+  Ca55  1  0.73867726  0.59870620  0.94899722  1
  Ca2+  Ca56  1  0.92005439  0.59417728  0.76245046  1
  Ca2+  Ca57  1  0.06979729  0.58534279  0.25404467  1
  Ca2+  Ca58  1  0.91483785  0.58211462  0.40001564  1
  Ca2+  Ca59  1  0.25607559  0.10338091  0.09217158  1
  Ca2+  Ca60  1  0.55445106  0.09874344  0.09231726  1
  Ca2+  Ca61  1  0.75306652  0.59004375  0.23923191  1
  Ca2+  Ca62  1  0.26780312  0.59026029  0.41754915  1
  Ca2+  Ca63  1  0.06080555  0.10216749  0.93121261  1
  Ca2+  Ca64  1  0.73124175  0.58586444  0.57770176  1
  Ca2+  Ca65  1  0.93707703  0.09687370  0.06940005  1
  Ca2+  Ca66  1  0.57722369  0.59963641  0.08328281  1
  Ca2+  Ca67  1  0.58574300  0.60259283  0.07897186  1
  Ca2+  Ca68  1  0.25470546  0.09009135  0.76506684  1
  Ca2+  Ca69  1  0.42189537  0.60846501  0.91239861  1
  Ca2+  Ca70  1  0.10109036  0.60741616  0.92595330  1
  Ca2+  Ca71  1  0.10077922  0.59719780  0.57574434  1
  Ca2+  Ca72  1  0.90948917  0.39951436  0.10448691  1
  Ca2+  Ca73  1  0.59836079  0.91235530  0.07309263  1
  Ca2+  Ca74  1  0.07639316  0.39413827  0.92378257  1
  Ca2+  Ca75  1  0.88950820  0.92624508  0.75701646  1
  Ca2+  Ca76  1  0.58885760  0.91142329  0.76439778  1
  Ca2+  Ca77  1  0.59075333  0.40222061  0.08505329  1
  Ca2+  Ca78  1  0.06974711  0.90890142  0.24451698  1
  Ca2+  Ca79  1  0.58009261  0.40148779  0.74814965  1
  Ca2+  Ca80  1  0.90375036  0.39608043  0.75627847  1
  Ca2+  Ca81  1  0.05918373  0.90824623  0.59105298  1
  Ca2+  Ca82  1  0.42908527  0.40505287  0.25578650  1
  Ca2+  Ca83  1  0.74738039  0.40075968  0.92423160  1
  Ca2+  Ca84  1  0.90977522  0.41441897  0.37950370  1
  Ca2+  Ca85  1  0.43095899  0.40732901  0.57492435  1
  Ca2+  Ca86  1  0.91513454  0.91274527  0.41172060  1
  Ca2+  Ca87  1  0.57421006  0.91047900  0.41998616  1
  Ca2+  Ca88  1  0.58693629  0.90978508  0.42089541  1
  Ca2+  Ca89  1  0.58787215  0.91237418  0.07324190  1
  Ca2+  Ca90  1  0.26338132  0.90989368  0.41350380  1
  Ca2+  Ca91  1  0.41664161  0.90409288  0.24153553  1
  Ca2+  Ca92  1  0.42804670  0.91168041  0.60187652  1
  Ca2+  Ca93  1  0.76667237  0.92332101  0.60753861  1
  Ca2+  Ca94  1  0.26829218  0.92312099  0.04941942  1
  Ca2+  Ca95  1  0.08198898  0.39449952  0.57526466  1
  Ca2+  Ca96  1  0.24956059  0.39270277  0.08817622  1
  Ca2+  Ca97  1  0.42709237  0.40247639  0.92279374  1
  Ca2+  Ca98  1  0.91650850  0.39657014  0.75531072  1
  Ca2+  Ca99  1  0.41998893  0.91123858  0.59414007  1
  Ca2+  Ca100  1  0.58990614  0.40272000  0.41617731  1
  Ca2+  Ca101  1  0.24606277  0.90670890  0.41787024  1
  Ca2+  Ca102  1  0.25610033  0.40060655  0.41240321  1
  Ca2+  Ca103  1  0.26808206  0.40076668  0.75249840  1
  Ca2+  Ca104  1  0.26839846  0.90959621  0.77603873  1
  Ca2+  Ca105  1  0.41771134  0.40485637  0.25585311  1
  Ca2+  Ca106  1  0.25602891  0.40074546  0.75177604  1
  Ca2+  Ca107  1  0.25774772  0.92290536  0.04982203  1
  Mn3.34+  Mn108  1  0.08379337  0.32618508  0.08824779  1
  Mn3.34+  Mn109  1  0.08164394  0.33507134  0.41093769  1
  Mn3.34+  Mn110  1  0.08287834  0.32264900  0.75055315  1
  Mn3.34+  Mn111  1  0.07652694  0.83926610  0.07922732  1
  Mn3.34+  Mn112  1  0.08106724  0.83469464  0.41585391  1
  Mn3.34+  Mn113  1  0.08053307  0.82669377  0.75618023  1
  Mn3.34+  Mn114  1  0.41781571  0.32979673  0.08674012  1
  Mn3.34+  Mn115  1  0.41901830  0.33529383  0.41883280  1
  Mn3.34+  Mn116  1  0.42545180  0.33182451  0.75156932  1
  Mn3.34+  Mn117  1  0.41594736  0.83577076  0.08349106  1
  Mn3.34+  Mn118  1  0.41788475  0.83245737  0.41914556  1
  Mn3.34+  Mn119  1  0.41928527  0.83646753  0.75604068  1
  Mn3.34+  Mn120  1  0.75081729  0.32949726  0.08493954  1
  Mn3.34+  Mn121  1  0.75133479  0.33481806  0.41917394  1
  Mn3.34+  Mn122  1  0.74600408  0.32960837  0.74976551  1
  Mn3.34+  Mn123  1  0.75765866  0.83986880  0.08127172  1
  Mn3.34+  Mn124  1  0.75112201  0.83308354  0.41512095  1
  Mn3.34+  Mn125  1  0.74774914  0.83759622  0.75676377  1
  Mn3.34+  Mn126  1  0.24817742  0.32151414  0.24781873  1
  Mn3.34+  Mn127  1  0.25134981  0.32926382  0.57984332  1
  Mn3.34+  Mn128  1  0.25133966  0.32857405  0.91912542  1
  Mn3.34+  Mn129  1  0.24815189  0.83555210  0.24307296  1
  Mn3.34+  Mn130  1  0.24599585  0.83302298  0.58878939  1
  Mn3.34+  Mn131  1  0.25011660  0.83425170  0.91455687  1
  Mn3.34+  Mn132  1  0.58991045  0.32813862  0.24839801  1
  Mn3.34+  Mn133  1  0.59012079  0.33190030  0.57972668  1
  Mn3.34+  Mn134  1  0.58528941  0.32866560  0.91691749  1
  Mn3.34+  Mn135  1  0.58703829  0.83359183  0.24596195  1
  Mn3.34+  Mn136  1  0.58601425  0.83047845  0.58519960  1
  Mn3.34+  Mn137  1  0.58180828  0.83534106  0.91683129  1
  Mn3.34+  Mn138  1  0.91648151  0.33280257  0.24890817  1
  Mn3.34+  Mn139  1  0.91209513  0.32784736  0.57659762  1
  Mn3.34+  Mn140  1  0.91676340  0.32350905  0.92054417  1
  Mn3.34+  Mn141  1  0.90969656  0.84033536  0.24315453  1
  Mn3.34+  Mn142  1  0.91684850  0.83711009  0.58244748  1
  Mn3.34+  Mn143  1  0.91783384  0.84570909  0.91837495  1
  Mn3.34+  Mn144  1  0.08555288  0.66826217  0.41346313  1
  Mn3.34+  Mn145  1  0.57676021  0.66977765  0.58193131  1
  Mn3.34+  Mn146  1  0.56746661  0.66402875  0.57989095  1
  Mn3.34+  Mn147  1  0.41429928  0.66754065  0.07989661  1
  Mn3.34+  Mn148  1  0.08601958  0.16562916  0.41494318  1
  Mn3.34+  Mn149  1  0.41589040  0.66682288  0.75644897  1
  Mn3.34+  Mn150  1  0.08468198  0.67135344  0.07991604  1
  Mn3.34+  Mn151  1  0.41832513  0.17341262  0.41936600  1
  Mn3.34+  Mn152  1  0.74487700  0.66812773  0.41439979  1
  Mn3.34+  Mn153  1  0.73278319  0.66691359  0.75758405  1
  Mn3.34+  Mn154  1  0.59235897  0.16897628  0.58245169  1
  Mn3.34+  Mn155  1  0.74572306  0.16244808  0.08042285  1
  Mn3.34+  Mn156  1  0.91232154  0.66949984  0.24329527  1
  Mn3.34+  Mn157  1  0.75630707  0.15851292  0.07887571  1
  Mn3.34+  Mn158  1  0.91818009  0.68383582  0.58404804  1
  Mn3.34+  Mn159  1  0.58846847  0.15585055  0.91248593  1
  Mn3.34+  Mn160  1  0.08069765  0.17028940  0.75105716  1
  Mn3.34+  Mn161  1  0.41812860  0.66235090  0.41700067  1
  Mn3.34+  Mn162  1  0.25534121  0.67076500  0.24479879  1
  Mn3.34+  Mn163  1  0.07633533  0.16047725  0.41666217  1
  Mn3.34+  Mn164  1  0.90833305  0.68976491  0.58291630  1
  Mn3.34+  Mn165  1  0.08304810  0.68126928  0.74871757  1
  Mn3.34+  Mn166  1  0.09292193  0.68126027  0.75551558  1
  Mn3.34+  Mn167  1  0.91806533  0.67219764  0.92058390  1
  Mn3.34+  Mn168  1  0.24898134  0.16948927  0.58528092  1
  Mn3.34+  Mn169  1  0.58186057  0.66654390  0.25086193  1
  Mn3.34+  Mn170  1  0.24501481  0.66582187  0.24497490  1
  Mn3.34+  Mn171  1  0.91617340  0.16007338  0.58257561  1
  Mn3.34+  Mn172  1  0.24615928  0.16259932  0.92299532  1
  Mn3.34+  Mn173  1  0.74449793  0.67074213  0.75661437  1
  Mn3.34+  Mn174  1  0.92115306  0.66336787  0.24173661  1
  Mn3.34+  Mn175  1  0.75549066  0.16851757  0.42022712  1
  Mn3.34+  Mn176  1  0.42092239  0.16419856  0.75554903  1
  Mn3.34+  Mn177  1  0.92051180  0.16536327  0.24334592  1
  Mn3.34+  Mn178  1  0.26139022  0.66808796  0.58468069  1
  Mn3.34+  Mn179  1  0.43116705  0.15856263  0.75741163  1
  Mn3.34+  Mn180  1  0.75526152  0.49465107  0.07855425  1
  Mn3.34+  Mn181  1  0.24142424  0.49470791  0.24712766  1
  Mn3.34+  Mn182  1  0.41409123  0.50193325  0.08278886  1
  Mn3.34+  Mn183  1  0.58731435  0.00063040  0.24808850  1
  Mn3.34+  Mn184  1  0.57661226  0.00553529  0.24943030  1
  Mn3.34+  Mn185  1  0.75405537  -0.00075745  0.42167719  1
  Mn3.34+  Mn186  1  0.24569523  0.00565295  0.58145067  1
  Mn3.34+  Mn187  1  0.57916811  0.49741674  0.58472740  1
  Mn3.34+  Mn188  1  0.23488538  0.00184795  0.58095997  1
  Mn3.34+  Mn189  1  0.08188121  0.00071806  0.06398822  1
  Mn3.34+  Mn190  1  0.08038822  0.49877262  0.75917983  1
  Mn3.34+  Mn191  1  0.07596887  0.49771150  0.08929531  1
  Mn3.34+  Mn192  1  0.91799477  0.49621676  0.57548630  1
  Mn3.34+  Mn193  1  0.09558466  0.50430202  0.75960833  1
  Mn3.34+  Mn194  1  0.07631834  -0.00042364  0.41803650  1
  Mn3.34+  Mn195  1  0.24670258  0.00282626  0.24490531  1
  Mn3.34+  Mn196  1  0.58462251  0.49752813  0.25969867  1
  Mn3.34+  Mn197  1  0.24444338  0.50223215  0.91159674  1
  Mn3.34+  Mn198  1  0.07691658  0.49830540  0.40986084  1
  Mn3.34+  Mn199  1  0.25765260  0.00726658  0.24661378  1
  Mn3.34+  Mn200  1  0.75206943  0.49848549  0.40725507  1
  Mn3.34+  Mn201  1  0.58877028  0.00353837  0.59667056  1
  Mn3.34+  Mn202  1  0.25619751  0.49827928  0.57649374  1
  Mn3.34+  Mn203  1  0.58673731  0.00312197  0.93683546  1
  Mn3.34+  Mn204  1  0.91314221  0.00313181  0.25297415  1
  Mn3.34+  Mn205  1  0.90710912  0.49978432  0.57744333  1
  Mn3.34+  Mn206  1  0.91736175  0.49925005  0.91962422  1
  Mn3.34+  Mn207  1  0.08659204  0.50277384  0.08938622  1
  Mn3.34+  Mn208  1  0.07622776  -0.00515725  0.76577080  1
  Mn3.34+  Mn209  1  0.25839233  0.50833279  0.91390012  1
  Mn3.34+  Mn210  1  0.73117784  0.49798566  0.75223909  1
  Mn3.34+  Mn211  1  0.25234516  0.49949423  0.24642404  1
  Mn3.34+  Mn212  1  0.26684542  0.50174797  0.58081391  1
  Mn3.34+  Mn213  1  0.06627635  0.00061640  0.76502283  1
  Mn3.34+  Mn214  1  0.42500736  0.50438559  0.74826603  1
  Mn3.34+  Mn215  1  0.57984970  0.50065580  0.91875544  1
  O2-  O216  1  0.00097307  0.17859521  0.00352407  1
  O2-  O217  1  -0.00399340  0.15637609  0.33448333  1
  O2-  O218  1  0.00302351  0.16938525  0.66615158  1
  O2-  O219  1  0.00210124  0.67256529  -0.00211729  1
  O2-  O220  1  -0.00122945  0.65537721  0.33104469  1
  O2-  O221  1  -0.00170594  0.65718708  0.67106503  1
  O2-  O222  1  0.33146364  0.15932336  -0.00629506  1
  O2-  O223  1  0.33113185  0.18282856  0.34697155  1
  O2-  O224  1  0.34043887  0.14623438  0.66687867  1
  O2-  O225  1  0.34061762  0.66602840  0.00132676  1
  O2-  O226  1  0.33098968  0.65873159  0.33079047  1
  O2-  O227  1  0.33249967  0.67119984  0.66835994  1
  O2-  O228  1  0.66976985  0.16218603  -0.00327861  1
  O2-  O229  1  0.67381557  0.16584442  0.34021602  1
  O2-  O230  1  0.67191606  0.16463476  0.65499925  1
  O2-  O231  1  0.66116899  0.65784968  0.01366555  1
  O2-  O232  1  0.67221520  0.65421111  0.32608700  1
  O2-  O233  1  0.67202913  0.65606038  0.65382303  1
  O2-  O234  1  0.16703352  0.16476506  -0.00096404  1
  O2-  O235  1  0.17013947  0.16641016  0.33978343  1
  O2-  O236  1  0.17826714  0.16224625  0.67843389  1
  O2-  O237  1  0.16318540  0.66915207  0.00482432  1
  O2-  O238  1  0.16938370  0.64908774  0.33116282  1
  O2-  O239  1  0.16015860  0.66285410  0.65796563  1
  O2-  O240  1  0.51340207  0.16996254  -0.00746997  1
  O2-  O241  1  0.50277916  0.17040413  0.34557335  1
  O2-  O242  1  0.50110288  0.15272600  0.66081585  1
  O2-  O243  1  0.49885931  0.66036872  0.00707588  1
  O2-  O244  1  0.49715818  0.66487385  0.33038561  1
  O2-  O245  1  0.49833537  0.67439422  0.66973298  1
  O2-  O246  1  0.83861506  0.16886363  0.00649349  1
  O2-  O247  1  0.83410986  0.16155609  0.33432424  1
  O2-  O248  1  0.84059066  0.16103141  0.66410070  1
  O2-  O249  1  0.82619113  0.67032861  -0.01542622  1
  O2-  O250  1  0.83758823  0.65492661  0.33472463  1
  O2-  O251  1  0.83085671  0.64979767  0.66659477  1
  O2-  O252  1  0.00316432  0.32069681  -0.00031526  1
  O2-  O253  1  -0.00583012  0.33620454  0.33778362  1
  O2-  O254  1  0.00007160  0.33794671  0.66860954  1
  O2-  O255  1  -0.00449166  0.82101224  -0.00389494  1
  O2-  O256  1  -0.00089203  0.84044578  0.33467734  1
  O2-  O257  1  -0.00099391  0.81180058  0.66439726  1
  O2-  O258  1  0.33625182  0.34329280  0.00144933  1
  O2-  O259  1  0.33767005  0.33074713  0.33190771  1
  O2-  O260  1  0.33626323  0.34530296  0.66559753  1
  O2-  O261  1  0.33083686  0.83736808  0.00477539  1
  O2-  O262  1  0.33295237  0.84966713  0.33701352  1
  O2-  O263  1  0.33616161  0.84236153  0.66411798  1
  O2-  O264  1  0.66670749  0.33623705  0.00038730  1
  O2-  O265  1  0.66480033  0.32708077  0.33790637  1
  O2-  O266  1  0.66265957  0.34108954  0.67150425  1
  O2-  O267  1  0.66322545  0.84006722  0.00069180  1
  O2-  O268  1  0.65864320  0.84425342  0.33946473  1
  O2-  O269  1  0.66943274  0.83624588  0.66268023  1
  O2-  O270  1  0.16483248  0.33414491  -0.00024288  1
  O2-  O271  1  0.17516617  0.32550767  0.33737633  1
  O2-  O272  1  0.16933591  0.34037003  0.67022088  1
  O2-  O273  1  0.17216468  0.84157626  0.00428256  1
  O2-  O274  1  0.16900663  0.85151165  0.33484380  1
  O2-  O275  1  0.15713201  0.83009882  0.66384164  1
  O2-  O276  1  0.50199990  0.33590841  0.00369644  1
  O2-  O277  1  0.50168640  0.33981347  0.33462149  1
  O2-  O278  1  0.49932236  0.34443235  0.66141963  1
  O2-  O279  1  0.50656425  0.84517699  0.00830163  1
  O2-  O280  1  0.50152526  0.84637149  0.33654757  1
  O2-  O281  1  0.49889686  0.83531756  0.66174352  1
  O2-  O282  1  0.83512225  0.33345576  0.00056976  1
  O2-  O283  1  0.83270262  0.32709633  0.33620076  1
  O2-  O284  1  0.83772664  0.33844753  0.67192688  1
  O2-  O285  1  0.83642864  0.82455942  -0.00458677  1
  O2-  O286  1  0.83886984  0.84103558  0.33994535  1
  O2-  O287  1  0.83670616  0.83491330  0.66517228  1
  O2-  O288  1  -0.00416959  0.17651124  0.16474325  1
  O2-  O289  1  -0.00085056  0.17169317  0.49716392  1
  O2-  O290  1  0.00453981  0.18516916  0.82838938  1
  O2-  O291  1  0.00640758  0.67751424  0.16910964  1
  O2-  O292  1  0.00544523  0.67731462  0.50467954  1
  O2-  O293  1  -0.00223409  0.68246832  0.83123694  1
  O2-  O294  1  0.31917716  0.17955716  0.16601294  1
  O2-  O295  1  0.33804725  0.17795776  0.50718463  1
  O2-  O296  1  0.32695969  0.17256129  0.82712784  1
  O2-  O297  1  0.34022281  0.67522730  0.17058884  1
  O2-  O298  1  0.32913099  0.67535070  0.49240549  1
  O2-  O299  1  0.34243699  0.67484117  0.83522463  1
  O2-  O300  1  0.66787328  0.16726896  0.15836979  1
  O2-  O301  1  0.66014222  0.18000570  0.49055433  1
  O2-  O302  1  0.65723382  0.18908679  0.84487351  1
  O2-  O303  1  0.66245215  0.66559984  0.17306105  1
  O2-  O304  1  0.66338886  0.68125204  0.50396305  1
  O2-  O305  1  0.67494120  0.67510399  0.85490269  1
  O2-  O306  1  0.18234069  0.18802422  0.16264913  1
  O2-  O307  1  0.16946600  0.17754164  0.49583803  1
  O2-  O308  1  0.16924156  0.18003783  0.83022953  1
  O2-  O309  1  0.16187560  0.67712754  0.17077915  1
  O2-  O310  1  0.16490056  0.66828851  0.50289750  1
  O2-  O311  1  0.16428640  0.68418504  0.83487315  1
  O2-  O312  1  0.49347911  0.16911721  0.15563403  1
  O2-  O313  1  0.49929539  0.17009252  0.50296295  1
  O2-  O314  1  0.50171050  0.18320132  0.84149374  1
  O2-  O315  1  0.50418819  0.67124282  0.16684458  1
  O2-  O316  1  0.49491903  0.68741959  0.49699074  1
  O2-  O317  1  0.49295578  0.67672626  0.83471572  1
  O2-  O318  1  0.82727035  0.17528198  0.16875293  1
  O2-  O319  1  0.83614719  0.18332417  0.49879931  1
  O2-  O320  1  0.84358432  0.17947564  0.83089762  1
  O2-  O321  1  0.82221787  0.67233822  0.17362256  1
  O2-  O322  1  0.82374984  0.67435908  0.50335282  1
  O2-  O323  1  0.84964675  0.67642490  0.82259529  1
  O2-  O324  1  -0.00213230  0.31726272  0.16358742  1
  O2-  O325  1  0.00286938  0.32701251  0.50364682  1
  O2-  O326  1  -0.00219061  0.31847942  0.83275310  1
  O2-  O327  1  -0.00024655  0.82846631  0.17001612  1
  O2-  O328  1  0.00031940  0.81843732  0.50338530  1
  O2-  O329  1  -0.00046686  0.80861952  0.83825092  1
  O2-  O330  1  0.33659963  0.32557476  0.17104074  1
  O2-  O331  1  0.33552617  0.31824980  0.49580615  1
  O2-  O332  1  0.33049376  0.32951918  0.82844656  1
  O2-  O333  1  0.33646734  0.82408016  0.17174448  1
  O2-  O334  1  0.33163587  0.83368909  0.49907896  1
  O2-  O335  1  0.33339900  0.82927609  0.83106571  1
  O2-  O336  1  0.66343518  0.32692450  0.16038821  1
  O2-  O337  1  0.66564156  0.31522264  0.49540197  1
  O2-  O338  1  0.66878837  0.32452880  0.83497389  1
  O2-  O339  1  0.66008235  0.82749087  0.16090717  1
  O2-  O340  1  0.65961623  0.82115083  0.49621332  1
  O2-  O341  1  0.66029790  0.82774776  0.82949159  1
  O2-  O342  1  0.17212875  0.30893806  0.16097943  1
  O2-  O343  1  0.16601305  0.32554963  0.50027665  1
  O2-  O344  1  0.17026122  0.32691487  0.82866421  1
  O2-  O345  1  0.16187060  0.83370049  0.17086647  1
  O2-  O346  1  0.17186930  0.83175344  0.49274392  1
  O2-  O347  1  0.17130001  0.81920323  0.82797394  1
  O2-  O348  1  0.49788802  0.33355706  0.17078969  1
  O2-  O349  1  0.50070769  0.31841268  0.49565873  1
  O2-  O350  1  0.50149286  0.32012360  0.83674471  1
  O2-  O351  1  0.49878672  0.83086700  0.16948795  1
  O2-  O352  1  0.50109965  0.82207376  0.50244487  1
  O2-  O353  1  0.50381247  0.83238956  0.83032127  1
  O2-  O354  1  0.83520169  0.32169331  0.16335219  1
  O2-  O355  1  0.83374371  0.31589447  0.49647479  1
  O2-  O356  1  0.83730527  0.32228741  0.83386873  1
  O2-  O357  1  0.83235513  0.82245934  0.16605567  1
  O2-  O358  1  0.83595982  0.81736514  0.50113815  1
  O2-  O359  1  0.83470584  0.82597909  0.83607767  1
  O2-  O360  1  0.08377621  0.06727002  0.11058431  1
  O2-  O361  1  0.09659842  0.07939651  0.43987348  1
  O2-  O362  1  0.09802177  0.08110386  0.78327884  1
  O2-  O363  1  0.08009805  0.58485403  0.10796945  1
  O2-  O364  1  0.07540233  0.57914362  0.44470815  1
  O2-  O365  1  0.07480163  0.58650337  0.77651849  1
  O2-  O366  1  0.40983118  0.07700444  0.09460787  1
  O2-  O367  1  0.40182382  0.07979139  0.44457226  1
  O2-  O368  1  0.40372457  0.07799467  0.77856951  1
  O2-  O369  1  0.43276555  0.58172027  0.11102841  1
  O2-  O370  1  0.40677308  0.58333474  0.42167295  1
  O2-  O371  1  0.41916203  0.58220409  0.77394640  1
  O2-  O372  1  0.75768405  0.07891211  0.10428364  1
  O2-  O373  1  0.73971173  0.07970775  0.44698635  1
  O2-  O374  1  0.76294657  0.07044739  0.75316395  1
  O2-  O375  1  0.73553821  0.57321358  0.10857697  1
  O2-  O376  1  0.75784514  0.57871358  0.44615214  1
  O2-  O377  1  0.76464180  0.58069347  0.78785630  1
  O2-  O378  1  0.25465381  0.08919596  0.25232988  1
  O2-  O379  1  0.25429426  0.08562216  0.54841703  1
  O2-  O380  1  0.24767550  0.08056335  0.89493699  1
  O2-  O381  1  0.24724745  0.58094351  0.22151685  1
  O2-  O382  1  0.24436855  0.58401341  0.56165087  1
  O2-  O383  1  0.24114552  0.58588172  0.89477851  1
  O2-  O384  1  0.58978606  0.08716946  0.24543468  1
  O2-  O385  1  0.57764820  0.07984635  0.54757713  1
  O2-  O386  1  0.57124411  0.07339611  0.89213720  1
  O2-  O387  1  0.58353888  0.57737730  0.22206297  1
  O2-  O388  1  0.59648037  0.57916448  0.55119046  1
  O2-  O389  1  0.59337195  0.57803560  0.90436433  1
  O2-  O390  1  0.90499589  0.08152050  0.21941583  1
  O2-  O391  1  0.90217609  0.08247412  0.55686068  1
  O2-  O392  1  0.93878159  0.06576872  0.88717920  1
  O2-  O393  1  0.91173029  0.58069587  0.23071128  1
  O2-  O394  1  0.91842312  0.58425589  0.55775649  1
  O2-  O395  1  0.92466023  0.58073456  0.89032720  1
  O2-  O396  1  0.08631640  0.41463934  0.09644833  1
  O2-  O397  1  0.08956238  0.41936144  0.43767715  1
  O2-  O398  1  0.07803713  0.41677418  0.77051451  1
  O2-  O399  1  0.09398802  0.92915796  0.10898717  1
  O2-  O400  1  0.08041435  0.91936573  0.44865201  1
  O2-  O401  1  0.07525692  0.91288103  0.75759536  1
  O2-  O402  1  0.41082593  0.42092055  0.11576432  1
  O2-  O403  1  0.41300549  0.41589239  0.43372226  1
  O2-  O404  1  0.40481053  0.42455589  0.78617126  1
  O2-  O405  1  0.40215764  0.91727674  0.10408798  1
  O2-  O406  1  0.42589542  0.91820213  0.45285794  1
  O2-  O407  1  0.42223012  0.91877066  0.74160257  1
  O2-  O408  1  0.75697418  0.41338861  0.08695966  1
  O2-  O409  1  0.74880236  0.42044003  0.43479131  1
  O2-  O410  1  0.76834983  0.41790920  0.78027493  1
  O2-  O411  1  0.72781273  0.91916785  0.09984272  1
  O2-  O412  1  0.73783500  0.91783205  0.44953549  1
  O2-  O413  1  0.74948202  0.91648655  0.75252330  1
  O2-  O414  1  0.25134585  0.41229936  0.23042822  1
  O2-  O415  1  0.25084035  0.41538400  0.55968915  1
  O2-  O416  1  0.24586671  0.42021569  0.89065124  1
  O2-  O417  1  0.25617857  0.92077787  0.22728942  1
  O2-  O418  1  0.24523953  0.91910544  0.56303186  1
  O2-  O419  1  0.25260935  0.91849994  0.90911847  1
  O2-  O420  1  0.57565439  0.41760137  0.23227772  1
  O2-  O421  1  0.57742345  0.41654790  0.55068110  1
  O2-  O422  1  0.58044403  0.42102661  0.88842717  1
  O2-  O423  1  0.57488663  0.91929314  0.22461974  1
  O2-  O424  1  0.57430956  0.92345636  0.55611858  1
  O2-  O425  1  0.58609086  0.92746471  0.89981181  1
  O2-  O426  1  0.91668579  0.41327253  0.23871526  1
  O2-  O427  1  0.92121084  0.41346590  0.57236887  1
  O2-  O428  1  0.92506977  0.41759405  0.88900113  1
  O2-  O429  1  0.92482429  0.92181235  0.23658688  1
  O2-  O430  1  0.91646037  0.91762805  0.55931265  1
  O2-  O431  1  0.92326260  0.91942000  0.89095420  1
  O2-  O432  1  0.00217870  0.00836935  0.00118159  1
  O2-  O433  1  -0.00469499  -0.00335095  0.33948650  1
  O2-  O434  1  -0.00583917  -0.00523648  0.67797076  1
  O2-  O435  1  0.00421152  0.49737830  -0.00245605  1
  O2-  O436  1  -0.00636498  0.50844644  0.34417130  1
  O2-  O437  1  0.00303984  0.51049981  0.66417011  1
  O2-  O438  1  0.32481730  0.01248928  0.03266108  1
  O2-  O439  1  0.32118340  -0.00267301  0.34782348  1
  O2-  O440  1  0.33038338  0.01123184  0.66103850  1
  O2-  O441  1  0.33797397  0.49182817  -0.00725351  1
  O2-  O442  1  0.33177918  0.49182324  0.32816719  1
  O2-  O443  1  0.32528644  0.48829816  0.68026557  1
  O2-  O444  1  0.65879242  -0.00072651  0.01256233  1
  O2-  O445  1  0.66650531  0.00131129  0.33858620  1
  O2-  O446  1  0.68150001  -0.00342964  0.64861429  1
  O2-  O447  1  0.66544846  0.50199714  0.00067238  1
  O2-  O448  1  0.67680642  0.51283380  0.32156556  1
  O2-  O449  1  0.68466217  0.50893472  0.64137416  1
  O2-  O450  1  0.17326216  0.00137563  0.01299821  1
  O2-  O451  1  0.16811552  -0.00722219  0.33693135  1
  O2-  O452  1  0.16736607  0.00535438  0.68042194  1
  O2-  O453  1  0.16695191  0.49958078  0.00017768  1
  O2-  O454  1  0.16923085  0.51187372  0.33998056  1
  O2-  O455  1  0.15753809  0.50466284  0.65245922  1
  O2-  O456  1  0.50733375  0.00026164  0.00836157  1
  O2-  O457  1  0.51257896  -0.00224967  0.34911612  1
  O2-  O458  1  0.47845928  0.00359397  0.62694478  1
  O2-  O459  1  0.50463362  0.49833146  0.00818731  1
  O2-  O460  1  0.48106545  0.49403419  0.29923878  1
  O2-  O461  1  0.50046593  0.48075159  0.66711990  1
  O2-  O462  1  0.84634071  0.01568957  0.00017827  1
  O2-  O463  1  0.83797617  0.00902264  0.34448003  1
  O2-  O464  1  0.83872163  0.00998533  0.68582508  1
  O2-  O465  1  0.81798421  0.50861103  -0.02189607  1
  O2-  O466  1  0.83543963  0.51072535  0.34107151  1
  O2-  O467  1  0.84441585  0.51205806  0.67968611  1
  O2-  O468  1  0.58016933  0.25032139  0.24991311  1
  O2-  O469  1  0.57443256  0.25013761  0.60289649  1
  O2-  O470  1  0.42165002  0.75114738  0.07841740  1
  O2-  O471  1  0.09080765  0.75347613  0.08189493  1
  O2-  O472  1  0.92237182  0.24907294  0.59601077  1
  O2-  O473  1  0.40885856  0.75212350  0.39614086  1
  O2-  O474  1  0.74353336  0.75692555  0.07912566  1
  O2-  O475  1  0.41550265  0.75342833  0.73934682  1
  O2-  O476  1  0.09221260  0.75164092  0.40148405  1
  O2-  O477  1  0.41209754  0.24444867  0.72767343  1
  O2-  O478  1  0.24460607  0.75378296  0.27312727  1
  O2-  O479  1  0.26041198  0.24829115  0.92511090  1
  O2-  O480  1  0.58454827  0.75064081  0.26375748  1
  O2-  O481  1  0.25545750  0.75444615  0.92468905  1
  O2-  O482  1  0.91857399  0.75092217  0.26405920  1
  O2-  O483  1  0.74931740  0.75033273  0.39702233  1
  O2-  O484  1  0.25408816  0.24997747  0.60613374  1
  O2-  O485  1  0.57895302  0.75650373  0.92693797  1
  O2-  O486  1  0.75253380  0.75273448  0.73313160  1
  O2-  O487  1  0.74740006  0.24594230  0.07815282  1
  O2-  O488  1  0.41703712  0.25103768  0.07975826  1
  O2-  O489  1  0.25006362  0.75031522  0.58064496  1
  O2-  O490  1  0.91774013  0.24708288  0.26406888  1
  O2-  O491  1  0.75020222  0.25174740  0.73587052  1
  O2-  O492  1  0.07620615  0.24911646  0.41304771  1
