# generated using pymatgen
data_Ca108Mn108O277
_symmetry_space_group_name_H-M   'P 1'
_cell_length_a   16.02683948
_cell_length_b   22.30458176
_cell_length_c   16.38896852
_cell_angle_alpha   89.99635758
_cell_angle_beta   90.00337190
_cell_angle_gamma   89.99974933
_symmetry_Int_Tables_number   1
_chemical_formula_structural   Ca108Mn108O277
_chemical_formula_sum   'Ca108 Mn108 O277'
_cell_volume   5858.59654072
_cell_formula_units_Z   1
loop_
 _symmetry_equiv_pos_site_id
 _symmetry_equiv_pos_as_xyz
  1  'x, y, z'
loop_
 _atom_type_symbol
 _atom_type_oxidation_number
  Ca2+  2.0
  Mn3.34+  3.34
  O2-  -2.0
loop_
 _atom_site_type_symbol
 _atom_site_label
 _atom_site_symmetry_multiplicity
 _atom_site_fract_x
 _atom_site_fract_y
 _atom_site_fract_z
 _atom_site_occupancy
  Ca2+  Ca0  1  0.08077103  0.24722240  0.22522255  1
  Ca2+  Ca1  1  0.08477909  0.26114075  0.58875879  1
  Ca2+  Ca2  1  0.07234947  0.25230767  0.93181418  1
  Ca2+  Ca3  1  0.09849984  0.74379148  0.24120046  1
  Ca2+  Ca4  1  0.06649226  0.75466679  0.58981251  1
  Ca2+  Ca5  1  0.07433861  0.74198526  0.91011556  1
  Ca2+  Ca6  1  0.42477359  0.25582820  0.23848325  1
  Ca2+  Ca7  1  0.38972706  0.24489682  0.58370345  1
  Ca2+  Ca8  1  0.40647405  0.26177058  0.92482191  1
  Ca2+  Ca9  1  0.39871340  0.75478635  0.22986028  1
  Ca2+  Ca10  1  0.41626997  0.76311740  0.59500158  1
  Ca2+  Ca11  1  0.42010015  0.74748614  0.91909709  1
  Ca2+  Ca12  1  0.75154700  0.24873216  0.24739725  1
  Ca2+  Ca13  1  0.76200761  0.26120045  0.57915323  1
  Ca2+  Ca14  1  0.76486147  0.24743595  0.92958311  1
  Ca2+  Ca15  1  0.75842117  0.74688645  0.24126661  1
  Ca2+  Ca16  1  0.74723981  0.74828866  0.59618008  1
  Ca2+  Ca17  1  0.75225009  0.75184811  0.90538366  1
  Ca2+  Ca18  1  0.23785896  0.25652164  0.07693105  1
  Ca2+  Ca19  1  0.25121853  0.25281178  0.43804642  1
  Ca2+  Ca20  1  0.24380979  0.25850014  0.74399234  1
  Ca2+  Ca21  1  0.25473277  0.74349489  0.09094490  1
  Ca2+  Ca22  1  0.24119015  0.74771622  0.39320244  1
  Ca2+  Ca23  1  0.24565136  0.75366664  0.76363993  1
  Ca2+  Ca24  1  0.60038240  0.25173770  0.08577271  1
  Ca2+  Ca25  1  0.60452104  0.25189755  0.41184376  1
  Ca2+  Ca26  1  0.59884725  0.25632012  0.75887257  1
  Ca2+  Ca27  1  0.58664915  0.75034111  0.07532011  1
  Ca2+  Ca28  1  0.59947966  0.74377100  0.42179898  1
  Ca2+  Ca29  1  0.60241031  0.74100545  0.75241486  1
  Ca2+  Ca30  1  0.90809487  0.23325099  0.07497774  1
  Ca2+  Ca31  1  0.88953397  0.24050505  0.41900802  1
  Ca2+  Ca32  1  0.91544315  0.26311938  0.75549716  1
  Ca2+  Ca33  1  0.90849062  0.74488029  0.07342682  1
  Ca2+  Ca34  1  0.90683967  0.74100646  0.41512503  1
  Ca2+  Ca35  1  0.89605338  0.74468414  0.75320004  1
  Ca2+  Ca36  1  0.05430369  0.08699597  0.94726645  1
  Ca2+  Ca37  1  0.09911106  0.08902662  0.57852013  1
  Ca2+  Ca38  1  0.75059364  0.10489829  0.57080965  1
  Ca2+  Ca39  1  0.59013221  0.10010319  0.41071955  1
  Ca2+  Ca40  1  0.76116478  0.10058371  0.56664512  1
  Ca2+  Ca41  1  0.57389840  0.07832281  0.74011716  1
  Ca2+  Ca42  1  0.56836643  0.57028814  0.06505439  1
  Ca2+  Ca43  1  0.75817597  0.11012612  0.24827216  1
  Ca2+  Ca44  1  0.08100013  0.60176389  0.25215309  1
  Ca2+  Ca45  1  0.76096205  0.59598625  0.91019007  1
  Ca2+  Ca46  1  0.44807594  0.59856348  0.58693775  1
  Ca2+  Ca47  1  0.24921681  0.08031488  0.73727100  1
  Ca2+  Ca48  1  0.23267158  0.09226903  0.08099415  1
  Ca2+  Ca49  1  0.40542818  0.07805232  0.93332350  1
  Ca2+  Ca50  1  0.42092496  0.08999561  0.25105898  1
  Ca2+  Ca51  1  0.58650672  0.07969836  0.73964227  1
  Ca2+  Ca52  1  0.90432165  0.60008679  0.75521452  1
  Ca2+  Ca53  1  0.24969061  0.09128864  0.42354489  1
  Ca2+  Ca54  1  0.60081155  0.10243288  0.41330467  1
  Ca2+  Ca55  1  0.88796165  0.60181148  0.41134141  1
  Ca2+  Ca56  1  0.76303471  0.58968154  0.25391432  1
  Ca2+  Ca57  1  0.40239366  0.59530902  0.23331817  1
  Ca2+  Ca58  1  0.23725642  0.59407849  0.39022080  1
  Ca2+  Ca59  1  0.06330536  0.08972698  0.95109532  1
  Ca2+  Ca60  1  0.61259869  0.60775070  0.75028521  1
  Ca2+  Ca61  1  0.43541747  0.58204670  0.93757405  1
  Ca2+  Ca62  1  0.73646106  0.61969942  0.57940351  1
  Ca2+  Ca63  1  0.90980842  0.09418256  0.75793397  1
  Ca2+  Ca64  1  0.75113716  0.59339846  0.91280072  1
  Ca2+  Ca65  1  0.61833311  0.59743895  0.42071171  1
  Ca2+  Ca66  1  0.60915976  0.09664393  0.09585638  1
  Ca2+  Ca67  1  0.06830955  0.59268869  0.58765282  1
  Ca2+  Ca68  1  0.43610610  0.59732572  0.59104341  1
  Ca2+  Ca69  1  0.39092002  0.09796114  0.57894585  1
  Ca2+  Ca70  1  0.23394787  0.59831590  0.76020335  1
  Ca2+  Ca71  1  0.24676144  0.60707511  0.09221358  1
  Ca2+  Ca72  1  0.74288116  0.90547596  0.24717185  1
  Ca2+  Ca73  1  0.58504677  0.89541267  0.41923060  1
  Ca2+  Ca74  1  0.08493836  0.91030532  0.25547478  1
  Ca2+  Ca75  1  0.58335547  0.42013737  0.38404724  1
  Ca2+  Ca76  1  0.41679482  0.39886692  0.56898806  1
  Ca2+  Ca77  1  0.91340881  0.41184528  0.07208561  1
  Ca2+  Ca78  1  0.56539717  0.90231659  0.74677752  1
  Ca2+  Ca79  1  0.59818446  0.40347133  0.76073324  1
  Ca2+  Ca80  1  0.75470003  0.90575108  0.24691739  1
  Ca2+  Ca81  1  0.42174286  0.91270352  0.91779533  1
  Ca2+  Ca82  1  0.57714287  0.90168256  0.74687975  1
  Ca2+  Ca83  1  0.76603598  0.41184508  0.92061820  1
  Ca2+  Ca84  1  0.05824915  0.41258273  0.91979063  1
  Ca2+  Ca85  1  0.58483673  0.90688393  0.08368445  1
  Ca2+  Ca86  1  0.25928267  0.91177705  0.09478022  1
  Ca2+  Ca87  1  0.06194491  0.90934865  0.91519611  1
  Ca2+  Ca88  1  0.24632819  0.91129809  0.39831026  1
  Ca2+  Ca89  1  0.07202941  0.39942924  0.25459021  1
  Ca2+  Ca90  1  0.08466263  0.39783267  0.25274766  1
  Ca2+  Ca91  1  0.25766668  0.91190749  0.39856420  1
  Ca2+  Ca92  1  0.92058514  0.90446017  0.41752417  1
  Ca2+  Ca93  1  0.58101440  0.41841026  0.09307264  1
  Ca2+  Ca94  1  0.58694202  0.40483330  0.75877586  1
  Ca2+  Ca95  1  0.07188315  0.90628026  0.91748728  1
  Ca2+  Ca96  1  0.27248062  0.91826037  0.74672063  1
  Ca2+  Ca97  1  0.24890371  0.91462151  0.09528061  1
  Ca2+  Ca98  1  0.26217920  0.91474280  0.74434563  1
  Ca2+  Ca99  1  0.74421638  0.40736088  0.25204244  1
  Ca2+  Ca100  1  0.08063766  0.91309063  0.58907587  1
  Ca2+  Ca101  1  0.91755865  0.39365488  0.41333133  1
  Ca2+  Ca102  1  0.90784491  0.90416834  0.41859334  1
  Ca2+  Ca103  1  0.42952104  0.42466972  0.95354171  1
  Ca2+  Ca104  1  0.44005255  0.42438110  0.95311862  1
  Ca2+  Ca105  1  0.91035687  0.91592683  0.06114242  1
  Ca2+  Ca106  1  0.40401727  0.39873680  0.56664794  1
  Ca2+  Ca107  1  0.23486333  0.40662497  0.74464212  1
  Mn3.34+  Mn108  1  0.08355996  0.33399038  0.08111387  1
  Mn3.34+  Mn109  1  0.08211927  0.32805414  0.41872156  1
  Mn3.34+  Mn110  1  0.07671991  0.34068258  0.75113009  1
  Mn3.34+  Mn111  1  0.08203490  0.83229077  0.08499027  1
  Mn3.34+  Mn112  1  0.08143747  0.83035723  0.41947483  1
  Mn3.34+  Mn113  1  0.07984728  0.83369497  0.74971689  1
  Mn3.34+  Mn114  1  0.41382191  0.33416833  0.09067345  1
  Mn3.34+  Mn115  1  0.41673330  0.32845883  0.40735159  1
  Mn3.34+  Mn116  1  0.41487755  0.33258908  0.75350443  1
  Mn3.34+  Mn117  1  0.41934026  0.83482797  0.08091001  1
  Mn3.34+  Mn118  1  0.41814167  0.82569586  0.41933126  1
  Mn3.34+  Mn119  1  0.41452783  0.83111016  0.75181777  1
  Mn3.34+  Mn120  1  0.75039226  0.33339025  0.08447906  1
  Mn3.34+  Mn121  1  0.74816227  0.33150201  0.41803293  1
  Mn3.34+  Mn122  1  0.76017015  0.33383803  0.74744596  1
  Mn3.34+  Mn123  1  0.74986478  0.83280133  0.07616463  1
  Mn3.34+  Mn124  1  0.75027538  0.83003016  0.42382450  1
  Mn3.34+  Mn125  1  0.75004383  0.83093064  0.74857996  1
  Mn3.34+  Mn126  1  0.25380971  0.32508987  0.25279207  1
  Mn3.34+  Mn127  1  0.24039197  0.33406973  0.58171316  1
  Mn3.34+  Mn128  1  0.24565088  0.33472671  0.91608833  1
  Mn3.34+  Mn129  1  0.24991606  0.83139884  0.24586208  1
  Mn3.34+  Mn130  1  0.25055743  0.83338784  0.57830875  1
  Mn3.34+  Mn131  1  0.24982947  0.83468387  0.91683638  1
  Mn3.34+  Mn132  1  0.58114115  0.33964323  0.24597267  1
  Mn3.34+  Mn133  1  0.58388091  0.32963342  0.57929048  1
  Mn3.34+  Mn134  1  0.58813995  0.33588536  0.92181418  1
  Mn3.34+  Mn135  1  0.57766141  0.83134659  0.24865012  1
  Mn3.34+  Mn136  1  0.58346470  0.83043448  0.57926140  1
  Mn3.34+  Mn137  1  0.58520682  0.83279170  0.91626854  1
  Mn3.34+  Mn138  1  0.91216222  0.32953675  0.24537831  1
  Mn3.34+  Mn139  1  0.92027013  0.33218355  0.58336845  1
  Mn3.34+  Mn140  1  0.91537263  0.33607408  0.91489523  1
  Mn3.34+  Mn141  1  0.92196464  0.83197459  0.24076806  1
  Mn3.34+  Mn142  1  0.91158651  0.83412223  0.59046524  1
  Mn3.34+  Mn143  1  0.90778317  0.83434657  0.91078821  1
  Mn3.34+  Mn144  1  0.24642110  0.67007247  0.91825731  1
  Mn3.34+  Mn145  1  0.41967413  0.16798922  0.75464943  1
  Mn3.34+  Mn146  1  0.41588363  0.66421908  0.08011588  1
  Mn3.34+  Mn147  1  0.58119007  0.16546722  0.91944048  1
  Mn3.34+  Mn148  1  0.59159117  0.65745712  0.24211553  1
  Mn3.34+  Mn149  1  0.07767512  0.16144812  0.75350424  1
  Mn3.34+  Mn150  1  0.23801106  0.66420404  0.58002597  1
  Mn3.34+  Mn151  1  0.91854534  0.66400182  0.91675779  1
  Mn3.34+  Mn152  1  0.25241285  0.16302027  0.24916878  1
  Mn3.34+  Mn153  1  0.41665642  0.67033870  0.76068568  1
  Mn3.34+  Mn154  1  0.25021931  0.16633369  0.91891845  1
  Mn3.34+  Mn155  1  0.75463956  0.66239983  0.08277708  1
  Mn3.34+  Mn156  1  0.58164967  0.17114698  0.24498795  1
  Mn3.34+  Mn157  1  0.91563445  0.66997119  0.24552468  1
  Mn3.34+  Mn158  1  0.57966936  0.17188306  0.58126706  1
  Mn3.34+  Mn159  1  0.07669107  0.66631541  0.75444237  1
  Mn3.34+  Mn160  1  0.41715063  0.16738906  0.08405078  1
  Mn3.34+  Mn161  1  0.41710049  0.17574698  0.41774029  1
  Mn3.34+  Mn162  1  0.41850017  0.67582213  0.41985719  1
  Mn3.34+  Mn163  1  0.07000917  0.16731633  0.41175108  1
  Mn3.34+  Mn164  1  0.09090049  0.16808959  0.75052622  1
  Mn3.34+  Mn165  1  0.75375050  0.16755007  0.75337100  1
  Mn3.34+  Mn166  1  0.07670012  0.65838307  0.08098727  1
  Mn3.34+  Mn167  1  0.07620973  0.66410367  0.41929916  1
  Mn3.34+  Mn168  1  0.59467320  0.15929759  0.91814876  1
  Mn3.34+  Mn169  1  0.91590463  0.16291978  0.24102449  1
  Mn3.34+  Mn170  1  0.24896998  0.66890252  0.58221664  1
  Mn3.34+  Mn171  1  0.24365596  0.15709991  0.24610226  1
  Mn3.34+  Mn172  1  0.40900753  0.16146583  0.75742922  1
  Mn3.34+  Mn173  1  0.58566614  0.66445241  0.91752740  1
  Mn3.34+  Mn174  1  0.41801079  0.66812527  0.41395577  1
  Mn3.34+  Mn175  1  0.90748414  0.16513891  0.91867631  1
  Mn3.34+  Mn176  1  0.57888419  0.66453653  0.24331637  1
  Mn3.34+  Mn177  1  0.91630755  0.16689463  0.58331176  1
  Mn3.34+  Mn178  1  0.91318466  0.66942525  0.58162410  1
  Mn3.34+  Mn179  1  0.08189553  0.17480274  0.41313548  1
  Mn3.34+  Mn180  1  0.60372339  0.49618741  0.57619345  1
  Mn3.34+  Mn181  1  0.06586531  -0.00029383  0.74161213  1
  Mn3.34+  Mn182  1  0.25803829  -0.00587723  0.59195422  1
  Mn3.34+  Mn183  1  0.07741296  0.00009785  0.08963238  1
  Mn3.34+  Mn184  1  0.08275586  0.50363260  0.74908520  1
  Mn3.34+  Mn185  1  0.42266424  0.50223749  0.40697179  1
  Mn3.34+  Mn186  1  0.75881696  -0.00110093  0.76054931  1
  Mn3.34+  Mn187  1  0.75083617  0.49554491  0.40664692  1
  Mn3.34+  Mn188  1  0.41586296  0.50760620  0.75002877  1
  Mn3.34+  Mn189  1  0.40430365  0.50194444  0.74794414  1
  Mn3.34+  Mn190  1  0.76732411  -0.00752356  0.75883706  1
  Mn3.34+  Mn191  1  0.91882852  0.49447821  0.58437135  1
  Mn3.34+  Mn192  1  0.58161655  0.00150692  0.24919465  1
  Mn3.34+  Mn193  1  0.92183622  0.50514440  0.24742178  1
  Mn3.34+  Mn194  1  0.90890636  0.49947843  0.58152264  1
  Mn3.34+  Mn195  1  0.57536955  -0.00445100  0.58432616  1
  Mn3.34+  Mn196  1  0.41930125  0.00076227  0.42922287  1
  Mn3.34+  Mn197  1  0.25673350  0.49319533  0.24460887  1
  Mn3.34+  Mn198  1  0.23261160  0.49872577  0.92166633  1
  Mn3.34+  Mn199  1  0.08038566  0.49885031  0.41388447  1
  Mn3.34+  Mn200  1  0.91663626  0.00189225  0.58015775  1
  Mn3.34+  Mn201  1  0.59516048  -0.00296251  0.92744501  1
  Mn3.34+  Mn202  1  0.75941357  0.49642101  0.75072386  1
  Mn3.34+  Mn203  1  0.75424880  -0.00090679  0.40925270  1
  Mn3.34+  Mn204  1  0.42925944  -0.00453916  0.42670017  1
  Mn3.34+  Mn205  1  0.24680066  0.00335642  0.92356792  1
  Mn3.34+  Mn206  1  0.75201904  0.50099184  0.07193980  1
  Mn3.34+  Mn207  1  0.07778028  0.00049759  0.41226663  1
  Mn3.34+  Mn208  1  0.92162407  0.00081868  0.24763044  1
  Mn3.34+  Mn209  1  0.06715679  0.50231750  0.07596079  1
  Mn3.34+  Mn210  1  0.75783086  0.00402248  0.06512723  1
  Mn3.34+  Mn211  1  0.23294272  0.50073710  0.58424730  1
  Mn3.34+  Mn212  1  0.42307565  0.00254459  0.08492490  1
  Mn3.34+  Mn213  1  0.24665265  0.49854503  0.24323688  1
  Mn3.34+  Mn214  1  0.24268578  0.50382706  0.92305227  1
  Mn3.34+  Mn215  1  0.61554123  0.49538017  0.57789052  1
  O2-  O216  1  -0.00604275  0.16731705  -0.00738546  1
  O2-  O217  1  -0.00176530  0.18695475  0.32914147  1
  O2-  O218  1  0.00096799  0.14437888  0.66545014  1
  O2-  O219  1  0.00184106  0.67789911  -0.00026996  1
  O2-  O220  1  -0.00732748  0.66186263  0.33738362  1
  O2-  O221  1  -0.00182098  0.65462091  0.66811885  1
  O2-  O222  1  0.32775792  0.14808145  0.00659059  1
  O2-  O223  1  0.33045432  0.15579648  0.33527412  1
  O2-  O224  1  0.32945483  0.15257262  0.67434001  1
  O2-  O225  1  0.33569565  0.65258383  -0.00555397  1
  O2-  O226  1  0.33699819  0.66218908  0.33449408  1
  O2-  O227  1  0.33120068  0.64248639  0.66363819  1
  O2-  O228  1  0.66546098  0.15740154  0.00316889  1
  O2-  O229  1  0.65951504  0.16432166  0.33095287  1
  O2-  O230  1  0.66398748  0.14831590  0.66506101  1
  O2-  O231  1  0.66873576  0.64501529  0.00274603  1
  O2-  O232  1  0.67106935  0.65597643  0.32475541  1
  O2-  O233  1  0.65708138  0.67570689  0.66075759  1
  O2-  O234  1  0.16203737  0.15186075  -0.01533641  1
  O2-  O235  1  0.16656768  0.18075758  0.33187299  1
  O2-  O236  1  0.16380996  0.14575361  0.67042178  1
  O2-  O237  1  0.16765808  0.67045363  0.00262251  1
  O2-  O238  1  0.15543733  0.66858973  0.33757439  1
  O2-  O239  1  0.15895680  0.64852451  0.66690752  1
  O2-  O240  1  0.50125090  0.14268138  -0.00327355  1
  O2-  O241  1  0.49953213  0.16798973  0.33405694  1
  O2-  O242  1  0.49854887  0.15171603  0.66364242  1
  O2-  O243  1  0.50504057  0.65648931  0.00310747  1
  O2-  O244  1  0.50667876  0.65404299  0.33972509  1
  O2-  O245  1  0.49481423  0.65988110  0.67784402  1
  O2-  O246  1  0.82930323  0.16250374  -0.01103963  1
  O2-  O247  1  0.84162983  0.18074702  0.31917754  1
  O2-  O248  1  0.83122345  0.14742758  0.66784488  1
  O2-  O249  1  0.83219122  0.65497222  -0.00067342  1
  O2-  O250  1  0.83087242  0.66514277  0.32349308  1
  O2-  O251  1  0.83731921  0.65726398  0.66008945  1
  O2-  O252  1  -0.00351681  0.34375295  0.00399172  1
  O2-  O253  1  -0.00196600  0.32453886  0.32771576  1
  O2-  O254  1  -0.00055176  0.33738313  0.66499881  1
  O2-  O255  1  0.00423362  0.83676432  0.00004646  1
  O2-  O256  1  -0.00114009  0.84553072  0.33277290  1
  O2-  O257  1  0.00670643  0.84518726  0.66003163  1
  O2-  O258  1  0.33910930  0.34836479  -0.00591334  1
  O2-  O259  1  0.33272567  0.29618694  0.33390269  1
  O2-  O260  1  0.33506047  0.34593108  0.66602907  1
  O2-  O261  1  0.32923157  0.85502116  -0.00008253  1
  O2-  O262  1  0.32994719  0.83750531  0.33624840  1
  O2-  O263  1  0.33388165  0.84870575  0.66534648  1
  O2-  O264  1  0.66581103  0.35604867  0.00501499  1
  O2-  O265  1  0.66306755  0.33861165  0.33224253  1
  O2-  O266  1  0.65754888  0.33968826  0.67234858  1
  O2-  O267  1  0.66004001  0.84548128  0.00331280  1
  O2-  O268  1  0.67189626  0.83959536  0.33631498  1
  O2-  O269  1  0.65601467  0.83205216  0.67033502  1
  O2-  O270  1  0.15887720  0.34692875  -0.00751465  1
  O2-  O271  1  0.16061809  0.31463315  0.32953548  1
  O2-  O272  1  0.16453984  0.34445476  0.66677292  1
  O2-  O273  1  0.16494621  0.85589513  -0.00100981  1
  O2-  O274  1  0.16483075  0.83843543  0.33456465  1
  O2-  O275  1  0.17351681  0.85638725  0.66967250  1
  O2-  O276  1  0.50142601  0.33987080  -0.00179043  1
  O2-  O277  1  0.50660870  0.31401700  0.33248253  1
  O2-  O278  1  0.50120660  0.34723579  0.66620149  1
  O2-  O279  1  0.49799273  0.85009133  -0.00304664  1
  O2-  O280  1  0.50392035  0.82606964  0.34092578  1
  O2-  O281  1  0.50072764  0.83202007  0.66857727  1
  O2-  O282  1  0.83117369  0.34452306  0.00130671  1
  O2-  O283  1  0.83037394  0.34258919  0.32975898  1
  O2-  O284  1  0.83261386  0.33900762  0.66097026  1
  O2-  O285  1  0.83877648  0.84000237  0.00516344  1
  O2-  O286  1  0.83332475  0.84544214  0.33093438  1
  O2-  O287  1  0.82505051  0.83889105  0.66203938  1
  O2-  O288  1  -0.01182974  0.19067877  0.17322989  1
  O2-  O289  1  -0.00325089  0.18008676  0.49985651  1
  O2-  O290  1  0.00143105  0.18352895  0.83058214  1
  O2-  O291  1  0.00335268  0.68243172  0.16871040  1
  O2-  O292  1  0.00087149  0.68470383  0.50161054  1
  O2-  O293  1  -0.00860280  0.68107059  0.82730674  1
  O2-  O294  1  0.33543541  0.18621613  0.17443795  1
  O2-  O295  1  0.33648032  0.17825705  0.49437882  1
  O2-  O296  1  0.34158689  0.18037935  0.84779203  1
  O2-  O297  1  0.33729906  0.67563522  0.15775076  1
  O2-  O298  1  0.33288710  0.68912049  0.49822914  1
  O2-  O299  1  0.32658376  0.67980489  0.83212379  1
  O2-  O300  1  0.66433145  0.18122534  0.17389471  1
  O2-  O301  1  0.66254370  0.17504027  0.50503812  1
  O2-  O302  1  0.66024115  0.17749661  0.82507389  1
  O2-  O303  1  0.66969000  0.67758722  0.16042830  1
  O2-  O304  1  0.67227247  0.68421913  0.49633255  1
  O2-  O305  1  0.67076724  0.67463635  0.84566215  1
  O2-  O306  1  0.17421614  0.18001408  0.16285293  1
  O2-  O307  1  0.15892078  0.17914617  0.49460788  1
  O2-  O308  1  0.17474824  0.18347173  0.82812825  1
  O2-  O309  1  0.15877028  0.68046416  0.15393334  1
  O2-  O310  1  0.16356708  0.69018332  0.49655137  1
  O2-  O311  1  0.16629876  0.68255864  0.83086732  1
  O2-  O312  1  0.50196457  0.18602724  0.16375940  1
  O2-  O313  1  0.50343347  0.19096621  0.49681744  1
  O2-  O314  1  0.50649699  0.18137275  0.83250023  1
  O2-  O315  1  0.49517169  0.68221259  0.16890963  1
  O2-  O316  1  0.49250254  0.68278410  0.50688561  1
  O2-  O317  1  0.50193901  0.68228699  0.83640599  1
  O2-  O318  1  0.83405344  0.17982452  0.17312500  1
  O2-  O319  1  0.82644047  0.18050406  0.51619212  1
  O2-  O320  1  0.84065668  0.18093777  0.82242725  1
  O2-  O321  1  0.83284656  0.68011295  0.16489702  1
  O2-  O322  1  0.83531128  0.67937280  0.50136934  1
  O2-  O323  1  0.83160577  0.67225355  0.84291955  1
  O2-  O324  1  0.00234622  0.32468013  0.16999594  1
  O2-  O325  1  -0.00438726  0.30946187  0.49193902  1
  O2-  O326  1  0.00451324  0.32239023  0.84014685  1
  O2-  O327  1  0.00427901  0.81189218  0.16574920  1
  O2-  O328  1  -0.00422909  0.81843495  0.49303888  1
  O2-  O329  1  0.00642404  0.82400357  0.84039942  1
  O2-  O330  1  0.32981232  0.31350895  0.16625783  1
  O2-  O331  1  0.33687337  0.32256762  0.50129516  1
  O2-  O332  1  0.33307645  0.32226414  0.83259020  1
  O2-  O333  1  0.32786334  0.82765303  0.15624812  1
  O2-  O334  1  0.32953131  0.81037691  0.49373978  1
  O2-  O335  1  0.32830034  0.82844062  0.82984244  1
  O2-  O336  1  0.66821040  0.32322947  0.17095498  1
  O2-  O337  1  0.66597137  0.31561748  0.50227461  1
  O2-  O338  1  0.66531242  0.32828276  0.83349409  1
  O2-  O339  1  0.67217349  0.83043041  0.16996779  1
  O2-  O340  1  0.66765223  0.81146282  0.50098092  1
  O2-  O341  1  0.65724410  0.82164864  0.82762842  1
  O2-  O342  1  0.16180289  0.32429350  0.17147675  1
  O2-  O343  1  0.16254274  0.31755656  0.49904687  1
  O2-  O344  1  0.17068513  0.32178120  0.82780009  1
  O2-  O345  1  0.17076176  0.81820352  0.15680784  1
  O2-  O346  1  0.16558640  0.81530371  0.49710322  1
  O2-  O347  1  0.16533629  0.82392995  0.83804608  1
  O2-  O348  1  0.50615236  0.31808890  0.16295395  1
  O2-  O349  1  0.49131308  0.31253787  0.50973047  1
  O2-  O350  1  0.50774469  0.32243477  0.82674937  1
  O2-  O351  1  0.50337555  0.82170737  0.15787991  1
  O2-  O352  1  0.50361037  0.80566238  0.49900588  1
  O2-  O353  1  0.49766037  0.82114457  0.83151603  1
  O2-  O354  1  0.83056913  0.32093347  0.16763269  1
  O2-  O355  1  0.83718631  0.32362465  0.49302515  1
  O2-  O356  1  0.82864164  0.32139804  0.83791987  1
  O2-  O357  1  0.82808420  0.82856330  0.17133187  1
  O2-  O358  1  0.84226679  0.81753564  0.48990144  1
  O2-  O359  1  0.82986339  0.82403719  0.83107750  1
  O2-  O360  1  0.08724976  0.07919320  0.08606963  1
  O2-  O361  1  0.09281971  0.08215812  0.43639432  1
  O2-  O362  1  0.08692616  0.08006570  0.79431635  1
  O2-  O363  1  0.09660430  0.57326407  0.12087575  1
  O2-  O364  1  0.09098493  0.57741059  0.45134615  1
  O2-  O365  1  0.08004690  0.58331136  0.78060972  1
  O2-  O366  1  0.42360159  0.08304497  0.11581077  1
  O2-  O367  1  0.43278191  0.08421434  0.44587964  1
  O2-  O368  1  0.43540375  0.08175099  0.78233594  1
  O2-  O369  1  0.41829771  0.58341640  0.10137379  1
  O2-  O370  1  0.40825832  0.58139317  0.45805957  1
  O2-  O371  1  0.41142778  0.58460699  0.78915397  1
  O2-  O372  1  0.74120514  0.06173091  0.13240134  1
  O2-  O373  1  0.73011751  0.07757672  0.44288783  1
  O2-  O374  1  0.74736015  0.08050254  0.78952822  1
  O2-  O375  1  0.74994163  0.57475909  0.11669970  1
  O2-  O376  1  0.75183888  0.56297776  0.46468542  1
  O2-  O377  1  0.74813322  0.57511421  0.77790363  1
  O2-  O378  1  0.26947151  0.07713980  0.21775220  1
  O2-  O379  1  0.25397517  0.07037760  0.55359833  1
  O2-  O380  1  0.25721881  0.08244387  0.87987577  1
  O2-  O381  1  0.25513606  0.58020330  0.22276618  1
  O2-  O382  1  0.24596150  0.58432151  0.53667414  1
  O2-  O383  1  0.24094342  0.58478505  0.89368674  1
  O2-  O384  1  0.57075193  0.08247732  0.22780699  1
  O2-  O385  1  0.57811406  0.07876533  0.54696101  1
  O2-  O386  1  0.58115536  0.07712166  0.87477490  1
  O2-  O387  1  0.57362590  0.57894873  0.21494108  1
  O2-  O388  1  0.57544696  0.57774005  0.54918914  1
  O2-  O389  1  0.59085776  0.58360751  0.88920371  1
  O2-  O390  1  0.90564676  0.08218412  0.23726553  1
  O2-  O391  1  0.89775374  0.08212510  0.54753751  1
  O2-  O392  1  0.93427386  0.08449193  0.88973042  1
  O2-  O393  1  0.91584368  0.58584151  0.23083552  1
  O2-  O394  1  0.92466932  0.58051708  0.54377247  1
  O2-  O395  1  0.89989769  0.58311451  0.89207836  1
  O2-  O396  1  0.07462581  0.42546455  0.12261331  1
  O2-  O397  1  0.06732037  0.41606228  0.40060532  1
  O2-  O398  1  0.09119285  0.42403542  0.78457382  1
  O2-  O399  1  0.08967838  0.92016508  0.12100099  1
  O2-  O400  1  0.07733771  0.92095915  0.45050530  1
  O2-  O401  1  0.09312896  0.92028216  0.78421311  1
  O2-  O402  1  0.43114650  0.41490457  0.09387905  1
  O2-  O403  1  0.43020563  0.41977412  0.43525162  1
  O2-  O404  1  0.42473675  0.42129436  0.77054850  1
  O2-  O405  1  0.40443360  0.92101742  0.10774746  1
  O2-  O406  1  0.41530371  0.91347600  0.44244872  1
  O2-  O407  1  0.41690838  0.91470668  0.77522512  1
  O2-  O408  1  0.76194061  0.42601253  0.11624345  1
  O2-  O409  1  0.73750905  0.41905454  0.43321125  1
  O2-  O410  1  0.73621923  0.41808991  0.78140648  1
  O2-  O411  1  0.75669610  0.93095205  0.11518305  1
  O2-  O412  1  0.76518606  0.91918315  0.44084042  1
  O2-  O413  1  0.72115782  0.91579484  0.76452882  1
  O2-  O414  1  0.22663392  0.41238835  0.24950389  1
  O2-  O415  1  0.26830275  0.41924340  0.56238127  1
  O2-  O416  1  0.25118822  0.42051030  0.88158231  1
  O2-  O417  1  0.23485017  0.91766964  0.23173320  1
  O2-  O418  1  0.24215910  0.92270885  0.53579711  1
  O2-  O419  1  0.25188456  0.92166537  0.88149731  1
  O2-  O420  1  0.59324216  0.42016835  0.23551167  1
  O2-  O421  1  0.56027510  0.41899491  0.54560116  1
  O2-  O422  1  0.56636673  0.41963249  0.88858434  1
  O2-  O423  1  0.60045786  0.92036095  0.22868878  1
  O2-  O424  1  0.58065452  0.91533257  0.55241402  1
  O2-  O425  1  0.57315117  0.91851671  0.88027582  1
  O2-  O426  1  0.93259702  0.42210991  0.22944137  1
  O2-  O427  1  0.92537372  0.41568988  0.54723645  1
  O2-  O428  1  0.91278173  0.41521373  0.90226223  1
  O2-  O429  1  0.92215635  0.91911291  0.21029003  1
  O2-  O430  1  0.92458543  0.91900704  0.55141580  1
  O2-  O431  1  0.92780163  0.91494012  0.90769744  1
  O2-  O432  1  0.01852861  -0.00849122  -0.01271096  1
  O2-  O433  1  -0.01040092  -0.02135979  0.34245981  1
  O2-  O434  1  0.02160579  0.01026187  0.62912134  1
  O2-  O435  1  -0.00855372  0.48453014  0.00650684  1
  O2-  O436  1  0.01292169  0.50829257  0.31688313  1
  O2-  O437  1  0.00695203  0.51276450  0.65814541  1
  O2-  O438  1  0.32711864  0.00411024  0.01489321  1
  O2-  O439  1  0.32340457  0.00020240  0.36282133  1
  O2-  O440  1  0.32960642  0.00284835  0.67751211  1
  O2-  O441  1  0.34895118  0.50384577  -0.03378846  1
  O2-  O442  1  0.34268279  0.51492289  0.32276892  1
  O2-  O443  1  0.35131471  0.51362534  0.64029980  1
  O2-  O444  1  0.65098233  0.00024829  0.03339907  1
  O2-  O445  1  0.65920184  0.00443722  0.33881703  1
  O2-  O446  1  0.67823978  0.01867154  0.66767382  1
  O2-  O447  1  0.65932308  0.49521979  0.02211206  1
  O2-  O448  1  0.67167308  0.50900853  0.33961547  1
  O2-  O449  1  0.65417424  0.49315045  0.69064361  1
  O2-  O450  1  0.17405515  -0.01242086  0.01776520  1
  O2-  O451  1  0.17486504  -0.00839451  0.36438862  1
  O2-  O452  1  0.17585291  -0.00607287  0.67821479  1
  O2-  O453  1  0.15779213  0.49548268  0.00747609  1
  O2-  O454  1  0.17203275  0.51255704  0.33411797  1
  O2-  O455  1  0.19271021  0.50618537  0.70144409  1
  O2-  O456  1  0.48794412  -0.00123675  -0.01368504  1
  O2-  O457  1  0.49484885  0.01055184  0.33067244  1
  O2-  O458  1  0.52668049  -0.00626186  0.69806834  1
  O2-  O459  1  0.50267002  0.50013335  -0.00303076  1
  O2-  O460  1  0.52519122  0.51347427  0.37802602  1
  O2-  O461  1  0.50266064  0.50909490  0.66047679  1
  O2-  O462  1  0.84444000  -0.00011148  0.01037187  1
  O2-  O463  1  0.82448016  -0.01897422  0.31555609  1
  O2-  O464  1  0.84786923  0.01163104  0.67753409  1
  O2-  O465  1  0.81378347  0.50159817  -0.01580149  1
  O2-  O466  1  0.83254175  0.50456064  0.32845723  1
  O2-  O467  1  0.82805744  0.51474168  0.66210742  1
  O2-  O468  1  0.58233845  0.75091962  0.94014869  1
  O2-  O469  1  0.25483676  0.25058916  0.94143652  1
  O2-  O470  1  0.39874778  0.74923192  0.73072026  1
  O2-  O471  1  0.74676127  0.74635607  0.06185759  1
  O2-  O472  1  0.25959425  0.75401026  0.94137346  1
  O2-  O473  1  0.74401273  0.24848559  0.72462719  1
  O2-  O474  1  0.25376269  0.75236082  0.25774654  1
  O2-  O475  1  0.08851468  0.25573706  0.06807798  1
  O2-  O476  1  0.08368423  0.24909338  0.72535400  1
  O2-  O477  1  0.08981819  0.75098897  0.72726316  1
  O2-  O478  1  0.41537679  0.75260090  0.05891784  1
  O2-  O479  1  0.59482156  0.74512132  0.26532477  1
  O2-  O480  1  0.74478336  0.25632475  0.06346633  1
  O2-  O481  1  0.59049440  0.25022285  0.93649363  1
  O2-  O482  1  0.91319051  0.25120572  0.93141388  1
  O2-  O483  1  0.91986461  0.75126614  0.61101825  1
  O2-  O484  1  0.41567057  0.24831903  0.05747326  1
  O2-  O485  1  0.24880445  0.74771358  0.62186517  1
  O2-  O486  1  0.90960113  0.75294603  0.27108245  1
  O2-  O487  1  0.90841677  0.75050878  0.93070907  1
  O2-  O488  1  0.24735807  0.25528657  0.60358110  1
  O2-  O489  1  0.75184671  0.75191227  0.74114668  1
  O2-  O490  1  0.74815754  0.25403951  0.39951808  1
  O2-  O491  1  0.41402039  0.24674628  0.72543974  1
  O2-  O492  1  0.91692150  0.24696510  0.61340677  1
