# generated using pymatgen
data_Ca108Mn108O277
_symmetry_space_group_name_H-M   'P 1'
_cell_length_a   16.02343590
_cell_length_b   22.30252931
_cell_length_c   16.38622129
_cell_angle_alpha   89.99741605
_cell_angle_beta   89.99831463
_cell_angle_gamma   89.99915755
_symmetry_Int_Tables_number   1
_chemical_formula_structural   Ca108Mn108O277
_chemical_formula_sum   'Ca108 Mn108 O277'
_cell_volume   5855.83162769
_cell_formula_units_Z   1
loop_
 _symmetry_equiv_pos_site_id
 _symmetry_equiv_pos_as_xyz
  1  'x, y, z'
loop_
 _atom_type_symbol
 _atom_type_oxidation_number
  Ca2+  2.0
  Mn3.34+  3.34
  O2-  -2.0
loop_
 _atom_site_type_symbol
 _atom_site_label
 _atom_site_symmetry_multiplicity
 _atom_site_fract_x
 _atom_site_fract_y
 _atom_site_fract_z
 _atom_site_occupancy
  Ca2+  Ca0  1  0.09413018  0.25300794  0.24642448  1
  Ca2+  Ca1  1  0.09752805  0.24104049  0.59390686  1
  Ca2+  Ca2  1  0.11620125  0.23094110  0.91188064  1
  Ca2+  Ca3  1  0.07491539  0.76200315  0.24013383  1
  Ca2+  Ca4  1  0.09956741  0.74999188  0.59291302  1
  Ca2+  Ca5  1  0.09175620  0.75426348  0.91145597  1
  Ca2+  Ca6  1  0.39716965  0.24194088  0.24368418  1
  Ca2+  Ca7  1  0.39373512  0.23836194  0.58970449  1
  Ca2+  Ca8  1  0.40794440  0.23696461  0.91857048  1
  Ca2+  Ca9  1  0.41780541  0.75191027  0.26716639  1
  Ca2+  Ca10  1  0.40643062  0.74161896  0.57071682  1
  Ca2+  Ca11  1  0.41251392  0.75810289  0.91852779  1
  Ca2+  Ca12  1  0.75130829  0.24875606  0.24852094  1
  Ca2+  Ca13  1  0.75875190  0.23920348  0.60140250  1
  Ca2+  Ca14  1  0.72691529  0.22833829  0.90092011  1
  Ca2+  Ca15  1  0.75924036  0.77475827  0.25644741  1
  Ca2+  Ca16  1  0.75296843  0.76740283  0.57473808  1
  Ca2+  Ca17  1  0.74526149  0.75964187  0.91938207  1
  Ca2+  Ca18  1  0.26542763  0.23444195  0.07227334  1
  Ca2+  Ca19  1  0.25652672  0.24860054  0.42670525  1
  Ca2+  Ca20  1  0.24993026  0.22916689  0.74261039  1
  Ca2+  Ca21  1  0.25587830  0.75947322  0.07507862  1
  Ca2+  Ca22  1  0.26723866  0.75497791  0.43478619  1
  Ca2+  Ca23  1  0.24356193  0.73838118  0.73493813  1
  Ca2+  Ca24  1  0.55385124  0.23587697  0.05468507  1
  Ca2+  Ca25  1  0.56695016  0.24722311  0.42437223  1
  Ca2+  Ca26  1  0.58454888  0.22445982  0.75939472  1
  Ca2+  Ca27  1  0.56645221  0.76450042  0.07714621  1
  Ca2+  Ca28  1  0.56882433  0.76579225  0.42973401  1
  Ca2+  Ca29  1  0.57521925  0.76228504  0.74115582  1
  Ca2+  Ca30  1  0.93111381  0.24627310  0.08231129  1
  Ca2+  Ca31  1  0.92263625  0.24972384  0.42686380  1
  Ca2+  Ca32  1  0.90985629  0.23653845  0.73232209  1
  Ca2+  Ca33  1  0.92553699  0.76514228  0.07906636  1
  Ca2+  Ca34  1  0.91119131  0.76762747  0.42408393  1
  Ca2+  Ca35  1  0.93684297  0.75686999  0.74254374  1
  Ca2+  Ca36  1  0.73503780  0.59115353  0.24802513  1
  Ca2+  Ca37  1  0.10491698  0.59762195  0.90634181  1
  Ca2+  Ca38  1  0.54678673  0.60699409  0.42691804  1
  Ca2+  Ca39  1  0.75840871  0.09460698  0.59633432  1
  Ca2+  Ca40  1  0.57099102  0.59715881  0.75043785  1
  Ca2+  Ca41  1  0.23990165  0.09486984  0.77083820  1
  Ca2+  Ca42  1  0.77883707  0.58644379  0.58786996  1
  Ca2+  Ca43  1  0.40998766  0.09610272  0.92256709  1
  Ca2+  Ca44  1  0.76239912  0.07864974  0.26885375  1
  Ca2+  Ca45  1  0.91633253  0.09001211  0.71280010  1
  Ca2+  Ca46  1  0.58713947  0.07888460  0.43051419  1
  Ca2+  Ca47  1  0.25198353  0.11189857  0.42265364  1
  Ca2+  Ca48  1  0.55199766  0.09595093  0.06399722  1
  Ca2+  Ca49  1  0.12260937  0.56677098  0.26760709  1
  Ca2+  Ca50  1  0.11006735  0.10045351  0.24837439  1
  Ca2+  Ca51  1  0.91232079  0.09835896  0.45141806  1
  Ca2+  Ca52  1  0.09107751  0.58643063  0.59557859  1
  Ca2+  Ca53  1  0.39980840  0.09578034  0.92239286  1
  Ca2+  Ca54  1  0.41558384  0.09698769  0.58858231  1
  Ca2+  Ca55  1  0.93193123  0.58810051  0.07277025  1
  Ca2+  Ca56  1  0.25309470  0.58476359  0.06960093  1
  Ca2+  Ca57  1  0.74893278  0.59013199  0.24733665  1
  Ca2+  Ca58  1  0.73817923  0.58622201  0.91922940  1
  Ca2+  Ca59  1  0.55592166  0.58059099  0.06414124  1
  Ca2+  Ca60  1  0.53474248  0.60698323  0.43027401  1
  Ca2+  Ca61  1  0.26281762  0.09652730  0.06965794  1
  Ca2+  Ca62  1  0.76641996  0.58764452  0.58680205  1
  Ca2+  Ca63  1  0.12121796  0.10185200  0.24670644  1
  Ca2+  Ca64  1  0.38168895  0.10121339  0.23056796  1
  Ca2+  Ca65  1  0.72676880  0.58299838  0.91567346  1
  Ca2+  Ca66  1  0.09258149  0.59789203  0.90785875  1
  Ca2+  Ca67  1  0.56727710  0.58340720  0.05991741  1
  Ca2+  Ca68  1  0.75027487  0.07826609  0.27015950  1
  Ca2+  Ca69  1  0.06371728  0.09620702  0.59527686  1
  Ca2+  Ca70  1  0.39931321  0.58998709  0.26316236  1
  Ca2+  Ca71  1  0.27131231  0.59845186  0.43541125  1
  Ca2+  Ca72  1  0.58199728  0.39783990  0.74851061  1
  Ca2+  Ca73  1  0.11040330  0.41995704  0.27501436  1
  Ca2+  Ca74  1  0.25820802  0.91072398  0.75465272  1
  Ca2+  Ca75  1  0.44316881  0.90921645  0.57719223  1
  Ca2+  Ca76  1  0.73744538  0.90511385  0.91819572  1
  Ca2+  Ca77  1  0.39045745  0.40841845  0.25649187  1
  Ca2+  Ca78  1  0.24279662  0.41417450  0.41139251  1
  Ca2+  Ca79  1  0.57472929  0.40360154  0.07752392  1
  Ca2+  Ca80  1  0.74998438  0.90654372  0.92006306  1
  Ca2+  Ca81  1  0.75543680  0.39207738  0.24644395  1
  Ca2+  Ca82  1  0.72531111  0.40326854  0.91432996  1
  Ca2+  Ca83  1  0.06887176  0.91478036  0.58597266  1
  Ca2+  Ca84  1  0.41139312  0.90093012  0.25086998  1
  Ca2+  Ca85  1  0.93177209  0.40734235  0.71703327  1
  Ca2+  Ca86  1  0.09529841  0.91568655  0.91711402  1
  Ca2+  Ca87  1  0.08628524  0.90944212  0.25603260  1
  Ca2+  Ca88  1  0.92467054  0.92525336  0.71607340  1
  Ca2+  Ca89  1  0.24569631  0.91023713  0.75274257  1
  Ca2+  Ca90  1  0.10601038  0.91595018  0.91756041  1
  Ca2+  Ca91  1  0.92807962  0.40161227  0.08568877  1
  Ca2+  Ca92  1  0.75961709  0.39365895  0.58201367  1
  Ca2+  Ca93  1  0.41573121  0.40868468  0.92105917  1
  Ca2+  Ca94  1  0.74256110  0.39184752  0.24545245  1
  Ca2+  Ca95  1  0.90289046  0.91899636  0.42795269  1
  Ca2+  Ca96  1  0.24233509  0.40609517  0.74492426  1
  Ca2+  Ca97  1  0.57959608  0.39404689  0.42665498  1
  Ca2+  Ca98  1  0.41235880  0.39865095  0.57774866  1
  Ca2+  Ca99  1  0.91362223  0.90809197  0.08886475  1
  Ca2+  Ca100  1  0.25280480  0.40435919  0.08943237  1
  Ca2+  Ca101  1  0.42700949  0.40881654  0.92028653  1
  Ca2+  Ca102  1  0.73026408  0.92239026  0.57310759  1
  Ca2+  Ca103  1  0.08944349  0.40073810  0.91353668  1
  Ca2+  Ca104  1  0.27482340  0.92789328  0.06388418  1
  Ca2+  Ca105  1  0.73801053  0.40435506  0.91451446  1
  Ca2+  Ca106  1  0.91532758  0.40148364  0.08438299  1
  Ca2+  Ca107  1  0.23096148  0.40600736  0.74594539  1
  Mn3.34+  Mn108  1  0.08904476  0.33159870  0.08529123  1
  Mn3.34+  Mn109  1  0.08375292  0.33778381  0.42531305  1
  Mn3.34+  Mn110  1  0.07940819  0.32766307  0.74700352  1
  Mn3.34+  Mn111  1  0.08732448  0.83721732  0.08527117  1
  Mn3.34+  Mn112  1  0.08901316  0.83632702  0.41966932  1
  Mn3.34+  Mn113  1  0.08464094  0.83672322  0.75159467  1
  Mn3.34+  Mn114  1  0.41303477  0.33089192  0.08888682  1
  Mn3.34+  Mn115  1  0.41425345  0.32999471  0.41675317  1
  Mn3.34+  Mn116  1  0.41513035  0.32831218  0.74804348  1
  Mn3.34+  Mn117  1  0.41626394  0.83847552  0.08715957  1
  Mn3.34+  Mn118  1  0.41496554  0.83517903  0.41910356  1
  Mn3.34+  Mn119  1  0.42030475  0.84002615  0.75136346  1
  Mn3.34+  Mn120  1  0.74827985  0.31914116  0.07984087  1
  Mn3.34+  Mn121  1  0.75060589  0.32083505  0.42354385  1
  Mn3.34+  Mn122  1  0.75115215  0.32416733  0.74872617  1
  Mn3.34+  Mn123  1  0.74346693  0.83786502  0.09093567  1
  Mn3.34+  Mn124  1  0.74265282  0.84859335  0.41334886  1
  Mn3.34+  Mn125  1  0.74991929  0.84116889  0.74864091  1
  Mn3.34+  Mn126  1  0.24637042  0.33437471  0.25006410  1
  Mn3.34+  Mn127  1  0.24526259  0.33168488  0.57943831  1
  Mn3.34+  Mn128  1  0.25066169  0.33202001  0.91637041  1
  Mn3.34+  Mn129  1  0.24911824  0.83225696  0.25052408  1
  Mn3.34+  Mn130  1  0.25206062  0.83266846  0.58032350  1
  Mn3.34+  Mn131  1  0.25844192  0.83441795  0.91566979  1
  Mn3.34+  Mn132  1  0.57539653  0.32987128  0.25052096  1
  Mn3.34+  Mn133  1  0.58342651  0.32753225  0.58480386  1
  Mn3.34+  Mn134  1  0.57887458  0.32855038  0.91265547  1
  Mn3.34+  Mn135  1  0.58125306  0.83124916  0.24918479  1
  Mn3.34+  Mn136  1  0.58474542  0.83655225  0.58401046  1
  Mn3.34+  Mn137  1  0.57356787  0.83249070  0.91542189  1
  Mn3.34+  Mn138  1  0.92628638  0.33126230  0.26028475  1
  Mn3.34+  Mn139  1  0.92337325  0.33571475  0.57482293  1
  Mn3.34+  Mn140  1  0.91860792  0.33241775  0.90923931  1
  Mn3.34+  Mn141  1  0.91607447  0.84042137  0.25263628  1
  Mn3.34+  Mn142  1  0.91803787  0.83524806  0.58176318  1
  Mn3.34+  Mn143  1  0.91833271  0.83312820  0.91182229  1
  Mn3.34+  Mn144  1  0.74645282  0.15830267  0.08132774  1
  Mn3.34+  Mn145  1  0.74653643  0.66916923  0.41842877  1
  Mn3.34+  Mn146  1  0.74634240  0.16484889  0.42784983  1
  Mn3.34+  Mn147  1  0.09103442  0.16607921  0.07892685  1
  Mn3.34+  Mn148  1  0.08329774  0.16697235  0.42526353  1
  Mn3.34+  Mn149  1  0.58287512  0.15981187  0.58359631  1
  Mn3.34+  Mn150  1  0.75297855  0.66984208  0.08121769  1
  Mn3.34+  Mn151  1  0.57853358  0.66994836  0.58796642  1
  Mn3.34+  Mn152  1  0.08500905  0.66653001  0.74535246  1
  Mn3.34+  Mn153  1  0.57093525  0.67025288  0.90821160  1
  Mn3.34+  Mn154  1  0.91163239  0.16607524  0.91703692  1
  Mn3.34+  Mn155  1  0.74230464  0.67544846  0.08095367  1
  Mn3.34+  Mn156  1  0.91144451  0.16559288  0.24517042  1
  Mn3.34+  Mn157  1  0.41707612  0.16154985  0.75126099  1
  Mn3.34+  Mn158  1  0.92243848  0.16963199  0.91894890  1
  Mn3.34+  Mn159  1  0.08645778  0.66906534  0.08138623  1
  Mn3.34+  Mn160  1  0.41235392  0.67119282  0.75124518  1
  Mn3.34+  Mn161  1  0.92314957  0.66796080  0.58474630  1
  Mn3.34+  Mn162  1  0.75799188  0.67336245  0.41695650  1
  Mn3.34+  Mn163  1  0.24294574  0.67481416  0.24586835  1
  Mn3.34+  Mn164  1  0.41651195  0.16510528  0.41924661  1
  Mn3.34+  Mn165  1  0.57885757  0.67697224  0.24687054  1
  Mn3.34+  Mn166  1  0.26071307  0.67092210  0.91227795  1
  Mn3.34+  Mn167  1  0.92006110  0.67031453  0.91179874  1
  Mn3.34+  Mn168  1  0.25323186  0.66784517  0.24533792  1
  Mn3.34+  Mn169  1  0.57512199  0.16061485  0.24822397  1
  Mn3.34+  Mn170  1  0.08144345  0.66584075  0.42355667  1
  Mn3.34+  Mn171  1  0.92957223  0.66381438  0.24978675  1
  Mn3.34+  Mn172  1  0.58491301  0.16625790  0.24896506  1
  Mn3.34+  Mn173  1  0.92116761  0.15946566  0.24509923  1
  Mn3.34+  Mn174  1  0.91945040  0.66916611  0.25185738  1
  Mn3.34+  Mn175  1  0.75607383  0.67800120  0.74936996  1
  Mn3.34+  Mn176  1  0.09029848  0.65977418  0.42537581  1
  Mn3.34+  Mn177  1  0.08249867  0.15995025  0.74976807  1
  Mn3.34+  Mn178  1  0.41469887  0.67148880  0.08106355  1
  Mn3.34+  Mn179  1  0.74603406  0.68301107  0.74742144  1
  Mn3.34+  Mn180  1  0.40600947  0.49624184  0.41571190  1
  Mn3.34+  Mn181  1  0.57714494  0.49754218  0.24419943  1
  Mn3.34+  Mn182  1  0.92224958  0.49613054  0.25755327  1
  Mn3.34+  Mn183  1  0.09021764  0.00050968  0.07645417  1
  Mn3.34+  Mn184  1  0.92097290  0.00424542  0.90998586  1
  Mn3.34+  Mn185  1  0.41626505  0.50517084  0.75041652  1
  Mn3.34+  Mn186  1  0.25374041  -0.00401570  0.25472991  1
  Mn3.34+  Mn187  1  0.25620969  0.50493734  0.91297014  1
  Mn3.34+  Mn188  1  0.07571999  0.50073106  0.73847394  1
  Mn3.34+  Mn189  1  0.25440700  0.00280985  0.57703337  1
  Mn3.34+  Mn190  1  0.58129991  0.49931739  0.58335933  1
  Mn3.34+  Mn191  1  0.43359145  0.00112765  0.73060333  1
  Mn3.34+  Mn192  1  0.08557695  0.00293599  0.41300570  1
  Mn3.34+  Mn193  1  0.24629478  0.49740073  0.58627126  1
  Mn3.34+  Mn194  1  0.58334349  0.00188729  0.91034092  1
  Mn3.34+  Mn195  1  0.76900266  0.50204014  0.74333899  1
  Mn3.34+  Mn196  1  0.74709108  0.00246634  0.73223718  1
  Mn3.34+  Mn197  1  0.93161244  0.50218179  0.25882502  1
  Mn3.34+  Mn198  1  0.56500009  0.49852436  0.24884055  1
  Mn3.34+  Mn199  1  0.40880167  0.49851471  0.09300351  1
  Mn3.34+  Mn200  1  0.92754240  0.50008681  0.90465666  1
  Mn3.34+  Mn201  1  0.41125952  0.00090720  0.41120452  1
  Mn3.34+  Mn202  1  0.57536843  -0.00214157  0.25115740  1
  Mn3.34+  Mn203  1  0.24025471  -0.00201942  0.58197211  1
  Mn3.34+  Mn204  1  0.09280602  0.50118126  0.08466749  1
  Mn3.34+  Mn205  1  0.74329975  0.49725301  0.08172881  1
  Mn3.34+  Mn206  1  0.91605912  0.50512532  0.90323438  1
  Mn3.34+  Mn207  1  0.56821308  -0.00098688  0.90871010  1
  Mn3.34+  Mn208  1  0.91682820  -0.00022276  0.25841505  1
  Mn3.34+  Mn209  1  0.74450485  0.00109046  0.08077485  1
  Mn3.34+  Mn210  1  0.75418144  0.49225446  0.42410329  1
  Mn3.34+  Mn211  1  0.76553542  0.49667886  0.42510586  1
  Mn3.34+  Mn212  1  0.40707250  0.51088039  0.74748210  1
  Mn3.34+  Mn213  1  0.90998069  0.00035773  0.91070611  1
  Mn3.34+  Mn214  1  0.58533847  -0.00749144  0.25231885  1
  Mn3.34+  Mn215  1  0.75684161  0.49820584  0.74465066  1
  O2-  O216  1  -0.00434754  0.15910946  0.00181934  1
  O2-  O217  1  -0.00084297  0.15484767  0.33630628  1
  O2-  O218  1  -0.00069879  0.17264479  0.66893963  1
  O2-  O219  1  0.00469353  0.64486294  -0.00774739  1
  O2-  O220  1  0.00645996  0.66290801  0.33798406  1
  O2-  O221  1  0.00027364  0.65779906  0.66720358  1
  O2-  O222  1  0.33689099  0.16334637  -0.00299895  1
  O2-  O223  1  0.33915379  0.16254436  0.33594192  1
  O2-  O224  1  0.33574462  0.15230614  0.67315184  1
  O2-  O225  1  0.32714382  0.65700891  0.00898716  1
  O2-  O226  1  0.32747931  0.66413626  0.33067303  1
  O2-  O227  1  0.34422366  0.68348877  0.67176156  1
  O2-  O228  1  0.66247760  0.17375390  0.01363899  1
  O2-  O229  1  0.66892873  0.15519641  0.33029390  1
  O2-  O230  1  0.66328576  0.17361867  0.65216871  1
  O2-  O231  1  0.65904012  0.64635546  -0.00094912  1
  O2-  O232  1  0.65860331  0.64671485  0.33403263  1
  O2-  O233  1  0.67004211  0.64966281  0.66586177  1
  O2-  O234  1  0.17126005  0.16374219  0.00675378  1
  O2-  O235  1  0.15935753  0.17195254  0.33376463  1
  O2-  O236  1  0.15937851  0.15682319  0.66892449  1
  O2-  O237  1  0.16845793  0.65342553  -0.00042106  1
  O2-  O238  1  0.16377936  0.67098602  0.33164852  1
  O2-  O239  1  0.15929899  0.66175102  0.66650572  1
  O2-  O240  1  0.48429788  0.16112365  -0.00526274  1
  O2-  O241  1  0.50835923  0.14556445  0.34050170  1
  O2-  O242  1  0.49952506  0.16999798  0.66103424  1
  O2-  O243  1  0.49568786  0.65402291  -0.00389642  1
  O2-  O244  1  0.49541866  0.66087176  0.32154460  1
  O2-  O245  1  0.50720128  0.67161410  0.67657281  1
  O2-  O246  1  0.83067803  0.17630188  0.00023285  1
  O2-  O247  1  0.82456757  0.16261899  0.33197243  1
  O2-  O248  1  0.83804759  0.16624996  0.65836967  1
  O2-  O249  1  0.83009965  0.64124736  -0.00781097  1
  O2-  O250  1  0.82998302  0.64135316  0.32809915  1
  O2-  O251  1  0.83164341  0.65959244  0.66429638  1
  O2-  O252  1  0.00017343  0.34731681  0.00218345  1
  O2-  O253  1  0.00820319  0.32273189  0.34162764  1
  O2-  O254  1  -0.00357134  0.32642288  0.66522909  1
  O2-  O255  1  0.00269734  0.85533509  -0.00321556  1
  O2-  O256  1  0.00630508  0.83560870  0.33271634  1
  O2-  O257  1  0.00224615  0.84477954  0.66998330  1
  O2-  O258  1  0.33527084  0.35190746  -0.00200703  1
  O2-  O259  1  0.32742936  0.33714741  0.33495105  1
  O2-  O260  1  0.32923967  0.35138649  0.66932877  1
  O2-  O261  1  0.32990104  0.84223892  0.00556717  1
  O2-  O262  1  0.33411902  0.83142034  0.33027784  1
  O2-  O263  1  0.32975863  0.84714884  0.67130363  1
  O2-  O264  1  0.66457610  0.34191466  0.00030096  1
  O2-  O265  1  0.66728166  0.33644982  0.33416673  1
  O2-  O266  1  0.66959994  0.33639548  0.66442332  1
  O2-  O267  1  0.66846293  0.84262505  -0.00410764  1
  O2-  O268  1  0.65958010  0.82061238  0.33227863  1
  O2-  O269  1  0.67223697  0.82669814  0.66649125  1
  O2-  O270  1  0.17060283  0.34927569  0.00143761  1
  O2-  O271  1  0.16725185  0.32010149  0.33409024  1
  O2-  O272  1  0.16504055  0.34459847  0.66647556  1
  O2-  O273  1  0.16813926  0.84953825  -0.00031348  1
  O2-  O274  1  0.16507099  0.81006775  0.33151120  1
  O2-  O275  1  0.16775132  0.84838645  0.67059302  1
  O2-  O276  1  0.49688751  0.34520887  -0.00119506  1
  O2-  O277  1  0.49484074  0.35334163  0.33157005  1
  O2-  O278  1  0.49883821  0.34101320  0.66687921  1
  O2-  O279  1  0.49727327  0.83830704  0.00006863  1
  O2-  O280  1  0.49663167  0.82704300  0.33136310  1
  O2-  O281  1  0.49457376  0.82631311  0.66372780  1
  O2-  O282  1  0.83018903  0.34666315  0.00012756  1
  O2-  O283  1  0.82443888  0.32987819  0.32827838  1
  O2-  O284  1  0.83687034  0.32739991  0.66651359  1
  O2-  O285  1  0.83517605  0.84891814  -0.00654677  1
  O2-  O286  1  0.83822359  0.84844700  0.33797657  1
  O2-  O287  1  0.83556732  0.83960469  0.66979590  1
  O2-  O288  1  0.00858279  0.17038298  0.16863599  1
  O2-  O289  1  0.00132554  0.18208257  0.49539480  1
  O2-  O290  1  -0.00141474  0.18213645  0.83515433  1
  O2-  O291  1  -0.00521913  0.68083801  0.15427449  1
  O2-  O292  1  0.00429928  0.68792804  0.50315251  1
  O2-  O293  1  0.00836826  0.68008622  0.84010342  1
  O2-  O294  1  0.32260844  0.17972947  0.16987318  1
  O2-  O295  1  0.33750923  0.17637717  0.49438670  1
  O2-  O296  1  0.33670721  0.16562290  0.83136431  1
  O2-  O297  1  0.34108789  0.68428207  0.17302784  1
  O2-  O298  1  0.33154503  0.67729435  0.49457507  1
  O2-  O299  1  0.33615820  0.69284060  0.83281875  1
  O2-  O300  1  0.66941319  0.18502596  0.17276840  1
  O2-  O301  1  0.65893871  0.18485243  0.49529498  1
  O2-  O302  1  0.66266714  0.16145276  0.82849693  1
  O2-  O303  1  0.67663617  0.68153946  0.18363654  1
  O2-  O304  1  0.66032756  0.66726242  0.50093622  1
  O2-  O305  1  0.66488214  0.68155665  0.83299751  1
  O2-  O306  1  0.16197299  0.17911611  0.16777937  1
  O2-  O307  1  0.16492793  0.18518263  0.49038639  1
  O2-  O308  1  0.16815700  0.16827583  0.82518192  1
  O2-  O309  1  0.16785159  0.69292706  0.16696934  1
  O2-  O310  1  0.17290311  0.68313843  0.49493148  1
  O2-  O311  1  0.16324522  0.67619166  0.83847956  1
  O2-  O312  1  0.49558782  0.17243683  0.16882356  1
  O2-  O313  1  0.49933910  0.17919450  0.50441057  1
  O2-  O314  1  0.49117426  0.17311822  0.83373768  1
  O2-  O315  1  0.50968158  0.67966066  0.15409235  1
  O2-  O316  1  0.50291059  0.67924473  0.50535468  1
  O2-  O317  1  0.49990474  0.69074011  0.82761595  1
  O2-  O318  1  0.82979281  0.18673625  0.16241637  1
  O2-  O319  1  0.82854478  0.18590315  0.49252635  1
  O2-  O320  1  0.83703681  0.17809996  0.83759698  1
  O2-  O321  1  0.82886212  0.67330574  0.17332964  1
  O2-  O322  1  0.83144280  0.68240849  0.50989005  1
  O2-  O323  1  0.82670661  0.68932629  0.83971904  1
  O2-  O324  1  -0.00498225  0.32868823  0.16307900  1
  O2-  O325  1  0.00574469  0.31083721  0.50306130  1
  O2-  O326  1  -0.00208776  0.33555312  0.82788236  1
  O2-  O327  1  -0.00084790  0.82619001  0.16379690  1
  O2-  O328  1  0.00278478  0.81875549  0.50134282  1
  O2-  O329  1  0.00585475  0.82581775  0.83711024  1
  O2-  O330  1  0.33061944  0.31924198  0.17121735  1
  O2-  O331  1  0.33608739  0.32093317  0.50286632  1
  O2-  O332  1  0.33515539  0.33624039  0.83442740  1
  O2-  O333  1  0.33273336  0.81309206  0.17198916  1
  O2-  O334  1  0.33922523  0.82767677  0.50695594  1
  O2-  O335  1  0.32799491  0.82117098  0.82504111  1
  O2-  O336  1  0.67509815  0.31978457  0.17333365  1
  O2-  O337  1  0.66293589  0.30953361  0.50014037  1
  O2-  O338  1  0.66616129  0.33095401  0.83456276  1
  O2-  O339  1  0.66145254  0.80795331  0.16715795  1
  O2-  O340  1  0.66881711  0.82900343  0.50056441  1
  O2-  O341  1  0.67225708  0.82240237  0.83517136  1
  O2-  O342  1  0.16805274  0.31840598  0.16815577  1
  O2-  O343  1  0.17021308  0.31801806  0.49504312  1
  O2-  O344  1  0.16908875  0.33281707  0.83167683  1
  O2-  O345  1  0.16668626  0.81698494  0.16742496  1
  O2-  O346  1  0.16464338  0.81831394  0.50279912  1
  O2-  O347  1  0.16581043  0.82632470  0.83592786  1
  O2-  O348  1  0.50419210  0.33009285  0.16161108  1
  O2-  O349  1  0.49976956  0.32147607  0.50117210  1
  O2-  O350  1  0.49302246  0.33334787  0.83735071  1
  O2-  O351  1  0.49274438  0.81355108  0.17389707  1
  O2-  O352  1  0.49790781  0.82861326  0.50521391  1
  O2-  O353  1  0.49678016  0.81403672  0.83205488  1
  O2-  O354  1  0.83515198  0.31896658  0.16105575  1
  O2-  O355  1  0.83383414  0.31011628  0.50537464  1
  O2-  O356  1  0.82357920  0.33564263  0.84059846  1
  O2-  O357  1  0.83798911  0.82836853  0.16274082  1
  O2-  O358  1  0.83546873  0.82995105  0.50197189  1
  O2-  O359  1  0.82964056  0.81785955  0.83431455  1
  O2-  O360  1  0.09523384  0.07948922  0.11212969  1
  O2-  O361  1  0.08645324  0.08283244  0.44891059  1
  O2-  O362  1  0.06872100  0.08143012  0.75484848  1
  O2-  O363  1  0.08998338  0.58407939  0.12065210  1
  O2-  O364  1  0.09642175  0.57874733  0.44452167  1
  O2-  O365  1  0.08189178  0.58001395  0.77557539  1
  O2-  O366  1  0.40940053  0.07214912  0.10061107  1
  O2-  O367  1  0.41770586  0.07925991  0.45056609  1
  O2-  O368  1  0.42278349  0.07432522  0.77851875  1
  O2-  O369  1  0.42528835  0.58218884  0.11642369  1
  O2-  O370  1  0.41006876  0.57694146  0.43879571  1
  O2-  O371  1  0.42637454  0.58911641  0.77862277  1
  O2-  O372  1  0.74276961  0.07667880  0.13362324  1
  O2-  O373  1  0.75133574  0.08616814  0.44697310  1
  O2-  O374  1  0.76100554  0.06867541  0.77448418  1
  O2-  O375  1  0.74143129  0.58125441  0.11359751  1
  O2-  O376  1  0.75442700  0.57836424  0.45241122  1
  O2-  O377  1  0.75312656  0.58360839  0.78258372  1
  O2-  O378  1  0.24548765  0.07253461  0.21231912  1
  O2-  O379  1  0.25057994  0.08015527  0.55102141  1
  O2-  O380  1  0.27732783  0.06315504  0.89840205  1
  O2-  O381  1  0.25254619  0.58344352  0.21097494  1
  O2-  O382  1  0.22778359  0.57070256  0.55593404  1
  O2-  O383  1  0.24393791  0.58627174  0.89492580  1
  O2-  O384  1  0.59053726  0.07667969  0.20218635  1
  O2-  O385  1  0.59003713  0.08418465  0.56345486  1
  O2-  O386  1  0.57110515  0.08192414  0.90142760  1
  O2-  O387  1  0.59750902  0.57890689  0.20390407  1
  O2-  O388  1  0.58106410  0.58111585  0.55641574  1
  O2-  O389  1  0.59194737  0.58470211  0.88737221  1
  O2-  O390  1  0.89591014  0.07839974  0.21662407  1
  O2-  O391  1  0.91739439  0.07272574  0.57578501  1
  O2-  O392  1  0.92024460  0.08512997  0.88484833  1
  O2-  O393  1  0.89811249  0.57495270  0.20456213  1
  O2-  O394  1  0.90777857  0.58777147  0.55852751  1
  O2-  O395  1  0.91578460  0.58574206  0.87861352  1
  O2-  O396  1  0.06999527  0.41897992  0.11562830  1
  O2-  O397  1  0.09900246  0.41462931  0.41523993  1
  O2-  O398  1  0.08778924  0.42131587  0.77379269  1
  O2-  O399  1  0.08280022  0.92309838  0.11885041  1
  O2-  O400  1  0.07008355  0.92333715  0.44130704  1
  O2-  O401  1  0.09690522  0.92043879  0.77936659  1
  O2-  O402  1  0.40790017  0.41733180  0.11655928  1
  O2-  O403  1  0.41730601  0.41601513  0.44048331  1
  O2-  O404  1  0.42194751  0.42390313  0.78512016  1
  O2-  O405  1  0.40451471  0.91503791  0.11690363  1
  O2-  O406  1  0.41550238  0.92145880  0.43502917  1
  O2-  O407  1  0.39732661  0.92841527  0.77130629  1
  O2-  O408  1  0.76958191  0.41775303  0.11592055  1
  O2-  O409  1  0.74164467  0.41115772  0.44007503  1
  O2-  O410  1  0.74172202  0.41720511  0.76773275  1
  O2-  O411  1  0.75718910  0.91979432  0.09818479  1
  O2-  O412  1  0.75979826  0.92513100  0.44147696  1
  O2-  O413  1  0.75407618  0.93265080  0.78830746  1
  O2-  O414  1  0.24646636  0.41619075  0.22713765  1
  O2-  O415  1  0.25701519  0.41971271  0.54902714  1
  O2-  O416  1  0.25677748  0.42439776  0.88117162  1
  O2-  O417  1  0.24526244  0.91856922  0.22185899  1
  O2-  O418  1  0.24691288  0.91795570  0.56430920  1
  O2-  O419  1  0.24145165  0.91854436  0.88670865  1
  O2-  O420  1  0.60705560  0.41706883  0.22444083  1
  O2-  O421  1  0.59410075  0.41867200  0.55909073  1
  O2-  O422  1  0.58649187  0.41917237  0.89737447  1
  O2-  O423  1  0.56420949  0.91380332  0.22570604  1
  O2-  O424  1  0.58692966  0.91499381  0.57807582  1
  O2-  O425  1  0.59882162  0.91863215  0.88864693  1
  O2-  O426  1  0.89495569  0.41662462  0.22597981  1
  O2-  O427  1  0.90087890  0.41246552  0.57261748  1
  O2-  O428  1  0.91582136  0.41780820  0.90712983  1
  O2-  O429  1  0.93648148  0.92295590  0.22800306  1
  O2-  O430  1  0.92406642  0.91625104  0.56725229  1
  O2-  O431  1  0.90521950  0.91901009  0.87526712  1
  O2-  O432  1  0.00593804  -0.01557921  -0.01024358  1
  O2-  O433  1  -0.00224087  0.01120686  0.33510056  1
  O2-  O434  1  0.00034257  0.00513927  0.65762241  1
  O2-  O435  1  -0.01199143  0.50205587  0.01116321  1
  O2-  O436  1  0.03015969  0.50106999  0.31149434  1
  O2-  O437  1  -0.01305169  0.49840684  0.68092384  1
  O2-  O438  1  0.33170096  0.02066777  0.00532259  1
  O2-  O439  1  0.34822135  0.00899118  0.31259373  1
  O2-  O440  1  0.32725645  0.00655625  0.66862697  1
  O2-  O441  1  0.33261842  0.49020138  0.00269562  1
  O2-  O442  1  0.34220410  0.49875125  0.32792590  1
  O2-  O443  1  0.33274681  0.48245500  0.66465591  1
  O2-  O444  1  0.66678968  -0.00083014  -0.01191817  1
  O2-  O445  1  0.66778848  0.01953870  0.32831619  1
  O2-  O446  1  0.68226167  0.00451981  0.65162297  1
  O2-  O447  1  0.67675929  0.50786444  -0.01743026  1
  O2-  O448  1  0.67309120  0.50949188  0.32621939  1
  O2-  O449  1  0.66715154  0.51666013  0.66737017  1
  O2-  O450  1  0.16772681  -0.01813894  0.00319475  1
  O2-  O451  1  0.15251047  0.00782039  0.31108409  1
  O2-  O452  1  0.16109778  -0.00927520  0.65760017  1
  O2-  O453  1  0.15526602  0.50538856  -0.02104210  1
  O2-  O454  1  0.18651364  0.49694650  0.33522047  1
  O2-  O455  1  0.17421099  0.49213266  0.67908630  1
  O2-  O456  1  0.49273555  0.00779786  -0.01157068  1
  O2-  O457  1  0.50759178  0.01027233  0.34482936  1
  O2-  O458  1  0.48313522  0.00304853  0.63797189  1
  O2-  O459  1  0.51629488  0.49284996  0.03553926  1
  O2-  O460  1  0.50696584  0.51058938  0.34722391  1
  O2-  O461  1  0.50676368  0.49592241  0.67566695  1
  O2-  O462  1  0.83184538  -0.00595187  -0.00293938  1
  O2-  O463  1  0.83582258  0.00971867  0.32973472  1
  O2-  O464  1  0.83558414  -0.00416263  0.67459891  1
  O2-  O465  1  0.83233911  0.51012110  -0.00748061  1
  O2-  O466  1  0.82459730  0.51110468  0.32256876  1
  O2-  O467  1  0.81935672  0.50177210  0.63968553  1
  O2-  O468  1  0.76507042  0.75623892  0.05578182  1
  O2-  O469  1  0.41519803  0.75063293  0.05682522  1
  O2-  O470  1  0.91514834  0.75124177  0.60604480  1
  O2-  O471  1  0.25612778  0.25456050  0.92901127  1
  O2-  O472  1  0.41573721  0.75379553  0.41457196  1
  O2-  O473  1  0.40558057  0.24784148  0.73659364  1
  O2-  O474  1  0.58033545  0.24995981  0.91752786  1
  O2-  O475  1  0.25093337  0.75512585  0.59673842  1
  O2-  O476  1  0.59899079  0.74924906  0.59103114  1
  O2-  O477  1  0.25130930  0.25468949  0.60446973  1
  O2-  O478  1  0.42477410  0.24919377  0.39073196  1
  O2-  O479  1  0.07640336  0.75327231  0.05433012  1
  O2-  O480  1  0.92384684  0.24665851  0.26258967  1
  O2-  O481  1  0.24449191  0.75185358  0.93912713  1
  O2-  O482  1  0.76229755  0.75706410  0.40159714  1
  O2-  O483  1  0.41366986  0.25499502  0.06513802  1
  O2-  O484  1  0.74545892  0.24683561  0.75116904  1
  O2-  O485  1  0.09320015  0.24942885  0.74492500  1
  O2-  O486  1  0.59137733  0.74845520  0.94208073  1
  O2-  O487  1  0.92074821  0.75046762  0.94469984  1
  O2-  O488  1  0.07376130  0.25012645  0.06479720  1
  O2-  O489  1  0.90891278  0.75456829  0.26908960  1
  O2-  O490  1  0.92219713  0.25336777  0.93720112  1
  O2-  O491  1  0.57175112  0.24859372  0.27956584  1
  O2-  O492  1  0.08321471  0.75261798  0.73389638  1
