# generated using pymatgen
data_Ca108Mn108O277
_symmetry_space_group_name_H-M   'P 1'
_cell_length_a   16.02969274
_cell_length_b   22.31118856
_cell_length_c   16.39169751
_cell_angle_alpha   90.00455587
_cell_angle_beta   90.00045626
_cell_angle_gamma   90.00478070
_symmetry_Int_Tables_number   1
_chemical_formula_structural   Ca108Mn108O277
_chemical_formula_sum   'Ca108 Mn108 O277'
_cell_volume   5862.35120210
_cell_formula_units_Z   1
loop_
 _symmetry_equiv_pos_site_id
 _symmetry_equiv_pos_as_xyz
  1  'x, y, z'
loop_
 _atom_type_symbol
 _atom_type_oxidation_number
  Ca2+  2.0
  Mn3.34+  3.34
  O2-  -2.0
loop_
 _atom_site_type_symbol
 _atom_site_label
 _atom_site_symmetry_multiplicity
 _atom_site_fract_x
 _atom_site_fract_y
 _atom_site_fract_z
 _atom_site_occupancy
  Ca2+  Ca0  1  0.07097342  0.25472239  0.26049850  1
  Ca2+  Ca1  1  0.10046969  0.25600754  0.56830265  1
  Ca2+  Ca2  1  0.09993264  0.26099464  0.91204753  1
  Ca2+  Ca3  1  0.10126078  0.74552521  0.25504390  1
  Ca2+  Ca4  1  0.09430427  0.73953750  0.57547691  1
  Ca2+  Ca5  1  0.09089562  0.75090137  0.91523828  1
  Ca2+  Ca6  1  0.41910612  0.24726666  0.25121646  1
  Ca2+  Ca7  1  0.40417627  0.25868232  0.57185146  1
  Ca2+  Ca8  1  0.38811032  0.24285587  0.92201459  1
  Ca2+  Ca9  1  0.40033679  0.73794438  0.25973470  1
  Ca2+  Ca10  1  0.40837793  0.75144457  0.57588907  1
  Ca2+  Ca11  1  0.42525854  0.75768639  0.91155857  1
  Ca2+  Ca12  1  0.75536116  0.24207852  0.25044016  1
  Ca2+  Ca13  1  0.74962789  0.26040817  0.57161367  1
  Ca2+  Ca14  1  0.75388666  0.25560006  0.92332813  1
  Ca2+  Ca15  1  0.74837454  0.74613388  0.24146613  1
  Ca2+  Ca16  1  0.74486778  0.74540052  0.60121320  1
  Ca2+  Ca17  1  0.73472696  0.74040694  0.88876486  1
  Ca2+  Ca18  1  0.24714596  0.25118316  0.07754326  1
  Ca2+  Ca19  1  0.24327538  0.24288989  0.40404023  1
  Ca2+  Ca20  1  0.24190759  0.25953815  0.75260944  1
  Ca2+  Ca21  1  0.24986253  0.74905398  0.10395125  1
  Ca2+  Ca22  1  0.25004585  0.73857574  0.40886842  1
  Ca2+  Ca23  1  0.25530116  0.75652749  0.74105661  1
  Ca2+  Ca24  1  0.59790427  0.24789069  0.09971829  1
  Ca2+  Ca25  1  0.59821326  0.23856711  0.40595914  1
  Ca2+  Ca26  1  0.59250061  0.26075866  0.75276297  1
  Ca2+  Ca27  1  0.58096636  0.76957435  0.08107550  1
  Ca2+  Ca28  1  0.56801594  0.75513076  0.40986388  1
  Ca2+  Ca29  1  0.58491997  0.75929449  0.75139125  1
  Ca2+  Ca30  1  0.91136850  0.25620039  0.10766793  1
  Ca2+  Ca31  1  0.90842451  0.23585382  0.39800780  1
  Ca2+  Ca32  1  0.91944593  0.27098269  0.75349455  1
  Ca2+  Ca33  1  0.91184445  0.75392874  0.09689807  1
  Ca2+  Ca34  1  0.93455478  0.74955460  0.40940215  1
  Ca2+  Ca35  1  0.89984324  0.74448293  0.73958847  1
  Ca2+  Ca36  1  0.61038200  0.59063438  0.75494095  1
  Ca2+  Ca37  1  0.30101998  0.11233597  0.09020201  1
  Ca2+  Ca38  1  0.25887253  0.60128974  0.43201842  1
  Ca2+  Ca39  1  0.22975684  0.11118228  0.41141798  1
  Ca2+  Ca40  1  0.90779911  0.11642036  0.11562240  1
  Ca2+  Ca41  1  0.41751370  0.10022145  0.57566692  1
  Ca2+  Ca42  1  0.55648579  0.08100367  0.72597821  1
  Ca2+  Ca43  1  0.10300570  0.54849034  0.93582304  1
  Ca2+  Ca44  1  0.57725818  0.58672985  0.09276061  1
  Ca2+  Ca45  1  0.29388918  0.11522117  0.08368269  1
  Ca2+  Ca46  1  0.10184088  0.58999781  0.25234448  1
  Ca2+  Ca47  1  0.75480636  0.08673397  0.91788627  1
  Ca2+  Ca48  1  0.73290953  0.11197799  0.54924456  1
  Ca2+  Ca49  1  0.74351286  0.10223255  0.25997284  1
  Ca2+  Ca50  1  0.06989111  0.11407230  0.26976358  1
  Ca2+  Ca51  1  0.26720558  0.10745923  0.75960289  1
  Ca2+  Ca52  1  0.56362538  0.57700909  0.39846296  1
  Ca2+  Ca53  1  0.40655152  0.56729215  0.91043228  1
  Ca2+  Ca54  1  0.58987295  0.58585028  0.09412445  1
  Ca2+  Ca55  1  0.41324212  0.57095035  0.29325857  1
  Ca2+  Ca56  1  0.94627140  0.57296708  0.09234003  1
  Ca2+  Ca57  1  0.93060697  0.58145872  0.40190655  1
  Ca2+  Ca58  1  0.74398629  0.09074875  0.92248996  1
  Ca2+  Ca59  1  0.27683306  0.10294170  0.75974425  1
  Ca2+  Ca60  1  0.22909834  0.58283524  0.08179051  1
  Ca2+  Ca61  1  0.54486766  0.07837775  0.72946259  1
  Ca2+  Ca62  1  0.09145730  0.59059960  0.25106264  1
  Ca2+  Ca63  1  0.93283976  0.08963841  0.74158863  1
  Ca2+  Ca64  1  0.89778688  0.11449982  0.11370400  1
  Ca2+  Ca65  1  0.53609427  0.09508489  0.10464801  1
  Ca2+  Ca66  1  0.40790636  0.10862627  0.26041497  1
  Ca2+  Ca67  1  0.07541579  0.11812005  0.27608998  1
  Ca2+  Ca68  1  0.11465792  0.10501131  0.91377948  1
  Ca2+  Ca69  1  0.90443111  0.59530909  0.74045459  1
  Ca2+  Ca70  1  0.54586511  0.09733052  0.10680075  1
  Ca2+  Ca71  1  0.76203457  0.58570496  0.60203187  1
  Ca2+  Ca72  1  0.75593995  0.40095967  0.90539641  1
  Ca2+  Ca73  1  0.56757678  0.41042352  0.75132990  1
  Ca2+  Ca74  1  0.54781151  0.42361786  0.38642710  1
  Ca2+  Ca75  1  0.74600465  0.40364300  0.90811459  1
  Ca2+  Ca76  1  0.74135993  0.89842052  0.58227826  1
  Ca2+  Ca77  1  0.40905602  0.39819322  0.91610180  1
  Ca2+  Ca78  1  0.07628346  0.89932834  0.24848236  1
  Ca2+  Ca79  1  0.44280350  0.91979112  0.23825330  1
  Ca2+  Ca80  1  0.08076871  0.89213934  0.59055387  1
  Ca2+  Ca81  1  0.07438148  0.41423930  0.24681973  1
  Ca2+  Ca82  1  0.58471567  0.91333365  0.41106182  1
  Ca2+  Ca83  1  0.74968131  0.89517302  0.91401335  1
  Ca2+  Ca84  1  0.55826073  0.42392437  0.38732129  1
  Ca2+  Ca85  1  0.73894808  0.40188732  0.25148944  1
  Ca2+  Ca86  1  0.74415821  0.40983826  0.58544295  1
  Ca2+  Ca87  1  0.26319607  0.90517329  0.07611467  1
  Ca2+  Ca88  1  0.42932951  0.90315385  0.90211044  1
  Ca2+  Ca89  1  0.73857377  0.90538677  0.25445537  1
  Ca2+  Ca90  1  0.92448296  0.89188487  0.75526668  1
  Ca2+  Ca91  1  0.92262809  0.41439653  0.40599204  1
  Ca2+  Ca92  1  0.08469965  0.41204573  0.59314620  1
  Ca2+  Ca93  1  0.28046165  0.40825648  0.41919083  1
  Ca2+  Ca94  1  0.45235529  0.91723467  0.24082869  1
  Ca2+  Ca95  1  0.25936190  0.90477270  0.42294432  1
  Ca2+  Ca96  1  0.91221683  0.41518796  0.40711438  1
  Ca2+  Ca97  1  0.72901037  0.90932758  0.25260416  1
  Ca2+  Ca98  1  0.42818493  0.92328641  0.62343339  1
  Ca2+  Ca99  1  0.91114712  0.90506495  0.41203472  1
  Ca2+  Ca100  1  0.24659962  0.90542201  0.42175094  1
  Ca2+  Ca101  1  0.22178712  0.42410850  0.05379504  1
  Ca2+  Ca102  1  0.25490492  0.41502845  0.76491776  1
  Ca2+  Ca103  1  0.92629805  0.89817997  0.07779836  1
  Ca2+  Ca104  1  0.27071180  0.41054985  0.42151172  1
  Ca2+  Ca105  1  0.94066117  0.41577954  0.08776513  1
  Ca2+  Ca106  1  0.08378414  0.89404164  0.90868970  1
  Ca2+  Ca107  1  0.23333064  0.42326033  0.05274519  1
  Mn3.34+  Mn108  1  0.08345515  0.33072744  0.08576742  1
  Mn3.34+  Mn109  1  0.08823304  0.33762508  0.41779691  1
  Mn3.34+  Mn110  1  0.08418181  0.33911833  0.75164462  1
  Mn3.34+  Mn111  1  0.08581248  0.82633960  0.08405991  1
  Mn3.34+  Mn112  1  0.08301022  0.83238663  0.41927023  1
  Mn3.34+  Mn113  1  0.08560040  0.82482837  0.74963470  1
  Mn3.34+  Mn114  1  0.41517825  0.32639618  0.08877982  1
  Mn3.34+  Mn115  1  0.42053792  0.32798120  0.41544341  1
  Mn3.34+  Mn116  1  0.41806207  0.33801975  0.75092973  1
  Mn3.34+  Mn117  1  0.41749091  0.83922655  0.07949596  1
  Mn3.34+  Mn118  1  0.41760752  0.83607634  0.42063480  1
  Mn3.34+  Mn119  1  0.41781728  0.83636414  0.74952112  1
  Mn3.34+  Mn120  1  0.74866164  0.33028116  0.08525540  1
  Mn3.34+  Mn121  1  0.74675427  0.33345332  0.41771000  1
  Mn3.34+  Mn122  1  0.74979533  0.33372070  0.74403578  1
  Mn3.34+  Mn123  1  0.74808473  0.83305079  0.08051733  1
  Mn3.34+  Mn124  1  0.74870141  0.83090962  0.42312782  1
  Mn3.34+  Mn125  1  0.74663754  0.82921926  0.74938268  1
  Mn3.34+  Mn126  1  0.25289863  0.33784883  0.24087232  1
  Mn3.34+  Mn127  1  0.25420756  0.33809199  0.58873018  1
  Mn3.34+  Mn128  1  0.24934471  0.33292823  0.91480549  1
  Mn3.34+  Mn129  1  0.25301932  0.83372728  0.24692795  1
  Mn3.34+  Mn130  1  0.25114674  0.82894707  0.58407348  1
  Mn3.34+  Mn131  1  0.25308949  0.82911315  0.91234712  1
  Mn3.34+  Mn132  1  0.57939873  0.33404093  0.24259966  1
  Mn3.34+  Mn133  1  0.57487734  0.34077068  0.57741437  1
  Mn3.34+  Mn134  1  0.57805410  0.33284787  0.92203636  1
  Mn3.34+  Mn135  1  0.58226778  0.82828350  0.24924961  1
  Mn3.34+  Mn136  1  0.58009966  0.83402632  0.58425700  1
  Mn3.34+  Mn137  1  0.58396901  0.83509787  0.91613868  1
  Mn3.34+  Mn138  1  0.91474211  0.33963006  0.24641667  1
  Mn3.34+  Mn139  1  0.92046224  0.33753282  0.57928780  1
  Mn3.34+  Mn140  1  0.92581288  0.33859193  0.91901293  1
  Mn3.34+  Mn141  1  0.91564453  0.83069133  0.24980263  1
  Mn3.34+  Mn142  1  0.91537392  0.82576229  0.58005258  1
  Mn3.34+  Mn143  1  0.91784031  0.82510142  0.91474605  1
  Mn3.34+  Mn144  1  0.57974309  0.17383717  0.58119710  1
  Mn3.34+  Mn145  1  0.92781128  0.16417335  0.91287104  1
  Mn3.34+  Mn146  1  0.91791360  0.17017315  0.91536574  1
  Mn3.34+  Mn147  1  0.58485519  0.66262675  0.57622739  1
  Mn3.34+  Mn148  1  0.09231892  0.65630399  0.74021699  1
  Mn3.34+  Mn149  1  0.08099348  0.66835178  0.08832483  1
  Mn3.34+  Mn150  1  0.41728279  0.17952084  0.74655808  1
  Mn3.34+  Mn151  1  0.91796088  0.66227335  0.91166171  1
  Mn3.34+  Mn152  1  0.75920121  0.66142417  0.41735461  1
  Mn3.34+  Mn153  1  0.09283072  0.16916217  0.08773368  1
  Mn3.34+  Mn154  1  0.75108703  0.66795200  0.41535564  1
  Mn3.34+  Mn155  1  0.08970592  0.66671829  0.42258998  1
  Mn3.34+  Mn156  1  0.92437205  0.66503149  0.57746157  1
  Mn3.34+  Mn157  1  0.24642705  0.16964662  0.57692920  1
  Mn3.34+  Mn158  1  0.92956826  0.66998284  0.91297896  1
  Mn3.34+  Mn159  1  0.41638964  0.66841868  0.08188614  1
  Mn3.34+  Mn160  1  0.58300666  0.16445321  0.25498851  1
  Mn3.34+  Mn161  1  0.41044567  0.66597737  0.42029804  1
  Mn3.34+  Mn162  1  0.74806079  0.16760565  0.74626284  1
  Mn3.34+  Mn163  1  0.40741040  0.66260003  0.08467617  1
  Mn3.34+  Mn164  1  0.56710772  0.16334213  0.91620227  1
  Mn3.34+  Mn165  1  0.57923657  0.66412377  0.25189957  1
  Mn3.34+  Mn166  1  0.25015768  0.66293902  0.91215930  1
  Mn3.34+  Mn167  1  0.40701417  0.66221232  0.74396055  1
  Mn3.34+  Mn168  1  0.57822531  0.16710551  0.91764984  1
  Mn3.34+  Mn169  1  0.41708290  0.16772159  0.41935294  1
  Mn3.34+  Mn170  1  0.57464884  0.65735737  0.57613998  1
  Mn3.34+  Mn171  1  0.09045421  0.16898594  0.74446297  1
  Mn3.34+  Mn172  1  0.91636475  0.17715178  0.58284634  1
  Mn3.34+  Mn173  1  0.92743638  0.16905120  0.57906431  1
  Mn3.34+  Mn174  1  0.92322071  0.66405657  0.24843479  1
  Mn3.34+  Mn175  1  0.57893242  0.66401897  0.91042002  1
  Mn3.34+  Mn176  1  0.41629036  0.65671299  0.74621933  1
  Mn3.34+  Mn177  1  0.75717884  0.65872942  0.08185473  1
  Mn3.34+  Mn178  1  0.74742564  0.66487649  0.08056004  1
  Mn3.34+  Mn179  1  0.23780157  0.65802670  0.91124370  1
  Mn3.34+  Mn180  1  0.42391321  0.00137770  0.41772544  1
  Mn3.34+  Mn181  1  0.75387605  0.49941639  0.74039269  1
  Mn3.34+  Mn182  1  0.75057323  0.50131261  0.41276992  1
  Mn3.34+  Mn183  1  0.92311109  0.50434160  0.58568860  1
  Mn3.34+  Mn184  1  0.08898803  0.50225225  0.42157251  1
  Mn3.34+  Mn185  1  0.75527499  -0.00695007  0.74287172  1
  Mn3.34+  Mn186  1  0.25365157  0.00206011  0.24766655  1
  Mn3.34+  Mn187  1  0.74618382  0.49385944  0.09125144  1
  Mn3.34+  Mn188  1  0.26813544  -0.00119743  0.92099617  1
  Mn3.34+  Mn189  1  0.58234709  0.50221594  0.91982000  1
  Mn3.34+  Mn190  1  0.75211695  0.00257994  0.08065772  1
  Mn3.34+  Mn191  1  0.23800914  -0.00271518  0.24816477  1
  Mn3.34+  Mn192  1  0.09455057  0.00084408  0.08245762  1
  Mn3.34+  Mn193  1  0.74137162  -0.00143683  0.74631416  1
  Mn3.34+  Mn194  1  0.92668794  -0.00215183  0.91072960  1
  Mn3.34+  Mn195  1  0.42510060  0.49005771  0.09893405  1
  Mn3.34+  Mn196  1  0.92417247  -0.00635555  0.25549849  1
  Mn3.34+  Mn197  1  0.58289148  0.00298125  0.57021078  1
  Mn3.34+  Mn198  1  0.74989037  -0.00101985  0.40441316  1
  Mn3.34+  Mn199  1  0.73967772  -0.00196178  0.08031175  1
  Mn3.34+  Mn200  1  0.56751852  -0.00285298  0.92600468  1
  Mn3.34+  Mn201  1  0.07957945  0.00637003  0.08339298  1
  Mn3.34+  Mn202  1  0.08252592  0.50205221  0.74536814  1
  Mn3.34+  Mn203  1  0.08145205  -0.00073148  0.41731782  1
  Mn3.34+  Mn204  1  0.23872934  0.00162248  0.59341965  1
  Mn3.34+  Mn205  1  0.25919031  -0.00728549  0.91834557  1
  Mn3.34+  Mn206  1  0.75593611  0.49964779  0.09282192  1
  Mn3.34+  Mn207  1  0.25266437  0.00692320  0.59030287  1
  Mn3.34+  Mn208  1  0.26101592  0.50143547  0.61079630  1
  Mn3.34+  Mn209  1  0.41230120  0.49721632  0.10142894  1
  Mn3.34+  Mn210  1  0.25175927  0.49468240  0.25907802  1
  Mn3.34+  Mn211  1  0.07904790  -0.00261799  0.75653630  1
  Mn3.34+  Mn212  1  0.56895986  0.49957853  0.60181399  1
  Mn3.34+  Mn213  1  0.92329061  0.49918963  0.92092617  1
  Mn3.34+  Mn214  1  0.92851014  0.00489745  0.57502696  1
  Mn3.34+  Mn215  1  0.91426048  -0.00086987  0.57337347  1
  O2-  O216  1  0.00218676  0.13967983  0.00236311  1
  O2-  O217  1  -0.00619373  0.17738141  0.33119906  1
  O2-  O218  1  0.00101557  0.16151584  0.66630510  1
  O2-  O219  1  -0.00067965  0.67660298  0.00260155  1
  O2-  O220  1  0.00751499  0.65796579  0.32905306  1
  O2-  O221  1  -0.00104956  0.67420586  0.66836836  1
  O2-  O222  1  0.33816705  0.18470481  0.01173827  1
  O2-  O223  1  0.33140752  0.16086440  0.34690240  1
  O2-  O224  1  0.33866187  0.15850655  0.66041267  1
  O2-  O225  1  0.33172501  0.63753753  0.00013162  1
  O2-  O226  1  0.33614106  0.65872476  0.33821118  1
  O2-  O227  1  0.33470167  0.67448920  0.66208561  1
  O2-  O228  1  0.65182870  0.13420247  -0.00242143  1
  O2-  O229  1  0.66847593  0.16407481  0.32680238  1
  O2-  O230  1  0.65761054  0.14840837  0.67566700  1
  O2-  O231  1  0.66093746  0.64625470  0.00012648  1
  O2-  O232  1  0.67048411  0.66174576  0.33377445  1
  O2-  O233  1  0.66781031  0.64981007  0.65181329  1
  O2-  O234  1  0.17763445  0.14329317  0.01872180  1
  O2-  O235  1  0.16622451  0.17356475  0.32268887  1
  O2-  O236  1  0.17577708  0.14665909  0.66869310  1
  O2-  O237  1  0.16214760  0.66166226  0.00203307  1
  O2-  O238  1  0.16430882  0.65162908  0.33737786  1
  O2-  O239  1  0.16207883  0.69948279  0.67706650  1
  O2-  O240  1  0.49675080  0.16569070  0.00445429  1
  O2-  O241  1  0.49854500  0.16416794  0.33883999  1
  O2-  O242  1  0.50363872  0.16724214  0.67069783  1
  O2-  O243  1  0.49572843  0.64197830  0.00394121  1
  O2-  O244  1  0.49789912  0.65685441  0.33139186  1
  O2-  O245  1  0.50924106  0.64701444  0.67611749  1
  O2-  O246  1  0.83340094  0.14721416  -0.00506228  1
  O2-  O247  1  0.83389439  0.16526275  0.32347462  1
  O2-  O248  1  0.83864092  0.15189413  0.66352213  1
  O2-  O249  1  0.84028331  0.66175611  -0.00316964  1
  O2-  O250  1  0.84180102  0.65180954  0.33638229  1
  O2-  O251  1  0.84114263  0.66780771  0.65405411  1
  O2-  O252  1  -0.00412818  0.34446400  0.01012716  1
  O2-  O253  1  0.00173007  0.35092493  0.33390145  1
  O2-  O254  1  0.00171056  0.33320759  0.66311554  1
  O2-  O255  1  0.00140448  0.81551695  0.00039954  1
  O2-  O256  1  -0.00442058  0.84515165  0.33830648  1
  O2-  O257  1  -0.00428611  0.82403334  0.66834190  1
  O2-  O258  1  0.32533556  0.33369423  0.00648237  1
  O2-  O259  1  0.32722108  0.33639129  0.33497678  1
  O2-  O260  1  0.33181677  0.33324203  0.67697089  1
  O2-  O261  1  0.33820309  0.85154196  -0.00904377  1
  O2-  O262  1  0.33940714  0.86132485  0.32551734  1
  O2-  O263  1  0.33664863  0.82835130  0.66019248  1
  O2-  O264  1  0.66877669  0.35197483  -0.00168718  1
  O2-  O265  1  0.65986354  0.35151347  0.34465401  1
  O2-  O266  1  0.65715614  0.34684660  0.66662097  1
  O2-  O267  1  0.66764329  0.84107657  -0.00122705  1
  O2-  O268  1  0.66558232  0.83961552  0.33811738  1
  O2-  O269  1  0.66722992  0.84260644  0.66602802  1
  O2-  O270  1  0.16391994  0.34280877  -0.00061541  1
  O2-  O271  1  0.17236368  0.36140353  0.33243365  1
  O2-  O272  1  0.16902171  0.35286148  0.66742656  1
  O2-  O273  1  0.16704001  0.83310553  -0.00015420  1
  O2-  O274  1  0.16913242  0.85197270  0.33347137  1
  O2-  O275  1  0.16230960  0.82431730  0.66081944  1
  O2-  O276  1  0.48608876  0.32447191  -0.00784815  1
  O2-  O277  1  0.49810696  0.33664200  0.33147654  1
  O2-  O278  1  0.49892851  0.31358582  0.66646666  1
  O2-  O279  1  0.49993292  0.84449247  -0.00348043  1
  O2-  O280  1  0.50099652  0.85047409  0.33451979  1
  O2-  O281  1  0.49813749  0.84090129  0.66483769  1
  O2-  O282  1  0.83035267  0.35034860  -0.00141846  1
  O2-  O283  1  0.83219984  0.35381974  0.33224186  1
  O2-  O284  1  0.83061007  0.32962231  0.65795750  1
  O2-  O285  1  0.83924805  0.84183009  0.00072227  1
  O2-  O286  1  0.82320430  0.84751467  0.33164445  1
  O2-  O287  1  0.83240599  0.83609455  0.66396083  1
  O2-  O288  1  0.00218115  0.17793155  0.16097296  1
  O2-  O289  1  -0.00048072  0.19843893  0.50647886  1
  O2-  O290  1  0.00121236  0.18305931  0.82713140  1
  O2-  O291  1  -0.00033247  0.69135245  0.16613742  1
  O2-  O292  1  0.00040913  0.68524090  0.49535987  1
  O2-  O293  1  0.00064115  0.69181316  0.83043228  1
  O2-  O294  1  0.33695500  0.18324633  0.17311240  1
  O2-  O295  1  0.33503047  0.17983007  0.50407958  1
  O2-  O296  1  0.32984624  0.19022648  0.81255689  1
  O2-  O297  1  0.32951689  0.67600814  0.16314267  1
  O2-  O298  1  0.33456989  0.68557749  0.49506190  1
  O2-  O299  1  0.33300633  0.67752694  0.83344448  1
  O2-  O300  1  0.64474934  0.16142219  0.15857248  1
  O2-  O301  1  0.66341022  0.19328382  0.51531547  1
  O2-  O302  1  0.67016173  0.17011734  0.84670152  1
  O2-  O303  1  0.65982478  0.67792136  0.16187306  1
  O2-  O304  1  0.67076246  0.69044808  0.49542717  1
  O2-  O305  1  0.64816318  0.67696118  0.82805625  1
  O2-  O306  1  0.16438619  0.18372561  0.16603439  1
  O2-  O307  1  0.17274879  0.18187878  0.49913959  1
  O2-  O308  1  0.16925336  0.17071191  0.82279230  1
  O2-  O309  1  0.15915415  0.67979265  0.16472297  1
  O2-  O310  1  0.17129271  0.67902514  0.49358229  1
  O2-  O311  1  0.16174378  0.68369208  0.83078818  1
  O2-  O312  1  0.49422214  0.17693360  0.17586675  1
  O2-  O313  1  0.49340483  0.18731576  0.50932248  1
  O2-  O314  1  0.50089720  0.19310780  0.83111058  1
  O2-  O315  1  0.50297837  0.68491180  0.15695210  1
  O2-  O316  1  0.50355357  0.68271658  0.49434137  1
  O2-  O317  1  0.48692345  0.67706721  0.83950505  1
  O2-  O318  1  0.82893543  0.17870927  0.17225770  1
  O2-  O319  1  0.83173673  0.18733676  0.50922208  1
  O2-  O320  1  0.82958493  0.18037861  0.83438008  1
  O2-  O321  1  0.83765645  0.67248070  0.16585180  1
  O2-  O322  1  0.83680831  0.69128233  0.49540808  1
  O2-  O323  1  0.84021025  0.68074212  0.83392067  1
  O2-  O324  1  0.00183416  0.32425849  0.16910141  1
  O2-  O325  1  0.00342723  0.32431177  0.49773653  1
  O2-  O326  1  0.00571085  0.31984560  0.83740445  1
  O2-  O327  1  0.00186158  0.81945109  0.16545528  1
  O2-  O328  1  0.00350797  0.81658715  0.50441761  1
  O2-  O329  1  0.00072374  0.81064155  0.83229617  1
  O2-  O330  1  0.33270754  0.30554589  0.16837283  1
  O2-  O331  1  0.33082386  0.32865725  0.49593643  1
  O2-  O332  1  0.33886246  0.32119475  0.83693728  1
  O2-  O333  1  0.33301721  0.82177319  0.16246084  1
  O2-  O334  1  0.32394431  0.81939096  0.48929415  1
  O2-  O335  1  0.33885249  0.81941604  0.83501976  1
  O2-  O336  1  0.67352534  0.32063417  0.17382847  1
  O2-  O337  1  0.67111924  0.32606866  0.50644451  1
  O2-  O338  1  0.67124676  0.33002837  0.83837104  1
  O2-  O339  1  0.67277332  0.82032143  0.17734569  1
  O2-  O340  1  0.66779873  0.81639447  0.50298520  1
  O2-  O341  1  0.66982586  0.82412166  0.83857530  1
  O2-  O342  1  0.16496588  0.31306690  0.16976579  1
  O2-  O343  1  0.17377539  0.33657324  0.49717215  1
  O2-  O344  1  0.17447062  0.33110532  0.82681745  1
  O2-  O345  1  0.16476745  0.81723560  0.16856587  1
  O2-  O346  1  0.17037467  0.81968351  0.49733459  1
  O2-  O347  1  0.16569832  0.81192151  0.83365576  1
  O2-  O348  1  0.50222527  0.31074644  0.16241072  1
  O2-  O349  1  0.50344288  0.31503129  0.49374760  1
  O2-  O350  1  0.50574548  0.32084755  0.82850651  1
  O2-  O351  1  0.49463657  0.82515430  0.17124207  1
  O2-  O352  1  0.49938328  0.82288015  0.49852758  1
  O2-  O353  1  0.50103695  0.82275031  0.83509097  1
  O2-  O354  1  0.83141110  0.32402580  0.16842283  1
  O2-  O355  1  0.83990341  0.32367210  0.49479388  1
  O2-  O356  1  0.82957663  0.32521947  0.83800606  1
  O2-  O357  1  0.82983250  0.82442267  0.16731793  1
  O2-  O358  1  0.83655391  0.81140830  0.49542795  1
  O2-  O359  1  0.83383780  0.81518985  0.83484568  1
  O2-  O360  1  0.08299655  0.08227777  0.13054015  1
  O2-  O361  1  0.09056647  0.07850033  0.40184544  1
  O2-  O362  1  0.07203253  0.07998778  0.78162122  1
  O2-  O363  1  0.08027672  0.58361325  0.11517393  1
  O2-  O364  1  0.07853313  0.58291888  0.44020436  1
  O2-  O365  1  0.06947240  0.57733943  0.78952381  1
  O2-  O366  1  0.41139406  0.06910079  0.13589876  1
  O2-  O367  1  0.41411312  0.08203321  0.44132845  1
  O2-  O368  1  0.41748418  0.08944835  0.77281676  1
  O2-  O369  1  0.43628679  0.57767299  0.13166607  1
  O2-  O370  1  0.41418967  0.58705579  0.43503796  1
  O2-  O371  1  0.41215835  0.57918073  0.77637882  1
  O2-  O372  1  0.76850684  0.07875067  0.11875411  1
  O2-  O373  1  0.75238282  0.07318631  0.42891890  1
  O2-  O374  1  0.75546633  0.07749021  0.78684688  1
  O2-  O375  1  0.72847820  0.57782505  0.13025130  1
  O2-  O376  1  0.74894437  0.57908417  0.45855673  1
  O2-  O377  1  0.75956521  0.57620021  0.76223644  1
  O2-  O378  1  0.24940751  0.08131300  0.21823231  1
  O2-  O379  1  0.25278837  0.08229143  0.54278187  1
  O2-  O380  1  0.25293822  0.07790591  0.88631013  1
  O2-  O381  1  0.23540726  0.56683270  0.21625309  1
  O2-  O382  1  0.25361961  0.56153691  0.55375648  1
  O2-  O383  1  0.23962415  0.57763513  0.89178026  1
  O2-  O384  1  0.57730469  0.07974617  0.23460613  1
  O2-  O385  1  0.58115086  0.08587135  0.56502158  1
  O2-  O386  1  0.58573923  0.07349496  0.86096552  1
  O2-  O387  1  0.57150710  0.58294571  0.22518985  1
  O2-  O388  1  0.58474057  0.57565951  0.54185802  1
  O2-  O389  1  0.56575504  0.58057293  0.88432772  1
  O2-  O390  1  0.94366110  0.07339025  0.23097525  1
  O2-  O391  1  0.91990622  0.08531242  0.54884734  1
  O2-  O392  1  0.89997916  0.08034992  0.87522724  1
  O2-  O393  1  0.95420152  0.58299631  0.22848623  1
  O2-  O394  1  0.90607503  0.57974119  0.54528639  1
  O2-  O395  1  0.92967664  0.57839775  0.88151640  1
  O2-  O396  1  0.09270317  0.41244300  0.11004313  1
  O2-  O397  1  0.07490498  0.42356701  0.45376903  1
  O2-  O398  1  0.09053727  0.42359503  0.77290065  1
  O2-  O399  1  0.07936306  0.91809990  0.10305240  1
  O2-  O400  1  0.08960023  0.91885553  0.45731252  1
  O2-  O401  1  0.06924609  0.91475003  0.77326686  1
  O2-  O402  1  0.39596575  0.41165700  0.10083075  1
  O2-  O403  1  0.41707148  0.41176884  0.42989850  1
  O2-  O404  1  0.42004152  0.41583315  0.77894044  1
  O2-  O405  1  0.40703773  0.91901380  0.10992124  1
  O2-  O406  1  0.39476973  0.92325027  0.46231218  1
  O2-  O407  1  0.41322170  0.91522612  0.76498246  1
  O2-  O408  1  0.75982147  0.41451139  0.11650182  1
  O2-  O409  1  0.76577654  0.42282312  0.44841392  1
  O2-  O410  1  0.74314100  0.41985470  0.77095689  1
  O2-  O411  1  0.74577871  0.91860720  0.11318093  1
  O2-  O412  1  0.75942813  0.92460188  0.45338838  1
  O2-  O413  1  0.76911487  0.91495002  0.77866808  1
  O2-  O414  1  0.24795529  0.42754083  0.19701766  1
  O2-  O415  1  0.24845014  0.43497570  0.55111579  1
  O2-  O416  1  0.26716797  0.41819324  0.91020747  1
  O2-  O417  1  0.23662089  0.91878281  0.20869015  1
  O2-  O418  1  0.23810502  0.92091616  0.55635553  1
  O2-  O419  1  0.23216521  0.91532033  0.89236611  1
  O2-  O420  1  0.58855885  0.41581942  0.24220666  1
  O2-  O421  1  0.58342625  0.43088343  0.53852127  1
  O2-  O422  1  0.58598526  0.42023907  0.89135222  1
  O2-  O423  1  0.59091584  0.91320845  0.22673884  1
  O2-  O424  1  0.58776006  0.92080891  0.55086572  1
  O2-  O425  1  0.58474901  0.92004000  0.89106158  1
  O2-  O426  1  0.92082769  0.42276277  0.22572998  1
  O2-  O427  1  0.92187717  0.42646027  0.54673372  1
  O2-  O428  1  0.89461423  0.42259211  0.89071948  1
  O2-  O429  1  0.91621511  0.91664474  0.21363902  1
  O2-  O430  1  0.92046454  0.91668414  0.55371001  1
  O2-  O431  1  0.93252477  0.91358616  0.89401050  1
  O2-  O432  1  -0.01469472  0.00047047  0.01732043  1
  O2-  O433  1  0.01515731  -0.02088617  0.32344309  1
  O2-  O434  1  -0.01244179  -0.00394119  0.67752931  1
  O2-  O435  1  -0.00347185  0.50255343  0.00509832  1
  O2-  O436  1  -0.00161082  0.49447533  0.35845840  1
  O2-  O437  1  -0.00108875  0.50506393  0.66672976  1
  O2-  O438  1  0.30781580  0.00367105  0.02792722  1
  O2-  O439  1  0.33617061  -0.00890921  0.32966007  1
  O2-  O440  1  0.33206910  0.01759949  0.66996339  1
  O2-  O441  1  0.33430522  0.51009617  0.01744097  1
  O2-  O442  1  0.30934990  0.49926249  0.35077684  1
  O2-  O443  1  0.33080813  0.48993609  0.68094321  1
  O2-  O444  1  0.67610758  0.01005316  -0.02171146  1
  O2-  O445  1  0.67029995  -0.02140310  0.33576401  1
  O2-  O446  1  0.66140844  0.00398982  0.66337983  1
  O2-  O447  1  0.66085975  0.51093460  0.01164241  1
  O2-  O448  1  0.65133575  0.49793450  0.36774946  1
  O2-  O449  1  0.67486055  0.50119184  0.65029694  1
  O2-  O450  1  0.14668247  0.00369106  -0.02595730  1
  O2-  O451  1  0.18195074  -0.01705441  0.35085765  1
  O2-  O452  1  0.16331527  -0.00052291  0.67736936  1
  O2-  O453  1  0.17369029  0.50608070  0.02594083  1
  O2-  O454  1  0.14893981  0.49918122  0.31155052  1
  O2-  O455  1  0.16682530  0.49181218  0.66381518  1
  O2-  O456  1  0.50964119  0.02509866  0.00947409  1
  O2-  O457  1  0.49730720  -0.02310545  0.33995415  1
  O2-  O458  1  0.49577778  0.00899915  0.64859092  1
  O2-  O459  1  0.50097497  0.51071261  0.00891854  1
  O2-  O460  1  0.49246809  0.50350222  0.34734259  1
  O2-  O461  1  0.52413424  0.50198358  0.69859632  1
  O2-  O462  1  0.82536441  0.00325343  -0.01508378  1
  O2-  O463  1  0.82593830  -0.01918137  0.32069986  1
  O2-  O464  1  0.82817908  0.01047381  0.65521204  1
  O2-  O465  1  0.83623183  0.50601514  0.00813341  1
  O2-  O466  1  0.84920796  0.50137247  0.36518514  1
  O2-  O467  1  0.83183258  0.50034419  0.65366613  1
  O2-  O468  1  0.23813456  0.25377503  0.92655869  1
  O2-  O469  1  0.40515971  0.24882100  0.39719104  1
  O2-  O470  1  0.91319593  0.25200445  0.94458597  1
  O2-  O471  1  0.42665671  0.74532193  0.73591222  1
  O2-  O472  1  0.75119380  0.74908754  0.06616687  1
  O2-  O473  1  0.74737737  0.25343681  0.06010760  1
  O2-  O474  1  0.08602666  0.75128364  0.39043339  1
  O2-  O475  1  0.57927330  0.74684953  0.94254481  1
  O2-  O476  1  0.57739937  0.74410388  0.60923323  1
  O2-  O477  1  0.09564119  0.25159430  0.72746270  1
  O2-  O478  1  0.60613871  0.24961292  0.93847270  1
  O2-  O479  1  0.59389034  0.25047756  0.26584266  1
  O2-  O480  1  0.25458235  0.75694092  0.27221785  1
  O2-  O481  1  0.58191255  0.74826756  0.27245133  1
  O2-  O482  1  0.08092877  0.24692953  0.04990078  1
  O2-  O483  1  0.42151062  0.75577239  0.39199601  1
  O2-  O484  1  0.91559049  0.26017842  0.26372994  1
  O2-  O485  1  0.75051575  0.25706428  0.39252567  1
  O2-  O486  1  0.26158424  0.74217530  0.94440452  1
  O2-  O487  1  0.73985338  0.75089065  0.73729486  1
  O2-  O488  1  0.09921495  0.26196473  0.39663948  1
  O2-  O489  1  0.41232941  0.75153488  0.05225359  1
  O2-  O490  1  0.90166609  0.74829647  0.27298988  1
  O2-  O491  1  0.73678730  0.25072470  0.73185784  1
  O2-  O492  1  0.24597991  0.24985311  0.60617579  1
