# generated using pymatgen
data_Ca108Mn108O277
_symmetry_space_group_name_H-M   'P 1'
_cell_length_a   16.02458043
_cell_length_b   22.30150465
_cell_length_c   16.38761102
_cell_angle_alpha   89.99899978
_cell_angle_beta   89.99963932
_cell_angle_gamma   89.99919412
_symmetry_Int_Tables_number   1
_chemical_formula_structural   Ca108Mn108O277
_chemical_formula_sum   'Ca108 Mn108 O277'
_cell_volume   5856.47750291
_cell_formula_units_Z   1
loop_
 _symmetry_equiv_pos_site_id
 _symmetry_equiv_pos_as_xyz
  1  'x, y, z'
loop_
 _atom_type_symbol
 _atom_type_oxidation_number
  Ca2+  2.0
  Mn3.34+  3.34
  O2-  -2.0
loop_
 _atom_site_type_symbol
 _atom_site_label
 _atom_site_symmetry_multiplicity
 _atom_site_fract_x
 _atom_site_fract_y
 _atom_site_fract_z
 _atom_site_occupancy
  Ca2+  Ca0  1  0.11382341  0.24779378  0.24665838  1
  Ca2+  Ca1  1  0.07364369  0.22753589  0.59146651  1
  Ca2+  Ca2  1  0.09382254  0.23250897  0.92117476  1
  Ca2+  Ca3  1  0.08038501  0.75812450  0.25112166  1
  Ca2+  Ca4  1  0.08695235  0.76192709  0.58634465  1
  Ca2+  Ca5  1  0.08226007  0.76405957  0.91273239  1
  Ca2+  Ca6  1  0.39990469  0.24202571  0.26343898  1
  Ca2+  Ca7  1  0.40196957  0.24905365  0.58493305  1
  Ca2+  Ca8  1  0.38788342  0.24324873  0.89805851  1
  Ca2+  Ca9  1  0.42272389  0.74089354  0.25265450  1
  Ca2+  Ca10  1  0.41430261  0.75297180  0.56849711  1
  Ca2+  Ca11  1  0.41202558  0.75973333  0.92533467  1
  Ca2+  Ca12  1  0.74437664  0.26162265  0.25085815  1
  Ca2+  Ca13  1  0.77894249  0.24379750  0.58936225  1
  Ca2+  Ca14  1  0.76842820  0.25135068  0.92734172  1
  Ca2+  Ca15  1  0.75038133  0.73575842  0.25828051  1
  Ca2+  Ca16  1  0.74850596  0.75402272  0.57092448  1
  Ca2+  Ca17  1  0.75746391  0.75831300  0.92391689  1
  Ca2+  Ca18  1  0.24061931  0.25144306  0.08864162  1
  Ca2+  Ca19  1  0.24859787  0.24645279  0.40304451  1
  Ca2+  Ca20  1  0.25273335  0.23536876  0.75255044  1
  Ca2+  Ca21  1  0.24493077  0.76145284  0.08806698  1
  Ca2+  Ca22  1  0.24862783  0.75092326  0.41191224  1
  Ca2+  Ca23  1  0.23399815  0.75841893  0.75310223  1
  Ca2+  Ca24  1  0.60952489  0.24027730  0.10183021  1
  Ca2+  Ca25  1  0.57327905  0.25078941  0.40320014  1
  Ca2+  Ca26  1  0.57653062  0.25700354  0.74878408  1
  Ca2+  Ca27  1  0.59175346  0.74912471  0.09310618  1
  Ca2+  Ca28  1  0.60309341  0.73902217  0.40797449  1
  Ca2+  Ca29  1  0.60085194  0.75283898  0.74994854  1
  Ca2+  Ca30  1  0.90791839  0.24676753  0.06913217  1
  Ca2+  Ca31  1  0.92828725  0.24393959  0.44535784  1
  Ca2+  Ca32  1  0.91860094  0.23121688  0.74727610  1
  Ca2+  Ca33  1  0.90973309  0.75716368  0.08873661  1
  Ca2+  Ca34  1  0.90474479  0.75342135  0.40643323  1
  Ca2+  Ca35  1  0.91977849  0.74930815  0.76958957  1
  Ca2+  Ca36  1  0.63533148  0.59372453  0.41339425  1
  Ca2+  Ca37  1  0.55673950  0.09055707  0.75546698  1
  Ca2+  Ca38  1  0.24240140  0.57414537  0.39108651  1
  Ca2+  Ca39  1  0.39279446  0.09546318  0.59561549  1
  Ca2+  Ca40  1  0.27106175  0.57361823  0.09386067  1
  Ca2+  Ca41  1  0.10398932  0.10229913  0.25193048  1
  Ca2+  Ca42  1  0.59814163  0.58981015  0.75298478  1
  Ca2+  Ca43  1  0.78902456  0.10641254  0.92283768  1
  Ca2+  Ca44  1  0.77459859  0.60074025  0.91779407  1
  Ca2+  Ca45  1  0.23168242  0.10266738  0.06199845  1
  Ca2+  Ca46  1  0.91968522  0.09892892  0.07201095  1
  Ca2+  Ca47  1  0.92170978  0.60064080  0.76035884  1
  Ca2+  Ca48  1  0.05410409  0.59571363  0.91416295  1
  Ca2+  Ca49  1  0.24603041  0.10416902  0.41686916  1
  Ca2+  Ca50  1  0.76384198  0.59909917  0.92071872  1
  Ca2+  Ca51  1  0.56986679  0.59081477  0.08198615  1
  Ca2+  Ca52  1  0.91318921  0.59658428  0.07442163  1
  Ca2+  Ca53  1  0.77877208  0.10553485  0.92501840  1
  Ca2+  Ca54  1  0.08372090  0.59064051  0.58602899  1
  Ca2+  Ca55  1  0.39740903  0.08945963  0.59133735  1
  Ca2+  Ca56  1  0.74630717  0.59721480  0.58475457  1
  Ca2+  Ca57  1  0.41636370  0.60355387  0.57998222  1
  Ca2+  Ca58  1  0.88659938  0.59087639  0.40820901  1
  Ca2+  Ca59  1  0.23862454  0.09772728  0.76723511  1
  Ca2+  Ca60  1  0.58583861  0.58719777  0.75126030  1
  Ca2+  Ca61  1  0.23416796  0.59020598  0.73996214  1
  Ca2+  Ca62  1  0.56900385  0.09072502  0.75112381  1
  Ca2+  Ca63  1  0.73485923  0.10713113  0.22997376  1
  Ca2+  Ca64  1  0.25840390  0.57333301  0.09472070  1
  Ca2+  Ca65  1  0.38318669  0.08951662  0.89535168  1
  Ca2+  Ca66  1  0.08880819  0.57836133  0.26433422  1
  Ca2+  Ca67  1  0.23445631  0.09769438  0.06875251  1
  Ca2+  Ca68  1  0.41925253  0.58271726  0.25518531  1
  Ca2+  Ca69  1  0.87512404  0.58744398  0.41035226  1
  Ca2+  Ca70  1  0.72703567  0.11277134  0.22475135  1
  Ca2+  Ca71  1  0.23290896  0.57622181  0.39448323  1
  Ca2+  Ca72  1  0.24315331  0.39921440  0.76251691  1
  Ca2+  Ca73  1  0.60865336  0.91282892  0.41456159  1
  Ca2+  Ca74  1  0.76775588  0.91459352  0.24982662  1
  Ca2+  Ca75  1  0.07266939  0.40415948  0.57396354  1
  Ca2+  Ca76  1  0.23569638  0.90593690  0.42199434  1
  Ca2+  Ca77  1  0.91295968  0.90814402  0.75014632  1
  Ca2+  Ca78  1  0.90579209  0.92741828  0.39782645  1
  Ca2+  Ca79  1  0.75264395  0.39654044  0.91775569  1
  Ca2+  Ca80  1  0.57256684  0.40386253  0.08438385  1
  Ca2+  Ca81  1  0.23925945  0.91541099  0.05075865  1
  Ca2+  Ca82  1  0.90405170  0.40528817  0.41160571  1
  Ca2+  Ca83  1  0.24816510  0.41030644  0.08882666  1
  Ca2+  Ca84  1  0.40902785  0.90002790  0.24838766  1
  Ca2+  Ca85  1  0.23875551  0.40761429  0.09205645  1
  Ca2+  Ca86  1  0.25812254  0.91664716  0.77531868  1
  Ca2+  Ca87  1  0.10559600  0.42226597  0.26083755  1
  Ca2+  Ca88  1  0.75617615  0.40199215  0.57710571  1
  Ca2+  Ca89  1  0.25224731  0.39721585  0.75795661  1
  Ca2+  Ca90  1  0.40741773  0.41438359  0.24914753  1
  Ca2+  Ca91  1  0.40925269  0.91494547  0.60328818  1
  Ca2+  Ca92  1  0.08372818  0.40298812  0.57262405  1
  Ca2+  Ca93  1  0.59428281  0.89638007  0.07585525  1
  Ca2+  Ca94  1  0.91281983  0.39753048  0.75426617  1
  Ca2+  Ca95  1  0.59747356  0.90903590  0.41156036  1
  Ca2+  Ca96  1  0.58562318  0.40247837  0.75671586  1
  Ca2+  Ca97  1  0.76090032  0.90792151  0.58798685  1
  Ca2+  Ca98  1  0.41964420  0.39598698  0.57702709  1
  Ca2+  Ca99  1  0.91558761  0.40638092  0.41121208  1
  Ca2+  Ca100  1  0.57635531  0.89770897  0.75168900  1
  Ca2+  Ca101  1  0.92489205  0.90830485  0.74956160  1
  Ca2+  Ca102  1  0.06166815  0.91400637  0.24849958  1
  Ca2+  Ca103  1  0.42193931  0.90025869  0.24849842  1
  Ca2+  Ca104  1  0.39691636  0.91586730  0.60277292  1
  Ca2+  Ca105  1  0.41867552  0.41530344  0.93508322  1
  Ca2+  Ca106  1  0.59493094  0.40354304  0.40824003  1
  Ca2+  Ca107  1  0.91590698  0.92863484  0.39581493  1
  Mn3.34+  Mn108  1  0.07587468  0.33611748  0.08709942  1
  Mn3.34+  Mn109  1  0.08518570  0.33309212  0.41196997  1
  Mn3.34+  Mn110  1  0.08043811  0.32850841  0.75603119  1
  Mn3.34+  Mn111  1  0.07668160  0.84060084  0.07993886  1
  Mn3.34+  Mn112  1  0.07946816  0.83330976  0.41917317  1
  Mn3.34+  Mn113  1  0.08432662  0.83755158  0.75199459  1
  Mn3.34+  Mn114  1  0.41734460  0.33419241  0.08726899  1
  Mn3.34+  Mn115  1  0.41580564  0.33449694  0.41622350  1
  Mn3.34+  Mn116  1  0.41780160  0.33125368  0.75221720  1
  Mn3.34+  Mn117  1  0.41627364  0.82880950  0.08352991  1
  Mn3.34+  Mn118  1  0.41634119  0.83262448  0.42296858  1
  Mn3.34+  Mn119  1  0.41494896  0.82921607  0.75464242  1
  Mn3.34+  Mn120  1  0.75363053  0.32778929  0.08623845  1
  Mn3.34+  Mn121  1  0.75023618  0.33077455  0.41689753  1
  Mn3.34+  Mn122  1  0.74859270  0.32915918  0.75307004  1
  Mn3.34+  Mn123  1  0.75362098  0.83310968  0.08444171  1
  Mn3.34+  Mn124  1  0.75294837  0.83208099  0.41835193  1
  Mn3.34+  Mn125  1  0.75228633  0.83268671  0.75495225  1
  Mn3.34+  Mn126  1  0.25311743  0.33671451  0.25381290  1
  Mn3.34+  Mn127  1  0.24865744  0.32961126  0.57842351  1
  Mn3.34+  Mn128  1  0.24571002  0.33090541  0.92278840  1
  Mn3.34+  Mn129  1  0.24453825  0.83250095  0.24834757  1
  Mn3.34+  Mn130  1  0.24411771  0.83401788  0.58196431  1
  Mn3.34+  Mn131  1  0.24888304  0.83730992  0.91734620  1
  Mn3.34+  Mn132  1  0.58245732  0.33946284  0.24586739  1
  Mn3.34+  Mn133  1  0.58663368  0.33377945  0.58196321  1
  Mn3.34+  Mn134  1  0.58102046  0.33213379  0.91932513  1
  Mn3.34+  Mn135  1  0.58802687  0.82987276  0.24786376  1
  Mn3.34+  Mn136  1  0.58418438  0.82600420  0.58252036  1
  Mn3.34+  Mn137  1  0.58204122  0.82803135  0.91601957  1
  Mn3.34+  Mn138  1  0.91925759  0.32836602  0.24405114  1
  Mn3.34+  Mn139  1  0.91663449  0.33019385  0.58760284  1
  Mn3.34+  Mn140  1  0.92535854  0.33958285  0.91915645  1
  Mn3.34+  Mn141  1  0.91562196  0.83551954  0.24544966  1
  Mn3.34+  Mn142  1  0.92243020  0.84182017  0.57659304  1
  Mn3.34+  Mn143  1  0.91746044  0.84372694  0.92425608  1
  Mn3.34+  Mn144  1  0.08826030  0.66543351  0.08786157  1
  Mn3.34+  Mn145  1  0.58049687  0.66933610  0.92261291  1
  Mn3.34+  Mn146  1  0.92288402  0.16550759  0.25637932  1
  Mn3.34+  Mn147  1  0.74927271  0.15687737  0.42173114  1
  Mn3.34+  Mn148  1  0.92370227  0.16053112  0.24680755  1
  Mn3.34+  Mn149  1  0.75237732  0.67145935  0.75440123  1
  Mn3.34+  Mn150  1  0.91420904  0.66776590  0.25133488  1
  Mn3.34+  Mn151  1  0.42832491  0.16795713  0.09556176  1
  Mn3.34+  Mn152  1  0.42002798  0.66658521  0.41656588  1
  Mn3.34+  Mn153  1  0.42427212  0.67598727  0.75108038  1
  Mn3.34+  Mn154  1  0.41527020  0.68185674  0.74989679  1
  Mn3.34+  Mn155  1  0.42001360  0.66366678  0.08805519  1
  Mn3.34+  Mn156  1  0.25806570  0.65916294  0.91643961  1
  Mn3.34+  Mn157  1  0.07809527  0.66040839  0.08925269  1
  Mn3.34+  Mn158  1  0.75082055  0.66788652  0.09157676  1
  Mn3.34+  Mn159  1  0.24664593  0.66363796  0.91772188  1
  Mn3.34+  Mn160  1  0.58588995  0.67481004  0.57847789  1
  Mn3.34+  Mn161  1  0.23994365  0.16583797  0.58600575  1
  Mn3.34+  Mn162  1  0.58778342  0.17791973  0.91973059  1
  Mn3.34+  Mn163  1  0.41758730  0.16637166  0.41228184  1
  Mn3.34+  Mn164  1  0.25475051  0.66849960  0.24867632  1
  Mn3.34+  Mn165  1  0.07948060  0.17152309  0.08078157  1
  Mn3.34+  Mn166  1  0.08408946  0.66810781  0.41816879  1
  Mn3.34+  Mn167  1  0.57628459  0.17176424  0.91909623  1
  Mn3.34+  Mn168  1  0.75343583  0.16746105  0.74935549  1
  Mn3.34+  Mn169  1  0.24699958  0.67342683  0.57758482  1
  Mn3.34+  Mn170  1  0.92322390  0.67122352  0.58268543  1
  Mn3.34+  Mn171  1  0.08473071  0.16640653  0.42313970  1
  Mn3.34+  Mn172  1  0.08111809  0.66969199  0.75424924  1
  Mn3.34+  Mn173  1  0.58598757  0.66129304  0.25012870  1
  Mn3.34+  Mn174  1  0.41777988  0.17133024  0.09142209  1
  Mn3.34+  Mn175  1  0.75806946  0.16268794  0.42263232  1
  Mn3.34+  Mn176  1  0.07236388  0.16104645  0.75965753  1
  Mn3.34+  Mn177  1  0.91409848  0.67695727  0.58441500  1
  Mn3.34+  Mn178  1  0.58023805  0.17046426  0.58169904  1
  Mn3.34+  Mn179  1  0.59125095  0.16578402  0.58081149  1
  Mn3.34+  Mn180  1  0.24324638  -0.00623902  0.24777145  1
  Mn3.34+  Mn181  1  0.92973778  0.49316525  0.93796693  1
  Mn3.34+  Mn182  1  0.58020047  0.00090142  0.91516363  1
  Mn3.34+  Mn183  1  0.24972078  0.50302334  0.57802178  1
  Mn3.34+  Mn184  1  0.26041232  0.49773636  0.57927132  1
  Mn3.34+  Mn185  1  0.07963500  0.00261844  0.07297376  1
  Mn3.34+  Mn186  1  0.92524987  0.00252065  0.92585887  1
  Mn3.34+  Mn187  1  0.57486861  0.00584655  0.24797623  1
  Mn3.34+  Mn188  1  0.60590176  -0.00009406  0.57986063  1
  Mn3.34+  Mn189  1  0.07965390  0.00294448  0.41850208  1
  Mn3.34+  Mn190  1  0.08593236  0.00265102  0.74082605  1
  Mn3.34+  Mn191  1  0.75625954  0.49461367  0.09553256  1
  Mn3.34+  Mn192  1  0.91430062  0.50252599  0.58359155  1
  Mn3.34+  Mn193  1  0.59223412  0.50162707  0.26885710  1
  Mn3.34+  Mn194  1  0.58414950  -0.00003149  0.24464253  1
  Mn3.34+  Mn195  1  0.25583624  0.00132346  0.24937718  1
  Mn3.34+  Mn196  1  0.75978039  -0.00445192  0.07449851  1
  Mn3.34+  Mn197  1  0.24705675  0.49999458  0.93293837  1
  Mn3.34+  Mn198  1  0.58871448  0.49933111  0.57625418  1
  Mn3.34+  Mn199  1  0.41877872  0.49972979  0.41083752  1
  Mn3.34+  Mn200  1  0.75830050  0.00310965  0.75675957  1
  Mn3.34+  Mn201  1  0.57694985  0.50410380  0.57553848  1
  Mn3.34+  Mn202  1  0.40885702  0.00658104  0.08236345  1
  Mn3.34+  Mn203  1  0.59337801  -0.00576619  0.91640363  1
  Mn3.34+  Mn204  1  0.42185106  0.00012812  0.07920604  1
  Mn3.34+  Mn205  1  0.41553776  0.00044455  0.41955545  1
  Mn3.34+  Mn206  1  0.59513077  0.00361354  0.57867703  1
  Mn3.34+  Mn207  1  0.57625862  0.50077112  0.92951237  1
  Mn3.34+  Mn208  1  0.74532664  0.50016517  0.09731118  1
  Mn3.34+  Mn209  1  0.76014918  0.49690626  0.75415837  1
  Mn3.34+  Mn210  1  0.91567543  0.00634885  0.59588085  1
  Mn3.34+  Mn211  1  0.07759105  0.49852514  0.75048362  1
  Mn3.34+  Mn212  1  0.41603582  0.50296089  0.76053777  1
  Mn3.34+  Mn213  1  0.22771847  0.00129980  0.59182365  1
  Mn3.34+  Mn214  1  0.90616299  0.49661037  0.24133771  1
  Mn3.34+  Mn215  1  0.91664029  0.50110675  0.23862325  1
  O2-  O216  1  -0.00484952  0.17258508  0.00954554  1
  O2-  O217  1  0.00358759  0.16080091  0.33377969  1
  O2-  O218  1  0.00352801  0.16227941  0.67562202  1
  O2-  O219  1  -0.00150309  0.66260438  0.00557379  1
  O2-  O220  1  -0.00745635  0.64288971  0.34270652  1
  O2-  O221  1  0.00027143  0.66042664  0.66749645  1
  O2-  O222  1  0.34737664  0.14771830  0.00856739  1
  O2-  O223  1  0.33340092  0.16165299  0.34417139  1
  O2-  O224  1  0.32317744  0.15216780  0.66660319  1
  O2-  O225  1  0.33204719  0.66295833  0.00971502  1
  O2-  O226  1  0.33163810  0.65022669  0.33595600  1
  O2-  O227  1  0.33395041  0.67187960  0.66201928  1
  O2-  O228  1  0.67366834  0.16074487  -0.01021052  1
  O2-  O229  1  0.67369560  0.16639223  0.33898145  1
  O2-  O230  1  0.65658167  0.14782055  0.67347835  1
  O2-  O231  1  0.66725317  0.65060802  0.00066970  1
  O2-  O232  1  0.66649823  0.66113199  0.32474925  1
  O2-  O233  1  0.65989554  0.65782078  0.67399511  1
  O2-  O234  1  0.15936196  0.16307987  0.00143072  1
  O2-  O235  1  0.16489440  0.16411175  0.33739648  1
  O2-  O236  1  0.16400777  0.15883746  0.66600359  1
  O2-  O237  1  0.16655913  0.63702318  0.00226254  1
  O2-  O238  1  0.16792215  0.65358774  0.33166807  1
  O2-  O239  1  0.16592344  0.65928998  0.66346612  1
  O2-  O240  1  0.50602805  0.16560412  0.00866181  1
  O2-  O241  1  0.49704427  0.17875559  0.33957514  1
  O2-  O242  1  0.49707376  0.14954953  0.66254610  1
  O2-  O243  1  0.50096738  0.68570188  0.00565683  1
  O2-  O244  1  0.50122403  0.64919592  0.33343650  1
  O2-  O245  1  0.50311292  0.67696161  0.66266041  1
  O2-  O246  1  0.84442233  0.17008032  -0.00393463  1
  O2-  O247  1  0.83535654  0.16980319  0.33022404  1
  O2-  O248  1  0.82727935  0.16377811  0.67317302  1
  O2-  O249  1  0.83008735  0.66192821  0.00402055  1
  O2-  O250  1  0.83479825  0.66032523  0.32910514  1
  O2-  O251  1  0.83553137  0.65470820  0.66620807  1
  O2-  O252  1  -0.00042791  0.32053420  -0.00047804  1
  O2-  O253  1  -0.00414869  0.34277549  0.33705219  1
  O2-  O254  1  0.00228018  0.35175760  0.66591024  1
  O2-  O255  1  -0.00428768  0.81615415  -0.00156169  1
  O2-  O256  1  -0.00502006  0.84765813  0.33891710  1
  O2-  O257  1  -0.00574050  0.83484035  0.66951471  1
  O2-  O258  1  0.33023002  0.35238085  0.00229260  1
  O2-  O259  1  0.34169776  0.34419172  0.32860941  1
  O2-  O260  1  0.33100917  0.35112883  0.66953208  1
  O2-  O261  1  0.33048098  0.82629627  0.00649567  1
  O2-  O262  1  0.33110416  0.85070946  0.33808560  1
  O2-  O263  1  0.33475888  0.81950417  0.66384030  1
  O2-  O264  1  0.66526811  0.33658518  -0.00107938  1
  O2-  O265  1  0.66279376  0.32738494  0.33590544  1
  O2-  O266  1  0.66610620  0.35144184  0.66752850  1
  O2-  O267  1  0.66368732  0.82876138  -0.00144042  1
  O2-  O268  1  0.67155225  0.84915710  0.33061012  1
  O2-  O269  1  0.66545784  0.83966484  0.66623219  1
  O2-  O270  1  0.16980549  0.34681664  0.00590225  1
  O2-  O271  1  0.16409222  0.34348450  0.33005145  1
  O2-  O272  1  0.16565536  0.35103592  0.66475230  1
  O2-  O273  1  0.16365541  0.83949465  -0.00009306  1
  O2-  O274  1  0.16127746  0.85157760  0.32930101  1
  O2-  O275  1  0.16916094  0.83082166  0.66727053  1
  O2-  O276  1  0.49788225  0.34175491  0.00073895  1
  O2-  O277  1  0.50401680  0.33715157  0.33473935  1
  O2-  O278  1  0.50182266  0.34848734  0.66986693  1
  O2-  O279  1  0.50332558  0.81813867  0.00555967  1
  O2-  O280  1  0.50652277  0.85335233  0.33840665  1
  O2-  O281  1  0.49988020  0.82100228  0.66738034  1
  O2-  O282  1  0.83445727  0.33229899  -0.00478092  1
  O2-  O283  1  0.83943651  0.32906802  0.33790753  1
  O2-  O284  1  0.83176875  0.34463556  0.66671558  1
  O2-  O285  1  0.83613015  0.82432595  0.00106221  1
  O2-  O286  1  0.83834948  0.84743762  0.34237942  1
  O2-  O287  1  0.83990873  0.84457667  0.66492925  1
  O2-  O288  1  0.00499474  0.18284637  0.17295779  1
  O2-  O289  1  0.00593457  0.17399032  0.49760985  1
  O2-  O290  1  0.00467595  0.18310434  0.83421045  1
  O2-  O291  1  0.00362596  0.68097006  0.17524509  1
  O2-  O292  1  0.00392527  0.68913050  0.50474570  1
  O2-  O293  1  0.00175017  0.67775901  0.83319306  1
  O2-  O294  1  0.32769434  0.17395158  0.15909388  1
  O2-  O295  1  0.33657795  0.17175099  0.51370166  1
  O2-  O296  1  0.32424853  0.16722842  0.83392389  1
  O2-  O297  1  0.33495100  0.68710670  0.16625295  1
  O2-  O298  1  0.33366650  0.68485420  0.50015463  1
  O2-  O299  1  0.33301470  0.68683311  0.83081029  1
  O2-  O300  1  0.67797801  0.18943764  0.18587687  1
  O2-  O301  1  0.66336799  0.18280439  0.49612809  1
  O2-  O302  1  0.65658328  0.18425928  0.82781137  1
  O2-  O303  1  0.66012589  0.67493597  0.16204847  1
  O2-  O304  1  0.66996907  0.68190431  0.50908812  1
  O2-  O305  1  0.66630017  0.68033761  0.84048482  1
  O2-  O306  1  0.16592248  0.17189891  0.15721831  1
  O2-  O307  1  0.17324639  0.18273232  0.49470913  1
  O2-  O308  1  0.16541361  0.17727324  0.82333889  1
  O2-  O309  1  0.17524833  0.67778306  0.16268868  1
  O2-  O310  1  0.16609737  0.69156939  0.50110174  1
  O2-  O311  1  0.17075932  0.67258989  0.82771023  1
  O2-  O312  1  0.49831949  0.19400734  0.17165668  1
  O2-  O313  1  0.49587733  0.18068851  0.50652877  1
  O2-  O314  1  0.50074342  0.18135474  0.83486936  1
  O2-  O315  1  0.49984012  0.67668660  0.16641418  1
  O2-  O316  1  0.50031522  0.68595851  0.50065223  1
  O2-  O317  1  0.50814908  0.69084913  0.83301384  1
  O2-  O318  1  0.84131142  0.18240457  0.17428707  1
  O2-  O319  1  0.83304758  0.17124183  0.50190486  1
  O2-  O320  1  0.82187747  0.18126359  0.83548674  1
  O2-  O321  1  0.83934575  0.68349641  0.16398633  1
  O2-  O322  1  0.83658824  0.68439612  0.50140008  1
  O2-  O323  1  0.83113054  0.67650780  0.83616581  1
  O2-  O324  1  0.00772266  0.31280208  0.17529173  1
  O2-  O325  1  -0.00126567  0.32803082  0.50292212  1
  O2-  O326  1  -0.00764772  0.31974900  0.82652791  1
  O2-  O327  1  0.00156114  0.82385751  0.16965980  1
  O2-  O328  1  -0.00310863  0.81153166  0.49956149  1
  O2-  O329  1  -0.00569092  0.82408943  0.83275006  1
  O2-  O330  1  0.32750574  0.32789438  0.15997987  1
  O2-  O331  1  0.33875119  0.32585355  0.50776172  1
  O2-  O332  1  0.32787291  0.32569350  0.83143510  1
  O2-  O333  1  0.34041190  0.81730821  0.17548560  1
  O2-  O334  1  0.32895299  0.81756489  0.50363007  1
  O2-  O335  1  0.33161979  0.81553776  0.83099575  1
  O2-  O336  1  0.66331631  0.32185367  0.16604681  1
  O2-  O337  1  0.67071527  0.32608706  0.50210973  1
  O2-  O338  1  0.66341237  0.31651425  0.83605612  1
  O2-  O339  1  0.66231091  0.82494932  0.16257722  1
  O2-  O340  1  0.66120395  0.81703035  0.49458534  1
  O2-  O341  1  0.66496655  0.81598092  0.83304632  1
  O2-  O342  1  0.17351709  0.32873721  0.16597823  1
  O2-  O343  1  0.15674241  0.32867974  0.50653453  1
  O2-  O344  1  0.17446735  0.32346304  0.82706619  1
  O2-  O345  1  0.16654313  0.82474761  0.16768563  1
  O2-  O346  1  0.16909975  0.81834971  0.49449116  1
  O2-  O347  1  0.17087960  0.83037437  0.82976142  1
  O2-  O348  1  0.49823808  0.31831291  0.16741854  1
  O2-  O349  1  0.50220435  0.32121233  0.50215696  1
  O2-  O350  1  0.49968169  0.31868591  0.83481103  1
  O2-  O351  1  0.49447151  0.81842734  0.17136815  1
  O2-  O352  1  0.50218365  0.81647425  0.50131310  1
  O2-  O353  1  0.50106325  0.80938769  0.82967171  1
  O2-  O354  1  0.83720381  0.31026728  0.16662265  1
  O2-  O355  1  0.83824238  0.32386984  0.50158074  1
  O2-  O356  1  0.83193065  0.31740356  0.83421097  1
  O2-  O357  1  0.82655057  0.82106504  0.17597086  1
  O2-  O358  1  0.83136535  0.82114409  0.50579930  1
  O2-  O359  1  0.83913826  0.81874698  0.83366387  1
  O2-  O360  1  0.07711516  0.08350606  0.10887448  1
  O2-  O361  1  0.10018588  0.08149550  0.43003402  1
  O2-  O362  1  0.09239386  0.07903109  0.77498067  1
  O2-  O363  1  0.09042492  0.58217196  0.12409778  1
  O2-  O364  1  0.10464146  0.58764170  0.45292068  1
  O2-  O365  1  0.07571692  0.58208930  0.77364153  1
  O2-  O366  1  0.43655664  0.08378281  0.12211937  1
  O2-  O367  1  0.41177659  0.08226038  0.45332000  1
  O2-  O368  1  0.43970984  0.06232096  0.77978241  1
  O2-  O369  1  0.40405914  0.57892788  0.11746237  1
  O2-  O370  1  0.40902708  0.57800948  0.45258663  1
  O2-  O371  1  0.44647052  0.58838998  0.76706826  1
  O2-  O372  1  0.76930032  0.07399011  0.10771647  1
  O2-  O373  1  0.75144523  0.07776238  0.41165350  1
  O2-  O374  1  0.73143500  0.08405273  0.79284362  1
  O2-  O375  1  0.75913790  0.58241716  0.11287220  1
  O2-  O376  1  0.75801662  0.56909352  0.46412329  1
  O2-  O377  1  0.73800117  0.58312801  0.78515966  1
  O2-  O378  1  0.23766340  0.07519554  0.20341642  1
  O2-  O379  1  0.24816643  0.08213461  0.55436249  1
  O2-  O380  1  0.24693183  0.08093852  0.90429552  1
  O2-  O381  1  0.25753386  0.58524981  0.22675348  1
  O2-  O382  1  0.25647234  0.58394495  0.54876777  1
  O2-  O383  1  0.25406534  0.57333377  0.87470165  1
  O2-  O384  1  0.59968394  0.08486490  0.22495676  1
  O2-  O385  1  0.58864244  0.08319775  0.54466133  1
  O2-  O386  1  0.58680478  0.08303442  0.88826336  1
  O2-  O387  1  0.57940238  0.57552567  0.21777730  1
  O2-  O388  1  0.57682905  0.58605045  0.55401396  1
  O2-  O389  1  0.58837091  0.57902036  0.88663293  1
  O2-  O390  1  0.90821869  0.08128997  0.21961828  1
  O2-  O391  1  0.91823968  0.07192899  0.55464331  1
  O2-  O392  1  0.91221853  0.07146887  0.88028574  1
  O2-  O393  1  0.91234385  0.58315677  0.21487321  1
  O2-  O394  1  0.92734444  0.58345417  0.54400044  1
  O2-  O395  1  0.90107206  0.56561365  0.87918954  1
  O2-  O396  1  0.09815881  0.41758182  0.11358395  1
  O2-  O397  1  0.05500202  0.42044774  0.44208454  1
  O2-  O398  1  0.10072789  0.41787898  0.77260203  1
  O2-  O399  1  0.09091800  0.92408373  0.11125775  1
  O2-  O400  1  0.07556157  0.92001726  0.44597187  1
  O2-  O401  1  0.06497942  0.92073305  0.77092844  1
  O2-  O402  1  0.41839305  0.41481339  0.10898465  1
  O2-  O403  1  0.43478351  0.42085655  0.44085579  1
  O2-  O404  1  0.40411776  0.41972936  0.78446331  1
  O2-  O405  1  0.41662690  0.91928106  0.11282208  1
  O2-  O406  1  0.42250414  0.91869458  0.46679070  1
  O2-  O407  1  0.41282280  0.91322497  0.73933483  1
  O2-  O408  1  0.74212129  0.41314302  0.09583333  1
  O2-  O409  1  0.76551113  0.41214159  0.43671400  1
  O2-  O410  1  0.74525316  0.41421985  0.78078193  1
  O2-  O411  1  0.73682409  0.91787989  0.10802889  1
  O2-  O412  1  0.73717348  0.91733690  0.45615850  1
  O2-  O413  1  0.76531168  0.91577599  0.77220491  1
  O2-  O414  1  0.25590852  0.42220428  0.22389211  1
  O2-  O415  1  0.24667399  0.41664043  0.56092457  1
  O2-  O416  1  0.25484841  0.42342810  0.89117806  1
  O2-  O417  1  0.27251587  0.91701707  0.20690810  1
  O2-  O418  1  0.26394732  0.91949367  0.55817521  1
  O2-  O419  1  0.25942618  0.91644008  0.90995182  1
  O2-  O420  1  0.57792581  0.42852521  0.22024999  1
  O2-  O421  1  0.58715929  0.41836760  0.55211114  1
  O2-  O422  1  0.58209389  0.42290918  0.89208245  1
  O2-  O423  1  0.55617757  0.92094798  0.20561726  1
  O2-  O424  1  0.58612745  0.91672771  0.55328368  1
  O2-  O425  1  0.57439393  0.91524130  0.88657918  1
  O2-  O426  1  0.91347854  0.41477612  0.24032855  1
  O2-  O427  1  0.91564298  0.42007953  0.55355253  1
  O2-  O428  1  0.89818831  0.42421060  0.88421095  1
  O2-  O429  1  0.91771430  0.91624625  0.23910986  1
  O2-  O430  1  0.90843056  0.93452105  0.53928510  1
  O2-  O431  1  0.91618674  0.92850997  0.88173055  1
  O2-  O432  1  -0.02188495  0.00928782  0.02089018  1
  O2-  O433  1  0.00164735  -0.00635667  0.34084129  1
  O2-  O434  1  -0.01623549  -0.00901523  0.67986059  1
  O2-  O435  1  -0.00099620  0.53024664  0.00298370  1
  O2-  O436  1  0.00633181  0.50415080  0.31094515  1
  O2-  O437  1  0.01414384  0.49557238  0.64804999  1
  O2-  O438  1  0.33425386  0.02011852  0.00054079  1
  O2-  O439  1  0.33491737  -0.01723017  0.33210322  1
  O2-  O440  1  0.34690353  0.00327799  0.61806697  1
  O2-  O441  1  0.32482354  0.49116373  0.01286425  1
  O2-  O442  1  0.33363336  0.51182458  0.34311052  1
  O2-  O443  1  0.33375443  0.51484134  0.66958711  1
  O2-  O444  1  0.66233962  0.00326744  0.00775037  1
  O2-  O445  1  0.66122523  -0.02623142  0.32368537  1
  O2-  O446  1  0.65218318  -0.00089624  0.68917412  1
  O2-  O447  1  0.66832840  0.51112572  0.00360391  1
  O2-  O448  1  0.64467845  0.49701166  0.36208945  1
  O2-  O449  1  0.65743250  0.51568757  0.67642574  1
  O2-  O450  1  0.19058063  0.00637531  0.05177502  1
  O2-  O451  1  0.16704554  -0.00649012  0.33567578  1
  O2-  O452  1  0.19879697  -0.00560818  0.71029700  1
  O2-  O453  1  0.17728797  0.51243149  0.01518480  1
  O2-  O454  1  0.16412280  0.51283034  0.32941375  1
  O2-  O455  1  0.17328214  0.50961182  0.67090002  1
  O2-  O456  1  0.49882571  -0.00418225  -0.00343273  1
  O2-  O457  1  0.50043601  -0.02105004  0.33609167  1
  O2-  O458  1  0.49556314  0.00202621  0.64049811  1
  O2-  O459  1  0.50641321  0.49464355  0.00793185  1
  O2-  O460  1  0.48641942  0.50104040  0.31455918  1
  O2-  O461  1  0.50366429  0.49962463  0.67152693  1
  O2-  O462  1  0.82303918  0.01234945  -0.02171324  1
  O2-  O463  1  0.82614515  -0.01944582  0.33038588  1
  O2-  O464  1  0.82857688  -0.01326105  0.65824716  1
  O2-  O465  1  0.82979002  0.51158502  0.00029772  1
  O2-  O466  1  0.85450736  0.50071352  0.35228465  1
  O2-  O467  1  0.82505621  0.50785221  0.65539384  1
  O2-  O468  1  0.41258343  0.25440000  0.72853642  1
  O2-  O469  1  0.08566744  0.75128563  0.73808741  1
  O2-  O470  1  0.40030887  0.25014092  0.05401677  1
  O2-  O471  1  0.74346383  0.74806936  0.06928080  1
  O2-  O472  1  0.40587197  0.25214919  0.41071146  1
  O2-  O473  1  0.57915153  0.74662543  0.27036511  1
  O2-  O474  1  0.73584999  0.24964790  0.72089124  1
  O2-  O475  1  0.23654959  0.74855239  0.93346223  1
  O2-  O476  1  0.09636995  0.74519769  0.06653526  1
  O2-  O477  1  0.92193450  0.25209918  0.60158609  1
  O2-  O478  1  0.08255233  0.75024627  0.38609775  1
  O2-  O479  1  0.92304178  0.75020042  0.27159336  1
  O2-  O480  1  0.24464811  0.75044671  0.27442553  1
  O2-  O481  1  0.75461904  0.75076479  0.72184648  1
  O2-  O482  1  0.75218179  0.75508921  0.39381847  1
  O2-  O483  1  0.58485352  0.25171208  0.61177734  1
  O2-  O484  1  0.25232869  0.25057983  0.60770275  1
  O2-  O485  1  0.08183038  0.25160723  0.39858739  1
  O2-  O486  1  0.25472250  0.25610505  0.26480241  1
  O2-  O487  1  0.09707815  0.25362099  0.07298012  1
  O2-  O488  1  0.74889470  0.25176071  0.06577206  1
  O2-  O489  1  0.25060214  0.25340522  0.93993112  1
  O2-  O490  1  0.08745884  0.25134068  0.72756122  1
  O2-  O491  1  0.75508303  0.24550808  0.41260349  1
  O2-  O492  1  0.41377386  0.75119426  0.38875230  1
