# generated using pymatgen
data_Ca108Mn108O277
_symmetry_space_group_name_H-M   'P 1'
_cell_length_a   16.02873876
_cell_length_b   22.30899791
_cell_length_c   16.39023203
_cell_angle_alpha   90.00295245
_cell_angle_beta   89.99905214
_cell_angle_gamma   89.99610370
_symmetry_Int_Tables_number   1
_chemical_formula_structural   Ca108Mn108O277
_chemical_formula_sum   'Ca108 Mn108 O277'
_cell_volume   5860.90273126
_cell_formula_units_Z   1
loop_
 _symmetry_equiv_pos_site_id
 _symmetry_equiv_pos_as_xyz
  1  'x, y, z'
loop_
 _atom_type_symbol
 _atom_type_oxidation_number
  Ca2+  2.0
  Mn3.34+  3.34
  O2-  -2.0
loop_
 _atom_site_type_symbol
 _atom_site_label
 _atom_site_symmetry_multiplicity
 _atom_site_fract_x
 _atom_site_fract_y
 _atom_site_fract_z
 _atom_site_occupancy
  Ca2+  Ca0  1  0.09959368  0.25561668  0.23878975  1
  Ca2+  Ca1  1  0.06436322  0.25131978  0.59040513  1
  Ca2+  Ca2  1  0.09605969  0.24753535  0.92439116  1
  Ca2+  Ca3  1  0.06760103  0.75546975  0.24565984  1
  Ca2+  Ca4  1  0.06531075  0.74980377  0.58853573  1
  Ca2+  Ca5  1  0.07693391  0.74237532  0.91901663  1
  Ca2+  Ca6  1  0.40534291  0.25798735  0.24899382  1
  Ca2+  Ca7  1  0.41621996  0.26621146  0.58292890  1
  Ca2+  Ca8  1  0.41184560  0.26682477  0.92002971  1
  Ca2+  Ca9  1  0.44086461  0.73848256  0.22901511  1
  Ca2+  Ca10  1  0.41940908  0.76087150  0.58344938  1
  Ca2+  Ca11  1  0.42748185  0.71427482  0.93742191  1
  Ca2+  Ca12  1  0.74560294  0.25621389  0.25217492  1
  Ca2+  Ca13  1  0.77537022  0.23588133  0.60488026  1
  Ca2+  Ca14  1  0.76187049  0.24354929  0.89316275  1
  Ca2+  Ca15  1  0.75407168  0.75066735  0.24889535  1
  Ca2+  Ca16  1  0.76041724  0.75581358  0.59307229  1
  Ca2+  Ca17  1  0.73945267  0.75009378  0.92244752  1
  Ca2+  Ca18  1  0.24472535  0.25885124  0.06979694  1
  Ca2+  Ca19  1  0.24818020  0.27305093  0.40770008  1
  Ca2+  Ca20  1  0.24058832  0.24984577  0.78109657  1
  Ca2+  Ca21  1  0.26922589  0.73837861  0.06955593  1
  Ca2+  Ca22  1  0.24488734  0.75747953  0.41540137  1
  Ca2+  Ca23  1  0.24368753  0.74608760  0.76401167  1
  Ca2+  Ca24  1  0.57703208  0.26489799  0.07713677  1
  Ca2+  Ca25  1  0.57674942  0.26188079  0.41255214  1
  Ca2+  Ca26  1  0.60942803  0.24284978  0.75772207  1
  Ca2+  Ca27  1  0.58532933  0.73732665  0.07419274  1
  Ca2+  Ca28  1  0.59413713  0.74026658  0.40110615  1
  Ca2+  Ca29  1  0.58627873  0.75471776  0.78059044  1
  Ca2+  Ca30  1  0.93512987  0.25425969  0.07067960  1
  Ca2+  Ca31  1  0.92573346  0.24902508  0.43771406  1
  Ca2+  Ca32  1  0.91626873  0.24639667  0.74551797  1
  Ca2+  Ca33  1  0.91045730  0.74920972  0.08551334  1
  Ca2+  Ca34  1  0.91077811  0.73874663  0.41095002  1
  Ca2+  Ca35  1  0.91426133  0.74524997  0.75357084  1
  Ca2+  Ca36  1  0.42262589  0.08561221  0.93146048  1
  Ca2+  Ca37  1  0.87905774  0.10553621  0.76173472  1
  Ca2+  Ca38  1  0.78627419  0.62397185  0.55208821  1
  Ca2+  Ca39  1  0.59308668  0.08613377  0.09497194  1
  Ca2+  Ca40  1  0.72949821  0.61065039  0.24913578  1
  Ca2+  Ca41  1  0.58057422  0.08796454  0.09514083  1
  Ca2+  Ca42  1  0.91687239  0.07732324  0.42139452  1
  Ca2+  Ca43  1  0.59116509  0.59065127  0.38222298  1
  Ca2+  Ca44  1  0.58644236  0.58736351  0.08251910  1
  Ca2+  Ca45  1  0.40974421  0.08569549  0.93106872  1
  Ca2+  Ca46  1  0.57359697  0.60119435  0.78036874  1
  Ca2+  Ca47  1  0.08771182  0.60136802  0.91403851  1
  Ca2+  Ca48  1  0.88867110  0.10705950  0.76446187  1
  Ca2+  Ca49  1  0.04370637  0.09597440  0.59324111  1
  Ca2+  Ca50  1  0.74044513  0.59212853  0.93552857  1
  Ca2+  Ca51  1  0.57552872  0.08135849  0.39350572  1
  Ca2+  Ca52  1  0.26145140  0.57229436  0.39448076  1
  Ca2+  Ca53  1  0.94643534  0.08441815  0.05689834  1
  Ca2+  Ca54  1  0.08313120  0.58531391  0.23094231  1
  Ca2+  Ca55  1  0.73355423  0.58805040  0.93022845  1
  Ca2+  Ca56  1  0.22816855  0.08631536  0.07720611  1
  Ca2+  Ca57  1  0.04784309  0.61948805  0.59526094  1
  Ca2+  Ca58  1  0.58327908  0.60352382  0.78479310  1
  Ca2+  Ca59  1  0.58847366  0.08149758  0.39340847  1
  Ca2+  Ca60  1  0.25793567  0.58271073  0.03544133  1
  Ca2+  Ca61  1  0.21794537  0.08765119  0.07883559  1
  Ca2+  Ca62  1  0.07339152  0.58724536  0.23381334  1
  Ca2+  Ca63  1  0.72117497  0.60765815  0.24444571  1
  Ca2+  Ca64  1  0.07375721  0.10967163  0.91457510  1
  Ca2+  Ca65  1  0.24738890  0.58284450  0.03548095  1
  Ca2+  Ca66  1  0.74276978  0.07879636  0.25249296  1
  Ca2+  Ca67  1  0.23070315  0.61827109  0.79477575  1
  Ca2+  Ca68  1  0.46393247  0.59500571  0.23580045  1
  Ca2+  Ca69  1  0.93756813  0.61502871  0.74824594  1
  Ca2+  Ca70  1  0.42260265  0.07961477  0.58091967  1
  Ca2+  Ca71  1  0.41190704  0.58677096  0.58553918  1
  Ca2+  Ca72  1  0.25570490  0.90878071  0.08399108  1
  Ca2+  Ca73  1  0.89401121  0.90592207  0.74357929  1
  Ca2+  Ca74  1  0.90347666  0.40602596  0.76202705  1
  Ca2+  Ca75  1  0.40845889  0.42336214  0.25726832  1
  Ca2+  Ca76  1  0.73115475  0.41864689  0.23749426  1
  Ca2+  Ca77  1  0.72017213  0.42797221  0.95715354  1
  Ca2+  Ca78  1  0.58726196  0.89940072  0.41628804  1
  Ca2+  Ca79  1  0.39658042  0.42600866  0.25489405  1
  Ca2+  Ca80  1  0.42275627  0.90727441  0.24573668  1
  Ca2+  Ca81  1  0.06708865  0.91023503  0.93442380  1
  Ca2+  Ca82  1  0.07294703  0.91125544  0.24433608  1
  Ca2+  Ca83  1  0.61291712  0.90816237  0.75427293  1
  Ca2+  Ca84  1  0.88321860  0.90919741  0.74520895  1
  Ca2+  Ca85  1  0.07854117  0.90911023  0.93513502  1
  Ca2+  Ca86  1  0.07076260  0.89647456  0.58348822  1
  Ca2+  Ca87  1  0.57845393  0.40342571  0.76590091  1
  Ca2+  Ca88  1  0.41036071  0.90616691  0.24698883  1
  Ca2+  Ca89  1  0.91602950  0.40501092  0.76107714  1
  Ca2+  Ca90  1  0.59131599  0.90558784  0.08435407  1
  Ca2+  Ca91  1  0.10559408  0.42753916  0.94531229  1
  Ca2+  Ca92  1  0.59074589  0.40350144  0.76564619  1
  Ca2+  Ca93  1  0.42985784  0.90136097  0.58148508  1
  Ca2+  Ca94  1  0.25230939  0.42093166  0.07583054  1
  Ca2+  Ca95  1  0.09974259  0.41256369  0.23419243  1
  Ca2+  Ca96  1  0.74373373  0.42082915  0.23668970  1
  Ca2+  Ca97  1  0.24302882  0.90348334  0.41141865  1
  Ca2+  Ca98  1  0.24799190  0.88731819  0.74976652  1
  Ca2+  Ca99  1  0.24346739  0.91118576  0.08372972  1
  Ca2+  Ca100  1  0.91313990  0.40619335  0.40804077  1
  Ca2+  Ca101  1  0.76287442  0.90063055  0.25659851  1
  Ca2+  Ca102  1  0.09492724  0.40175010  0.58227819  1
  Ca2+  Ca103  1  0.58111458  0.41564589  0.39625568  1
  Ca2+  Ca104  1  0.42960404  0.90549014  0.92077391  1
  Ca2+  Ca105  1  0.09664648  0.42499819  0.94961042  1
  Ca2+  Ca106  1  0.40652687  0.40856394  0.57616971  1
  Ca2+  Ca107  1  0.90150752  0.40691382  0.40933482  1
  Mn3.34+  Mn108  1  0.08386541  0.33766229  0.08545773  1
  Mn3.34+  Mn109  1  0.08710448  0.33604462  0.41446985  1
  Mn3.34+  Mn110  1  0.08552027  0.33334696  0.75603132  1
  Mn3.34+  Mn111  1  0.07827098  0.83102714  0.08874952  1
  Mn3.34+  Mn112  1  0.07677374  0.83095943  0.41671658  1
  Mn3.34+  Mn113  1  0.07976388  0.82362196  0.75522220  1
  Mn3.34+  Mn114  1  0.41868425  0.34280991  0.07878354  1
  Mn3.34+  Mn115  1  0.41412071  0.33893741  0.41905655  1
  Mn3.34+  Mn116  1  0.41359386  0.33561134  0.75048782  1
  Mn3.34+  Mn117  1  0.41914097  0.83068294  0.08248305  1
  Mn3.34+  Mn118  1  0.41695635  0.82822651  0.41797405  1
  Mn3.34+  Mn119  1  0.42100884  0.82850678  0.75297216  1
  Mn3.34+  Mn120  1  0.75606024  0.33452914  0.07982803  1
  Mn3.34+  Mn121  1  0.74501946  0.33398686  0.42112950  1
  Mn3.34+  Mn122  1  0.75075450  0.33303373  0.75145146  1
  Mn3.34+  Mn123  1  0.75309039  0.83427203  0.08375800  1
  Mn3.34+  Mn124  1  0.75261157  0.82934535  0.42190888  1
  Mn3.34+  Mn125  1  0.74626805  0.82847739  0.75364614  1
  Mn3.34+  Mn126  1  0.25126080  0.33949235  0.24454091  1
  Mn3.34+  Mn127  1  0.24813905  0.33560001  0.58739286  1
  Mn3.34+  Mn128  1  0.25461171  0.34055739  0.91321649  1
  Mn3.34+  Mn129  1  0.24741029  0.83038868  0.24816612  1
  Mn3.34+  Mn130  1  0.24633552  0.82647176  0.58256986  1
  Mn3.34+  Mn131  1  0.25154670  0.82555492  0.91464780  1
  Mn3.34+  Mn132  1  0.57978697  0.33728496  0.24069732  1
  Mn3.34+  Mn133  1  0.58724898  0.33611900  0.58121485  1
  Mn3.34+  Mn134  1  0.58491733  0.33256829  0.92107781  1
  Mn3.34+  Mn135  1  0.58822549  0.82918239  0.24731775  1
  Mn3.34+  Mn136  1  0.59179449  0.83696189  0.58123385  1
  Mn3.34+  Mn137  1  0.58619558  0.83492006  0.92218494  1
  Mn3.34+  Mn138  1  0.91600245  0.33206629  0.24224626  1
  Mn3.34+  Mn139  1  0.91467700  0.33592211  0.58267510  1
  Mn3.34+  Mn140  1  0.91477797  0.33663170  0.92125864  1
  Mn3.34+  Mn141  1  0.91555681  0.83297529  0.25253242  1
  Mn3.34+  Mn142  1  0.90984175  0.83246678  0.57494027  1
  Mn3.34+  Mn143  1  0.90793485  0.82991309  0.92221779  1
  Mn3.34+  Mn144  1  0.09353158  0.15771698  0.41539761  1
  Mn3.34+  Mn145  1  0.25262959  0.16351716  0.58757956  1
  Mn3.34+  Mn146  1  0.59121099  0.15866315  0.58728575  1
  Mn3.34+  Mn147  1  0.41839478  0.66966633  0.41498106  1
  Mn3.34+  Mn148  1  0.75942294  0.16137502  0.42018467  1
  Mn3.34+  Mn149  1  0.42255239  0.16921665  0.09455350  1
  Mn3.34+  Mn150  1  0.41736074  0.16854390  0.41321133  1
  Mn3.34+  Mn151  1  0.08326428  0.17023677  0.08136040  1
  Mn3.34+  Mn152  1  0.57772969  0.16443305  0.58932170  1
  Mn3.34+  Mn153  1  0.24277770  0.16954596  0.58843368  1
  Mn3.34+  Mn154  1  0.07875380  0.66811899  0.41862829  1
  Mn3.34+  Mn155  1  0.08135161  0.66885867  0.08032461  1
  Mn3.34+  Mn156  1  0.75297090  0.17422156  0.07447343  1
  Mn3.34+  Mn157  1  0.41276766  0.16357607  0.75563839  1
  Mn3.34+  Mn158  1  0.74976343  0.16696022  0.41910186  1
  Mn3.34+  Mn159  1  0.75379122  0.16937490  0.08445354  1
  Mn3.34+  Mn160  1  0.40502747  0.16124509  0.41444070  1
  Mn3.34+  Mn161  1  0.92763526  0.15881236  0.24464541  1
  Mn3.34+  Mn162  1  0.08320116  0.16286396  0.41432483  1
  Mn3.34+  Mn163  1  0.91442080  0.16499861  0.24662044  1
  Mn3.34+  Mn164  1  0.25606088  0.66981655  0.58245922  1
  Mn3.34+  Mn165  1  0.24394082  0.66407714  0.58070246  1
  Mn3.34+  Mn166  1  0.42359065  0.16801656  0.75326676  1
  Mn3.34+  Mn167  1  0.75449178  0.66597619  0.75474729  1
  Mn3.34+  Mn168  1  0.41264353  0.67007965  0.75691163  1
  Mn3.34+  Mn169  1  0.41398195  0.16305548  0.09774801  1
  Mn3.34+  Mn170  1  0.91617938  0.66367463  0.24899950  1
  Mn3.34+  Mn171  1  0.25019841  0.65980571  0.24901759  1
  Mn3.34+  Mn172  1  0.25142078  0.67182716  0.24681729  1
  Mn3.34+  Mn173  1  0.07880751  0.17058006  0.75683407  1
  Mn3.34+  Mn174  1  0.58894872  0.67602559  0.58687408  1
  Mn3.34+  Mn175  1  0.91798591  0.66432824  0.91943328  1
  Mn3.34+  Mn176  1  0.24677366  0.16640733  0.24857779  1
  Mn3.34+  Mn177  1  0.59269037  0.16624933  0.91025320  1
  Mn3.34+  Mn178  1  0.75163947  0.66765189  0.08507383  1
  Mn3.34+  Mn179  1  0.58002253  0.66636020  0.58209026  1
  Mn3.34+  Mn180  1  0.90223849  -0.00051097  0.60109205  1
  Mn3.34+  Mn181  1  0.08041760  0.00375602  0.74994303  1
  Mn3.34+  Mn182  1  0.41354315  -0.00520293  0.74369628  1
  Mn3.34+  Mn183  1  0.90136120  0.49989284  0.58441629  1
  Mn3.34+  Mn184  1  0.10523077  0.49794541  0.75056455  1
  Mn3.34+  Mn185  1  0.60412912  -0.00183383  0.59782688  1
  Mn3.34+  Mn186  1  0.07615858  0.50931782  0.41154063  1
  Mn3.34+  Mn187  1  0.75669228  -0.00574504  0.41879852  1
  Mn3.34+  Mn188  1  0.74919840  0.50217440  0.41272143  1
  Mn3.34+  Mn189  1  0.25630586  -0.00284857  0.90694866  1
  Mn3.34+  Mn190  1  0.24777784  0.49889012  0.57244549  1
  Mn3.34+  Mn191  1  0.42765410  0.00036586  0.74387925  1
  Mn3.34+  Mn192  1  0.91324069  -0.00129408  0.92596360  1
  Mn3.34+  Mn193  1  0.38527510  0.49992238  0.76067744  1
  Mn3.34+  Mn194  1  0.59801099  0.50535781  0.58636351  1
  Mn3.34+  Mn195  1  0.07995941  -0.00651966  0.41033422  1
  Mn3.34+  Mn196  1  0.39673072  0.50037084  0.76137594  1
  Mn3.34+  Mn197  1  0.91650232  -0.00033127  0.25034090  1
  Mn3.34+  Mn198  1  0.08965388  0.50267623  0.41184776  1
  Mn3.34+  Mn199  1  0.42480064  0.50042810  0.06061685  1
  Mn3.34+  Mn200  1  0.91598687  0.50508421  0.58625814  1
  Mn3.34+  Mn201  1  0.75016686  0.50032188  0.75996772  1
  Mn3.34+  Mn202  1  0.58617959  -0.00438253  0.25298677  1
  Mn3.34+  Mn203  1  0.91113510  0.49852981  0.23918624  1
  Mn3.34+  Mn204  1  0.58400096  0.49917035  0.58527311  1
  Mn3.34+  Mn205  1  0.09319330  0.50252607  0.75191447  1
  Mn3.34+  Mn206  1  0.24832995  0.00553861  0.26501324  1
  Mn3.34+  Mn207  1  0.91736853  0.50685966  0.93585883  1
  Mn3.34+  Mn208  1  0.75286119  -0.00572583  0.07046701  1
  Mn3.34+  Mn209  1  0.09551961  -0.00096559  0.75285332  1
  Mn3.34+  Mn210  1  0.23980683  0.00376391  0.57082317  1
  Mn3.34+  Mn211  1  0.42161347  0.50572894  0.40805794  1
  Mn3.34+  Mn212  1  0.40896795  -0.00414490  0.41627544  1
  Mn3.34+  Mn213  1  0.25326446  -0.00307989  0.57035647  1
  Mn3.34+  Mn214  1  0.58953209  0.00135045  0.92074063  1
  Mn3.34+  Mn215  1  0.24180027  0.00396659  0.90585967  1
  O2-  O216  1  0.00263842  0.17037237  0.00398979  1
  O2-  O217  1  -0.00818613  0.14249765  0.34456875  1
  O2-  O218  1  -0.00999860  0.15547183  0.68297459  1
  O2-  O219  1  0.00194251  0.65408501  -0.00005499  1
  O2-  O220  1  0.00750371  0.64549904  0.32957401  1
  O2-  O221  1  -0.00463170  0.68954028  0.67129305  1
  O2-  O222  1  0.33266724  0.14054856  0.01935169  1
  O2-  O223  1  0.33014341  0.15695357  0.32880290  1
  O2-  O224  1  0.33830236  0.14184933  0.66867806  1
  O2-  O225  1  0.32550563  0.66357192  0.00241384  1
  O2-  O226  1  0.32790075  0.64855348  0.33327851  1
  O2-  O227  1  0.32926467  0.65082998  0.66934164  1
  O2-  O228  1  0.66297530  0.15361950  0.00593027  1
  O2-  O229  1  0.67380899  0.15352373  0.33437791  1
  O2-  O230  1  0.67098804  0.16379238  0.66311331  1
  O2-  O231  1  0.66877691  0.65981886  0.00695143  1
  O2-  O232  1  0.66699027  0.67407541  0.33173713  1
  O2-  O233  1  0.66236130  0.65265538  0.67142630  1
  O2-  O234  1  0.16590722  0.16065399  0.00400074  1
  O2-  O235  1  0.16009052  0.15573372  0.32533408  1
  O2-  O236  1  0.15343746  0.15317242  0.66032108  1
  O2-  O237  1  0.16723232  0.66924230  0.00928043  1
  O2-  O238  1  0.16898512  0.64918093  0.33313597  1
  O2-  O239  1  0.16680958  0.67503191  0.66237827  1
  O2-  O240  1  0.49910275  0.15350821  0.00204624  1
  O2-  O241  1  0.51025918  0.16289136  0.34547783  1
  O2-  O242  1  0.49792025  0.13559388  0.67404210  1
  O2-  O243  1  0.50664591  0.65690209  0.02056454  1
  O2-  O244  1  0.49852408  0.66267618  0.33779434  1
  O2-  O245  1  0.49897052  0.64832042  0.66392985  1
  O2-  O246  1  0.83911308  0.17553010  0.00333595  1
  O2-  O247  1  0.83355906  0.14077297  0.32531371  1
  O2-  O248  1  0.83650306  0.16492909  0.66872805  1
  O2-  O249  1  0.82692320  0.65112127  -0.00495041  1
  O2-  O250  1  0.83004604  0.65694988  0.32032281  1
  O2-  O251  1  0.83212298  0.66249143  0.67541865  1
  O2-  O252  1  0.00810851  0.33982046  -0.00785522  1
  O2-  O253  1  -0.00516525  0.35429274  0.33114153  1
  O2-  O254  1  -0.00156520  0.35702922  0.66741161  1
  O2-  O255  1  -0.00292110  0.84694182  0.00235703  1
  O2-  O256  1  0.00409654  0.84685356  0.32917543  1
  O2-  O257  1  -0.00454807  0.82938465  0.67168913  1
  O2-  O258  1  0.33061965  0.34956169  0.00312697  1
  O2-  O259  1  0.33829504  0.34864055  0.32670491  1
  O2-  O260  1  0.33960266  0.34900804  0.66075295  1
  O2-  O261  1  0.32915175  0.84554775  0.00186602  1
  O2-  O262  1  0.33187131  0.84701011  0.33155791  1
  O2-  O263  1  0.33477131  0.83781804  0.66180969  1
  O2-  O264  1  0.67285700  0.33014599  0.00047065  1
  O2-  O265  1  0.66346797  0.33689007  0.32781725  1
  O2-  O266  1  0.66162425  0.34841012  0.67654754  1
  O2-  O267  1  0.66455604  0.84199195  0.00695718  1
  O2-  O268  1  0.66620263  0.82015997  0.33383634  1
  O2-  O269  1  0.66146510  0.82558773  0.67335447  1
  O2-  O270  1  0.16943204  0.34373058  0.00280257  1
  O2-  O271  1  0.16335480  0.34616583  0.32501874  1
  O2-  O272  1  0.16446951  0.34338355  0.66937659  1
  O2-  O273  1  0.16518724  0.83960699  -0.00386824  1
  O2-  O274  1  0.16864956  0.83815814  0.33314082  1
  O2-  O275  1  0.16435497  0.81920408  0.67014754  1
  O2-  O276  1  0.49989911  0.33589628  -0.00281962  1
  O2-  O277  1  0.50001309  0.34082481  0.32925945  1
  O2-  O278  1  0.50123681  0.35854020  0.66277721  1
  O2-  O279  1  0.50249604  0.85166356  0.00585415  1
  O2-  O280  1  0.50157186  0.84005745  0.33175497  1
  O2-  O281  1  0.50325326  0.84300155  0.66524917  1
  O2-  O282  1  0.83590968  0.30717406  -0.00076519  1
  O2-  O283  1  0.82389630  0.35007291  0.32676065  1
  O2-  O284  1  0.83543757  0.34969558  0.66996041  1
  O2-  O285  1  0.82976721  0.84524078  -0.00122468  1
  O2-  O286  1  0.82854149  0.82535896  0.33274487  1
  O2-  O287  1  0.83415784  0.82908651  0.66722686  1
  O2-  O288  1  0.00226792  0.18388925  0.16650622  1
  O2-  O289  1  0.01195275  0.17500416  0.50230931  1
  O2-  O290  1  0.00001790  0.18139451  0.83540593  1
  O2-  O291  1  0.01236415  0.67031335  0.17641001  1
  O2-  O292  1  0.00463787  0.68488404  0.49504001  1
  O2-  O293  1  -0.00527697  0.67957762  0.84101359  1
  O2-  O294  1  0.33152397  0.18480819  0.17249270  1
  O2-  O295  1  0.33833957  0.17833985  0.50652240  1
  O2-  O296  1  0.34665888  0.18163391  0.84428922  1
  O2-  O297  1  0.33632537  0.68599091  0.17646010  1
  O2-  O298  1  0.33631721  0.68595081  0.50578039  1
  O2-  O299  1  0.33502943  0.68452461  0.82995978  1
  O2-  O300  1  0.67133600  0.18748551  0.16027046  1
  O2-  O301  1  0.65208258  0.18141371  0.48678860  1
  O2-  O302  1  0.67183724  0.17451923  0.83980962  1
  O2-  O303  1  0.67656386  0.68538706  0.16655527  1
  O2-  O304  1  0.67000771  0.69070320  0.51132504  1
  O2-  O305  1  0.66710895  0.67157792  0.83570013  1
  O2-  O306  1  0.17459224  0.17787475  0.15926192  1
  O2-  O307  1  0.17524842  0.18521449  0.49216511  1
  O2-  O308  1  0.15645356  0.18113122  0.83513615  1
  O2-  O309  1  0.16771402  0.69609785  0.17485961  1
  O2-  O310  1  0.16970467  0.68974590  0.50095947  1
  O2-  O311  1  0.16548388  0.69359134  0.84323834  1
  O2-  O312  1  0.50890405  0.18541700  0.16454990  1
  O2-  O313  1  0.49246045  0.17351959  0.51284604  1
  O2-  O314  1  0.50257205  0.18030429  0.83647568  1
  O2-  O315  1  0.51392749  0.67092053  0.15773763  1
  O2-  O316  1  0.50099933  0.69216247  0.50632778  1
  O2-  O317  1  0.50265307  0.67864861  0.82543429  1
  O2-  O318  1  0.83190922  0.19091444  0.16420870  1
  O2-  O319  1  0.84166544  0.17592501  0.49294710  1
  O2-  O320  1  0.85047545  0.18619951  0.83261827  1
  O2-  O321  1  0.83542836  0.67741349  0.16869173  1
  O2-  O322  1  0.83282045  0.70345695  0.50424927  1
  O2-  O323  1  0.83234711  0.67562703  0.83770839  1
  O2-  O324  1  0.00782665  0.32514538  0.17169045  1
  O2-  O325  1  -0.00052258  0.32668569  0.49813228  1
  O2-  O326  1  -0.01060719  0.32210793  0.82457045  1
  O2-  O327  1  0.00353378  0.82935826  0.17363941  1
  O2-  O328  1  -0.00002425  0.81809720  0.50466037  1
  O2-  O329  1  0.00439432  0.82282793  0.84252941  1
  O2-  O330  1  0.33847275  0.32850009  0.16877337  1
  O2-  O331  1  0.33253791  0.32492335  0.50168053  1
  O2-  O332  1  0.33325628  0.32222641  0.82965445  1
  O2-  O333  1  0.33548278  0.81817244  0.17144838  1
  O2-  O334  1  0.33000130  0.81523438  0.50035375  1
  O2-  O335  1  0.33021063  0.81659744  0.83080519  1
  O2-  O336  1  0.66708314  0.31445874  0.16851583  1
  O2-  O337  1  0.66158708  0.31676017  0.49508435  1
  O2-  O338  1  0.66625281  0.32338244  0.83116278  1
  O2-  O339  1  0.66695295  0.81657227  0.16720794  1
  O2-  O340  1  0.66633151  0.81124923  0.49820414  1
  O2-  O341  1  0.66949431  0.82381380  0.83815874  1
  O2-  O342  1  0.17160229  0.32722269  0.16303222  1
  O2-  O343  1  0.16206540  0.31735966  0.50724447  1
  O2-  O344  1  0.15745969  0.32143618  0.84218527  1
  O2-  O345  1  0.17217391  0.81876834  0.16037266  1
  O2-  O346  1  0.16365651  0.81404103  0.50195455  1
  O2-  O347  1  0.16567915  0.81472947  0.83515920  1
  O2-  O348  1  0.49578820  0.31890613  0.16889969  1
  O2-  O349  1  0.49795600  0.32298346  0.49899002  1
  O2-  O350  1  0.50964409  0.32030474  0.82265848  1
  O2-  O351  1  0.49767836  0.82267812  0.17087019  1
  O2-  O352  1  0.50220796  0.81769522  0.50097621  1
  O2-  O353  1  0.50083979  0.82878521  0.83591907  1
  O2-  O354  1  0.83040189  0.31168718  0.16585056  1
  O2-  O355  1  0.84302908  0.32547415  0.48835360  1
  O2-  O356  1  0.83810634  0.32414333  0.83190981  1
  O2-  O357  1  0.83056066  0.82141266  0.17248997  1
  O2-  O358  1  0.83447433  0.81255518  0.49665384  1
  O2-  O359  1  0.84240899  0.82541169  0.82453651  1
  O2-  O360  1  0.08473820  0.08515479  0.09191987  1
  O2-  O361  1  0.07986264  0.07435314  0.45681519  1
  O2-  O362  1  0.08008245  0.08337498  0.78012462  1
  O2-  O363  1  0.10886246  0.58797272  0.10236764  1
  O2-  O364  1  0.09260547  0.58388752  0.46308871  1
  O2-  O365  1  0.08828529  0.58422021  0.77050484  1
  O2-  O366  1  0.44296602  0.07991208  0.10546736  1
  O2-  O367  1  0.43641156  0.07925711  0.44342525  1
  O2-  O368  1  0.41782483  0.07656806  0.79547856  1
  O2-  O369  1  0.40042993  0.56041297  0.12159419  1
  O2-  O370  1  0.41795254  0.58368909  0.44791379  1
  O2-  O371  1  0.42716789  0.58364595  0.78578331  1
  O2-  O372  1  0.73535302  0.08103700  0.11420283  1
  O2-  O373  1  0.74107511  0.07859978  0.45018086  1
  O2-  O374  1  0.75640421  0.07773865  0.77108003  1
  O2-  O375  1  0.74056097  0.58545474  0.11238648  1
  O2-  O376  1  0.72100540  0.57307976  0.44933929  1
  O2-  O377  1  0.74063583  0.58220894  0.78002176  1
  O2-  O378  1  0.25054650  0.08116303  0.21209860  1
  O2-  O379  1  0.26188333  0.08219921  0.54207880  1
  O2-  O380  1  0.26883887  0.08249292  0.89191170  1
  O2-  O381  1  0.22890553  0.58421681  0.20657874  1
  O2-  O382  1  0.26096865  0.58064598  0.53936244  1
  O2-  O383  1  0.22401721  0.56768806  0.90263797  1
  O2-  O384  1  0.59564857  0.07697772  0.22806833  1
  O2-  O385  1  0.58067214  0.07506398  0.53966290  1
  O2-  O386  1  0.56648725  0.08304909  0.90147082  1
  O2-  O387  1  0.60036713  0.57385446  0.23003479  1
  O2-  O388  1  0.57499217  0.58296308  0.54135008  1
  O2-  O389  1  0.61565683  0.55458952  0.88479834  1
  O2-  O390  1  0.90727700  0.08018424  0.19839896  1
  O2-  O391  1  0.91368203  0.06849240  0.55191344  1
  O2-  O392  1  0.92857511  0.07229776  0.88885058  1
  O2-  O393  1  0.93354239  0.57870866  0.22260566  1
  O2-  O394  1  0.91718797  0.58519339  0.56509217  1
  O2-  O395  1  0.91426358  0.58094104  0.88170477  1
  O2-  O396  1  0.09063035  0.41922418  0.09413212  1
  O2-  O397  1  0.07107611  0.42564318  0.45192551  1
  O2-  O398  1  0.06794227  0.42021852  0.79153325  1
  O2-  O399  1  0.10269564  0.91430505  0.09890336  1
  O2-  O400  1  0.09256816  0.91599426  0.45299238  1
  O2-  O401  1  0.09582039  0.91644795  0.77546564  1
  O2-  O402  1  0.42187075  0.43401210  0.12163780  1
  O2-  O403  1  0.42824341  0.42576799  0.44008858  1
  O2-  O404  1  0.43921510  0.42131884  0.78531345  1
  O2-  O405  1  0.39621510  0.91873627  0.11466852  1
  O2-  O406  1  0.41475618  0.91273336  0.44754866  1
  O2-  O407  1  0.40211851  0.91592510  0.77626066  1
  O2-  O408  1  0.74666102  0.41659550  0.10243784  1
  O2-  O409  1  0.76308632  0.42241279  0.44503648  1
  O2-  O410  1  0.76121088  0.41902141  0.78881883  1
  O2-  O411  1  0.73684122  0.91855278  0.12089529  1
  O2-  O412  1  0.73263680  0.91389115  0.41926831  1
  O2-  O413  1  0.75301451  0.91072426  0.76113074  1
  O2-  O414  1  0.26052770  0.42177400  0.21995877  1
  O2-  O415  1  0.24668449  0.41782006  0.55435611  1
  O2-  O416  1  0.23006906  0.42027339  0.89383231  1
  O2-  O417  1  0.25333934  0.92349382  0.21564910  1
  O2-  O418  1  0.23954751  0.91510915  0.55975986  1
  O2-  O419  1  0.23408764  0.91715650  0.88227541  1
  O2-  O420  1  0.59186970  0.41668474  0.23171681  1
  O2-  O421  1  0.58576509  0.42465476  0.53760153  1
  O2-  O422  1  0.59454461  0.41436601  0.89640442  1
  O2-  O423  1  0.56248530  0.91775582  0.22296692  1
  O2-  O424  1  0.57785824  0.92505653  0.54827078  1
  O2-  O425  1  0.58167247  0.92203799  0.88850357  1
  O2-  O426  1  0.88702024  0.41832486  0.22053135  1
  O2-  O427  1  0.91822956  0.42199971  0.54439515  1
  O2-  O428  1  0.91993463  0.42621512  0.89306476  1
  O2-  O429  1  0.90974402  0.91808507  0.23386411  1
  O2-  O430  1  0.91920536  0.91829602  0.59157305  1
  O2-  O431  1  0.93242778  0.92320132  0.87652166  1
  O2-  O432  1  0.01943409  -0.00088253  -0.03403411  1
  O2-  O433  1  -0.00256628  0.00859450  0.33446931  1
  O2-  O434  1  0.01967393  -0.00106212  0.64829157  1
  O2-  O435  1  0.02791495  0.51016472  -0.04654523  1
  O2-  O436  1  0.00159432  0.48846383  0.32021839  1
  O2-  O437  1  0.00017404  0.49579013  0.67103851  1
  O2-  O438  1  0.32961565  0.00693291  0.00124101  1
  O2-  O439  1  0.34768530  -0.02117216  0.31675183  1
  O2-  O440  1  0.33707568  0.00880054  0.65463217  1
  O2-  O441  1  0.33617790  0.49586136  0.00683918  1
  O2-  O442  1  0.34099405  0.50286193  0.32955219  1
  O2-  O443  1  0.34043161  0.50369625  0.64944369  1
  O2-  O444  1  0.63188815  0.00265814  0.03930546  1
  O2-  O445  1  0.66736124  0.00807098  0.33866279  1
  O2-  O446  1  0.65426852  -0.00649676  0.69001627  1
  O2-  O447  1  0.66658605  0.51646338  0.00404427  1
  O2-  O448  1  0.67282899  0.48986823  0.33564754  1
  O2-  O449  1  0.65593231  0.49059380  0.68658545  1
  O2-  O450  1  0.17790685  -0.00713953  0.00869769  1
  O2-  O451  1  0.16811030  -0.02250736  0.33855432  1
  O2-  O452  1  0.17532823  0.00133196  0.66755888  1
  O2-  O453  1  0.17667783  0.49629774  0.01246493  1
  O2-  O454  1  0.15851390  0.51956707  0.32056791  1
  O2-  O455  1  0.15777167  0.50164085  0.64743003  1
  O2-  O456  1  0.47923732  -0.00040424  -0.04179058  1
  O2-  O457  1  0.51267786  -0.00245645  0.34822775  1
  O2-  O458  1  0.49103495  -0.00071039  0.64527027  1
  O2-  O459  1  0.50858544  0.51168393  0.00748909  1
  O2-  O460  1  0.49878742  0.49552231  0.33013857  1
  O2-  O461  1  0.49674076  0.51006380  0.67087859  1
  O2-  O462  1  0.85472570  0.01328889  0.01890450  1
  O2-  O463  1  0.82805537  0.01168713  0.32527381  1
  O2-  O464  1  0.86774102  0.00411839  0.71191409  1
  O2-  O465  1  0.80867402  0.50511542  -0.03913456  1
  O2-  O466  1  0.83509808  0.49051954  0.33366823  1
  O2-  O467  1  0.84152696  0.49277688  0.68531862  1
  O2-  O468  1  0.08530137  0.74754801  0.38346967  1
  O2-  O469  1  0.92029835  0.24492247  0.28407767  1
  O2-  O470  1  0.40211044  0.74971250  0.38213505  1
  O2-  O471  1  0.40644213  0.24778350  0.05954936  1
  O2-  O472  1  0.41931961  0.24994159  0.71833242  1
  O2-  O473  1  0.08837094  0.25407361  0.07045463  1
  O2-  O474  1  0.42432356  0.74784346  0.72000154  1
  O2-  O475  1  0.92567419  0.74729386  0.26565094  1
  O2-  O476  1  0.24930524  0.25227296  0.27106229  1
  O2-  O477  1  0.75983030  0.24817016  0.38975775  1
  O2-  O478  1  0.76167260  0.75170386  0.05942147  1
  O2-  O479  1  0.08157306  0.25276166  0.72536590  1
  O2-  O480  1  0.06130687  0.75088011  0.06385663  1
  O2-  O481  1  0.40994074  0.25159795  0.39736837  1
  O2-  O482  1  0.42182151  0.75349566  0.06477978  1
  O2-  O483  1  0.57047035  0.24737041  0.61053401  1
  O2-  O484  1  0.58121773  0.75589434  0.93300556  1
  O2-  O485  1  0.25572321  0.25805898  0.93209678  1
  O2-  O486  1  0.26333055  0.25072343  0.61470529  1
  O2-  O487  1  0.75169953  0.25519666  0.73651344  1
  O2-  O488  1  0.74712075  0.74660774  0.74014807  1
  O2-  O489  1  0.91982731  0.25785712  0.60051853  1
  O2-  O490  1  0.07651288  0.24703308  0.38717256  1
  O2-  O491  1  0.91130591  0.74825581  0.94224375  1
  O2-  O492  1  0.58233379  0.24711446  0.93690728  1
