# generated using pymatgen
data_Ca108Mn108O277
_symmetry_space_group_name_H-M   'P 1'
_cell_length_a   16.02701287
_cell_length_b   22.30549606
_cell_length_c   16.38807323
_cell_angle_alpha   89.99935639
_cell_angle_beta   90.00431632
_cell_angle_gamma   89.99922003
_symmetry_Int_Tables_number   1
_chemical_formula_structural   Ca108Mn108O277
_chemical_formula_sum   'Ca108 Mn108 O277'
_cell_volume   5858.58002547
_cell_formula_units_Z   1
loop_
 _symmetry_equiv_pos_site_id
 _symmetry_equiv_pos_as_xyz
  1  'x, y, z'
loop_
 _atom_type_symbol
 _atom_type_oxidation_number
  Ca2+  2.0
  Mn3.34+  3.34
  O2-  -2.0
loop_
 _atom_site_type_symbol
 _atom_site_label
 _atom_site_symmetry_multiplicity
 _atom_site_fract_x
 _atom_site_fract_y
 _atom_site_fract_z
 _atom_site_occupancy
  Ca2+  Ca0  1  0.10086721  0.24386726  0.21675404  1
  Ca2+  Ca1  1  0.09035224  0.25300663  0.59007083  1
  Ca2+  Ca2  1  0.07558071  0.25724980  0.93025650  1
  Ca2+  Ca3  1  0.08323252  0.74172526  0.23584505  1
  Ca2+  Ca4  1  0.08218824  0.75287059  0.58555988  1
  Ca2+  Ca5  1  0.07468277  0.74146392  0.92677538  1
  Ca2+  Ca6  1  0.40186004  0.26244012  0.24642198  1
  Ca2+  Ca7  1  0.39867050  0.23319902  0.59833365  1
  Ca2+  Ca8  1  0.41460461  0.25308680  0.91240924  1
  Ca2+  Ca9  1  0.40809285  0.74365623  0.25930707  1
  Ca2+  Ca10  1  0.41549146  0.73346495  0.56374352  1
  Ca2+  Ca11  1  0.41917061  0.76345156  0.92153293  1
  Ca2+  Ca12  1  0.74599026  0.25956722  0.26720316  1
  Ca2+  Ca13  1  0.75369028  0.24826356  0.56986986  1
  Ca2+  Ca14  1  0.76338327  0.26203554  0.92566119  1
  Ca2+  Ca15  1  0.75586399  0.74770674  0.23731351  1
  Ca2+  Ca16  1  0.75390876  0.74958623  0.59291126  1
  Ca2+  Ca17  1  0.76005975  0.74358201  0.92291968  1
  Ca2+  Ca18  1  0.24881918  0.25382163  0.08858014  1
  Ca2+  Ca19  1  0.25964544  0.26226607  0.41686240  1
  Ca2+  Ca20  1  0.26788836  0.25276326  0.74234710  1
  Ca2+  Ca21  1  0.23242227  0.72641784  0.08300045  1
  Ca2+  Ca22  1  0.25725964  0.74701633  0.41607666  1
  Ca2+  Ca23  1  0.24143090  0.75244092  0.74253107  1
  Ca2+  Ca24  1  0.58351091  0.26412015  0.07823562  1
  Ca2+  Ca25  1  0.60157047  0.25425841  0.43227718  1
  Ca2+  Ca26  1  0.56222920  0.25505771  0.74055878  1
  Ca2+  Ca27  1  0.58563449  0.75102016  0.08258478  1
  Ca2+  Ca28  1  0.55883844  0.73882538  0.41606684  1
  Ca2+  Ca29  1  0.58748726  0.75562239  0.74706584  1
  Ca2+  Ca30  1  0.92113012  0.26818134  0.07356083  1
  Ca2+  Ca31  1  0.89267238  0.24637250  0.44894587  1
  Ca2+  Ca32  1  0.91741325  0.25590210  0.74184028  1
  Ca2+  Ca33  1  0.93009603  0.73484735  0.08497503  1
  Ca2+  Ca34  1  0.92733138  0.74667279  0.43246233  1
  Ca2+  Ca35  1  0.92735580  0.74489874  0.75007344  1
  Ca2+  Ca36  1  0.91663412  0.60363080  0.08078250  1
  Ca2+  Ca37  1  0.28570204  0.10921804  0.74599844  1
  Ca2+  Ca38  1  0.89631521  0.10862681  0.42066006  1
  Ca2+  Ca39  1  0.28502994  0.10499251  0.75429601  1
  Ca2+  Ca40  1  0.92382280  0.10499330  0.08095854  1
  Ca2+  Ca41  1  0.08274262  0.58548715  0.60320289  1
  Ca2+  Ca42  1  0.05559409  0.60437407  0.91191848  1
  Ca2+  Ca43  1  0.53580183  0.59910544  0.45555464  1
  Ca2+  Ca44  1  0.25397312  0.09916894  0.09953280  1
  Ca2+  Ca45  1  0.40388702  0.58740575  0.24134694  1
  Ca2+  Ca46  1  0.26887341  0.08037441  0.38970679  1
  Ca2+  Ca47  1  0.37378355  0.56906751  0.96254056  1
  Ca2+  Ca48  1  0.27794203  0.59397517  0.40833355  1
  Ca2+  Ca49  1  0.41275053  0.58532563  0.23660887  1
  Ca2+  Ca50  1  0.07185685  0.60681891  0.23722152  1
  Ca2+  Ca51  1  0.79589126  0.09537899  0.57065446  1
  Ca2+  Ca52  1  0.54551011  0.09193695  0.74780527  1
  Ca2+  Ca53  1  0.92835568  0.58938081  0.40870778  1
  Ca2+  Ca54  1  0.07164138  0.58457912  0.60387232  1
  Ca2+  Ca55  1  0.38136926  0.57137291  0.96888820  1
  Ca2+  Ca56  1  0.26371666  0.08758114  0.39351350  1
  Ca2+  Ca57  1  0.26732087  0.59304514  0.40599711  1
  Ca2+  Ca58  1  0.55815624  0.08990398  0.74504732  1
  Ca2+  Ca59  1  0.91714104  0.58934494  0.40761707  1
  Ca2+  Ca60  1  0.73507377  0.59324327  0.59550293  1
  Ca2+  Ca61  1  0.78431236  0.09549644  0.57467962  1
  Ca2+  Ca62  1  0.41933763  0.09061100  0.93392985  1
  Ca2+  Ca63  1  0.59281361  0.58787547  0.68981458  1
  Ca2+  Ca64  1  0.61731716  0.10815864  0.42311616  1
  Ca2+  Ca65  1  0.22415534  0.58193704  0.75584171  1
  Ca2+  Ca66  1  0.04151215  0.09129144  0.58344281  1
  Ca2+  Ca67  1  0.10058872  0.09326810  0.92731485  1
  Ca2+  Ca68  1  0.91109192  0.10418673  0.08200711  1
  Ca2+  Ca69  1  0.74473175  0.59255642  0.22731594  1
  Ca2+  Ca70  1  0.09062696  0.09886443  0.92875186  1
  Ca2+  Ca71  1  0.75656561  0.59328004  0.22842932  1
  Ca2+  Ca72  1  0.90996597  0.89834710  0.08009653  1
  Ca2+  Ca73  1  0.57266543  0.92469222  0.04329531  1
  Ca2+  Ca74  1  0.27549025  0.90938983  0.41798112  1
  Ca2+  Ca75  1  0.92066429  0.40363744  0.41294897  1
  Ca2+  Ca76  1  0.57406274  0.90655241  0.41721248  1
  Ca2+  Ca77  1  0.92949166  0.41372908  0.74822302  1
  Ca2+  Ca78  1  0.89733786  0.89804576  0.08076671  1
  Ca2+  Ca79  1  0.91481533  0.90322729  0.43587377  1
  Ca2+  Ca80  1  0.09375735  0.90609812  0.25079642  1
  Ca2+  Ca81  1  0.90809230  0.40483047  0.41248549  1
  Ca2+  Ca82  1  0.77314850  0.91086520  0.60574251  1
  Ca2+  Ca83  1  0.08631011  0.89820095  0.90360702  1
  Ca2+  Ca84  1  0.23698256  0.40674927  0.75085152  1
  Ca2+  Ca85  1  0.26329890  0.90715362  0.07853975  1
  Ca2+  Ca86  1  0.26484680  0.90756388  0.42125399  1
  Ca2+  Ca87  1  0.58698180  0.41178675  0.74128134  1
  Ca2+  Ca88  1  0.10634499  0.90639639  0.25033427  1
  Ca2+  Ca89  1  0.05981882  0.92292335  0.62816030  1
  Ca2+  Ca90  1  0.41772007  0.89334009  0.58974148  1
  Ca2+  Ca91  1  0.09112945  0.40536528  0.25539596  1
  Ca2+  Ca92  1  0.40448216  0.41075256  0.93755737  1
  Ca2+  Ca93  1  0.10357929  0.40725398  0.25548659  1
  Ca2+  Ca94  1  0.09301103  0.41302184  0.91107926  1
  Ca2+  Ca95  1  0.27622871  0.42130313  0.08214893  1
  Ca2+  Ca96  1  0.08461930  0.40764323  0.59223137  1
  Ca2+  Ca97  1  0.74044037  0.41221592  0.58697389  1
  Ca2+  Ca98  1  0.56152698  0.90595958  0.41698275  1
  Ca2+  Ca99  1  0.57542143  0.40149781  0.41395635  1
  Ca2+  Ca100  1  0.74545035  0.89954264  0.24844916  1
  Ca2+  Ca101  1  0.72719038  0.90971447  0.90969362  1
  Ca2+  Ca102  1  0.24309965  0.90275356  0.75671017  1
  Ca2+  Ca103  1  0.73071909  0.41556260  0.58463235  1
  Ca2+  Ca104  1  0.76043214  0.41408748  0.94578938  1
  Ca2+  Ca105  1  0.41498451  0.91068833  0.25221638  1
  Ca2+  Ca106  1  0.90584608  0.90095472  0.43139455  1
  Ca2+  Ca107  1  0.27540399  0.90515553  0.08098305  1
  Mn3.34+  Mn108  1  0.08444654  0.33445433  0.08119755  1
  Mn3.34+  Mn109  1  0.08600361  0.32881907  0.42032338  1
  Mn3.34+  Mn110  1  0.08530077  0.33532609  0.75464119  1
  Mn3.34+  Mn111  1  0.08461948  0.82759918  0.08134621  1
  Mn3.34+  Mn112  1  0.08617742  0.83141217  0.42064182  1
  Mn3.34+  Mn113  1  0.08152657  0.83134897  0.75385122  1
  Mn3.34+  Mn114  1  0.42129005  0.33475751  0.08496698  1
  Mn3.34+  Mn115  1  0.41546215  0.33621316  0.41903687  1
  Mn3.34+  Mn116  1  0.41544568  0.33335628  0.75132592  1
  Mn3.34+  Mn117  1  0.42545764  0.82913100  0.08401764  1
  Mn3.34+  Mn118  1  0.41697758  0.82732262  0.41954550  1
  Mn3.34+  Mn119  1  0.41650342  0.83107371  0.75217238  1
  Mn3.34+  Mn120  1  0.74847713  0.33499242  0.09338631  1
  Mn3.34+  Mn121  1  0.74629940  0.33359148  0.41650572  1
  Mn3.34+  Mn122  1  0.74833293  0.33630822  0.75718916  1
  Mn3.34+  Mn123  1  0.74164138  0.83043529  0.08254171  1
  Mn3.34+  Mn124  1  0.74524861  0.83078317  0.42090877  1
  Mn3.34+  Mn125  1  0.75168613  0.83344478  0.75641438  1
  Mn3.34+  Mn126  1  0.25783087  0.33926557  0.24829089  1
  Mn3.34+  Mn127  1  0.25495352  0.32981982  0.58331899  1
  Mn3.34+  Mn128  1  0.24917375  0.33824491  0.91388304  1
  Mn3.34+  Mn129  1  0.25537350  0.83010358  0.24736376  1
  Mn3.34+  Mn130  1  0.24718633  0.83144875  0.58701469  1
  Mn3.34+  Mn131  1  0.25216030  0.83187470  0.91413172  1
  Mn3.34+  Mn132  1  0.57940511  0.33949818  0.24693322  1
  Mn3.34+  Mn133  1  0.57385099  0.33803540  0.58232844  1
  Mn3.34+  Mn134  1  0.58457031  0.33623471  0.91405449  1
  Mn3.34+  Mn135  1  0.58122547  0.83179534  0.24599783  1
  Mn3.34+  Mn136  1  0.58511604  0.82663663  0.58741737  1
  Mn3.34+  Mn137  1  0.57994003  0.83678474  0.91024259  1
  Mn3.34+  Mn138  1  0.91574926  0.33288121  0.24614592  1
  Mn3.34+  Mn139  1  0.91629897  0.33417243  0.58760254  1
  Mn3.34+  Mn140  1  0.91856154  0.34065314  0.91626601  1
  Mn3.34+  Mn141  1  0.91674442  0.82348908  0.25240814  1
  Mn3.34+  Mn142  1  0.91734728  0.83167296  0.59240608  1
  Mn3.34+  Mn143  1  0.91357598  0.82906477  0.90803322  1
  Mn3.34+  Mn144  1  0.75506768  0.66429800  0.75509514  1
  Mn3.34+  Mn145  1  0.90991965  0.17676011  0.25138206  1
  Mn3.34+  Mn146  1  0.59301168  0.15369470  0.92356586  1
  Mn3.34+  Mn147  1  0.40792076  0.66097904  0.75217545  1
  Mn3.34+  Mn148  1  0.57925509  0.66143981  0.24083942  1
  Mn3.34+  Mn149  1  0.58675317  0.17710227  0.24632998  1
  Mn3.34+  Mn150  1  0.41426588  0.16972822  0.08716189  1
  Mn3.34+  Mn151  1  0.41698779  0.16898503  0.41890923  1
  Mn3.34+  Mn152  1  0.24956955  0.66533966  0.57900094  1
  Mn3.34+  Mn153  1  0.75845071  0.16253087  0.75894609  1
  Mn3.34+  Mn154  1  0.91558045  0.66604343  0.58904014  1
  Mn3.34+  Mn155  1  0.73748488  0.66238592  0.42078475  1
  Mn3.34+  Mn156  1  0.74800576  0.66786204  0.41938844  1
  Mn3.34+  Mn157  1  0.42541515  0.16278953  0.42073832  1
  Mn3.34+  Mn158  1  0.08221713  0.17552711  0.41673173  1
  Mn3.34+  Mn159  1  0.08572214  0.16451805  0.74876110  1
  Mn3.34+  Mn160  1  0.75545668  0.66691552  0.07919530  1
  Mn3.34+  Mn161  1  0.91556343  0.17147086  0.91483466  1
  Mn3.34+  Mn162  1  0.92187852  0.18373632  0.25050153  1
  Mn3.34+  Mn163  1  0.57586688  0.17069432  0.24401129  1
  Mn3.34+  Mn164  1  0.08598590  0.66592260  0.41911425  1
  Mn3.34+  Mn165  1  0.24884676  0.66372711  0.24510746  1
  Mn3.34+  Mn166  1  0.07500709  0.15964668  0.75012228  1
  Mn3.34+  Mn167  1  0.58006274  0.66459288  0.91748528  1
  Mn3.34+  Mn168  1  0.59360928  0.65878601  0.91634673  1
  Mn3.34+  Mn169  1  0.25383127  0.17319443  0.91883190  1
  Mn3.34+  Mn170  1  0.74806359  0.16746977  0.75632547  1
  Mn3.34+  Mn171  1  0.41661350  0.66903830  0.08384549  1
  Mn3.34+  Mn172  1  0.42039330  0.66762638  0.74973073  1
  Mn3.34+  Mn173  1  0.25149711  0.16602244  0.24371346  1
  Mn3.34+  Mn174  1  0.24641662  0.66236767  0.91101204  1
  Mn3.34+  Mn175  1  0.58454822  0.16022822  0.92185192  1
  Mn3.34+  Mn176  1  0.09068344  0.18190407  0.41584340  1
  Mn3.34+  Mn177  1  0.58682103  0.16984996  0.58620786  1
  Mn3.34+  Mn178  1  0.75007599  0.17111182  0.08604600  1
  Mn3.34+  Mn179  1  0.08244708  0.66767238  0.75647529  1
  Mn3.34+  Mn180  1  0.58314231  -0.00182055  0.58924949  1
  Mn3.34+  Mn181  1  0.91518446  0.49789118  0.25150280  1
  Mn3.34+  Mn182  1  0.75821716  0.00256476  0.74440034  1
  Mn3.34+  Mn183  1  0.41530586  0.49273262  0.39957943  1
  Mn3.34+  Mn184  1  0.58651476  0.49784554  0.93368240  1
  Mn3.34+  Mn185  1  0.42548357  0.50043981  0.74862913  1
  Mn3.34+  Mn186  1  0.58581706  -0.00078533  0.24431904  1
  Mn3.34+  Mn187  1  0.90234142  0.00449830  0.90199314  1
  Mn3.34+  Mn188  1  0.73432445  0.50176851  0.40866877  1
  Mn3.34+  Mn189  1  0.91608947  0.00154354  0.24777802  1
  Mn3.34+  Mn190  1  0.07422089  0.00038073  0.42660490  1
  Mn3.34+  Mn191  1  0.08619261  0.00392723  0.42548050  1
  Mn3.34+  Mn192  1  0.74458072  0.00554666  0.07702070  1
  Mn3.34+  Mn193  1  0.57515501  0.00379217  0.24674368  1
  Mn3.34+  Mn194  1  0.08559721  0.50089456  0.07518052  1
  Mn3.34+  Mn195  1  0.74685907  -0.00357022  0.42126478  1
  Mn3.34+  Mn196  1  0.91041471  0.50213218  0.92946128  1
  Mn3.34+  Mn197  1  0.08989182  0.50119543  0.40869852  1
  Mn3.34+  Mn198  1  0.57041472  0.00429716  0.58787453  1
  Mn3.34+  Mn199  1  0.08598027  0.00645379  0.08876949  1
  Mn3.34+  Mn200  1  0.41455273  -0.00898517  0.76822154  1
  Mn3.34+  Mn201  1  0.25662153  0.00415820  0.59319430  1
  Mn3.34+  Mn202  1  0.41544394  0.49542831  0.75037417  1
  Mn3.34+  Mn203  1  0.74899224  0.50022719  0.74983453  1
  Mn3.34+  Mn204  1  0.58469502  0.50084906  0.24771597  1
  Mn3.34+  Mn205  1  0.26815094  0.49800923  0.57572082  1
  Mn3.34+  Mn206  1  0.10013161  0.50400099  0.07536229  1
  Mn3.34+  Mn207  1  0.91674195  0.49897725  0.58801474  1
  Mn3.34+  Mn208  1  0.07572605  0.00036930  0.08772048  1
  Mn3.34+  Mn209  1  0.91525665  -0.00198979  0.89873265  1
  Mn3.34+  Mn210  1  0.42061809  0.00531873  0.07918899  1
  Mn3.34+  Mn211  1  0.24521023  0.00859719  0.59118156  1
  Mn3.34+  Mn212  1  0.25764572  0.49314698  0.57565325  1
  Mn3.34+  Mn213  1  0.90200903  0.00771052  0.25102472  1
  Mn3.34+  Mn214  1  0.59815822  0.50485767  0.93460861  1
  Mn3.34+  Mn215  1  0.26339858  0.00001471  0.91909484  1
  O2-  O216  1  -0.00108402  0.15402194  -0.00932701  1
  O2-  O217  1  0.00712148  0.17375337  0.32868468  1
  O2-  O218  1  -0.00219778  0.16119729  0.66837115  1
  O2-  O219  1  -0.01042607  0.67107108  -0.00595366  1
  O2-  O220  1  0.00074640  0.65754978  0.34252162  1
  O2-  O221  1  0.00272789  0.65737227  0.66609495  1
  O2-  O222  1  0.33172446  0.15766577  0.00278015  1
  O2-  O223  1  0.33733326  0.15989431  0.33240389  1
  O2-  O224  1  0.33045220  0.16653987  0.66824985  1
  O2-  O225  1  0.32865952  0.66666202  -0.00187767  1
  O2-  O226  1  0.34070190  0.65380005  0.32333383  1
  O2-  O227  1  0.32800959  0.65398812  0.66559238  1
  O2-  O228  1  0.67044180  0.16912047  0.00199797  1
  O2-  O229  1  0.65854218  0.18030666  0.33298972  1
  O2-  O230  1  0.66677735  0.14221865  0.67296447  1
  O2-  O231  1  0.66564403  0.65904038  0.00223252  1
  O2-  O232  1  0.66453852  0.66474935  0.32675666  1
  O2-  O233  1  0.67628597  0.68472675  0.67815205  1
  O2-  O234  1  0.16897469  0.16473500  -0.00684503  1
  O2-  O235  1  0.17377970  0.16643235  0.33871433  1
  O2-  O236  1  0.16439739  0.13998074  0.67153992  1
  O2-  O237  1  0.16539950  0.67142119  -0.01819442  1
  O2-  O238  1  0.17277526  0.65034244  0.34094060  1
  O2-  O239  1  0.16699048  0.64945436  0.66389278  1
  O2-  O240  1  0.49946920  0.16767731  -0.00033628  1
  O2-  O241  1  0.50295712  0.16001270  0.33374608  1
  O2-  O242  1  0.50776039  0.16236902  0.66777138  1
  O2-  O243  1  0.49379070  0.64288917  -0.00805079  1
  O2-  O244  1  0.50039897  0.65745455  0.31994258  1
  O2-  O245  1  0.49808351  0.66103739  0.67100547  1
  O2-  O246  1  0.83960160  0.15844145  0.00336958  1
  O2-  O247  1  0.84054156  0.18104244  0.33742405  1
  O2-  O248  1  0.83553336  0.15080249  0.67694265  1
  O2-  O249  1  0.83784466  0.67446241  0.00625480  1
  O2-  O250  1  0.82554100  0.64678096  0.33660758  1
  O2-  O251  1  0.82806436  0.66637249  0.66279029  1
  O2-  O252  1  0.00753547  0.34887734  -0.00536301  1
  O2-  O253  1  -0.00138622  0.32285229  0.33845032  1
  O2-  O254  1  -0.00058184  0.34581447  0.66801847  1
  O2-  O255  1  -0.00405595  0.84158844  0.00006203  1
  O2-  O256  1  0.00526198  0.84823227  0.33161008  1
  O2-  O257  1  0.00160962  0.83604913  0.66796243  1
  O2-  O258  1  0.32916583  0.33239293  -0.00370888  1
  O2-  O259  1  0.33258726  0.33823933  0.33619990  1
  O2-  O260  1  0.32565149  0.34835435  0.67693237  1
  O2-  O261  1  0.33360823  0.83803227  0.00119148  1
  O2-  O262  1  0.33837769  0.84975321  0.33096500  1
  O2-  O263  1  0.32710015  0.83814019  0.66801272  1
  O2-  O264  1  0.66809226  0.32994753  -0.00443538  1
  O2-  O265  1  0.66144375  0.33081873  0.33892694  1
  O2-  O266  1  0.66782917  0.34914534  0.66863527  1
  O2-  O267  1  0.66245764  0.84657309  0.00378509  1
  O2-  O268  1  0.65913376  0.84775722  0.33525007  1
  O2-  O269  1  0.67186999  0.81932454  0.66525084  1
  O2-  O270  1  0.16882809  0.34139790  -0.00086192  1
  O2-  O271  1  0.16059728  0.33483951  0.32940343  1
  O2-  O272  1  0.16288530  0.34186767  0.66729571  1
  O2-  O273  1  0.17120358  0.84375535  0.00478780  1
  O2-  O274  1  0.17543304  0.85232391  0.33768925  1
  O2-  O275  1  0.16452225  0.84696264  0.66577167  1
  O2-  O276  1  0.49850607  0.32577912  -0.00647916  1
  O2-  O277  1  0.50424312  0.32442027  0.33237311  1
  O2-  O278  1  0.50219176  0.34675787  0.67203748  1
  O2-  O279  1  0.50258322  0.84172114  0.00253679  1
  O2-  O280  1  0.50097627  0.84097874  0.33363193  1
  O2-  O281  1  0.49811229  0.82861682  0.66295394  1
  O2-  O282  1  0.83596089  0.34018362  -0.00115097  1
  O2-  O283  1  0.83705836  0.33733327  0.33728774  1
  O2-  O284  1  0.83062539  0.35870065  0.66606950  1
  O2-  O285  1  0.82969406  0.84011173  -0.00285214  1
  O2-  O286  1  0.83550309  0.84805026  0.33898512  1
  O2-  O287  1  0.83059414  0.82683605  0.66742747  1
  O2-  O288  1  -0.01373365  0.18629567  0.15849125  1
  O2-  O289  1  0.00032335  0.18242357  0.49490246  1
  O2-  O290  1  0.00773653  0.18114561  0.84006762  1
  O2-  O291  1  -0.00974977  0.68282096  0.18129511  1
  O2-  O292  1  -0.00069933  0.67110282  0.49880401  1
  O2-  O293  1  0.00837720  0.68316581  0.83390713  1
  O2-  O294  1  0.33457637  0.17903775  0.16739004  1
  O2-  O295  1  0.32832240  0.17471907  0.48832777  1
  O2-  O296  1  0.33303245  0.17945122  0.84003349  1
  O2-  O297  1  0.33539445  0.68171603  0.16848902  1
  O2-  O298  1  0.31819295  0.67469810  0.49046974  1
  O2-  O299  1  0.33760340  0.68381103  0.83699328  1
  O2-  O300  1  0.66607222  0.18918478  0.16655020  1
  O2-  O301  1  0.67271094  0.17180488  0.51437317  1
  O2-  O302  1  0.66663913  0.18437274  0.83496541  1
  O2-  O303  1  0.67136072  0.67851445  0.17189042  1
  O2-  O304  1  0.67009034  0.68680976  0.50359152  1
  O2-  O305  1  0.66960743  0.68393675  0.83513861  1
  O2-  O306  1  0.17853653  0.17246868  0.16288475  1
  O2-  O307  1  0.16363673  0.19074099  0.49900601  1
  O2-  O308  1  0.16799403  0.18220411  0.83004327  1
  O2-  O309  1  0.16352255  0.67354755  0.17687664  1
  O2-  O310  1  0.15805616  0.67342421  0.50794040  1
  O2-  O311  1  0.17591847  0.68259894  0.82495643  1
  O2-  O312  1  0.49895919  0.18925753  0.16578496  1
  O2-  O313  1  0.50991599  0.18141258  0.49543238  1
  O2-  O314  1  0.50959496  0.17955552  0.83822224  1
  O2-  O315  1  0.49681498  0.68388509  0.16532817  1
  O2-  O316  1  0.50829653  0.68436203  0.50491065  1
  O2-  O317  1  0.50558304  0.67646313  0.83158340  1
  O2-  O318  1  0.83068273  0.18281678  0.16929907  1
  O2-  O319  1  0.83515080  0.17053337  0.50820463  1
  O2-  O320  1  0.83469639  0.19002060  0.83809470  1
  O2-  O321  1  0.82732698  0.68018007  0.16809916  1
  O2-  O322  1  0.84033246  0.67580650  0.49548426  1
  O2-  O323  1  0.82867794  0.69496643  0.82096031  1
  O2-  O324  1  0.00595853  0.32254180  0.17384875  1
  O2-  O325  1  -0.00409948  0.32088514  0.49890036  1
  O2-  O326  1  -0.00088301  0.32675108  0.83099327  1
  O2-  O327  1  0.00145005  0.83180671  0.16551597  1
  O2-  O328  1  -0.00857781  0.82508546  0.49525532  1
  O2-  O329  1  0.00503398  0.81308408  0.83966088  1
  O2-  O330  1  0.32979880  0.32891470  0.16075519  1
  O2-  O331  1  0.33967599  0.31712194  0.50548133  1
  O2-  O332  1  0.33074022  0.31692028  0.83623802  1
  O2-  O333  1  0.33321000  0.82768369  0.16214450  1
  O2-  O334  1  0.33056752  0.82341500  0.49784620  1
  O2-  O335  1  0.32829247  0.81444527  0.83168650  1
  O2-  O336  1  0.66498579  0.31397320  0.17254962  1
  O2-  O337  1  0.67280786  0.33050564  0.50691007  1
  O2-  O338  1  0.66521035  0.31236814  0.83210975  1
  O2-  O339  1  0.67109434  0.81731795  0.17614326  1
  O2-  O340  1  0.65804340  0.81847670  0.49555498  1
  O2-  O341  1  0.67111546  0.81668467  0.83889097  1
  O2-  O342  1  0.16637344  0.32483080  0.16620541  1
  O2-  O343  1  0.16365282  0.31528179  0.50143368  1
  O2-  O344  1  0.16627268  0.31433796  0.83660372  1
  O2-  O345  1  0.16168732  0.82579089  0.17303835  1
  O2-  O346  1  0.17363967  0.83462159  0.49550398  1
  O2-  O347  1  0.16528411  0.81491003  0.83801911  1
  O2-  O348  1  0.49993564  0.31644525  0.16763403  1
  O2-  O349  1  0.50923170  0.32167875  0.49227954  1
  O2-  O350  1  0.50102169  0.31798753  0.83447578  1
  O2-  O351  1  0.49623059  0.81191842  0.17448081  1
  O2-  O352  1  0.50134421  0.81804209  0.49947635  1
  O2-  O353  1  0.49944458  0.81795123  0.83062348  1
  O2-  O354  1  0.83432749  0.31118773  0.17289819  1
  O2-  O355  1  0.83333828  0.33345242  0.50246629  1
  O2-  O356  1  0.83727214  0.32400811  0.82942787  1
  O2-  O357  1  0.83602674  0.81955636  0.16098836  1
  O2-  O358  1  0.83552563  0.82505776  0.50177863  1
  O2-  O359  1  0.83297977  0.80842722  0.83398183  1
  O2-  O360  1  0.06112321  0.08667911  0.09699316  1
  O2-  O361  1  0.08552407  0.08791220  0.43424067  1
  O2-  O362  1  0.08291650  0.08043906  0.79380668  1
  O2-  O363  1  0.05727526  0.57864894  0.10863170  1
  O2-  O364  1  0.08158035  0.57750810  0.45705848  1
  O2-  O365  1  0.08713833  0.58545759  0.77236376  1
  O2-  O366  1  0.40709170  0.08458426  0.09735844  1
  O2-  O367  1  0.41474099  0.08235429  0.43230843  1
  O2-  O368  1  0.41809462  0.07349453  0.79727096  1
  O2-  O369  1  0.40834317  0.58414933  0.10250361  1
  O2-  O370  1  0.40038804  0.55983451  0.46158513  1
  O2-  O371  1  0.41638129  0.57903330  0.79514788  1
  O2-  O372  1  0.77662515  0.08311901  0.11197184  1
  O2-  O373  1  0.74931831  0.07723876  0.43890663  1
  O2-  O374  1  0.74390845  0.08045282  0.79067006  1
  O2-  O375  1  0.76890140  0.58565154  0.09965348  1
  O2-  O376  1  0.76204766  0.58108932  0.45914168  1
  O2-  O377  1  0.73337953  0.58295506  0.74923119  1
  O2-  O378  1  0.24939659  0.08260029  0.24761033  1
  O2-  O379  1  0.23388491  0.07393869  0.52192445  1
  O2-  O380  1  0.23941847  0.08108158  0.87951695  1
  O2-  O381  1  0.26390638  0.58367976  0.23266307  1
  O2-  O382  1  0.25045855  0.57910519  0.54333970  1
  O2-  O383  1  0.25971343  0.58167996  0.88871374  1
  O2-  O384  1  0.58672482  0.08595271  0.23463678  1
  O2-  O385  1  0.58036013  0.08252197  0.55487063  1
  O2-  O386  1  0.57100980  0.07626491  0.87991375  1
  O2-  O387  1  0.58532644  0.57716174  0.20337539  1
  O2-  O388  1  0.60984923  0.57275042  0.56039358  1
  O2-  O389  1  0.58847728  0.57486577  0.87788196  1
  O2-  O390  1  0.92390425  0.08877443  0.22507666  1
  O2-  O391  1  0.91565696  0.06132480  0.53061372  1
  O2-  O392  1  0.92204066  0.08571195  0.89132758  1
  O2-  O393  1  0.89154840  0.57376659  0.22182630  1
  O2-  O394  1  0.92400762  0.57910112  0.55370024  1
  O2-  O395  1  0.92137214  0.56936154  0.88798189  1
  O2-  O396  1  0.08218717  0.42288838  0.12132731  1
  O2-  O397  1  0.06086203  0.41999882  0.42271207  1
  O2-  O398  1  0.08983905  0.41668837  0.77182913  1
  O2-  O399  1  0.08736475  0.91915306  0.10854443  1
  O2-  O400  1  0.05496048  0.91977435  0.44937752  1
  O2-  O401  1  0.08841568  0.91244037  0.77237948  1
  O2-  O402  1  0.41857311  0.41324439  0.08222057  1
  O2-  O403  1  0.43500017  0.41975001  0.43687481  1
  O2-  O404  1  0.41911989  0.41765460  0.79223835  1
  O2-  O405  1  0.41338623  0.92193771  0.11312285  1
  O2-  O406  1  0.42394770  0.91279273  0.44860030  1
  O2-  O407  1  0.39519939  0.91290369  0.75289517  1
  O2-  O408  1  0.74760206  0.41158104  0.09483501  1
  O2-  O409  1  0.76325665  0.42117929  0.44600006  1
  O2-  O410  1  0.74254189  0.42156055  0.79131768  1
  O2-  O411  1  0.76554214  0.92152028  0.11458711  1
  O2-  O412  1  0.75381089  0.91633388  0.45484887  1
  O2-  O413  1  0.76116628  0.92284382  0.77065646  1
  O2-  O414  1  0.23418840  0.41910395  0.22253558  1
  O2-  O415  1  0.23380669  0.41389591  0.55754458  1
  O2-  O416  1  0.24796557  0.41419534  0.88560191  1
  O2-  O417  1  0.23883762  0.92256894  0.20993956  1
  O2-  O418  1  0.27082567  0.92252841  0.55778374  1
  O2-  O419  1  0.23570063  0.91903747  0.89407305  1
  O2-  O420  1  0.58010001  0.42082517  0.26180529  1
  O2-  O421  1  0.59567269  0.41801732  0.55482515  1
  O2-  O422  1  0.58823630  0.42599869  0.88471608  1
  O2-  O423  1  0.58409759  0.92026764  0.20212248  1
  O2-  O424  1  0.57324930  0.91835534  0.55343747  1
  O2-  O425  1  0.58755657  0.91502390  0.89788710  1
  O2-  O426  1  0.95124071  0.41830588  0.26389040  1
  O2-  O427  1  0.92295926  0.42163072  0.54729532  1
  O2-  O428  1  0.91309013  0.43024430  0.88251395  1
  O2-  O429  1  0.90810228  0.92192937  0.21442172  1
  O2-  O430  1  0.91335616  0.91461082  0.56720880  1
  O2-  O431  1  0.90901242  0.91670757  0.89404470  1
  O2-  O432  1  0.00939279  -0.00167016  -0.01718280  1
  O2-  O433  1  0.00071333  0.00063627  0.33181682  1
  O2-  O434  1  0.00172822  0.01003505  0.64602001  1
  O2-  O435  1  0.00585316  0.49582057  -0.01159064  1
  O2-  O436  1  0.00056622  0.52349401  0.33434240  1
  O2-  O437  1  0.01826725  0.49516055  0.63300305  1
  O2-  O438  1  0.31258066  -0.00479387  0.03356182  1
  O2-  O439  1  0.30729490  -0.00535786  0.38587733  1
  O2-  O440  1  0.31817377  0.01558308  0.69411265  1
  O2-  O441  1  0.33198259  0.48513878  -0.01108255  1
  O2-  O442  1  0.33504914  0.51687807  0.33214917  1
  O2-  O443  1  0.32082268  0.50453615  0.68381535  1
  O2-  O444  1  0.67586784  -0.01536256  -0.00238269  1
  O2-  O445  1  0.66696654  -0.01554549  0.33207451  1
  O2-  O446  1  0.65011561  0.00787636  0.68564661  1
  O2-  O447  1  0.68545942  0.49322635  -0.00574993  1
  O2-  O448  1  0.68519566  0.52172374  0.30394667  1
  O2-  O449  1  0.67817672  0.48862410  0.66743616  1
  O2-  O450  1  0.16118408  0.01517872  -0.00477479  1
  O2-  O451  1  0.15852744  -0.02621105  0.34072968  1
  O2-  O452  1  0.15331775  -0.00211171  0.65798782  1
  O2-  O453  1  0.16982145  0.48487775  -0.00431242  1
  O2-  O454  1  0.15588019  0.50055464  0.32705525  1
  O2-  O455  1  0.16804026  0.51305427  0.65066745  1
  O2-  O456  1  0.49257183  0.00591376  0.00176664  1
  O2-  O457  1  0.49980454  -0.02494106  0.32946126  1
  O2-  O458  1  0.49290128  0.00755149  0.67988542  1
  O2-  O459  1  0.48843699  0.50725201  -0.02071535  1
  O2-  O460  1  0.49643415  0.52271195  0.32961608  1
  O2-  O461  1  0.52557721  0.49903838  0.69915586  1
  O2-  O462  1  0.85155855  -0.00306315  0.01425172  1
  O2-  O463  1  0.84296573  -0.01470563  0.34946190  1
  O2-  O464  1  0.80711007  0.00651902  0.64407066  1
  O2-  O465  1  0.83888223  0.49839970  0.00002705  1
  O2-  O466  1  0.85401405  0.50135319  0.36084641  1
  O2-  O467  1  0.82947311  0.48631193  0.65891270  1
  O2-  O468  1  0.25315694  0.25188397  0.26247426  1
  O2-  O469  1  0.73480576  0.75136660  0.06237810  1
  O2-  O470  1  0.74966304  0.25555748  0.41787688  1
  O2-  O471  1  0.90372945  0.25735095  0.60415192  1
  O2-  O472  1  0.07736682  0.24819348  0.72770081  1
  O2-  O473  1  0.41687615  0.25644200  0.73142106  1
  O2-  O474  1  0.08362806  0.75016036  0.07388960  1
  O2-  O475  1  0.42365414  0.74901914  0.05712261  1
  O2-  O476  1  0.24926166  0.74951448  0.27507347  1
  O2-  O477  1  0.76011608  0.25101337  0.06247045  1
  O2-  O478  1  0.23813610  0.74809225  0.59937036  1
  O2-  O479  1  0.92568650  0.74857576  0.59137152  1
  O2-  O480  1  0.24973237  0.25384555  0.60629780  1
  O2-  O481  1  0.40943677  0.75066345  0.39757408  1
  O2-  O482  1  0.08163691  0.25619058  0.06826833  1
  O2-  O483  1  0.08963082  0.74924693  0.72168759  1
  O2-  O484  1  0.76451615  0.74929836  0.38747525  1
  O2-  O485  1  0.41064359  0.74909813  0.72920101  1
  O2-  O486  1  0.57482548  0.74812790  0.94073138  1
  O2-  O487  1  0.75518309  0.24944249  0.72023773  1
  O2-  O488  1  0.41447254  0.24852864  0.39727256  1
  O2-  O489  1  0.08852869  0.74810481  0.39672053  1
  O2-  O490  1  0.40441389  0.24943359  0.06696727  1
  O2-  O491  1  0.92325850  0.25245521  0.93731182  1
  O2-  O492  1  0.59491064  0.25231854  0.60285921  1
