# generated using pymatgen
data_Ca108Mn108O277
_symmetry_space_group_name_H-M   'P 1'
_cell_length_a   16.02778008
_cell_length_b   22.30550549
_cell_length_c   16.38902474
_cell_angle_alpha   90.00584984
_cell_angle_beta   89.99971061
_cell_angle_gamma   89.99677748
_symmetry_Int_Tables_number   1
_chemical_formula_structural   Ca108Mn108O277
_chemical_formula_sum   'Ca108 Mn108 O277'
_cell_volume   5859.20310161
_cell_formula_units_Z   1
loop_
 _symmetry_equiv_pos_site_id
 _symmetry_equiv_pos_as_xyz
  1  'x, y, z'
loop_
 _atom_type_symbol
 _atom_type_oxidation_number
  Ca2+  2.0
  Mn3.34+  3.34
  O2-  -2.0
loop_
 _atom_site_type_symbol
 _atom_site_label
 _atom_site_symmetry_multiplicity
 _atom_site_fract_x
 _atom_site_fract_y
 _atom_site_fract_z
 _atom_site_occupancy
  Ca2+  Ca0  1  0.08179383  0.23679097  0.25565929  1
  Ca2+  Ca1  1  0.06599705  0.24857314  0.57598345  1
  Ca2+  Ca2  1  0.07674402  0.25009698  0.92169041  1
  Ca2+  Ca3  1  0.07858769  0.76779825  0.25667101  1
  Ca2+  Ca4  1  0.08791187  0.74855664  0.57900292  1
  Ca2+  Ca5  1  0.07597405  0.75058015  0.91128893  1
  Ca2+  Ca6  1  0.41693998  0.25393418  0.25330515  1
  Ca2+  Ca7  1  0.40545647  0.25727942  0.56900485  1
  Ca2+  Ca8  1  0.41632217  0.25889116  0.91946415  1
  Ca2+  Ca9  1  0.43469943  0.75085001  0.26109978  1
  Ca2+  Ca10  1  0.43640952  0.73611426  0.58027103  1
  Ca2+  Ca11  1  0.43391179  0.75859469  0.91292764  1
  Ca2+  Ca12  1  0.75393471  0.24584926  0.23867610  1
  Ca2+  Ca13  1  0.76792787  0.25719037  0.58333382  1
  Ca2+  Ca14  1  0.76414650  0.24398427  0.92514883  1
  Ca2+  Ca15  1  0.73145583  0.73808692  0.26948551  1
  Ca2+  Ca16  1  0.73450556  0.73737325  0.57418041  1
  Ca2+  Ca17  1  0.74004090  0.74275249  0.88835642  1
  Ca2+  Ca18  1  0.24381012  0.25331229  0.09514049  1
  Ca2+  Ca19  1  0.24299450  0.24968326  0.41705680  1
  Ca2+  Ca20  1  0.24903341  0.25602944  0.74142173  1
  Ca2+  Ca21  1  0.26868256  0.76201734  0.08951322  1
  Ca2+  Ca22  1  0.27581313  0.74356762  0.40919763  1
  Ca2+  Ca23  1  0.26784988  0.75097055  0.73989529  1
  Ca2+  Ca24  1  0.58779680  0.25195642  0.09147875  1
  Ca2+  Ca25  1  0.57685221  0.26706238  0.41169227  1
  Ca2+  Ca26  1  0.59301820  0.27339770  0.74376688  1
  Ca2+  Ca27  1  0.57487733  0.75120521  0.09591839  1
  Ca2+  Ca28  1  0.58547094  0.73699311  0.41986907  1
  Ca2+  Ca29  1  0.58402830  0.73476115  0.73134055  1
  Ca2+  Ca30  1  0.91654967  0.24614101  0.07894796  1
  Ca2+  Ca31  1  0.92710825  0.24853667  0.42839903  1
  Ca2+  Ca32  1  0.91302891  0.25276718  0.73911510  1
  Ca2+  Ca33  1  0.90399675  0.75831774  0.09501221  1
  Ca2+  Ca34  1  0.89533882  0.75014252  0.40736949  1
  Ca2+  Ca35  1  0.89381373  0.74969339  0.74406186  1
  Ca2+  Ca36  1  0.28489729  0.60770677  0.42821911  1
  Ca2+  Ca37  1  0.90433319  0.60056090  0.74804514  1
  Ca2+  Ca38  1  0.78288458  0.09185746  0.93002662  1
  Ca2+  Ca39  1  0.87059581  0.60665685  0.42507863  1
  Ca2+  Ca40  1  0.88408671  0.10178849  0.07745166  1
  Ca2+  Ca41  1  0.28175974  0.58654141  0.07797780  1
  Ca2+  Ca42  1  0.58364222  0.08135733  0.38983529  1
  Ca2+  Ca43  1  0.45671755  0.60365297  0.27257024  1
  Ca2+  Ca44  1  0.88669416  0.56948945  0.05564767  1
  Ca2+  Ca45  1  0.05614613  0.09952417  0.92313417  1
  Ca2+  Ca46  1  0.77792663  0.09801037  0.58702701  1
  Ca2+  Ca47  1  0.25428154  0.08389077  0.07277739  1
  Ca2+  Ca48  1  0.89424720  0.60298170  0.75142486  1
  Ca2+  Ca49  1  0.57340783  0.08531124  0.74646911  1
  Ca2+  Ca50  1  0.76710580  0.09538349  0.58889981  1
  Ca2+  Ca51  1  0.07365357  0.57560069  0.91132769  1
  Ca2+  Ca52  1  0.56017389  0.08319824  0.74860430  1
  Ca2+  Ca53  1  0.75777662  0.08066328  0.23928086  1
  Ca2+  Ca54  1  0.57927625  0.58885881  0.11023214  1
  Ca2+  Ca55  1  0.10027614  0.58279303  0.60108540  1
  Ca2+  Ca56  1  0.41885349  0.58693584  0.90096088  1
  Ca2+  Ca57  1  0.42793510  0.59093072  0.90503569  1
  Ca2+  Ca58  1  0.93038774  0.08694699  0.39851252  1
  Ca2+  Ca59  1  0.24132442  0.09522596  0.41088769  1
  Ca2+  Ca60  1  0.40440381  0.09687359  0.59192308  1
  Ca2+  Ca61  1  0.88532728  0.09757084  0.08568127  1
  Ca2+  Ca62  1  0.27027908  0.58796192  0.08164455  1
  Ca2+  Ca63  1  0.25374416  0.09898034  0.74758030  1
  Ca2+  Ca64  1  0.04847284  0.09645719  0.91690701  1
  Ca2+  Ca65  1  0.06059117  0.11099076  0.58009230  1
  Ca2+  Ca66  1  0.92038342  0.11553844  0.76440208  1
  Ca2+  Ca67  1  0.62682806  0.08589315  0.09235760  1
  Ca2+  Ca68  1  0.42432277  0.07907454  0.24637870  1
  Ca2+  Ca69  1  0.08656134  0.57333977  0.91138350  1
  Ca2+  Ca70  1  0.58473548  0.58479804  0.10359771  1
  Ca2+  Ca71  1  0.57261021  0.08128338  0.39199423  1
  Ca2+  Ca72  1  0.58633640  0.41710325  0.40081428  1
  Ca2+  Ca73  1  0.08585826  0.39977113  0.25068530  1
  Ca2+  Ca74  1  0.74560723  0.41117638  0.58292738  1
  Ca2+  Ca75  1  0.72848768  0.41781462  0.24434195  1
  Ca2+  Ca76  1  0.09560097  0.40845556  0.59338200  1
  Ca2+  Ca77  1  0.60155054  0.90238455  0.41323453  1
  Ca2+  Ca78  1  0.91739846  0.88959613  0.75817446  1
  Ca2+  Ca79  1  0.26486889  0.41383796  0.05480109  1
  Ca2+  Ca80  1  0.91454146  0.40654942  0.42045526  1
  Ca2+  Ca81  1  0.08780152  0.89967013  0.92382425  1
  Ca2+  Ca82  1  0.90357000  0.91414536  0.38197311  1
  Ca2+  Ca83  1  0.39442547  0.41845976  0.60834858  1
  Ca2+  Ca84  1  0.76903642  0.41339995  0.93635976  1
  Ca2+  Ca85  1  0.07239303  0.40022015  0.24952345  1
  Ca2+  Ca86  1  0.87903226  0.92542357  0.09610154  1
  Ca2+  Ca87  1  0.23647424  0.89820471  0.41082909  1
  Ca2+  Ca88  1  0.74524703  0.91202017  0.93028504  1
  Ca2+  Ca89  1  0.24607933  0.89496482  0.40570421  1
  Ca2+  Ca90  1  0.59056477  0.90259423  0.41219751  1
  Ca2+  Ca91  1  0.59270572  0.41174278  0.08179850  1
  Ca2+  Ca92  1  0.24591678  0.40675883  0.42863011  1
  Ca2+  Ca93  1  0.41638797  0.41436415  0.90943609  1
  Ca2+  Ca94  1  0.07491213  0.89985214  0.92416019  1
  Ca2+  Ca95  1  0.58324063  0.91338995  0.10278484  1
  Ca2+  Ca96  1  0.08414253  0.88645557  0.57999590  1
  Ca2+  Ca97  1  0.06821909  0.40772495  0.91974289  1
  Ca2+  Ca98  1  0.75857108  0.41104493  0.58280066  1
  Ca2+  Ca99  1  0.57113514  0.89789021  0.75269059  1
  Ca2+  Ca100  1  0.41621235  0.91542778  0.93732148  1
  Ca2+  Ca101  1  0.88880057  0.92335050  0.09881374  1
  Ca2+  Ca102  1  0.44687743  0.41719780  0.23875491  1
  Ca2+  Ca103  1  0.25029993  0.43031680  0.75156797  1
  Ca2+  Ca104  1  0.40461522  0.42002086  0.60757149  1
  Ca2+  Ca105  1  0.90299104  0.40946622  0.06666741  1
  Ca2+  Ca106  1  0.27469538  0.41633119  0.05922926  1
  Ca2+  Ca107  1  0.57259762  0.91581682  0.10363817  1
  Mn3.34+  Mn108  1  0.08086860  0.32940371  0.08307994  1
  Mn3.34+  Mn109  1  0.08257897  0.33479586  0.42233302  1
  Mn3.34+  Mn110  1  0.08221230  0.33610965  0.75502298  1
  Mn3.34+  Mn111  1  0.08528283  0.82588429  0.08688030  1
  Mn3.34+  Mn112  1  0.07547568  0.83151243  0.41580256  1
  Mn3.34+  Mn113  1  0.08579349  0.82157783  0.74913289  1
  Mn3.34+  Mn114  1  0.42255048  0.33427838  0.08269452  1
  Mn3.34+  Mn115  1  0.41546489  0.33929827  0.41439948  1
  Mn3.34+  Mn116  1  0.41638753  0.33780051  0.75653923  1
  Mn3.34+  Mn117  1  0.41678964  0.83761628  0.08752468  1
  Mn3.34+  Mn118  1  0.41896603  0.82756683  0.41896028  1
  Mn3.34+  Mn119  1  0.41603726  0.83060451  0.74765259  1
  Mn3.34+  Mn120  1  0.75169505  0.33397106  0.08687331  1
  Mn3.34+  Mn121  1  0.75020618  0.33998930  0.41106055  1
  Mn3.34+  Mn122  1  0.75140876  0.33647046  0.75901153  1
  Mn3.34+  Mn123  1  0.74260232  0.83491687  0.08625990  1
  Mn3.34+  Mn124  1  0.75250633  0.82742624  0.41852759  1
  Mn3.34+  Mn125  1  0.74363079  0.82908613  0.74492154  1
  Mn3.34+  Mn126  1  0.25604634  0.33335046  0.25048831  1
  Mn3.34+  Mn127  1  0.24664508  0.33329525  0.58376124  1
  Mn3.34+  Mn128  1  0.24817381  0.33734490  0.90512275  1
  Mn3.34+  Mn129  1  0.25265840  0.83318524  0.24386185  1
  Mn3.34+  Mn130  1  0.25640277  0.82782435  0.58344315  1
  Mn3.34+  Mn131  1  0.25447099  0.83505990  0.91297366  1
  Mn3.34+  Mn132  1  0.58538659  0.33247089  0.24673331  1
  Mn3.34+  Mn133  1  0.58078246  0.34264376  0.58237566  1
  Mn3.34+  Mn134  1  0.58700026  0.33332252  0.91700866  1
  Mn3.34+  Mn135  1  0.58412168  0.83536974  0.25272573  1
  Mn3.34+  Mn136  1  0.58303694  0.83293024  0.58309310  1
  Mn3.34+  Mn137  1  0.58418483  0.83335403  0.91660307  1
  Mn3.34+  Mn138  1  0.91060246  0.32868765  0.24927481  1
  Mn3.34+  Mn139  1  0.91927670  0.33484976  0.58707567  1
  Mn3.34+  Mn140  1  0.91629912  0.33334076  0.90889135  1
  Mn3.34+  Mn141  1  0.91409227  0.83606072  0.24900765  1
  Mn3.34+  Mn142  1  0.91108887  0.82605829  0.58013294  1
  Mn3.34+  Mn143  1  0.91271382  0.83054453  0.91609806  1
  Mn3.34+  Mn144  1  0.08682526  0.16682760  0.09057836  1
  Mn3.34+  Mn145  1  0.58482423  0.16584672  0.57937622  1
  Mn3.34+  Mn146  1  0.91833458  0.66827463  0.91280987  1
  Mn3.34+  Mn147  1  0.76283016  0.16904235  0.41190853  1
  Mn3.34+  Mn148  1  0.75391613  0.66317164  0.08165027  1
  Mn3.34+  Mn149  1  0.25455019  0.66978352  0.24823487  1
  Mn3.34+  Mn150  1  0.91272566  0.66791366  0.24951977  1
  Mn3.34+  Mn151  1  0.42337732  0.66813468  0.08574708  1
  Mn3.34+  Mn152  1  0.40910004  0.16020748  0.08432830  1
  Mn3.34+  Mn153  1  0.24790575  0.16256638  0.24919338  1
  Mn3.34+  Mn154  1  0.08638223  0.67168722  0.74653363  1
  Mn3.34+  Mn155  1  0.92068928  0.16388615  0.24512949  1
  Mn3.34+  Mn156  1  0.07731849  0.68042262  0.08888178  1
  Mn3.34+  Mn157  1  0.58638004  0.66771131  0.90917555  1
  Mn3.34+  Mn158  1  0.41005452  0.16989199  0.75876661  1
  Mn3.34+  Mn159  1  0.42172964  0.65940688  0.74100485  1
  Mn3.34+  Mn160  1  0.24663001  0.17055229  0.57995635  1
  Mn3.34+  Mn161  1  0.08945412  0.65895960  0.41804163  1
  Mn3.34+  Mn162  1  0.58781096  0.16765157  0.91689016  1
  Mn3.34+  Mn163  1  0.74913393  0.16286428  0.41310277  1
  Mn3.34+  Mn164  1  0.07789903  0.66481405  0.41548315  1
  Mn3.34+  Mn165  1  0.91528444  0.66730335  0.57936213  1
  Mn3.34+  Mn166  1  0.08155911  0.16554404  0.41391251  1
  Mn3.34+  Mn167  1  0.42073372  0.16380887  0.08213418  1
  Mn3.34+  Mn168  1  0.25395589  0.67823902  0.91018390  1
  Mn3.34+  Mn169  1  0.24413293  0.67305558  0.90870992  1
  Mn3.34+  Mn170  1  0.24883136  0.16519032  0.91098909  1
  Mn3.34+  Mn171  1  0.74440857  0.66847468  0.07971995  1
  Mn3.34+  Mn172  1  0.57432651  0.17132978  0.58127687  1
  Mn3.34+  Mn173  1  0.58696834  0.16704407  0.24339873  1
  Mn3.34+  Mn174  1  0.25674482  0.65728054  0.58853887  1
  Mn3.34+  Mn175  1  0.57576507  0.16195293  0.91547463  1
  Mn3.34+  Mn176  1  0.75154476  0.17189163  0.75600594  1
  Mn3.34+  Mn177  1  0.41098982  0.16904496  0.41106389  1
  Mn3.34+  Mn178  1  0.08760944  0.17600739  0.75252965  1
  Mn3.34+  Mn179  1  0.08623793  0.67436820  0.09007895  1
  Mn3.34+  Mn180  1  0.07836772  0.50010882  0.41862481  1
  Mn3.34+  Mn181  1  0.75277314  0.00204315  0.75690755  1
  Mn3.34+  Mn182  1  0.91653173  0.50767223  0.25038453  1
  Mn3.34+  Mn183  1  0.59918189  0.50478085  0.91656570  1
  Mn3.34+  Mn184  1  0.58450156  -0.00011350  0.93434596  1
  Mn3.34+  Mn185  1  0.73537241  0.50775093  0.40337144  1
  Mn3.34+  Mn186  1  0.57861184  0.50752177  0.59258614  1
  Mn3.34+  Mn187  1  0.25660280  -0.00327954  0.58398761  1
  Mn3.34+  Mn188  1  0.76430116  -0.00225270  0.75696937  1
  Mn3.34+  Mn189  1  0.91830649  -0.00896473  0.56898658  1
  Mn3.34+  Mn190  1  0.09190320  -0.00336093  0.09730515  1
  Mn3.34+  Mn191  1  0.41336047  -0.00187339  0.42079275  1
  Mn3.34+  Mn192  1  0.24314425  0.00327646  0.58154870  1
  Mn3.34+  Mn193  1  0.08788961  -0.00459059  0.75642123  1
  Mn3.34+  Mn194  1  0.25461559  0.00082306  0.92037450  1
  Mn3.34+  Mn195  1  0.59110522  0.49856993  0.91271482  1
  Mn3.34+  Mn196  1  0.07011412  0.50037125  0.09002626  1
  Mn3.34+  Mn197  1  0.42832658  0.50951484  0.43262755  1
  Mn3.34+  Mn198  1  0.24560238  0.50662370  0.26240759  1
  Mn3.34+  Mn199  1  0.73397172  0.50431378  0.75261521  1
  Mn3.34+  Mn200  1  0.57907251  -0.00299519  0.58908917  1
  Mn3.34+  Mn201  1  0.07404235  0.00178657  0.75757338  1
  Mn3.34+  Mn202  1  0.74330638  0.49767539  0.75372223  1
  Mn3.34+  Mn203  1  0.93096545  -0.00183019  0.56738335  1
  Mn3.34+  Mn204  1  0.08168888  0.00172131  0.09818220  1
  Mn3.34+  Mn205  1  0.08317290  0.49737013  0.73843711  1
  Mn3.34+  Mn206  1  0.40731973  -0.00364355  0.75633753  1
  Mn3.34+  Mn207  1  0.08651691  0.50399640  0.08971265  1
  Mn3.34+  Mn208  1  0.91535986  0.50498466  0.58336026  1
  Mn3.34+  Mn209  1  0.75832697  -0.00390434  0.41017347  1
  Mn3.34+  Mn210  1  0.90545407  0.50223060  0.24955725  1
  Mn3.34+  Mn211  1  0.40203863  -0.00604526  0.41761506  1
  Mn3.34+  Mn212  1  0.24553924  0.00012877  0.25413336  1
  Mn3.34+  Mn213  1  0.43945969  0.51290955  0.42868646  1
  Mn3.34+  Mn214  1  0.08693509  -0.00060866  0.40438445  1
  Mn3.34+  Mn215  1  0.25950071  0.50042705  0.26150416  1
  O2-  O216  1  -0.00124750  0.15620589  0.01423690  1
  O2-  O217  1  0.00320651  0.15615413  0.33019689  1
  O2-  O218  1  0.00492903  0.17379571  0.67585593  1
  O2-  O219  1  0.00751434  0.66815048  -0.00751419  1
  O2-  O220  1  -0.00572499  0.64625439  0.33897217  1
  O2-  O221  1  -0.00014502  0.66379486  0.66800322  1
  O2-  O222  1  0.32307519  0.16849098  0.00252780  1
  O2-  O223  1  0.33389489  0.14612482  0.32880211  1
  O2-  O224  1  0.33310335  0.16478642  0.66778041  1
  O2-  O225  1  0.33696606  0.65360699  -0.00593433  1
  O2-  O226  1  0.33769431  0.65824510  0.31794728  1
  O2-  O227  1  0.33092819  0.67296309  0.66871333  1
  O2-  O228  1  0.67246071  0.15337350  -0.01101207  1
  O2-  O229  1  0.66819115  0.15037538  0.33249245  1
  O2-  O230  1  0.66465729  0.13938873  0.66937797  1
  O2-  O231  1  0.66367477  0.64938001  -0.00191921  1
  O2-  O232  1  0.65578817  0.66444798  0.33913990  1
  O2-  O233  1  0.66830483  0.66605996  0.65656056  1
  O2-  O234  1  0.15742514  0.15200157  -0.00971457  1
  O2-  O235  1  0.16989749  0.15891869  0.33500840  1
  O2-  O236  1  0.16720047  0.15725255  0.66555387  1
  O2-  O237  1  0.16819334  0.68068926  0.00088508  1
  O2-  O238  1  0.17515177  0.64795437  0.33963376  1
  O2-  O239  1  0.16510933  0.67941812  0.66114704  1
  O2-  O240  1  0.50806300  0.14388284  0.00675017  1
  O2-  O241  1  0.49692978  0.14913589  0.33034105  1
  O2-  O242  1  0.49729923  0.15404041  0.67328732  1
  O2-  O243  1  0.50060172  0.64250549  0.00059099  1
  O2-  O244  1  0.51591063  0.67985588  0.33070576  1
  O2-  O245  1  0.50024824  0.66063902  0.66955854  1
  O2-  O246  1  0.83961983  0.17207246  0.00063576  1
  O2-  O247  1  0.83486295  0.14564610  0.32754372  1
  O2-  O248  1  0.82944156  0.15556043  0.67416338  1
  O2-  O249  1  0.83971755  0.66215445  0.00218992  1
  O2-  O250  1  0.83100179  0.66239700  0.32270292  1
  O2-  O251  1  0.84211693  0.66904724  0.66490512  1
  O2-  O252  1  -0.00286406  0.32913927  -0.00319740  1
  O2-  O253  1  -0.00242553  0.35010322  0.33627599  1
  O2-  O254  1  0.00915725  0.33442752  0.66245000  1
  O2-  O255  1  0.00276986  0.81671817  -0.00522892  1
  O2-  O256  1  -0.00498372  0.84304432  0.33583626  1
  O2-  O257  1  0.00030368  0.81641632  0.66674974  1
  O2-  O258  1  0.33480449  0.33483909  -0.00573419  1
  O2-  O259  1  0.33596522  0.35974188  0.32910118  1
  O2-  O260  1  0.33568253  0.33451564  0.66709024  1
  O2-  O261  1  0.33569558  0.83573632  -0.00345629  1
  O2-  O262  1  0.32890730  0.83568662  0.33827707  1
  O2-  O263  1  0.33626291  0.82026211  0.66272996  1
  O2-  O264  1  0.66898212  0.33893815  0.00622284  1
  O2-  O265  1  0.66430451  0.34845257  0.33136313  1
  O2-  O266  1  0.66811772  0.35503501  0.66802935  1
  O2-  O267  1  0.66005396  0.85348166  0.00434842  1
  O2-  O268  1  0.66911475  0.84156248  0.33257116  1
  O2-  O269  1  0.66172738  0.84803177  0.66975304  1
  O2-  O270  1  0.17081854  0.34919445  -0.00324608  1
  O2-  O271  1  0.16668987  0.35065309  0.33596240  1
  O2-  O272  1  0.17098202  0.34115703  0.67479559  1
  O2-  O273  1  0.16300271  0.81864648  -0.00422691  1
  O2-  O274  1  0.16206245  0.83755391  0.33376749  1
  O2-  O275  1  0.16609666  0.81676966  0.66302800  1
  O2-  O276  1  0.50066275  0.35378468  -0.00257913  1
  O2-  O277  1  0.50313958  0.34814475  0.33159697  1
  O2-  O278  1  0.49139436  0.33992596  0.66517067  1
  O2-  O279  1  0.50295937  0.84780194  0.00036484  1
  O2-  O280  1  0.50164363  0.84791440  0.33710424  1
  O2-  O281  1  0.50037199  0.84080205  0.66725410  1
  O2-  O282  1  0.83291290  0.32381162  -0.00226192  1
  O2-  O283  1  0.82938534  0.35709735  0.32505213  1
  O2-  O284  1  0.82950477  0.34748979  0.66451070  1
  O2-  O285  1  0.83766714  0.84889681  0.00546361  1
  O2-  O286  1  0.83332421  0.83569557  0.33415725  1
  O2-  O287  1  0.83860775  0.83188562  0.67265963  1
  O2-  O288  1  0.00068685  0.18337977  0.16504747  1
  O2-  O289  1  0.00273349  0.17622871  0.49153952  1
  O2-  O290  1  0.00993392  0.18117200  0.83959386  1
  O2-  O291  1  -0.00260126  0.69019799  0.16935105  1
  O2-  O292  1  0.00328776  0.68531092  0.50160580  1
  O2-  O293  1  0.00193338  0.68649652  0.82776628  1
  O2-  O294  1  0.33357057  0.18407706  0.16887094  1
  O2-  O295  1  0.33238118  0.18055313  0.49868158  1
  O2-  O296  1  0.33084645  0.19369854  0.83545655  1
  O2-  O297  1  0.32665699  0.67720952  0.15131136  1
  O2-  O298  1  0.32625943  0.68422645  0.51233984  1
  O2-  O299  1  0.33833055  0.67763289  0.83296434  1
  O2-  O300  1  0.66385835  0.18146932  0.16603768  1
  O2-  O301  1  0.67961578  0.17417603  0.50610843  1
  O2-  O302  1  0.65503789  0.17788685  0.82248556  1
  O2-  O303  1  0.66088832  0.67385896  0.15823434  1
  O2-  O304  1  0.65601961  0.66703837  0.50175593  1
  O2-  O305  1  0.65408651  0.68198656  0.82904412  1
  O2-  O306  1  0.17190835  0.18307669  0.16469013  1
  O2-  O307  1  0.16335470  0.17828958  0.50071802  1
  O2-  O308  1  0.17194494  0.18911220  0.83144931  1
  O2-  O309  1  0.17078663  0.68597459  0.16662498  1
  O2-  O310  1  0.16855239  0.68302000  0.49946566  1
  O2-  O311  1  0.16547703  0.69577780  0.82707499  1
  O2-  O312  1  0.49702081  0.17864020  0.17006990  1
  O2-  O313  1  0.50000462  0.18389591  0.48996000  1
  O2-  O314  1  0.50109113  0.18388005  0.83395751  1
  O2-  O315  1  0.50308094  0.67180072  0.16161309  1
  O2-  O316  1  0.51123988  0.66996774  0.49841980  1
  O2-  O317  1  0.48911701  0.67409632  0.84706730  1
  O2-  O318  1  0.83941354  0.18053782  0.16905836  1
  O2-  O319  1  0.83003233  0.17663836  0.50354601  1
  O2-  O320  1  0.83083562  0.18514342  0.83031574  1
  O2-  O321  1  0.83148514  0.68493371  0.16234363  1
  O2-  O322  1  0.84145383  0.68702317  0.50462489  1
  O2-  O323  1  0.84392097  0.68062135  0.83343278  1
  O2-  O324  1  0.00534283  0.31954488  0.17953780  1
  O2-  O325  1  -0.00398606  0.32347373  0.49779862  1
  O2-  O326  1  -0.00003705  0.31232979  0.83305892  1
  O2-  O327  1  -0.00298443  0.81955125  0.16115094  1
  O2-  O328  1  0.00170826  0.81345420  0.50424807  1
  O2-  O329  1  -0.00404781  0.81095679  0.83013441  1
  O2-  O330  1  0.33129827  0.32127987  0.15780408  1
  O2-  O331  1  0.32837360  0.32506843  0.49716973  1
  O2-  O332  1  0.33102428  0.31289090  0.83021784  1
  O2-  O333  1  0.34118653  0.82024772  0.17166981  1
  O2-  O334  1  0.32478318  0.81870272  0.49132102  1
  O2-  O335  1  0.33364034  0.81308962  0.83489576  1
  O2-  O336  1  0.67143304  0.31381129  0.16763841  1
  O2-  O337  1  0.66986607  0.33467736  0.50145745  1
  O2-  O338  1  0.67348620  0.31321376  0.84346760  1
  O2-  O339  1  0.65713287  0.82497059  0.15905913  1
  O2-  O340  1  0.66175019  0.82716138  0.49158185  1
  O2-  O341  1  0.67024054  0.83032727  0.83940838  1
  O2-  O342  1  0.16340573  0.32876728  0.17158625  1
  O2-  O343  1  0.16424587  0.32084881  0.50318804  1
  O2-  O344  1  0.16228707  0.30949229  0.83707175  1
  O2-  O345  1  0.16874864  0.81282190  0.16330879  1
  O2-  O346  1  0.16726681  0.81964944  0.49783329  1
  O2-  O347  1  0.15929583  0.81721894  0.84052808  1
  O2-  O348  1  0.50037211  0.31928703  0.16695212  1
  O2-  O349  1  0.49795435  0.32466638  0.49985777  1
  O2-  O350  1  0.49766191  0.31768871  0.83403419  1
  O2-  O351  1  0.50465623  0.82559114  0.16352757  1
  O2-  O352  1  0.50707172  0.82913607  0.49139669  1
  O2-  O353  1  0.50371277  0.82604757  0.83561156  1
  O2-  O354  1  0.83681354  0.31120211  0.16006557  1
  O2-  O355  1  0.83135770  0.33190025  0.49902936  1
  O2-  O356  1  0.83538920  0.31159751  0.83476751  1
  O2-  O357  1  0.83402169  0.82991206  0.16042747  1
  O2-  O358  1  0.83318465  0.81561547  0.49921526  1
  O2-  O359  1  0.83198129  0.81674413  0.83717054  1
  O2-  O360  1  0.09791745  0.08295010  0.11761535  1
  O2-  O361  1  0.08645038  0.07933477  0.44549498  1
  O2-  O362  1  0.09175822  0.08276910  0.78387100  1
  O2-  O363  1  0.09656219  0.58700122  0.10284099  1
  O2-  O364  1  0.08302787  0.58104704  0.46004875  1
  O2-  O365  1  0.08642953  0.57969243  0.77630323  1
  O2-  O366  1  0.40164528  0.07995817  0.11069523  1
  O2-  O367  1  0.41794106  0.07886399  0.45701652  1
  O2-  O368  1  0.42500395  0.08024776  0.78318587  1
  O2-  O369  1  0.41429630  0.58387128  0.10869546  1
  O2-  O370  1  0.42541741  0.59403688  0.42212640  1
  O2-  O371  1  0.41180733  0.58081076  0.77402639  1
  O2-  O372  1  0.75637108  0.07410038  0.11073077  1
  O2-  O373  1  0.75455680  0.07559317  0.45539616  1
  O2-  O374  1  0.75513821  0.08288332  0.79484604  1
  O2-  O375  1  0.74513124  0.58244375  0.10502311  1
  O2-  O376  1  0.74593127  0.57085941  0.45771399  1
  O2-  O377  1  0.76778663  0.57829934  0.78937444  1
  O2-  O378  1  0.25092434  0.07839471  0.21186189  1
  O2-  O379  1  0.25719133  0.08397162  0.55097721  1
  O2-  O380  1  0.23913558  0.07721612  0.87922956  1
  O2-  O381  1  0.24889098  0.58128613  0.21141492  1
  O2-  O382  1  0.23815980  0.58285379  0.55778056  1
  O2-  O383  1  0.22542748  0.58484442  0.91052509  1
  O2-  O384  1  0.59173450  0.08273596  0.23387330  1
  O2-  O385  1  0.57689024  0.07999436  0.53683385  1
  O2-  O386  1  0.58756847  0.07360383  0.87845695  1
  O2-  O387  1  0.55853953  0.55162692  0.21803260  1
  O2-  O388  1  0.57784253  0.56979323  0.54216937  1
  O2-  O389  1  0.57591031  0.58256851  0.87951042  1
  O2-  O390  1  0.91323204  0.08262471  0.21283530  1
  O2-  O391  1  0.90964432  0.07849029  0.54450596  1
  O2-  O392  1  0.93161526  0.06921660  0.87801682  1
  O2-  O393  1  0.91872034  0.58327827  0.20156446  1
  O2-  O394  1  0.92507429  0.58432026  0.55356361  1
  O2-  O395  1  0.94071737  0.58190279  0.87747067  1
  O2-  O396  1  0.06645462  0.41707678  0.10870414  1
  O2-  O397  1  0.08417715  0.41842244  0.45776469  1
  O2-  O398  1  0.10002625  0.42459606  0.79019464  1
  O2-  O399  1  0.07614990  0.91463811  0.07169960  1
  O2-  O400  1  0.09863780  0.91898615  0.44610371  1
  O2-  O401  1  0.07099788  0.91281171  0.77370747  1
  O2-  O402  1  0.40799160  0.41576733  0.10306341  1
  O2-  O403  1  0.41525806  0.42846024  0.46532844  1
  O2-  O404  1  0.40328011  0.41649536  0.77019338  1
  O2-  O405  1  0.43258634  0.91743746  0.09497855  1
  O2-  O406  1  0.38960639  0.91333395  0.44041711  1
  O2-  O407  1  0.41692395  0.91574363  0.78300211  1
  O2-  O408  1  0.75381753  0.41275546  0.10767463  1
  O2-  O409  1  0.75202458  0.43467896  0.45227244  1
  O2-  O410  1  0.75304497  0.42297134  0.79827979  1
  O2-  O411  1  0.74113031  0.91888050  0.09779710  1
  O2-  O412  1  0.75443945  0.91683848  0.43554473  1
  O2-  O413  1  0.76849413  0.91573766  0.77781867  1
  O2-  O414  1  0.24245599  0.42711132  0.20284171  1
  O2-  O415  1  0.25610904  0.41422869  0.56458620  1
  O2-  O416  1  0.26746138  0.41879487  0.90040476  1
  O2-  O417  1  0.24465794  0.91732077  0.25481602  1
  O2-  O418  1  0.23626600  0.91646923  0.55660990  1
  O2-  O419  1  0.21997385  0.92309438  0.89368050  1
  O2-  O420  1  0.58803071  0.41176342  0.21560420  1
  O2-  O421  1  0.58816564  0.43565440  0.54120592  1
  O2-  O422  1  0.59654287  0.41711718  0.88986923  1
  O2-  O423  1  0.58737598  0.92019021  0.23513414  1
  O2-  O424  1  0.58479819  0.91911586  0.54853889  1
  O2-  O425  1  0.58302344  0.92524298  0.88823837  1
  O2-  O426  1  0.92387108  0.42115557  0.20803632  1
  O2-  O427  1  0.90473937  0.42287184  0.55901495  1
  O2-  O428  1  0.91785154  0.41245634  0.91073421  1
  O2-  O429  1  0.91905205  0.91913033  0.22828683  1
  O2-  O430  1  0.94041314  0.91132797  0.57102384  1
  O2-  O431  1  0.94466048  0.91610355  0.89191678  1
  O2-  O432  1  0.01598705  0.01397672  0.00377392  1
  O2-  O433  1  -0.02379441  -0.00412540  0.39325863  1
  O2-  O434  1  0.00183755  0.00930120  0.66380932  1
  O2-  O435  1  0.00473606  0.51576810  -0.00508508  1
  O2-  O436  1  0.00193521  0.47985400  0.32516167  1
  O2-  O437  1  -0.00088024  0.51478391  0.66490435  1
  O2-  O438  1  0.34058380  0.00126750  -0.01924465  1
  O2-  O439  1  0.34491071  0.01502493  0.31804783  1
  O2-  O440  1  0.33108006  0.02100427  0.66950756  1
  O2-  O441  1  0.31169951  0.50318267  0.03525277  1
  O2-  O442  1  0.32610793  0.50649503  0.36006764  1
  O2-  O443  1  0.32426853  0.48311461  0.66745492  1
  O2-  O444  1  0.68344961  0.00434374  -0.02217954  1
  O2-  O445  1  0.64851055  -0.00272469  0.37991277  1
  O2-  O446  1  0.66972583  0.02243794  0.67405072  1
  O2-  O447  1  0.63170037  0.50288377  0.03027499  1
  O2-  O448  1  0.66617481  0.48603304  0.33157228  1
  O2-  O449  1  0.66816903  0.49060493  0.65425120  1
  O2-  O450  1  0.17356006  0.00974223  0.00718659  1
  O2-  O451  1  0.20031770  -0.00120070  0.37447971  1
  O2-  O452  1  0.16400175  0.00716492  0.66872765  1
  O2-  O453  1  0.15446469  0.49047149  -0.00586953  1
  O2-  O454  1  0.16519234  0.47883909  0.33564679  1
  O2-  O455  1  0.15693872  0.49086946  0.66173662  1
  O2-  O456  1  0.52134483  -0.00391116  0.01976891  1
  O2-  O457  1  0.50088140  0.00801357  0.34308539  1
  O2-  O458  1  0.50757515  0.00699370  0.68736012  1
  O2-  O459  1  0.47219983  0.50192502  -0.05078149  1
  O2-  O460  1  0.48986883  0.48317899  0.33625470  1
  O2-  O461  1  0.48660680  0.49562054  0.64038836  1
  O2-  O462  1  0.85925345  0.00594639  0.03287039  1
  O2-  O463  1  0.83071003  0.01264087  0.33574042  1
  O2-  O464  1  0.83409487  0.01190830  0.65802352  1
  O2-  O465  1  0.83985385  0.48598859  0.01936124  1
  O2-  O466  1  0.83475951  0.50118754  0.34402657  1
  O2-  O467  1  0.83224047  0.50252552  0.66976479  1
  O2-  O468  1  0.08446501  0.25209614  0.39450251  1
  O2-  O469  1  0.57294053  0.25103989  0.95000720  1
  O2-  O470  1  0.58490523  0.75235239  0.59020061  1
  O2-  O471  1  0.74017898  0.24970879  0.71920925  1
  O2-  O472  1  0.58388092  0.75384924  0.26312707  1
  O2-  O473  1  0.58403917  0.74954330  0.94536886  1
  O2-  O474  1  0.09504480  0.24805771  0.06180365  1
  O2-  O475  1  0.08412820  0.74518383  0.38924410  1
  O2-  O476  1  0.74532857  0.75032845  0.05466455  1
  O2-  O477  1  0.74147786  0.74875415  0.40604678  1
  O2-  O478  1  0.74433765  0.25232366  0.39213515  1
  O2-  O479  1  0.59447108  0.25369211  0.60464979  1
  O2-  O480  1  0.73811960  0.75108804  0.73378624  1
  O2-  O481  1  0.25064052  0.25062220  0.60082898  1
  O2-  O482  1  0.57882418  0.24909468  0.27647326  1
  O2-  O483  1  0.41367385  0.25252120  0.39062792  1
  O2-  O484  1  0.42420895  0.74944839  0.05832859  1
  O2-  O485  1  0.91518708  0.24869973  0.28463918  1
  O2-  O486  1  0.43043984  0.74845024  0.74044414  1
  O2-  O487  1  0.25035117  0.74986128  0.27158743  1
  O2-  O488  1  0.42483203  0.74954462  0.40471220  1
  O2-  O489  1  0.25313303  0.24855324  0.27541800  1
  O2-  O490  1  0.91980046  0.75112833  0.26991437  1
  O2-  O491  1  0.91110985  0.25597914  0.59559553  1
  O2-  O492  1  0.42910519  0.24587160  0.05916331  1
