# generated using pymatgen
data_Ca108Mn108O277
_symmetry_space_group_name_H-M   'P 1'
_cell_length_a   16.01458105
_cell_length_b   22.28925022
_cell_length_c   16.37896858
_cell_angle_alpha   90.00070941
_cell_angle_beta   90.00234191
_cell_angle_gamma   90.00206739
_symmetry_Int_Tables_number   1
_chemical_formula_structural   Ca108Mn108O277
_chemical_formula_sum   'Ca108 Mn108 O277'
_cell_volume   5846.52202942
_cell_formula_units_Z   1
loop_
 _symmetry_equiv_pos_site_id
 _symmetry_equiv_pos_as_xyz
  1  'x, y, z'
loop_
 _atom_type_symbol
 _atom_type_oxidation_number
  Ca2+  2.0
  Mn3.34+  3.34
  O2-  -2.0
loop_
 _atom_site_type_symbol
 _atom_site_label
 _atom_site_symmetry_multiplicity
 _atom_site_fract_x
 _atom_site_fract_y
 _atom_site_fract_z
 _atom_site_occupancy
  Ca2+  Ca0  1  0.07362102  0.25689809  0.24243156  1
  Ca2+  Ca1  1  0.08922062  0.25624196  0.58359292  1
  Ca2+  Ca2  1  0.08963927  0.22964786  0.92144601  1
  Ca2+  Ca3  1  0.08929215  0.74791400  0.23498727  1
  Ca2+  Ca4  1  0.09474369  0.73831491  0.59678855  1
  Ca2+  Ca5  1  0.08544632  0.74827227  0.90688558  1
  Ca2+  Ca6  1  0.42181672  0.25217424  0.22657711  1
  Ca2+  Ca7  1  0.41534188  0.26055632  0.59551352  1
  Ca2+  Ca8  1  0.41028630  0.24154642  0.92222490  1
  Ca2+  Ca9  1  0.41375840  0.74801426  0.24345668  1
  Ca2+  Ca10  1  0.39698470  0.74906534  0.58320576  1
  Ca2+  Ca11  1  0.42344749  0.75883740  0.91509522  1
  Ca2+  Ca12  1  0.75388539  0.25323211  0.24642800  1
  Ca2+  Ca13  1  0.74739897  0.26205774  0.57433086  1
  Ca2+  Ca14  1  0.75525857  0.24756061  0.92621892  1
  Ca2+  Ca15  1  0.74056133  0.74875280  0.26237582  1
  Ca2+  Ca16  1  0.75714223  0.74468087  0.59614712  1
  Ca2+  Ca17  1  0.74211087  0.74803575  0.88786972  1
  Ca2+  Ca18  1  0.25661620  0.23760803  0.06156929  1
  Ca2+  Ca19  1  0.23982988  0.26067953  0.41658980  1
  Ca2+  Ca20  1  0.25638302  0.24890081  0.77133822  1
  Ca2+  Ca21  1  0.23420046  0.73687449  0.09152180  1
  Ca2+  Ca22  1  0.24700605  0.75440338  0.42668368  1
  Ca2+  Ca23  1  0.22987179  0.74374114  0.73124580  1
  Ca2+  Ca24  1  0.56044970  0.23550130  0.07171926  1
  Ca2+  Ca25  1  0.58100949  0.26229559  0.41031294  1
  Ca2+  Ca26  1  0.56459630  0.25666199  0.76732313  1
  Ca2+  Ca27  1  0.56698161  0.75291251  0.07962834  1
  Ca2+  Ca28  1  0.58877608  0.75180600  0.41201038  1
  Ca2+  Ca29  1  0.59945151  0.75216343  0.75390139  1
  Ca2+  Ca30  1  0.92723858  0.23990475  0.07009052  1
  Ca2+  Ca31  1  0.92973047  0.25914055  0.40289285  1
  Ca2+  Ca32  1  0.93422601  0.25268568  0.77557275  1
  Ca2+  Ca33  1  0.94341889  0.75138601  0.08290918  1
  Ca2+  Ca34  1  0.90906367  0.74164775  0.42759005  1
  Ca2+  Ca35  1  0.91954791  0.74064612  0.73427175  1
  Ca2+  Ca36  1  0.73655930  0.08363933  0.22689386  1
  Ca2+  Ca37  1  0.24966055  0.08319426  0.42982100  1
  Ca2+  Ca38  1  0.43380046  0.59100243  0.94161150  1
  Ca2+  Ca39  1  0.20815521  0.59353502  0.73442155  1
  Ca2+  Ca40  1  0.26124142  0.09626262  0.76939871  1
  Ca2+  Ca41  1  0.39663409  0.59781057  0.57809793  1
  Ca2+  Ca42  1  0.07032693  0.59655420  0.59315601  1
  Ca2+  Ca43  1  0.23722568  0.08443408  0.42939087  1
  Ca2+  Ca44  1  0.91549514  0.59844575  0.43071108  1
  Ca2+  Ca45  1  0.10239327  0.09270763  0.58992528  1
  Ca2+  Ca46  1  0.42225716  0.59157219  0.94252976  1
  Ca2+  Ca47  1  0.40648120  0.60649299  0.22669543  1
  Ca2+  Ca48  1  0.06243142  0.09544179  0.24234670  1
  Ca2+  Ca49  1  0.93733730  0.58992736  0.09283373  1
  Ca2+  Ca50  1  0.74891768  0.08505778  0.22865067  1
  Ca2+  Ca51  1  0.57953747  0.07335289  0.38126975  1
  Ca2+  Ca52  1  0.06068171  0.59894668  0.59058692  1
  Ca2+  Ca53  1  0.62411227  0.60250524  0.75256988  1
  Ca2+  Ca54  1  0.94895480  0.59067990  0.09788036  1
  Ca2+  Ca55  1  0.92549716  0.59451611  0.72888833  1
  Ca2+  Ca56  1  0.76276638  0.58813772  0.29790935  1
  Ca2+  Ca57  1  0.40400148  0.09452081  0.92697404  1
  Ca2+  Ca58  1  0.25438075  0.60123105  0.42031876  1
  Ca2+  Ca59  1  0.44733240  0.09162597  0.22352148  1
  Ca2+  Ca60  1  0.55159814  0.07840533  0.76849265  1
  Ca2+  Ca61  1  0.56423157  0.60697453  0.08600566  1
  Ca2+  Ca62  1  0.73600251  0.08433284  0.94730716  1
  Ca2+  Ca63  1  0.78005122  0.61155190  0.56998017  1
  Ca2+  Ca64  1  0.92836827  0.11021428  0.77546902  1
  Ca2+  Ca65  1  0.09161621  0.60138627  0.24753372  1
  Ca2+  Ca66  1  0.91500497  0.59496393  0.72924201  1
  Ca2+  Ca67  1  0.76818201  0.58165084  0.29649613  1
  Ca2+  Ca68  1  0.77431538  0.60895802  0.56231988  1
  Ca2+  Ca69  1  0.39637994  0.07332823  0.61715389  1
  Ca2+  Ca70  1  0.24339174  0.60239993  0.42163662  1
  Ca2+  Ca71  1  0.60340358  0.60492713  0.41925848  1
  Ca2+  Ca72  1  0.57818686  0.40440588  0.41658650  1
  Ca2+  Ca73  1  0.40856101  0.40160940  0.25039988  1
  Ca2+  Ca74  1  0.73866096  0.89093661  0.58009136  1
  Ca2+  Ca75  1  0.92081316  0.41831862  0.74065822  1
  Ca2+  Ca76  1  0.93175798  0.41890705  0.74004223  1
  Ca2+  Ca77  1  0.24981906  0.40901631  0.41442624  1
  Ca2+  Ca78  1  0.74296074  0.39761948  0.91232729  1
  Ca2+  Ca79  1  0.58038024  0.39737450  0.07641155  1
  Ca2+  Ca80  1  0.91271753  0.91110405  0.08757023  1
  Ca2+  Ca81  1  0.92121632  0.42081529  0.40104117  1
  Ca2+  Ca82  1  0.09746844  0.90553708  0.57625041  1
  Ca2+  Ca83  1  0.75337460  0.41485451  0.57780645  1
  Ca2+  Ca84  1  0.41894395  0.91749042  0.90573016  1
  Ca2+  Ca85  1  0.72986469  0.91009927  0.24720403  1
  Ca2+  Ca86  1  0.40315217  0.91709778  0.59137004  1
  Ca2+  Ca87  1  0.27190668  0.91888459  0.74333747  1
  Ca2+  Ca88  1  0.90020719  0.90951981  0.08897402  1
  Ca2+  Ca89  1  0.76300882  0.41179617  0.26174046  1
  Ca2+  Ca90  1  0.25874833  0.91163978  0.06453700  1
  Ca2+  Ca91  1  0.73161810  0.91080090  0.92543842  1
  Ca2+  Ca92  1  0.09567228  0.90630943  0.91683261  1
  Ca2+  Ca93  1  0.77410206  0.41457693  0.25783899  1
  Ca2+  Ca94  1  0.24796553  0.91199788  0.06683009  1
  Ca2+  Ca95  1  0.08668281  0.41541989  0.58911155  1
  Ca2+  Ca96  1  0.42431427  0.39919072  0.91265700  1
  Ca2+  Ca97  1  0.07422813  0.90078249  0.25626553  1
  Ca2+  Ca98  1  0.76589249  0.41647080  0.57563830  1
  Ca2+  Ca99  1  0.07720823  0.40151846  0.91324459  1
  Ca2+  Ca100  1  0.59839734  0.92640294  0.06880007  1
  Ca2+  Ca101  1  0.91620104  0.89250760  0.74935111  1
  Ca2+  Ca102  1  0.44663144  0.91303435  0.25655783  1
  Ca2+  Ca103  1  0.10974686  0.90399014  0.57380569  1
  Ca2+  Ca104  1  0.56668078  0.90839153  0.75204176  1
  Ca2+  Ca105  1  0.24619678  0.39867081  0.08914274  1
  Ca2+  Ca106  1  0.43510156  0.90975029  0.25900158  1
  Ca2+  Ca107  1  0.08830148  0.40109189  0.91339778  1
  Mn3.34+  Mn108  1  0.08246554  0.33080674  0.08560466  1
  Mn3.34+  Mn109  1  0.08399133  0.33681469  0.41608950  1
  Mn3.34+  Mn110  1  0.08998331  0.33562129  0.74880087  1
  Mn3.34+  Mn111  1  0.08434727  0.83466375  0.08526971  1
  Mn3.34+  Mn112  1  0.07885650  0.83018781  0.41529510  1
  Mn3.34+  Mn113  1  0.08393733  0.82932319  0.75130282  1
  Mn3.34+  Mn114  1  0.41369667  0.33147291  0.08178074  1
  Mn3.34+  Mn115  1  0.41402279  0.33525579  0.42029750  1
  Mn3.34+  Mn116  1  0.41321366  0.33496181  0.75009471  1
  Mn3.34+  Mn117  1  0.41695533  0.83570430  0.08406196  1
  Mn3.34+  Mn118  1  0.41945509  0.83336643  0.42099495  1
  Mn3.34+  Mn119  1  0.41683050  0.83540550  0.74911297  1
  Mn3.34+  Mn120  1  0.75198267  0.32952432  0.08458014  1
  Mn3.34+  Mn121  1  0.75096402  0.33900732  0.41822554  1
  Mn3.34+  Mn122  1  0.74852088  0.33358730  0.75139998  1
  Mn3.34+  Mn123  1  0.74868464  0.83262436  0.08616029  1
  Mn3.34+  Mn124  1  0.75087885  0.82652913  0.42027538  1
  Mn3.34+  Mn125  1  0.74949145  0.82921727  0.74898913  1
  Mn3.34+  Mn126  1  0.24491754  0.33693268  0.24905439  1
  Mn3.34+  Mn127  1  0.25381931  0.34018986  0.58654541  1
  Mn3.34+  Mn128  1  0.25231512  0.32847786  0.91575159  1
  Mn3.34+  Mn129  1  0.25056202  0.83082573  0.25338567  1
  Mn3.34+  Mn130  1  0.25463345  0.83102102  0.58047437  1
  Mn3.34+  Mn131  1  0.25272786  0.83747408  0.90698506  1
  Mn3.34+  Mn132  1  0.58266898  0.33061647  0.24600645  1
  Mn3.34+  Mn133  1  0.57794171  0.33410064  0.58737749  1
  Mn3.34+  Mn134  1  0.58296022  0.32926244  0.91481788  1
  Mn3.34+  Mn135  1  0.58727281  0.83152502  0.24716308  1
  Mn3.34+  Mn136  1  0.57810811  0.82990307  0.57760153  1
  Mn3.34+  Mn137  1  0.58256131  0.83614280  0.91498818  1
  Mn3.34+  Mn138  1  0.92397593  0.33694494  0.24238647  1
  Mn3.34+  Mn139  1  0.92082147  0.33732401  0.57873367  1
  Mn3.34+  Mn140  1  0.91515477  0.32943867  0.91910183  1
  Mn3.34+  Mn141  1  0.91201607  0.82922709  0.25561282  1
  Mn3.34+  Mn142  1  0.91829548  0.82694862  0.57706473  1
  Mn3.34+  Mn143  1  0.91558169  0.83506900  0.91481031  1
  Mn3.34+  Mn144  1  0.74462444  0.17142470  0.75600216  1
  Mn3.34+  Mn145  1  0.08040354  0.16753894  0.41420997  1
  Mn3.34+  Mn146  1  0.08188167  0.16238006  0.07330442  1
  Mn3.34+  Mn147  1  0.59114456  0.15716056  0.58430192  1
  Mn3.34+  Mn148  1  0.08039865  0.67022220  0.41717029  1
  Mn3.34+  Mn149  1  0.42182959  0.16293558  0.41656779  1
  Mn3.34+  Mn150  1  0.25426663  0.16562420  0.23994705  1
  Mn3.34+  Mn151  1  0.57834748  0.16089439  0.92080045  1
  Mn3.34+  Mn152  1  0.58634582  0.66920819  0.91277526  1
  Mn3.34+  Mn153  1  0.74930072  0.16334694  0.08087616  1
  Mn3.34+  Mn154  1  0.40952542  0.65884931  0.75019119  1
  Mn3.34+  Mn155  1  0.75436871  0.67363926  0.08466568  1
  Mn3.34+  Mn156  1  0.91646223  0.16898711  0.24215570  1
  Mn3.34+  Mn157  1  0.41468384  0.16515791  0.75678834  1
  Mn3.34+  Mn158  1  0.58509152  0.16831484  0.24026990  1
  Mn3.34+  Mn159  1  0.25148093  0.16566856  0.58690891  1
  Mn3.34+  Mn160  1  0.42003073  0.66842434  0.41716539  1
  Mn3.34+  Mn161  1  0.41180874  0.16870964  0.41497166  1
  Mn3.34+  Mn162  1  0.91689576  0.67056629  0.25142302  1
  Mn3.34+  Mn163  1  0.75305159  0.17776115  0.75483443  1
  Mn3.34+  Mn164  1  0.75869714  0.16249838  0.41523843  1
  Mn3.34+  Mn165  1  0.42226329  0.66570940  0.74983491  1
  Mn3.34+  Mn166  1  0.57911307  0.67090823  0.24825842  1
  Mn3.34+  Mn167  1  0.58292111  0.67303524  0.57682127  1
  Mn3.34+  Mn168  1  0.09058835  0.17213770  0.75598479  1
  Mn3.34+  Mn169  1  0.24377649  0.17048737  0.24142014  1
  Mn3.34+  Mn170  1  0.57832243  0.16362911  0.58498053  1
  Mn3.34+  Mn171  1  0.74801360  0.16747971  0.41459075  1
  Mn3.34+  Mn172  1  0.91157883  0.16390298  0.58303128  1
  Mn3.34+  Mn173  1  0.23829183  0.66439927  0.91910475  1
  Mn3.34+  Mn174  1  0.92425697  0.17056871  0.58362823  1
  Mn3.34+  Mn175  1  0.24875579  0.66894590  0.91979193  1
  Mn3.34+  Mn176  1  0.91297313  0.66657268  0.91074227  1
  Mn3.34+  Mn177  1  0.25051185  0.66873375  0.24254862  1
  Mn3.34+  Mn178  1  0.74542411  0.67960933  0.08319943  1
  Mn3.34+  Mn179  1  0.92530422  0.66139553  0.91322385  1
  Mn3.34+  Mn180  1  0.91937815  0.00141204  0.57112513  1
  Mn3.34+  Mn181  1  0.74421685  -0.00676485  0.41761763  1
  Mn3.34+  Mn182  1  0.41906793  0.00121180  0.06486196  1
  Mn3.34+  Mn183  1  0.91805213  0.00243088  0.25319710  1
  Mn3.34+  Mn184  1  0.75577435  0.49957279  0.08356459  1
  Mn3.34+  Mn185  1  0.08051443  -0.00045218  0.75528999  1
  Mn3.34+  Mn186  1  0.92370851  0.00818082  0.91724993  1
  Mn3.34+  Mn187  1  0.56888901  0.50328662  0.58344338  1
  Mn3.34+  Mn188  1  0.41359341  0.49881097  0.41809806  1
  Mn3.34+  Mn189  1  0.09154308  0.00393390  0.75439167  1
  Mn3.34+  Mn190  1  0.41849990  0.49836607  0.08221871  1
  Mn3.34+  Mn191  1  0.57998699  0.49961474  0.58587898  1
  Mn3.34+  Mn192  1  0.07726631  0.50043928  0.40226320  1
  Mn3.34+  Mn193  1  0.74384214  0.00358699  0.75291651  1
  Mn3.34+  Mn194  1  0.58651788  0.49778149  0.91210686  1
  Mn3.34+  Mn195  1  0.75411775  0.50169205  0.74902662  1
  Mn3.34+  Mn196  1  0.24038820  -0.00326289  0.25076296  1
  Mn3.34+  Mn197  1  0.42518840  -0.00145575  0.41386235  1
  Mn3.34+  Mn198  1  0.74168168  0.50566978  0.08531336  1
  Mn3.34+  Mn199  1  0.25348267  0.49579858  0.90953771  1
  Mn3.34+  Mn200  1  0.75831778  -0.00191905  0.75463577  1
  Mn3.34+  Mn201  1  0.91062177  0.00178357  0.92230241  1
  Mn3.34+  Mn202  1  0.06715803  0.00156162  0.41051900  1
  Mn3.34+  Mn203  1  0.57788137  -0.00352094  0.58642241  1
  Mn3.34+  Mn204  1  0.91953515  0.49935263  0.92198105  1
  Mn3.34+  Mn205  1  0.08671533  0.49352365  0.08383958  1
  Mn3.34+  Mn206  1  0.57171443  0.49868992  0.24602165  1
  Mn3.34+  Mn207  1  0.90559972  -0.00462901  0.57174657  1
  Mn3.34+  Mn208  1  0.25016995  0.49782256  0.59918774  1
  Mn3.34+  Mn209  1  0.58245498  0.50347916  0.24646389  1
  Mn3.34+  Mn210  1  0.24969197  0.50218971  0.25347095  1
  Mn3.34+  Mn211  1  0.25488737  0.00250358  0.24908578  1
  Mn3.34+  Mn212  1  0.41085122  0.49699549  0.74721904  1
  Mn3.34+  Mn213  1  0.75512132  -0.00168403  0.41839045  1
  Mn3.34+  Mn214  1  0.24335615  0.50122980  0.90947627  1
  Mn3.34+  Mn215  1  0.09032975  0.00439407  0.07575148  1
  O2-  O216  1  0.00316892  0.16613810  0.00368901  1
  O2-  O217  1  0.00059746  0.16178239  0.32744237  1
  O2-  O218  1  0.00177843  0.15589446  0.66788909  1
  O2-  O219  1  -0.00836837  0.65636398  0.00245175  1
  O2-  O220  1  0.00194503  0.67647077  0.33136222  1
  O2-  O221  1  -0.00884772  0.66777844  0.66260340  1
  O2-  O222  1  0.33327061  0.16691471  -0.00745455  1
  O2-  O223  1  0.32665955  0.14775102  0.33334204  1
  O2-  O224  1  0.33386884  0.16641399  0.66800066  1
  O2-  O225  1  0.33505718  0.66336453  -0.00627589  1
  O2-  O226  1  0.33427358  0.66288470  0.33399429  1
  O2-  O227  1  0.33056225  0.65738052  0.67014426  1
  O2-  O228  1  0.66595593  0.17230351  0.00191825  1
  O2-  O229  1  0.66717367  0.15448453  0.33022324  1
  O2-  O230  1  0.66951956  0.16863484  0.66930985  1
  O2-  O231  1  0.66255603  0.66714329  0.00289789  1
  O2-  O232  1  0.66903744  0.65925487  0.32393084  1
  O2-  O233  1  0.66528786  0.66648523  0.65370317  1
  O2-  O234  1  0.16668625  0.16614706  0.00854343  1
  O2-  O235  1  0.17274390  0.15303058  0.33337377  1
  O2-  O236  1  0.16438264  0.16896657  0.66045941  1
  O2-  O237  1  0.16236152  0.66957318  -0.00021174  1
  O2-  O238  1  0.16875539  0.66154923  0.33633311  1
  O2-  O239  1  0.15766612  0.65670429  0.65287596  1
  O2-  O240  1  0.49419735  0.16176870  -0.01031166  1
  O2-  O241  1  0.50239880  0.15274747  0.33039874  1
  O2-  O242  1  0.50096433  0.15227139  0.67039044  1
  O2-  O243  1  0.49933086  0.66719152  -0.00501582  1
  O2-  O244  1  0.50115817  0.66517651  0.33342654  1
  O2-  O245  1  0.49954840  0.66135548  0.66275375  1
  O2-  O246  1  0.82208871  0.17832485  0.00637832  1
  O2-  O247  1  0.82715674  0.15772097  0.32189262  1
  O2-  O248  1  0.83589029  0.16871169  0.67379375  1
  O2-  O249  1  0.83443981  0.66253190  -0.00022980  1
  O2-  O250  1  0.83440086  0.67114048  0.33023296  1
  O2-  O251  1  0.83730657  0.66267837  0.66345670  1
  O2-  O252  1  0.00400108  0.34273998  -0.00590927  1
  O2-  O253  1  -0.00403049  0.33975195  0.33816112  1
  O2-  O254  1  -0.00094719  0.34785927  0.66701051  1
  O2-  O255  1  -0.00300532  0.85040080  0.00533004  1
  O2-  O256  1  0.00181334  0.81554602  0.32821303  1
  O2-  O257  1  0.00352219  0.83896815  0.66198267  1
  O2-  O258  1  0.33126706  0.34610603  0.00070080  1
  O2-  O259  1  0.33132146  0.34349772  0.33680438  1
  O2-  O260  1  0.32819300  0.32039119  0.66905388  1
  O2-  O261  1  0.33415533  0.84187221  0.00002559  1
  O2-  O262  1  0.34364051  0.83417896  0.32673902  1
  O2-  O263  1  0.33503691  0.84313531  0.66524686  1
  O2-  O264  1  0.66640201  0.33157070  0.00178125  1
  O2-  O265  1  0.67031451  0.34961967  0.33079316  1
  O2-  O266  1  0.67779450  0.33617312  0.65726142  1
  O2-  O267  1  0.66619002  0.83500124  0.00162674  1
  O2-  O268  1  0.67225944  0.83129342  0.33149277  1
  O2-  O269  1  0.66352144  0.83109662  0.66562992  1
  O2-  O270  1  0.16539096  0.34009046  -0.00335562  1
  O2-  O271  1  0.17036414  0.34077937  0.33985725  1
  O2-  O272  1  0.16167762  0.33420956  0.65897519  1
  O2-  O273  1  0.16798833  0.84574959  0.00044312  1
  O2-  O274  1  0.16041863  0.82976692  0.33000149  1
  O2-  O275  1  0.16703337  0.84215832  0.66674199  1
  O2-  O276  1  0.49914544  0.34049365  -0.00043786  1
  O2-  O277  1  0.50188114  0.34374273  0.33234002  1
  O2-  O278  1  0.49910116  0.33022128  0.66962889  1
  O2-  O279  1  0.49802322  0.83320048  0.00119883  1
  O2-  O280  1  0.49847135  0.83429568  0.32908430  1
  O2-  O281  1  0.49982070  0.83243541  0.66571031  1
  O2-  O282  1  0.82641430  0.33094334  -0.00628918  1
  O2-  O283  1  0.83278796  0.34283308  0.33555580  1
  O2-  O284  1  0.83421076  0.34097569  0.66565813  1
  O2-  O285  1  0.83515109  0.84103342  0.00470852  1
  O2-  O286  1  0.83057666  0.81090810  0.33438889  1
  O2-  O287  1  0.83633233  0.83128794  0.66497944  1
  O2-  O288  1  -0.00067471  0.17631298  0.16857261  1
  O2-  O289  1  0.00486407  0.17364918  0.50216867  1
  O2-  O290  1  0.00740755  0.17708155  0.82824077  1
  O2-  O291  1  -0.00666391  0.67429765  0.16774031  1
  O2-  O292  1  0.00578000  0.67719424  0.49860504  1
  O2-  O293  1  0.00116158  0.67206832  0.83185125  1
  O2-  O294  1  0.34017153  0.17483531  0.17051429  1
  O2-  O295  1  0.33048728  0.17986352  0.50016652  1
  O2-  O296  1  0.33806725  0.17146157  0.83381871  1
  O2-  O297  1  0.33231958  0.68145845  0.16999004  1
  O2-  O298  1  0.33323264  0.67683438  0.48925323  1
  O2-  O299  1  0.33597918  0.67359464  0.84183268  1
  O2-  O300  1  0.67312223  0.18120018  0.16856840  1
  O2-  O301  1  0.66641698  0.17614410  0.49789783  1
  O2-  O302  1  0.66554560  0.18080539  0.83741141  1
  O2-  O303  1  0.66255814  0.68004183  0.16493864  1
  O2-  O304  1  0.66364577  0.68088379  0.49886419  1
  O2-  O305  1  0.66017384  0.67625708  0.83141976  1
  O2-  O306  1  0.15463679  0.17584953  0.17301032  1
  O2-  O307  1  0.17334679  0.17741721  0.49817160  1
  O2-  O308  1  0.17334390  0.17440772  0.82392844  1
  O2-  O309  1  0.16364617  0.67346780  0.17631065  1
  O2-  O310  1  0.16767196  0.67432638  0.48810206  1
  O2-  O311  1  0.17172906  0.67242010  0.82988321  1
  O2-  O312  1  0.50219869  0.17659484  0.17110213  1
  O2-  O313  1  0.50274442  0.17460956  0.49927068  1
  O2-  O314  1  0.50485720  0.16875529  0.82876719  1
  O2-  O315  1  0.50000879  0.68073385  0.16817369  1
  O2-  O316  1  0.49729855  0.68786127  0.49922593  1
  O2-  O317  1  0.49477965  0.67327063  0.83509354  1
  O2-  O318  1  0.82411351  0.17876419  0.16842692  1
  O2-  O319  1  0.83132334  0.18072232  0.50255343  1
  O2-  O320  1  0.83520629  0.18463111  0.83168187  1
  O2-  O321  1  0.83439300  0.69273300  0.16625478  1
  O2-  O322  1  0.83146078  0.68268510  0.50085712  1
  O2-  O323  1  0.83877487  0.67844864  0.83478478  1
  O2-  O324  1  -0.00173141  0.32113965  0.16168025  1
  O2-  O325  1  0.00228163  0.32879512  0.50107377  1
  O2-  O326  1  0.00034628  0.33324133  0.83183883  1
  O2-  O327  1  -0.00256525  0.82844781  0.16750064  1
  O2-  O328  1  0.00530817  0.81006492  0.50372328  1
  O2-  O329  1  0.00020899  0.82640716  0.83405290  1
  O2-  O330  1  0.33575911  0.32828282  0.17018339  1
  O2-  O331  1  0.33082107  0.31816896  0.50047448  1
  O2-  O332  1  0.33750384  0.32422573  0.83920439  1
  O2-  O333  1  0.33278926  0.82792755  0.16328016  1
  O2-  O334  1  0.33531189  0.81908417  0.49878943  1
  O2-  O335  1  0.33875808  0.82889624  0.83439716  1
  O2-  O336  1  0.66804833  0.32170852  0.16781853  1
  O2-  O337  1  0.66842728  0.32954657  0.49787984  1
  O2-  O338  1  0.67113578  0.31633576  0.83546289  1
  O2-  O339  1  0.66757660  0.81840694  0.16513943  1
  O2-  O340  1  0.66850329  0.81007888  0.50464845  1
  O2-  O341  1  0.66534470  0.82929602  0.83172163  1
  O2-  O342  1  0.17029876  0.32232103  0.16267064  1
  O2-  O343  1  0.16754168  0.32298165  0.50173490  1
  O2-  O344  1  0.15975221  0.32576964  0.83997419  1
  O2-  O345  1  0.17122432  0.83311423  0.16185020  1
  O2-  O346  1  0.16206970  0.82165691  0.50287489  1
  O2-  O347  1  0.16433243  0.82651039  0.83500895  1
  O2-  O348  1  0.50119325  0.32535307  0.16364202  1
  O2-  O349  1  0.50469880  0.32608310  0.49470941  1
  O2-  O350  1  0.49629020  0.32784037  0.83914195  1
  O2-  O351  1  0.49453484  0.82115121  0.16847618  1
  O2-  O352  1  0.49782737  0.80714982  0.49955017  1
  O2-  O353  1  0.50032528  0.82746050  0.83186415  1
  O2-  O354  1  0.82667503  0.32393726  0.17381012  1
  O2-  O355  1  0.83079663  0.32774962  0.50260548  1
  O2-  O356  1  0.83595344  0.32188139  0.82876157  1
  O2-  O357  1  0.83686184  0.81496788  0.16440499  1
  O2-  O358  1  0.82967304  0.80989761  0.50538502  1
  O2-  O359  1  0.83168303  0.82844959  0.83410973  1
  O2-  O360  1  0.08214912  0.08067499  0.10741660  1
  O2-  O361  1  0.09900182  0.08147232  0.44896156  1
  O2-  O362  1  0.08463937  0.08626006  0.76079077  1
  O2-  O363  1  0.07210773  0.56896799  0.12534941  1
  O2-  O364  1  0.08836055  0.57716342  0.44868426  1
  O2-  O365  1  0.06131108  0.57668248  0.74100201  1
  O2-  O366  1  0.41287634  0.07207377  0.09778576  1
  O2-  O367  1  0.40364884  0.07819493  0.45173206  1
  O2-  O368  1  0.41151104  0.08167384  0.76714049  1
  O2-  O369  1  0.42894479  0.57898054  0.09456973  1
  O2-  O370  1  0.40909581  0.57912749  0.44459774  1
  O2-  O371  1  0.41847788  0.57682211  0.79288471  1
  O2-  O372  1  0.74777097  0.08197887  0.09324654  1
  O2-  O373  1  0.74300918  0.07914469  0.44822608  1
  O2-  O374  1  0.75300280  0.08445089  0.77822092  1
  O2-  O375  1  0.75710277  0.58616803  0.11171528  1
  O2-  O376  1  0.75539522  0.57677092  0.43697402  1
  O2-  O377  1  0.76597825  0.57940494  0.75986770  1
  O2-  O378  1  0.24510021  0.08172601  0.22064122  1
  O2-  O379  1  0.25077943  0.07797176  0.56077031  1
  O2-  O380  1  0.26598068  0.07671726  0.89982901  1
  O2-  O381  1  0.25329233  0.58379518  0.23686774  1
  O2-  O382  1  0.25603541  0.56874282  0.54585129  1
  O2-  O383  1  0.26017802  0.58205470  0.88504988  1
  O2-  O384  1  0.59772913  0.08546794  0.23085762  1
  O2-  O385  1  0.57785684  0.07623235  0.54797230  1
  O2-  O386  1  0.59359829  0.08167292  0.89822664  1
  O2-  O387  1  0.57704464  0.58552687  0.22419742  1
  O2-  O388  1  0.57336011  0.58371141  0.54976702  1
  O2-  O389  1  0.56977136  0.58169492  0.89264281  1
  O2-  O390  1  0.89834322  0.08236074  0.22500381  1
  O2-  O391  1  0.91806292  0.08202923  0.56155881  1
  O2-  O392  1  0.89752708  0.08499585  0.90132953  1
  O2-  O393  1  0.89431240  0.58422931  0.22122206  1
  O2-  O394  1  0.91822740  0.57664377  0.56302875  1
  O2-  O395  1  0.91738320  0.57927059  0.88352388  1
  O2-  O396  1  0.09744309  0.41405761  0.08748630  1
  O2-  O397  1  0.08247192  0.42264726  0.44216861  1
  O2-  O398  1  0.07168773  0.41981264  0.77556029  1
  O2-  O399  1  0.07806044  0.92539633  0.11657530  1
  O2-  O400  1  0.07455999  0.91884948  0.44373978  1
  O2-  O401  1  0.07870524  0.91729352  0.77213783  1
  O2-  O402  1  0.42084578  0.41825504  0.10690556  1
  O2-  O403  1  0.41691739  0.41854022  0.43463950  1
  O2-  O404  1  0.41252627  0.41802966  0.77378754  1
  O2-  O405  1  0.40738416  0.93090006  0.12436071  1
  O2-  O406  1  0.42315561  0.91927473  0.43758377  1
  O2-  O407  1  0.42090818  0.91759893  0.76581234  1
  O2-  O408  1  0.74227180  0.41954476  0.11176020  1
  O2-  O409  1  0.75336216  0.42251153  0.44164021  1
  O2-  O410  1  0.76608913  0.42181664  0.77893613  1
  O2-  O411  1  0.76465228  0.92023453  0.11516524  1
  O2-  O412  1  0.75330285  0.91282427  0.44464889  1
  O2-  O413  1  0.75092442  0.91587145  0.76370273  1
  O2-  O414  1  0.25744336  0.42160414  0.22665272  1
  O2-  O415  1  0.23809721  0.42585117  0.55276892  1
  O2-  O416  1  0.23661239  0.41421631  0.89911370  1
  O2-  O417  1  0.25142568  0.91542783  0.23251643  1
  O2-  O418  1  0.24305223  0.91499916  0.56813173  1
  O2-  O419  1  0.25285130  0.91801416  0.89711181  1
  O2-  O420  1  0.58220300  0.41674012  0.22492641  1
  O2-  O421  1  0.60034192  0.41924641  0.55918171  1
  O2-  O422  1  0.59377554  0.41508575  0.90756119  1
  O2-  O423  1  0.57937165  0.91502556  0.21953849  1
  O2-  O424  1  0.58699454  0.91717508  0.56682319  1
  O2-  O425  1  0.58307937  0.91685779  0.90024379  1
  O2-  O426  1  0.90843074  0.41644866  0.24032098  1
  O2-  O427  1  0.90615891  0.41936006  0.56809519  1
  O2-  O428  1  0.92099839  0.41912021  0.88678004  1
  O2-  O429  1  0.91539377  0.92073112  0.22402602  1
  O2-  O430  1  0.91687821  0.91440466  0.56493417  1
  O2-  O431  1  0.91978274  0.92307870  0.88923884  1
  O2-  O432  1  -0.00575853  -0.01035772  0.00961765  1
  O2-  O433  1  0.02187889  0.00137931  0.29798462  1
  O2-  O434  1  -0.00151674  0.00038895  0.66285961  1
  O2-  O435  1  -0.00199561  0.50513249  0.00987420  1
  O2-  O436  1  -0.02127388  0.51102915  0.35946548  1
  O2-  O437  1  -0.01572047  0.50370274  0.68885355  1
  O2-  O438  1  0.33611141  -0.01435613  0.00063368  1
  O2-  O439  1  0.32834452  0.00659513  0.34112728  1
  O2-  O440  1  0.33198113  -0.00471470  0.66957481  1
  O2-  O441  1  0.33960549  0.50582531  -0.01004122  1
  O2-  O442  1  0.33233844  0.50184407  0.33727672  1
  O2-  O443  1  0.32867494  0.52096600  0.67022809  1
  O2-  O444  1  0.67235144  -0.00777395  -0.01352136  1
  O2-  O445  1  0.67083825  0.00684128  0.32652567  1
  O2-  O446  1  0.65950561  -0.00106123  0.67388569  1
  O2-  O447  1  0.66386358  0.50088833  0.00114625  1
  O2-  O448  1  0.66823998  0.50421229  0.32380979  1
  O2-  O449  1  0.67308638  0.50040350  0.65890855  1
  O2-  O450  1  0.17054604  -0.01892143  0.00828274  1
  O2-  O451  1  0.17409476  0.00967833  0.34522580  1
  O2-  O452  1  0.15803412  -0.00476324  0.66167707  1
  O2-  O453  1  0.16637775  0.49821646  -0.00326663  1
  O2-  O454  1  0.17486825  0.50821749  0.34661330  1
  O2-  O455  1  0.15083088  0.50912323  0.64061871  1
  O2-  O456  1  0.49867716  -0.01128983  0.00024479  1
  O2-  O457  1  0.48789988  0.00224020  0.31646963  1
  O2-  O458  1  0.49519264  -0.00025549  0.65711439  1
  O2-  O459  1  0.49568208  0.50377484  -0.01127378  1
  O2-  O460  1  0.50188323  0.50012463  0.33908228  1
  O2-  O461  1  0.49756230  0.51342090  0.67235263  1
  O2-  O462  1  0.82761304  -0.01035054  -0.00754898  1
  O2-  O463  1  0.82408700  0.00059484  0.31983723  1
  O2-  O464  1  0.83514019  0.00248147  0.66675783  1
  O2-  O465  1  0.83474153  0.50580185  0.00199854  1
  O2-  O466  1  0.81573289  0.49570980  0.30286915  1
  O2-  O467  1  0.83283834  0.49002420  0.67082579  1
  O2-  O468  1  0.91765696  0.25336668  0.59425810  1
  O2-  O469  1  0.08302405  0.25004145  0.07229019  1
  O2-  O470  1  0.08479060  0.75203388  0.74173553  1
  O2-  O471  1  0.25184862  0.25074380  0.92490864  1
  O2-  O472  1  0.08432399  0.75594325  0.07352674  1
  O2-  O473  1  0.74820968  0.25333482  0.40323005  1
  O2-  O474  1  0.42251266  0.24919290  0.74317734  1
  O2-  O475  1  0.40848093  0.74949879  0.74212048  1
  O2-  O476  1  0.91476977  0.25067730  0.26599730  1
  O2-  O477  1  0.58655114  0.75041739  0.26626484  1
  O2-  O478  1  0.58702163  0.24739762  0.58892058  1
  O2-  O479  1  0.42424817  0.25179710  0.39628746  1
  O2-  O480  1  0.24759645  0.75083788  0.26109178  1
  O2-  O481  1  0.08190447  0.25152240  0.40206777  1
  O2-  O482  1  0.92257655  0.74959062  0.93494208  1
  O2-  O483  1  0.57272169  0.24893909  0.92589728  1
  O2-  O484  1  0.92597921  0.25244987  0.92483021  1
  O2-  O485  1  0.41207060  0.25284374  0.07129627  1
  O2-  O486  1  0.25020478  0.75249208  0.59737116  1
  O2-  O487  1  0.25108584  0.75320926  0.92766348  1
  O2-  O488  1  0.58480436  0.25059880  0.27251115  1
  O2-  O489  1  0.74985267  0.75164698  0.74532747  1
  O2-  O490  1  0.58076151  0.75146818  0.92160739  1
  O2-  O491  1  0.25302414  0.25145459  0.27107769  1
  O2-  O492  1  0.07736443  0.25331943  0.73267946  1
