# generated using pymatgen
data_Ca108Mn108O277
_symmetry_space_group_name_H-M   'P 1'
_cell_length_a   16.03743298
_cell_length_b   22.31916499
_cell_length_c   16.39740451
_cell_angle_alpha   89.98941039
_cell_angle_beta   90.00074341
_cell_angle_gamma   89.99257767
_symmetry_Int_Tables_number   1
_chemical_formula_structural   Ca108Mn108O277
_chemical_formula_sum   'Ca108 Mn108 O277'
_cell_volume   5869.32146350
_cell_formula_units_Z   1
loop_
 _symmetry_equiv_pos_site_id
 _symmetry_equiv_pos_as_xyz
  1  'x, y, z'
loop_
 _atom_type_symbol
 _atom_type_oxidation_number
  Ca2+  2.0
  Mn3.34+  3.34
  O2-  -2.0
loop_
 _atom_site_type_symbol
 _atom_site_label
 _atom_site_symmetry_multiplicity
 _atom_site_fract_x
 _atom_site_fract_y
 _atom_site_fract_z
 _atom_site_occupancy
  Ca2+  Ca0  1  0.07514434  0.22080162  0.27314963  1
  Ca2+  Ca1  1  0.05654201  0.25093474  0.56234583  1
  Ca2+  Ca2  1  0.08718972  0.24370823  0.91469086  1
  Ca2+  Ca3  1  0.06365425  0.74909165  0.26161977  1
  Ca2+  Ca4  1  0.07230812  0.74980849  0.55643536  1
  Ca2+  Ca5  1  0.06995897  0.76352008  0.92141574  1
  Ca2+  Ca6  1  0.41358585  0.25869221  0.23974177  1
  Ca2+  Ca7  1  0.43162946  0.24874926  0.60655781  1
  Ca2+  Ca8  1  0.40686495  0.25316855  0.89922207  1
  Ca2+  Ca9  1  0.41869403  0.76251687  0.26543840  1
  Ca2+  Ca10  1  0.41424876  0.75359840  0.57802031  1
  Ca2+  Ca11  1  0.41622971  0.77436196  0.91000596  1
  Ca2+  Ca12  1  0.76437737  0.24125279  0.27273398  1
  Ca2+  Ca13  1  0.75896523  0.25374047  0.56812104  1
  Ca2+  Ca14  1  0.76577557  0.24546131  0.91500240  1
  Ca2+  Ca15  1  0.77683673  0.74315727  0.25855650  1
  Ca2+  Ca16  1  0.76306300  0.75861433  0.57523266  1
  Ca2+  Ca17  1  0.76065020  0.76103902  0.91272582  1
  Ca2+  Ca18  1  0.25553823  0.22676916  0.06445890  1
  Ca2+  Ca19  1  0.21578348  0.24217118  0.41419165  1
  Ca2+  Ca20  1  0.27390955  0.23954291  0.76505217  1
  Ca2+  Ca21  1  0.23299530  0.75921359  0.08221109  1
  Ca2+  Ca22  1  0.23655671  0.73940171  0.41823801  1
  Ca2+  Ca23  1  0.25289274  0.75944467  0.74806622  1
  Ca2+  Ca24  1  0.57528555  0.25303000  0.07847761  1
  Ca2+  Ca25  1  0.60792738  0.25553096  0.42549895  1
  Ca2+  Ca26  1  0.57195452  0.25271655  0.74566130  1
  Ca2+  Ca27  1  0.59156729  0.75686936  0.08410983  1
  Ca2+  Ca28  1  0.57963547  0.75614210  0.42244588  1
  Ca2+  Ca29  1  0.58150631  0.75399665  0.74175764  1
  Ca2+  Ca30  1  0.92007131  0.23529682  0.07523969  1
  Ca2+  Ca31  1  0.91449578  0.24633868  0.42542517  1
  Ca2+  Ca32  1  0.91326129  0.23662992  0.73884743  1
  Ca2+  Ca33  1  0.92694418  0.75465473  0.09050946  1
  Ca2+  Ca34  1  0.92397290  0.73877912  0.40662048  1
  Ca2+  Ca35  1  0.91328074  0.75514613  0.75196581  1
  Ca2+  Ca36  1  0.40774152  0.58673903  0.28038869  1
  Ca2+  Ca37  1  0.06620457  0.11213463  0.57357706  1
  Ca2+  Ca38  1  0.24924455  0.08925073  0.42923921  1
  Ca2+  Ca39  1  0.07787140  0.09694429  0.92531421  1
  Ca2+  Ca40  1  0.91247787  0.60044294  0.41373268  1
  Ca2+  Ca41  1  0.40064008  0.11068987  0.90267566  1
  Ca2+  Ca42  1  0.93040665  0.07870865  0.07586050  1
  Ca2+  Ca43  1  0.41456398  0.08502921  0.26818548  1
  Ca2+  Ca44  1  0.23777635  0.59318680  0.09294574  1
  Ca2+  Ca45  1  0.55161746  0.57397276  0.74064202  1
  Ca2+  Ca46  1  0.05531691  0.60680438  0.26913400  1
  Ca2+  Ca47  1  0.59876521  0.08713876  0.06233818  1
  Ca2+  Ca48  1  0.77148074  0.11908762  0.57498998  1
  Ca2+  Ca49  1  0.25930783  0.10246666  0.75099929  1
  Ca2+  Ca50  1  0.55962107  0.57025609  0.73625467  1
  Ca2+  Ca51  1  0.05911523  0.11698616  0.56992745  1
  Ca2+  Ca52  1  0.41104855  0.11134017  0.90184500  1
  Ca2+  Ca53  1  0.27356041  0.58514998  0.73735064  1
  Ca2+  Ca54  1  0.76160378  0.57521449  0.93724164  1
  Ca2+  Ca55  1  0.78062073  0.59299395  0.25629581  1
  Ca2+  Ca56  1  0.63383900  0.07751983  0.42147717  1
  Ca2+  Ca57  1  0.90215594  0.10891790  0.42077231  1
  Ca2+  Ca58  1  0.40745862  0.08950512  0.60637722  1
  Ca2+  Ca59  1  0.91635944  0.60671216  0.09800876  1
  Ca2+  Ca60  1  0.06555793  0.60616565  0.27159786  1
  Ca2+  Ca61  1  0.75184270  0.57122126  0.93893966  1
  Ca2+  Ca62  1  0.44487578  0.56474854  0.92547498  1
  Ca2+  Ca63  1  0.82604280  0.10177217  0.90697605  1
  Ca2+  Ca64  1  0.78231265  0.07258480  0.26478929  1
  Ca2+  Ca65  1  0.24074978  0.09230763  0.42481037  1
  Ca2+  Ca66  1  0.42894669  0.59768135  0.56918724  1
  Ca2+  Ca67  1  0.07674257  0.60206101  0.54091054  1
  Ca2+  Ca68  1  0.56764377  0.10402912  0.75207518  1
  Ca2+  Ca69  1  0.28498167  0.58175504  0.74019381  1
  Ca2+  Ca70  1  0.06755191  0.09688599  0.92423859  1
  Ca2+  Ca71  1  0.64249935  0.07774435  0.42733035  1
  Ca2+  Ca72  1  0.06594742  0.40123887  0.58642953  1
  Ca2+  Ca73  1  0.90187050  0.91511845  0.40383923  1
  Ca2+  Ca74  1  0.58373415  0.89967333  0.74555366  1
  Ca2+  Ca75  1  0.90788455  0.40387282  0.07791419  1
  Ca2+  Ca76  1  0.24371347  0.39374799  0.08266404  1
  Ca2+  Ca77  1  0.25972922  0.39871052  0.74531531  1
  Ca2+  Ca78  1  0.23791940  0.91028744  0.06936219  1
  Ca2+  Ca79  1  0.05816055  0.92057824  0.23878647  1
  Ca2+  Ca80  1  0.44322201  0.41175904  0.91159580  1
  Ca2+  Ca81  1  0.10555382  0.91697567  0.58284218  1
  Ca2+  Ca82  1  0.26579594  0.90948124  0.41827063  1
  Ca2+  Ca83  1  0.26238780  0.91671528  0.74541337  1
  Ca2+  Ca84  1  0.57878737  0.90649839  0.07870639  1
  Ca2+  Ca85  1  0.09583700  0.91353155  0.58521514  1
  Ca2+  Ca86  1  0.73952096  0.41100071  0.26423565  1
  Ca2+  Ca87  1  0.43134464  0.40285150  0.24931928  1
  Ca2+  Ca88  1  0.59139599  0.90646891  0.07831852  1
  Ca2+  Ca89  1  0.25172492  0.91597056  0.74630314  1
  Ca2+  Ca90  1  0.74570398  0.40708126  0.91321948  1
  Ca2+  Ca91  1  0.07623928  0.39222610  0.90894412  1
  Ca2+  Ca92  1  0.74345644  0.92654820  0.26820067  1
  Ca2+  Ca93  1  0.75409685  0.92538024  0.26600708  1
  Ca2+  Ca94  1  0.25984517  0.39877467  0.42325679  1
  Ca2+  Ca95  1  0.89250069  0.91755659  0.40709913  1
  Ca2+  Ca96  1  0.08317795  0.39863980  0.24654075  1
  Ca2+  Ca97  1  0.91412131  0.90425414  0.76507208  1
  Ca2+  Ca98  1  0.42499336  0.91100650  0.57398734  1
  Ca2+  Ca99  1  0.90519729  0.39803363  0.74335575  1
  Ca2+  Ca100  1  0.27051897  0.39799614  0.74968256  1
  Ca2+  Ca101  1  0.07109197  0.39997642  0.24514328  1
  Ca2+  Ca102  1  0.04876353  0.91846265  0.23384589  1
  Ca2+  Ca103  1  0.04909580  0.93155922  0.94668353  1
  Ca2+  Ca104  1  0.59306240  0.41976813  0.06776050  1
  Ca2+  Ca105  1  0.91907859  0.40411319  0.07649292  1
  Ca2+  Ca106  1  0.24686505  0.39842068  0.42326628  1
  Ca2+  Ca107  1  0.58028185  0.41958476  0.06758377  1
  Mn3.34+  Mn108  1  0.08300280  0.32330834  0.08362972  1
  Mn3.34+  Mn109  1  0.07405879  0.33463756  0.41999510  1
  Mn3.34+  Mn110  1  0.08279315  0.32479819  0.74742524  1
  Mn3.34+  Mn111  1  0.08112261  0.83756659  0.08307169  1
  Mn3.34+  Mn112  1  0.08550654  0.84097789  0.41417223  1
  Mn3.34+  Mn113  1  0.07916184  0.83822634  0.75382260  1
  Mn3.34+  Mn114  1  0.41656067  0.33349239  0.07896594  1
  Mn3.34+  Mn115  1  0.42743878  0.33847688  0.42629547  1
  Mn3.34+  Mn116  1  0.43123378  0.33800076  0.74743218  1
  Mn3.34+  Mn117  1  0.41197465  0.83239981  0.09123177  1
  Mn3.34+  Mn118  1  0.41961402  0.83780767  0.41639066  1
  Mn3.34+  Mn119  1  0.42056832  0.83378421  0.74574229  1
  Mn3.34+  Mn120  1  0.74838848  0.32601700  0.08524914  1
  Mn3.34+  Mn121  1  0.74995111  0.34050807  0.41929331  1
  Mn3.34+  Mn122  1  0.74260774  0.33801484  0.74632595  1
  Mn3.34+  Mn123  1  0.75815317  0.84145566  0.08506218  1
  Mn3.34+  Mn124  1  0.74449274  0.83244469  0.41847155  1
  Mn3.34+  Mn125  1  0.75105786  0.83064556  0.74634890  1
  Mn3.34+  Mn126  1  0.25141482  0.32741439  0.24639989  1
  Mn3.34+  Mn127  1  0.25373158  0.32099858  0.58108644  1
  Mn3.34+  Mn128  1  0.25131462  0.32918335  0.91642964  1
  Mn3.34+  Mn129  1  0.24915945  0.83838107  0.24744118  1
  Mn3.34+  Mn130  1  0.25433469  0.83350618  0.57717520  1
  Mn3.34+  Mn131  1  0.24673480  0.83774177  0.91534893  1
  Mn3.34+  Mn132  1  0.58603762  0.33135333  0.25207973  1
  Mn3.34+  Mn133  1  0.58737017  0.33595401  0.58112068  1
  Mn3.34+  Mn134  1  0.59140052  0.33343729  0.91063159  1
  Mn3.34+  Mn135  1  0.58070443  0.83637321  0.25312699  1
  Mn3.34+  Mn136  1  0.58871487  0.83832502  0.57662744  1
  Mn3.34+  Mn137  1  0.58735305  0.83473092  0.91116915  1
  Mn3.34+  Mn138  1  0.91176004  0.32672623  0.25326466  1
  Mn3.34+  Mn139  1  0.90513237  0.33445452  0.57971585  1
  Mn3.34+  Mn140  1  0.91578737  0.32710512  0.90827959  1
  Mn3.34+  Mn141  1  0.91017892  0.83404573  0.24349861  1
  Mn3.34+  Mn142  1  0.91548687  0.83362311  0.58260239  1
  Mn3.34+  Mn143  1  0.91159464  0.83808502  0.92136561  1
  Mn3.34+  Mn144  1  0.24988826  0.67391004  0.24953697  1
  Mn3.34+  Mn145  1  0.42151121  0.17276367  0.42289724  1
  Mn3.34+  Mn146  1  0.41695463  0.66931634  0.41969136  1
  Mn3.34+  Mn147  1  0.08559899  0.66867953  0.74283700  1
  Mn3.34+  Mn148  1  0.59354132  0.65219791  0.56880410  1
  Mn3.34+  Mn149  1  0.23985123  0.66367307  0.91473898  1
  Mn3.34+  Mn150  1  0.07254099  0.66228968  0.74532362  1
  Mn3.34+  Mn151  1  0.75004740  0.66015336  0.74465172  1
  Mn3.34+  Mn152  1  0.75466032  0.16215061  0.08855374  1
  Mn3.34+  Mn153  1  0.92127458  0.66601791  0.91879184  1
  Mn3.34+  Mn154  1  0.25149304  0.67002272  0.57796309  1
  Mn3.34+  Mn155  1  0.59322466  0.66543979  0.25345820  1
  Mn3.34+  Mn156  1  0.08640347  0.15472653  0.09526135  1
  Mn3.34+  Mn157  1  0.74453219  0.16608793  0.75246264  1
  Mn3.34+  Mn158  1  0.57883508  0.66149193  0.91532835  1
  Mn3.34+  Mn159  1  0.58485736  0.16553913  0.58347943  1
  Mn3.34+  Mn160  1  0.25053292  0.66875563  0.91681061  1
  Mn3.34+  Mn161  1  0.91453893  0.66294500  0.57858066  1
  Mn3.34+  Mn162  1  0.57822555  0.16239506  0.24676357  1
  Mn3.34+  Mn163  1  0.58970402  0.66657745  0.91681760  1
  Mn3.34+  Mn164  1  0.75210176  0.66790060  0.08681144  1
  Mn3.34+  Mn165  1  0.58234964  0.66130032  0.25089735  1
  Mn3.34+  Mn166  1  0.41098102  0.66761401  0.08917342  1
  Mn3.34+  Mn167  1  0.41605774  0.16734285  0.08645175  1
  Mn3.34+  Mn168  1  0.59199186  0.16835511  0.91619091  1
  Mn3.34+  Mn169  1  0.76291575  0.65379171  0.74685896  1
  Mn3.34+  Mn170  1  0.41969712  0.67192038  0.74810046  1
  Mn3.34+  Mn171  1  0.25054959  0.16701516  0.58494647  1
  Mn3.34+  Mn172  1  0.42027044  0.66213829  0.09249812  1
  Mn3.34+  Mn173  1  0.91831639  0.15872184  0.24468622  1
  Mn3.34+  Mn174  1  0.24977138  0.16661535  0.24248698  1
  Mn3.34+  Mn175  1  0.74797488  0.66573267  0.42365015  1
  Mn3.34+  Mn176  1  0.41234558  0.16709477  0.42530580  1
  Mn3.34+  Mn177  1  0.59256195  0.15868124  0.23887156  1
  Mn3.34+  Mn178  1  0.08341458  0.16266400  0.75530156  1
  Mn3.34+  Mn179  1  0.08219265  0.66908550  0.08630285  1
  Mn3.34+  Mn180  1  0.25583139  0.00142010  0.24638632  1
  Mn3.34+  Mn181  1  0.24886982  0.00112713  0.92214940  1
  Mn3.34+  Mn182  1  0.42119038  0.50284640  0.08678562  1
  Mn3.34+  Mn183  1  0.26331404  0.50144749  0.57709626  1
  Mn3.34+  Mn184  1  0.43153173  0.49982742  0.41586287  1
  Mn3.34+  Mn185  1  0.92770929  0.49788619  0.91503263  1
  Mn3.34+  Mn186  1  0.24897441  0.49414371  0.92670776  1
  Mn3.34+  Mn187  1  0.91553714  0.49515525  0.25822052  1
  Mn3.34+  Mn188  1  0.40554105  0.00534895  0.09076761  1
  Mn3.34+  Mn189  1  0.25928380  0.49766451  0.25549785  1
  Mn3.34+  Mn190  1  0.75048773  0.49945064  0.09174318  1
  Mn3.34+  Mn191  1  0.07452070  0.00002994  0.75218451  1
  Mn3.34+  Mn192  1  0.73782553  -0.00163126  0.76643702  1
  Mn3.34+  Mn193  1  0.24309744  0.00747559  0.24246533  1
  Mn3.34+  Mn194  1  0.42321654  -0.00157635  0.74503382  1
  Mn3.34+  Mn195  1  0.57249090  0.49052666  0.58923734  1
  Mn3.34+  Mn196  1  0.24525362  0.50391389  0.25718834  1
  Mn3.34+  Mn197  1  0.89070393  -0.00029971  0.58542787  1
  Mn3.34+  Mn198  1  0.90516141  0.50177685  0.59223076  1
  Mn3.34+  Mn199  1  0.23631049  0.50158629  0.92838577  1
  Mn3.34+  Mn200  1  0.58462217  0.50297948  0.26442165  1
  Mn3.34+  Mn201  1  0.41635444  0.00111136  0.08767138  1
  Mn3.34+  Mn202  1  0.74790381  0.00315895  0.76444879  1
  Mn3.34+  Mn203  1  0.58456609  0.00164582  0.59184259  1
  Mn3.34+  Mn204  1  0.75781368  0.00233986  0.07023831  1
  Mn3.34+  Mn205  1  0.90488807  0.00503418  0.58560705  1
  Mn3.34+  Mn206  1  0.06881139  0.00653046  0.39805519  1
  Mn3.34+  Mn207  1  0.58616459  -0.00167179  0.91670600  1
  Mn3.34+  Mn208  1  0.75484410  0.49671770  0.72729897  1
  Mn3.34+  Mn209  1  0.07759055  0.50411748  0.08787448  1
  Mn3.34+  Mn210  1  0.25159763  0.49675838  0.57528939  1
  Mn3.34+  Mn211  1  0.74607759  0.50646139  0.40874631  1
  Mn3.34+  Mn212  1  0.07438888  0.49933416  0.74204671  1
  Mn3.34+  Mn213  1  0.07145724  0.49142834  0.40899100  1
  Mn3.34+  Mn214  1  0.56188278  -0.00254281  0.27355391  1
  Mn3.34+  Mn215  1  0.06207679  0.50706814  0.74011718  1
  O2-  O216  1  0.00450919  0.16084298  0.01409266  1
  O2-  O217  1  -0.00644461  0.14603885  0.32373236  1
  O2-  O218  1  0.01398547  0.18013738  0.66795979  1
  O2-  O219  1  -0.00335437  0.65488209  0.00794073  1
  O2-  O220  1  -0.01026657  0.66691941  0.33599192  1
  O2-  O221  1  0.00765742  0.64286136  0.65698739  1
  O2-  O222  1  0.33898448  0.15026583  0.01113000  1
  O2-  O223  1  0.33478543  0.15239354  0.33751455  1
  O2-  O224  1  0.32998598  0.17190922  0.66046506  1
  O2-  O225  1  0.33407023  0.64257629  0.00151693  1
  O2-  O226  1  0.33491005  0.67313064  0.33008774  1
  O2-  O227  1  0.34229398  0.65107278  0.66105211  1
  O2-  O228  1  0.67164245  0.17746842  0.00079896  1
  O2-  O229  1  0.67093013  0.13941607  0.32032663  1
  O2-  O230  1  0.66211588  0.14591053  0.66684438  1
  O2-  O231  1  0.67074541  0.65043660  0.00095293  1
  O2-  O232  1  0.67117422  0.64287582  0.33318724  1
  O2-  O233  1  0.66402538  0.64186758  0.67015323  1
  O2-  O234  1  0.15319452  0.16662948  0.00429012  1
  O2-  O235  1  0.17918016  0.14766599  0.33168632  1
  O2-  O236  1  0.16596737  0.15732105  0.66315284  1
  O2-  O237  1  0.16545737  0.64897958  0.00270414  1
  O2-  O238  1  0.16297258  0.67144014  0.31959776  1
  O2-  O239  1  0.17535354  0.63783702  0.67200290  1
  O2-  O240  1  0.50386377  0.15141350  0.00480933  1
  O2-  O241  1  0.49292692  0.16005041  0.33127407  1
  O2-  O242  1  0.49915363  0.15815452  0.65700466  1
  O2-  O243  1  0.49814710  0.64611764  0.00556632  1
  O2-  O244  1  0.49876169  0.65378148  0.33102936  1
  O2-  O245  1  0.50953129  0.65600520  0.66998694  1
  O2-  O246  1  0.83510975  0.16168781  0.01265488  1
  O2-  O247  1  0.83304575  0.15439659  0.32068248  1
  O2-  O248  1  0.81155154  0.18616808  0.66930990  1
  O2-  O249  1  0.82601489  0.65752672  -0.00608152  1
  O2-  O250  1  0.82653002  0.66092743  0.34271485  1
  O2-  O251  1  0.83884515  0.64840030  0.66599799  1
  O2-  O252  1  -0.00361473  0.34227389  0.00303961  1
  O2-  O253  1  -0.00337040  0.35227427  0.33352502  1
  O2-  O254  1  -0.00096255  0.33073769  0.66825010  1
  O2-  O255  1  -0.00217430  0.84333259  0.00203745  1
  O2-  O256  1  -0.00845962  0.85685284  0.33654927  1
  O2-  O257  1  0.00581025  0.86226844  0.66511121  1
  O2-  O258  1  0.33723799  0.35904564  -0.01024721  1
  O2-  O259  1  0.33344739  0.35013422  0.32931443  1
  O2-  O260  1  0.33447896  0.33382031  0.66710534  1
  O2-  O261  1  0.32839092  0.83340644  0.00769602  1
  O2-  O262  1  0.32041491  0.82909162  0.33948161  1
  O2-  O263  1  0.33589339  0.85419401  0.66256195  1
  O2-  O264  1  0.66874352  0.31862691  -0.00192013  1
  O2-  O265  1  0.66522657  0.34246370  0.33274024  1
  O2-  O266  1  0.66643687  0.32248548  0.66930468  1
  O2-  O267  1  0.66967721  0.84080178  0.00287080  1
  O2-  O268  1  0.66985449  0.85102683  0.32556511  1
  O2-  O269  1  0.66235471  0.82640246  0.66655182  1
  O2-  O270  1  0.16297967  0.33507160  -0.00322581  1
  O2-  O271  1  0.16470232  0.34914354  0.33425579  1
  O2-  O272  1  0.16931366  0.34078287  0.66646523  1
  O2-  O273  1  0.15813140  0.84938251  -0.00563880  1
  O2-  O274  1  0.15630269  0.86175503  0.32049616  1
  O2-  O275  1  0.17179189  0.85164350  0.67042589  1
  O2-  O276  1  0.51105355  0.34245572  0.00371449  1
  O2-  O277  1  0.49332860  0.33298345  0.33018827  1
  O2-  O278  1  0.50455939  0.34181739  0.66484603  1
  O2-  O279  1  0.50121882  0.83807308  0.00533923  1
  O2-  O280  1  0.49791444  0.84194528  0.33217280  1
  O2-  O281  1  0.50284637  0.83181688  0.66315464  1
  O2-  O282  1  0.82983701  0.34877835  -0.00500399  1
  O2-  O283  1  0.82435620  0.34274605  0.32019576  1
  O2-  O284  1  0.82994791  0.33043015  0.66894649  1
  O2-  O285  1  0.83263597  0.81986274  0.00552027  1
  O2-  O286  1  0.82724370  0.84660574  0.32501463  1
  O2-  O287  1  0.83970974  0.84416803  0.66998743  1
  O2-  O288  1  0.00431822  0.18509474  0.16408712  1
  O2-  O289  1  -0.00133949  0.17016384  0.49198118  1
  O2-  O290  1  0.01140478  0.17869063  0.83373757  1
  O2-  O291  1  0.00881061  0.67656443  0.16911234  1
  O2-  O292  1  -0.00757847  0.67560479  0.50165400  1
  O2-  O293  1  0.00074116  0.68228410  0.83111765  1
  O2-  O294  1  0.33973318  0.18825693  0.17041035  1
  O2-  O295  1  0.32629460  0.19626171  0.49851073  1
  O2-  O296  1  0.33745919  0.17285831  0.83403638  1
  O2-  O297  1  0.32972569  0.69350032  0.16411803  1
  O2-  O298  1  0.33420281  0.68572478  0.50145806  1
  O2-  O299  1  0.32829205  0.68075687  0.82708374  1
  O2-  O300  1  0.66507097  0.18811848  0.15813844  1
  O2-  O301  1  0.66369510  0.16660082  0.49728632  1
  O2-  O302  1  0.65951009  0.19365819  0.82691981  1
  O2-  O303  1  0.66923882  0.68915686  0.16712060  1
  O2-  O304  1  0.66762279  0.69249643  0.50615485  1
  O2-  O305  1  0.67077100  0.68054589  0.82581548  1
  O2-  O306  1  0.16757218  0.18788403  0.16690661  1
  O2-  O307  1  0.16622854  0.17462899  0.50686347  1
  O2-  O308  1  0.16500886  0.18699650  0.82122411  1
  O2-  O309  1  0.17231673  0.68464563  0.16052216  1
  O2-  O310  1  0.16458014  0.67924292  0.51105902  1
  O2-  O311  1  0.16651693  0.68450345  0.82140108  1
  O2-  O312  1  0.50059133  0.18856144  0.16809703  1
  O2-  O313  1  0.50323240  0.18769883  0.49932352  1
  O2-  O314  1  0.50199547  0.18048644  0.85006372  1
  O2-  O315  1  0.50183471  0.69310157  0.16814688  1
  O2-  O316  1  0.50052897  0.68164125  0.50959829  1
  O2-  O317  1  0.50111604  0.68498935  0.83094932  1
  O2-  O318  1  0.83022572  0.19036108  0.16571409  1
  O2-  O319  1  0.83070284  0.18147316  0.48931245  1
  O2-  O320  1  0.82417647  0.18496595  0.82510088  1
  O2-  O321  1  0.83569923  0.68516359  0.15446785  1
  O2-  O322  1  0.83276270  0.68536353  0.50106480  1
  O2-  O323  1  0.83246687  0.67832378  0.83486856  1
  O2-  O324  1  -0.00078223  0.32319999  0.16590819  1
  O2-  O325  1  0.00032762  0.33244983  0.50471877  1
  O2-  O326  1  0.00765523  0.31218877  0.83609063  1
  O2-  O327  1  0.00655931  0.82736772  0.17476663  1
  O2-  O328  1  0.00892031  0.83697347  0.50621493  1
  O2-  O329  1  -0.00499888  0.81997101  0.82826191  1
  O2-  O330  1  0.33096418  0.32454935  0.15770550  1
  O2-  O331  1  0.32660077  0.31432850  0.48698485  1
  O2-  O332  1  0.32892957  0.32736471  0.83013449  1
  O2-  O333  1  0.33071845  0.80931253  0.17095347  1
  O2-  O334  1  0.33284897  0.81760260  0.49983963  1
  O2-  O335  1  0.33090356  0.82823333  0.82422342  1
  O2-  O336  1  0.66228552  0.31726836  0.16020736  1
  O2-  O337  1  0.67202058  0.32299550  0.50423640  1
  O2-  O338  1  0.67139930  0.31351998  0.83505799  1
  O2-  O339  1  0.66057344  0.82705157  0.15662468  1
  O2-  O340  1  0.66801154  0.81682297  0.50017985  1
  O2-  O341  1  0.66570747  0.81313938  0.82641711  1
  O2-  O342  1  0.16096485  0.32080522  0.17088928  1
  O2-  O343  1  0.16669612  0.31690135  0.49863750  1
  O2-  O344  1  0.17126181  0.31846823  0.82608991  1
  O2-  O345  1  0.16542666  0.82058591  0.16624483  1
  O2-  O346  1  0.16723824  0.82421621  0.50127614  1
  O2-  O347  1  0.16935524  0.82341656  0.82453150  1
  O2-  O348  1  0.49874072  0.32162225  0.16736328  1
  O2-  O349  1  0.50239806  0.30934166  0.50036994  1
  O2-  O350  1  0.50004582  0.32622272  0.84262806  1
  O2-  O351  1  0.50357858  0.81613708  0.16294995  1
  O2-  O352  1  0.49819879  0.82267098  0.50560726  1
  O2-  O353  1  0.50373445  0.81924399  0.82375405  1
  O2-  O354  1  0.84266711  0.32188734  0.15312735  1
  O2-  O355  1  0.83698515  0.32786480  0.49173227  1
  O2-  O356  1  0.83509177  0.31969514  0.82780551  1
  O2-  O357  1  0.82873542  0.81486140  0.16744838  1
  O2-  O358  1  0.84209432  0.81970928  0.48552636  1
  O2-  O359  1  0.83511394  0.82168977  0.83055389  1
  O2-  O360  1  0.08221526  0.07915378  0.10379982  1
  O2-  O361  1  0.11888131  0.05965567  0.46968931  1
  O2-  O362  1  0.10277826  0.08150139  0.78110824  1
  O2-  O363  1  0.09262090  0.58372040  0.12821809  1
  O2-  O364  1  0.06255934  0.57343640  0.40894636  1
  O2-  O365  1  0.09332347  0.57936435  0.79091799  1
  O2-  O366  1  0.42089412  0.08440377  0.12758122  1
  O2-  O367  1  0.38549942  0.08821106  0.46517743  1
  O2-  O368  1  0.43209408  0.07495308  0.77530887  1
  O2-  O369  1  0.39728194  0.58058059  0.13696172  1
  O2-  O370  1  0.41759279  0.58403138  0.43557576  1
  O2-  O371  1  0.41818596  0.58243350  0.78470009  1
  O2-  O372  1  0.73792751  0.07334366  0.12265237  1
  O2-  O373  1  0.76001230  0.05524579  0.47294307  1
  O2-  O374  1  0.73978781  0.08385370  0.79715848  1
  O2-  O375  1  0.77345810  0.57970465  0.10925095  1
  O2-  O376  1  0.75789875  0.58265832  0.45044858  1
  O2-  O377  1  0.74431598  0.57156138  0.79779733  1
  O2-  O378  1  0.26680734  0.08445672  0.20580218  1
  O2-  O379  1  0.25676416  0.08603316  0.56615959  1
  O2-  O380  1  0.27393303  0.07337428  0.88340486  1
  O2-  O381  1  0.25661029  0.58402102  0.22725284  1
  O2-  O382  1  0.26388648  0.58307050  0.55688477  1
  O2-  O383  1  0.25268552  0.57600601  0.87315108  1
  O2-  O384  1  0.57142505  0.07882004  0.20171023  1
  O2-  O385  1  0.57248548  0.07915974  0.54782563  1
  O2-  O386  1  0.57907549  0.07931175  0.89270275  1
  O2-  O387  1  0.57182312  0.58249703  0.21472447  1
  O2-  O388  1  0.57574667  0.56842737  0.54847418  1
  O2-  O389  1  0.58042886  0.57718536  0.87619056  1
  O2-  O390  1  0.90785531  0.08346774  0.20829343  1
  O2-  O391  1  0.91857635  0.08464965  0.56311558  1
  O2-  O392  1  0.95001849  0.06996808  0.88212729  1
  O2-  O393  1  0.92818591  0.57410041  0.22653047  1
  O2-  O394  1  0.91987779  0.57766969  0.54672971  1
  O2-  O395  1  0.89909622  0.57972627  0.90415999  1
  O2-  O396  1  0.08116220  0.41972178  0.11468294  1
  O2-  O397  1  0.10640936  0.41859124  0.45690576  1
  O2-  O398  1  0.07594362  0.41901347  0.77115200  1
  O2-  O399  1  0.09454425  0.92136505  0.10564024  1
  O2-  O400  1  0.09514222  0.92994363  0.44914622  1
  O2-  O401  1  0.06989376  0.92066336  0.79688139  1
  O2-  O402  1  0.42931576  0.41871600  0.11193765  1
  O2-  O403  1  0.39311627  0.42297346  0.45183010  1
  O2-  O404  1  0.39730616  0.41944115  0.78427591  1
  O2-  O405  1  0.43489104  0.91994795  0.11409159  1
  O2-  O406  1  0.40401659  0.91613512  0.44009343  1
  O2-  O407  1  0.42650289  0.91712921  0.76526962  1
  O2-  O408  1  0.73641092  0.41730567  0.11070715  1
  O2-  O409  1  0.74476252  0.42651640  0.42018947  1
  O2-  O410  1  0.75896828  0.42232224  0.77957745  1
  O2-  O411  1  0.74115249  0.92959180  0.12448168  1
  O2-  O412  1  0.75909402  0.91420265  0.42595551  1
  O2-  O413  1  0.74289677  0.91515172  0.77218934  1
  O2-  O414  1  0.23916235  0.42036229  0.21288373  1
  O2-  O415  1  0.25055952  0.41435978  0.55956055  1
  O2-  O416  1  0.22149347  0.41999067  0.87883333  1
  O2-  O417  1  0.26149184  0.92446132  0.20235601  1
  O2-  O418  1  0.24516881  0.91684677  0.55510573  1
  O2-  O419  1  0.24908993  0.92231274  0.88652869  1
  O2-  O420  1  0.58748254  0.42744304  0.20797040  1
  O2-  O421  1  0.58035395  0.41667254  0.55029027  1
  O2-  O422  1  0.60085459  0.41308974  0.91772634  1
  O2-  O423  1  0.59189855  0.92957554  0.20978764  1
  O2-  O424  1  0.57473389  0.92127352  0.57766132  1
  O2-  O425  1  0.58572728  0.91810408  0.88656845  1
  O2-  O426  1  0.92254657  0.41711150  0.21349503  1
  O2-  O427  1  0.92157928  0.42023495  0.58313155  1
  O2-  O428  1  0.93372061  0.41663029  0.88206980  1
  O2-  O429  1  0.90924938  0.91646860  0.21956154  1
  O2-  O430  1  0.90338206  0.92290701  0.54379333  1
  O2-  O431  1  0.91419714  0.91592087  0.89949200  1
  O2-  O432  1  0.00001505  0.02100651  -0.01357619  1
  O2-  O433  1  -0.01050042  -0.02465446  0.33458168  1
  O2-  O434  1  0.00863787  -0.00545722  0.64330280  1
  O2-  O435  1  -0.01765532  0.48746493  0.02184605  1
  O2-  O436  1  0.03079099  0.48996162  0.28960546  1
  O2-  O437  1  0.01845299  0.50548862  0.63337582  1
  O2-  O438  1  0.31492860  -0.00796368  0.01753102  1
  O2-  O439  1  0.31075861  0.01830687  0.34900640  1
  O2-  O440  1  0.31610920  0.00549464  0.71036146  1
  O2-  O441  1  0.34434154  0.50979115  -0.01157161  1
  O2-  O442  1  0.32861949  0.50300982  0.34722180  1
  O2-  O443  1  0.31418898  0.49471445  0.68809004  1
  O2-  O444  1  0.65627464  -0.00740403  0.01836798  1
  O2-  O445  1  0.67179988  0.00756236  0.31246776  1
  O2-  O446  1  0.64160885  0.00604862  0.69730366  1
  O2-  O447  1  0.67079544  0.50598908  0.00860018  1
  O2-  O448  1  0.69602019  0.50876845  0.29425139  1
  O2-  O449  1  0.64306355  0.50491947  0.68748905  1
  O2-  O450  1  0.14533894  0.01002466  -0.04700636  1
  O2-  O451  1  0.14329475  -0.00632218  0.30467464  1
  O2-  O452  1  0.16393672  -0.02610468  0.67937310  1
  O2-  O453  1  0.18470001  0.49818745  0.03182609  1
  O2-  O454  1  0.17495104  0.47885410  0.34428986  1
  O2-  O455  1  0.16778178  0.50372740  0.66568493  1
  O2-  O456  1  0.50381304  0.00358508  0.00920060  1
  O2-  O457  1  0.51866836  0.04391500  0.35706975  1
  O2-  O458  1  0.47438728  0.00243979  0.64177461  1
  O2-  O459  1  0.50268453  0.48909683  0.00240133  1
  O2-  O460  1  0.47503130  0.49462667  0.29770782  1
  O2-  O461  1  0.48233214  0.51784245  0.65027213  1
  O2-  O462  1  0.83088614  0.02301555  0.00101040  1
  O2-  O463  1  0.83350436  -0.01170935  0.32925648  1
  O2-  O464  1  0.83816129  -0.00024719  0.68923033  1
  O2-  O465  1  0.82368174  0.48587626  -0.01603375  1
  O2-  O466  1  0.85017447  0.51551908  0.34655026  1
  O2-  O467  1  0.86887054  0.49758587  0.70619813  1
  O2-  O468  1  0.92274524  0.74786397  0.93616034  1
  O2-  O469  1  0.08062801  0.75151981  0.05856300  1
  O2-  O470  1  0.91290332  0.25504909  0.58261900  1
  O2-  O471  1  0.59011849  0.74606867  0.28243776  1
  O2-  O472  1  0.59184393  0.24182098  0.28136185  1
  O2-  O473  1  0.57994676  0.74928069  0.94305060  1
  O2-  O474  1  0.74093790  0.74918147  0.39124947  1
  O2-  O475  1  0.92011388  0.24846914  0.27982627  1
  O2-  O476  1  0.25616888  0.24697865  0.28121709  1
  O2-  O477  1  0.75084569  0.25753260  0.40640729  1
  O2-  O478  1  0.07969712  0.75253366  0.71287669  1
  O2-  O479  1  0.26388198  0.25309327  0.93387633  1
  O2-  O480  1  0.07176462  0.25646309  0.40134466  1
  O2-  O481  1  0.42484204  0.25803040  0.74491038  1
  O2-  O482  1  0.43202741  0.75069647  0.40115310  1
  O2-  O483  1  0.08192869  0.76252841  0.39906603  1
  O2-  O484  1  0.41798568  0.25020918  0.05089919  1
  O2-  O485  1  0.58757749  0.24719012  0.60478664  1
  O2-  O486  1  0.91993654  0.75730785  0.26969035  1
  O2-  O487  1  0.76171793  0.74505653  0.72244587  1
  O2-  O488  1  0.92447831  0.74786037  0.61057595  1
  O2-  O489  1  0.91253697  0.25275625  0.93975488  1
  O2-  O490  1  0.24003134  0.75263367  0.93794634  1
  O2-  O491  1  0.40613755  0.75239976  0.72257028  1
  O2-  O492  1  0.25151529  0.75040001  0.61273716  1
