# generated using pymatgen
data_Ca108Mn108O277
_symmetry_space_group_name_H-M   'P 1'
_cell_length_a   16.02514921
_cell_length_b   22.30276836
_cell_length_c   16.38723774
_cell_angle_alpha   89.99733194
_cell_angle_beta   89.99860102
_cell_angle_gamma   90.00263024
_symmetry_Int_Tables_number   1
_chemical_formula_structural   Ca108Mn108O277
_chemical_formula_sum   'Ca108 Mn108 O277'
_cell_volume   5856.88381550
_cell_formula_units_Z   1
loop_
 _symmetry_equiv_pos_site_id
 _symmetry_equiv_pos_as_xyz
  1  'x, y, z'
loop_
 _atom_type_symbol
 _atom_type_oxidation_number
  Ca2+  2.0
  Mn3.34+  3.34
  O2-  -2.0
loop_
 _atom_site_type_symbol
 _atom_site_label
 _atom_site_symmetry_multiplicity
 _atom_site_fract_x
 _atom_site_fract_y
 _atom_site_fract_z
 _atom_site_occupancy
  Ca2+  Ca0  1  0.09891390  0.25069914  0.24910648  1
  Ca2+  Ca1  1  0.08543075  0.25024409  0.58504068  1
  Ca2+  Ca2  1  0.06873473  0.25027018  0.91935642  1
  Ca2+  Ca3  1  0.09060489  0.75553789  0.25195534  1
  Ca2+  Ca4  1  0.06644975  0.74286013  0.59385895  1
  Ca2+  Ca5  1  0.09010040  0.75192884  0.91127473  1
  Ca2+  Ca6  1  0.39243185  0.24825888  0.24569353  1
  Ca2+  Ca7  1  0.41913596  0.24926655  0.58772016  1
  Ca2+  Ca8  1  0.41634213  0.25504322  0.91814809  1
  Ca2+  Ca9  1  0.41973125  0.75768702  0.23366947  1
  Ca2+  Ca10  1  0.41045259  0.75716554  0.59082964  1
  Ca2+  Ca11  1  0.40503754  0.74182049  0.92916691  1
  Ca2+  Ca12  1  0.74654433  0.25153821  0.25678992  1
  Ca2+  Ca13  1  0.74779182  0.25073741  0.56622213  1
  Ca2+  Ca14  1  0.78519385  0.23819726  0.92586592  1
  Ca2+  Ca15  1  0.73465830  0.75717847  0.25310433  1
  Ca2+  Ca16  1  0.77279498  0.74872529  0.59953280  1
  Ca2+  Ca17  1  0.75804059  0.74974622  0.89327112  1
  Ca2+  Ca18  1  0.23714721  0.24398013  0.10772854  1
  Ca2+  Ca19  1  0.23894000  0.24604432  0.41155929  1
  Ca2+  Ca20  1  0.25122788  0.24300151  0.73184818  1
  Ca2+  Ca21  1  0.26349399  0.74621316  0.08034953  1
  Ca2+  Ca22  1  0.23859322  0.76053160  0.41451918  1
  Ca2+  Ca23  1  0.24702874  0.73362480  0.75506695  1
  Ca2+  Ca24  1  0.58325381  0.25318363  0.08897983  1
  Ca2+  Ca25  1  0.58910709  0.24939663  0.42737536  1
  Ca2+  Ca26  1  0.56936029  0.25651426  0.73643188  1
  Ca2+  Ca27  1  0.55601842  0.74857226  0.08916404  1
  Ca2+  Ca28  1  0.57708931  0.76680274  0.40240142  1
  Ca2+  Ca29  1  0.59721062  0.75635185  0.75772355  1
  Ca2+  Ca30  1  0.93921843  0.23967651  0.07387132  1
  Ca2+  Ca31  1  0.92323551  0.25458183  0.42433911  1
  Ca2+  Ca32  1  0.93410425  0.25227310  0.75636030  1
  Ca2+  Ca33  1  0.93163973  0.75654409  0.07412361  1
  Ca2+  Ca34  1  0.92335221  0.74235588  0.44904374  1
  Ca2+  Ca35  1  0.91406409  0.72639734  0.74343071  1
  Ca2+  Ca36  1  0.21943168  0.09594202  0.09868724  1
  Ca2+  Ca37  1  0.56329355  0.07977812  0.73156248  1
  Ca2+  Ca38  1  0.93962396  0.09833354  0.08583252  1
  Ca2+  Ca39  1  0.22983173  0.09530770  0.09981328  1
  Ca2+  Ca40  1  0.73130438  0.09012604  0.58134908  1
  Ca2+  Ca41  1  0.92454669  0.09401083  0.75926126  1
  Ca2+  Ca42  1  0.39566838  0.60385010  0.61578598  1
  Ca2+  Ca43  1  0.93242249  0.07680912  0.40540068  1
  Ca2+  Ca44  1  0.41901252  0.07981856  0.24983916  1
  Ca2+  Ca45  1  0.38858150  0.10853905  0.60027195  1
  Ca2+  Ca46  1  0.74600200  0.09595879  0.25739079  1
  Ca2+  Ca47  1  0.05654612  0.08903685  0.92002657  1
  Ca2+  Ca48  1  0.41587295  0.61044244  0.23057479  1
  Ca2+  Ca49  1  0.76776020  0.60080976  0.89584756  1
  Ca2+  Ca50  1  0.57555855  0.60059023  0.74922609  1
  Ca2+  Ca51  1  0.23737228  0.59619578  0.41620333  1
  Ca2+  Ca52  1  0.94389054  0.09163076  0.08593584  1
  Ca2+  Ca53  1  0.09554282  0.59382802  0.25153912  1
  Ca2+  Ca54  1  0.58831207  0.59848146  0.74801036  1
  Ca2+  Ca55  1  0.94281103  0.07753002  0.40466244  1
  Ca2+  Ca56  1  0.08854703  0.59879229  0.90074257  1
  Ca2+  Ca57  1  0.93239846  0.58604836  0.06888318  1
  Ca2+  Ca58  1  0.73230648  0.59221508  0.26735231  1
  Ca2+  Ca59  1  0.42607645  0.07332912  0.92546965  1
  Ca2+  Ca60  1  0.56016064  0.07016995  0.07697539  1
  Ca2+  Ca61  1  0.41048812  0.08228551  0.25470615  1
  Ca2+  Ca62  1  0.25835543  0.59805990  0.07259278  1
  Ca2+  Ca63  1  0.55800911  0.08317687  0.72324782  1
  Ca2+  Ca64  1  0.08887730  0.09795075  0.24955969  1
  Ca2+  Ca65  1  0.05827970  0.59074874  0.60162376  1
  Ca2+  Ca66  1  0.91590785  0.09068606  0.76505044  1
  Ca2+  Ca67  1  0.57033331  0.07269841  0.07633856  1
  Ca2+  Ca68  1  0.11113104  0.10703783  0.57756558  1
  Ca2+  Ca69  1  0.09177522  0.10115795  0.25818368  1
  Ca2+  Ca70  1  0.80012341  0.60521921  0.58153775  1
  Ca2+  Ca71  1  0.06392584  0.09189918  0.92616086  1
  Ca2+  Ca72  1  0.75072003  0.91467228  0.91384396  1
  Ca2+  Ca73  1  0.72943798  0.90659734  0.25692185  1
  Ca2+  Ca74  1  0.26296075  0.90976593  0.09081097  1
  Ca2+  Ca75  1  0.24363574  0.89285165  0.75134957  1
  Ca2+  Ca76  1  0.72936781  0.40483984  0.91233280  1
  Ca2+  Ca77  1  0.41792143  0.40224785  0.25067756  1
  Ca2+  Ca78  1  0.73706872  0.90462383  0.58474598  1
  Ca2+  Ca79  1  0.93641535  0.40243791  0.08827578  1
  Ca2+  Ca80  1  0.58200219  0.39772714  0.41812828  1
  Ca2+  Ca81  1  0.43601721  0.92449038  0.93751575  1
  Ca2+  Ca82  1  0.40945439  0.39420685  0.58456342  1
  Ca2+  Ca83  1  0.06356012  0.92801443  0.26905674  1
  Ca2+  Ca84  1  0.74115120  0.40772371  0.91471136  1
  Ca2+  Ca85  1  0.25657650  0.89268187  0.75093860  1
  Ca2+  Ca86  1  0.92578286  0.40463777  0.08568555  1
  Ca2+  Ca87  1  0.75273692  0.39610854  0.58057868  1
  Ca2+  Ca88  1  0.73898297  0.91516516  0.91364698  1
  Ca2+  Ca89  1  0.09550266  0.40798107  0.59651871  1
  Ca2+  Ca90  1  0.07412248  0.92801733  0.26876975  1
  Ca2+  Ca91  1  0.92808311  0.91039870  0.75543229  1
  Ca2+  Ca92  1  0.93973301  0.92903878  0.06784397  1
  Ca2+  Ca93  1  0.93726244  0.40937871  0.74400474  1
  Ca2+  Ca94  1  0.43937456  0.91967811  0.25971765  1
  Ca2+  Ca95  1  0.94834312  0.41274014  0.74721550  1
  Ca2+  Ca96  1  0.08301727  0.90167701  0.56714885  1
  Ca2+  Ca97  1  0.75025226  0.40183845  0.25725443  1
  Ca2+  Ca98  1  0.23858070  0.40536770  0.08321587  1
  Ca2+  Ca99  1  0.24985110  0.40525004  0.08227393  1
  Ca2+  Ca100  1  0.42270668  0.40485796  0.91421724  1
  Ca2+  Ca101  1  0.57986047  0.40489334  0.07294225  1
  Ca2+  Ca102  1  0.94746063  0.92567511  0.07314951  1
  Ca2+  Ca103  1  0.92205417  0.91077737  0.41329334  1
  Ca2+  Ca104  1  0.55993466  0.91803578  0.08418332  1
  Ca2+  Ca105  1  0.58225741  0.91229782  0.73696062  1
  Ca2+  Ca106  1  0.44526539  0.91961031  0.56581475  1
  Ca2+  Ca107  1  0.91691152  0.91059202  0.75428067  1
  Mn3.34+  Mn108  1  0.08682071  0.32887364  0.08028800  1
  Mn3.34+  Mn109  1  0.08398456  0.33198932  0.41820206  1
  Mn3.34+  Mn110  1  0.09748135  0.33413308  0.75379990  1
  Mn3.34+  Mn111  1  0.09099839  0.83375483  0.08788479  1
  Mn3.34+  Mn112  1  0.08252605  0.83391634  0.41687434  1
  Mn3.34+  Mn113  1  0.08238940  0.82992236  0.75083041  1
  Mn3.34+  Mn114  1  0.41650941  0.33019664  0.08310257  1
  Mn3.34+  Mn115  1  0.41146653  0.32969540  0.41746152  1
  Mn3.34+  Mn116  1  0.40861678  0.33168294  0.75150642  1
  Mn3.34+  Mn117  1  0.41360158  0.83810731  0.08447886  1
  Mn3.34+  Mn118  1  0.41353153  0.83824050  0.41517696  1
  Mn3.34+  Mn119  1  0.42006661  0.82653427  0.75546529  1
  Mn3.34+  Mn120  1  0.74949739  0.32941013  0.08828033  1
  Mn3.34+  Mn121  1  0.75493832  0.33093657  0.41608513  1
  Mn3.34+  Mn122  1  0.75092221  0.32780915  0.75128232  1
  Mn3.34+  Mn123  1  0.74917132  0.83420568  0.08637144  1
  Mn3.34+  Mn124  1  0.74954785  0.83014799  0.42084353  1
  Mn3.34+  Mn125  1  0.75024604  0.83181309  0.74903650  1
  Mn3.34+  Mn126  1  0.24635278  0.33548903  0.25751940  1
  Mn3.34+  Mn127  1  0.24939084  0.33427084  0.57835655  1
  Mn3.34+  Mn128  1  0.24759320  0.33495827  0.91037432  1
  Mn3.34+  Mn129  1  0.25096110  0.84052122  0.25053923  1
  Mn3.34+  Mn130  1  0.25042599  0.82821510  0.57672173  1
  Mn3.34+  Mn131  1  0.24949029  0.83104170  0.92208619  1
  Mn3.34+  Mn132  1  0.58014161  0.33509427  0.24840422  1
  Mn3.34+  Mn133  1  0.58195220  0.33271643  0.58393956  1
  Mn3.34+  Mn134  1  0.58109812  0.32976266  0.90878487  1
  Mn3.34+  Mn135  1  0.58044813  0.83784418  0.24677017  1
  Mn3.34+  Mn136  1  0.58392014  0.83345095  0.57907389  1
  Mn3.34+  Mn137  1  0.58225443  0.83769690  0.91695312  1
  Mn3.34+  Mn138  1  0.92275169  0.33449007  0.25209999  1
  Mn3.34+  Mn139  1  0.92033125  0.33096612  0.58124337  1
  Mn3.34+  Mn140  1  0.91862763  0.33517607  0.91323870  1
  Mn3.34+  Mn141  1  0.91314395  0.83581114  0.24448254  1
  Mn3.34+  Mn142  1  0.91699305  0.83650489  0.58124340  1
  Mn3.34+  Mn143  1  0.91919132  0.83666533  0.91755519  1
  Mn3.34+  Mn144  1  0.91009386  0.16539801  0.25073320  1
  Mn3.34+  Mn145  1  0.40827473  0.16166149  0.41998154  1
  Mn3.34+  Mn146  1  0.08266956  0.66072068  0.75034585  1
  Mn3.34+  Mn147  1  0.92173747  0.66818995  0.91403876  1
  Mn3.34+  Mn148  1  0.91676806  0.16490826  0.57729793  1
  Mn3.34+  Mn149  1  0.24641647  0.66695209  0.24592066  1
  Mn3.34+  Mn150  1  0.74998756  0.16860122  0.08931995  1
  Mn3.34+  Mn151  1  0.59392949  0.16216913  0.91199284  1
  Mn3.34+  Mn152  1  0.59321149  0.67506483  0.57659626  1
  Mn3.34+  Mn153  1  0.41871115  0.15713992  0.42019393  1
  Mn3.34+  Mn154  1  0.24411832  0.66527294  0.58335965  1
  Mn3.34+  Mn155  1  0.58170214  0.66088700  0.92010013  1
  Mn3.34+  Mn156  1  0.75698998  0.17612416  0.75254628  1
  Mn3.34+  Mn157  1  0.09133621  0.16753653  0.42377621  1
  Mn3.34+  Mn158  1  0.58118615  0.66929071  0.57643220  1
  Mn3.34+  Mn159  1  0.25722288  0.66363394  0.91026827  1
  Mn3.34+  Mn160  1  0.25172599  0.16977007  0.91053606  1
  Mn3.34+  Mn161  1  0.08712817  0.16787900  0.74689097  1
  Mn3.34+  Mn162  1  0.58173005  0.16804874  0.91373650  1
  Mn3.34+  Mn163  1  0.41183507  0.66998893  0.41608846  1
  Mn3.34+  Mn164  1  0.92554520  0.66862710  0.25444405  1
  Mn3.34+  Mn165  1  0.74830747  0.67287707  0.41854149  1
  Mn3.34+  Mn166  1  0.58215186  0.16302962  0.24743439  1
  Mn3.34+  Mn167  1  0.41396312  0.16623881  0.08797734  1
  Mn3.34+  Mn168  1  0.08282973  0.66886251  0.42529687  1
  Mn3.34+  Mn169  1  0.75540297  0.67198113  0.08172450  1
  Mn3.34+  Mn170  1  0.74973535  0.17487598  0.74356665  1
  Mn3.34+  Mn171  1  0.26163683  0.16440411  0.90869236  1
  Mn3.34+  Mn172  1  0.74269126  0.66545722  0.08465095  1
  Mn3.34+  Mn173  1  0.91262194  0.66933912  0.25263296  1
  Mn3.34+  Mn174  1  0.42126896  0.66434732  0.41865942  1
  Mn3.34+  Mn175  1  0.57991896  0.16540062  0.58043526  1
  Mn3.34+  Mn176  1  0.08735973  0.67018831  0.08051687  1
  Mn3.34+  Mn177  1  0.74725796  0.16544900  0.41924828  1
  Mn3.34+  Mn178  1  0.58178134  0.66871765  0.24953820  1
  Mn3.34+  Mn179  1  0.57225563  0.66661483  0.92062638  1
  Mn3.34+  Mn180  1  0.41700712  0.50104548  0.75528651  1
  Mn3.34+  Mn181  1  0.40884647  0.49829742  0.41676112  1
  Mn3.34+  Mn182  1  0.25815804  0.00428749  0.56582571  1
  Mn3.34+  Mn183  1  0.41975313  0.50314982  0.41704596  1
  Mn3.34+  Mn184  1  0.09611770  0.00069440  0.74737349  1
  Mn3.34+  Mn185  1  0.73120498  0.50603419  0.07883831  1
  Mn3.34+  Mn186  1  0.40261817  0.50351512  0.75441484  1
  Mn3.34+  Mn187  1  0.74654425  0.00371194  0.75044264  1
  Mn3.34+  Mn188  1  0.25290484  -0.00405251  0.28261791  1
  Mn3.34+  Mn189  1  0.72418908  0.00184031  0.40315758  1
  Mn3.34+  Mn190  1  0.75232665  0.50376606  0.74469179  1
  Mn3.34+  Mn191  1  0.40587142  -0.00226302  0.74824687  1
  Mn3.34+  Mn192  1  0.07366176  0.50087851  0.41544958  1
  Mn3.34+  Mn193  1  0.24548627  -0.00206129  0.56390135  1
  Mn3.34+  Mn194  1  0.24643279  0.49856450  0.91725130  1
  Mn3.34+  Mn195  1  0.75990013  0.49993989  0.41749909  1
  Mn3.34+  Mn196  1  0.92222615  0.49543277  0.58587377  1
  Mn3.34+  Mn197  1  0.43403082  0.50185910  0.06352941  1
  Mn3.34+  Mn198  1  0.74257746  0.50129899  0.08190630  1
  Mn3.34+  Mn199  1  0.43764572  0.51038489  0.07302751  1
  Mn3.34+  Mn200  1  0.74231384  0.49769687  0.74441913  1
  Mn3.34+  Mn201  1  0.93132731  0.50025181  0.91996933  1
  Mn3.34+  Mn202  1  0.92290779  0.00105497  0.59051146  1
  Mn3.34+  Mn203  1  0.74632247  -0.00126583  0.09100468  1
  Mn3.34+  Mn204  1  0.08684282  0.50144838  0.08445830  1
  Mn3.34+  Mn205  1  0.73265299  -0.00439875  0.40687549  1
  Mn3.34+  Mn206  1  0.58082902  0.50204450  0.24859619  1
  Mn3.34+  Mn207  1  0.23806126  -0.00340165  0.91871065  1
  Mn3.34+  Mn208  1  0.24500201  0.50112932  0.59110655  1
  Mn3.34+  Mn209  1  0.91832345  0.50250088  0.24915669  1
  Mn3.34+  Mn210  1  0.24974149  0.00133658  0.91591033  1
  Mn3.34+  Mn211  1  0.74902050  0.50442499  0.41796648  1
  Mn3.34+  Mn212  1  0.24747011  0.50224021  0.25014282  1
  Mn3.34+  Mn213  1  0.08375049  0.49554113  0.41436615  1
  Mn3.34+  Mn214  1  0.75671284  0.00399297  0.08976327  1
  Mn3.34+  Mn215  1  0.57588706  0.49947523  0.58011711  1
  O2-  O216  1  0.00442705  0.15538071  0.00242077  1
  O2-  O217  1  -0.00453744  0.15555336  0.33401052  1
  O2-  O218  1  -0.00360073  0.14574243  0.66739747  1
  O2-  O219  1  0.00185388  0.65670301  0.00319910  1
  O2-  O220  1  0.00379613  0.65560222  0.33303242  1
  O2-  O221  1  0.00040073  0.66208152  0.67535917  1
  O2-  O222  1  0.33228150  0.14028639  0.00122379  1
  O2-  O223  1  0.34138506  0.15100716  0.32895304  1
  O2-  O224  1  0.34301822  0.18757535  0.66435969  1
  O2-  O225  1  0.32527318  0.66491264  -0.00413180  1
  O2-  O226  1  0.32972756  0.65188236  0.33293296  1
  O2-  O227  1  0.32812973  0.68679582  0.65512287  1
  O2-  O228  1  0.65859053  0.14436728  0.00504803  1
  O2-  O229  1  0.66863526  0.17027036  0.32679886  1
  O2-  O230  1  0.66100662  0.16584678  0.67321008  1
  O2-  O231  1  0.67129378  0.64218960  -0.00766520  1
  O2-  O232  1  0.67570399  0.67309342  0.32742884  1
  O2-  O233  1  0.66749286  0.66276671  0.66090484  1
  O2-  O234  1  0.17021435  0.14310791  -0.01483138  1
  O2-  O235  1  0.15961520  0.15959707  0.33646230  1
  O2-  O236  1  0.16285729  0.17388888  0.66524416  1
  O2-  O237  1  0.16357203  0.65343080  0.00104398  1
  O2-  O238  1  0.16710393  0.66380857  0.33280942  1
  O2-  O239  1  0.16165192  0.66927393  0.66071054  1
  O2-  O240  1  0.49849658  0.14610944  0.00261737  1
  O2-  O241  1  0.49855171  0.15771981  0.33308597  1
  O2-  O242  1  0.50024876  0.16320736  0.66341510  1
  O2-  O243  1  0.49908054  0.66371501  0.00251824  1
  O2-  O244  1  0.50180690  0.64927363  0.33934002  1
  O2-  O245  1  0.50758276  0.67594145  0.66590669  1
  O2-  O246  1  0.83914613  0.15360811  0.02326908  1
  O2-  O247  1  0.83529065  0.14856432  0.34139868  1
  O2-  O248  1  0.82866829  0.14957231  0.65858280  1
  O2-  O249  1  0.83678623  0.64963761  0.00639745  1
  O2-  O250  1  0.83598068  0.68082498  0.33649268  1
  O2-  O251  1  0.83574743  0.67036245  0.66599179  1
  O2-  O252  1  -0.00015463  0.34627601  -0.00135279  1
  O2-  O253  1  -0.00144170  0.32144852  0.33221859  1
  O2-  O254  1  0.00286214  0.34319450  0.66433273  1
  O2-  O255  1  -0.00068926  0.84824250  0.00563139  1
  O2-  O256  1  -0.00106897  0.84584996  0.32794504  1
  O2-  O257  1  0.00181750  0.85485051  0.66483073  1
  O2-  O258  1  0.33493762  0.35218042  0.00171149  1
  O2-  O259  1  0.33826632  0.34186954  0.32753466  1
  O2-  O260  1  0.33258863  0.31989135  0.66288971  1
  O2-  O261  1  0.33926967  0.85071201  -0.00652109  1
  O2-  O262  1  0.33051174  0.82322059  0.32896987  1
  O2-  O263  1  0.33150410  0.82670566  0.66898192  1
  O2-  O264  1  0.66714093  0.34547896  0.00199753  1
  O2-  O265  1  0.66433907  0.33701591  0.33314262  1
  O2-  O266  1  0.67723821  0.32588734  0.66236023  1
  O2-  O267  1  0.66908702  0.85904005  0.00152622  1
  O2-  O268  1  0.66862127  0.83276308  0.33287017  1
  O2-  O269  1  0.66503121  0.83599982  0.66766122  1
  O2-  O270  1  0.16880973  0.34844696  -0.00012548  1
  O2-  O271  1  0.16537798  0.33620436  0.33540993  1
  O2-  O272  1  0.16737058  0.32629334  0.66137258  1
  O2-  O273  1  0.17562726  0.85084354  0.01011154  1
  O2-  O274  1  0.16172447  0.83647393  0.32839367  1
  O2-  O275  1  0.16882869  0.84022859  0.66430529  1
  O2-  O276  1  0.49890984  0.34183070  -0.00236119  1
  O2-  O277  1  0.50053080  0.34007929  0.33410456  1
  O2-  O278  1  0.49245866  0.33155953  0.66542891  1
  O2-  O279  1  0.50252461  0.84826863  0.00207838  1
  O2-  O280  1  0.49736106  0.84325403  0.32981484  1
  O2-  O281  1  0.50329973  0.82000966  0.66846882  1
  O2-  O282  1  0.83430443  0.35863537  -0.00234963  1
  O2-  O283  1  0.83059798  0.32876175  0.32455750  1
  O2-  O284  1  0.84327687  0.34828053  0.67830564  1
  O2-  O285  1  0.83420073  0.85645526  0.00410032  1
  O2-  O286  1  0.83260919  0.82711850  0.33317217  1
  O2-  O287  1  0.83475400  0.85585763  0.66836298  1
  O2-  O288  1  -0.00789262  0.17828703  0.17506795  1
  O2-  O289  1  -0.00119535  0.17957446  0.50200252  1
  O2-  O290  1  0.00236478  0.16592180  0.83009427  1
  O2-  O291  1  0.00014832  0.68502265  0.16767340  1
  O2-  O292  1  0.01031098  0.67582373  0.50591276  1
  O2-  O293  1  0.00719237  0.68001049  0.84137848  1
  O2-  O294  1  0.32924027  0.16922259  0.15944061  1
  O2-  O295  1  0.33791969  0.18279950  0.50174407  1
  O2-  O296  1  0.34027706  0.18862153  0.83717808  1
  O2-  O297  1  0.32868495  0.68710515  0.17832472  1
  O2-  O298  1  0.33104795  0.68443271  0.49661505  1
  O2-  O299  1  0.33199854  0.68288350  0.83797221  1
  O2-  O300  1  0.65968662  0.18422462  0.16649528  1
  O2-  O301  1  0.67023258  0.17659292  0.50587239  1
  O2-  O302  1  0.67990609  0.19493860  0.83714331  1
  O2-  O303  1  0.66953393  0.68248694  0.16740135  1
  O2-  O304  1  0.65736934  0.69285840  0.48917290  1
  O2-  O305  1  0.66071773  0.67547019  0.83781416  1
  O2-  O306  1  0.16463440  0.16546700  0.17064994  1
  O2-  O307  1  0.16351197  0.18399915  0.50059074  1
  O2-  O308  1  0.16370308  0.18010543  0.83532671  1
  O2-  O309  1  0.16356221  0.68605814  0.16702973  1
  O2-  O310  1  0.17359371  0.68511013  0.49485257  1
  O2-  O311  1  0.16307547  0.67819080  0.83747206  1
  O2-  O312  1  0.49433161  0.18857239  0.17012261  1
  O2-  O313  1  0.49947124  0.17716207  0.49729736  1
  O2-  O314  1  0.51338878  0.18387493  0.82666869  1
  O2-  O315  1  0.49985370  0.67798608  0.17731354  1
  O2-  O316  1  0.49374310  0.69123662  0.50865614  1
  O2-  O317  1  0.50748791  0.68353093  0.82906885  1
  O2-  O318  1  0.82441588  0.18801492  0.17819085  1
  O2-  O319  1  0.83472728  0.17833411  0.49832715  1
  O2-  O320  1  0.84532002  0.18169993  0.81998159  1
  O2-  O321  1  0.83423558  0.68932109  0.17235752  1
  O2-  O322  1  0.81967963  0.68721224  0.50079324  1
  O2-  O323  1  0.83694287  0.67649639  0.84428805  1
  O2-  O324  1  -0.00276077  0.32087438  0.15845022  1
  O2-  O325  1  0.00250707  0.31754310  0.50507700  1
  O2-  O326  1  -0.00587408  0.33067784  0.82572517  1
  O2-  O327  1  0.00064773  0.81217427  0.16934964  1
  O2-  O328  1  -0.00111981  0.82441294  0.49881931  1
  O2-  O329  1  -0.00812843  0.83104085  0.82464103  1
  O2-  O330  1  0.32872944  0.32830093  0.15955146  1
  O2-  O331  1  0.33561440  0.31407024  0.50352718  1
  O2-  O332  1  0.33342590  0.31436505  0.83750612  1
  O2-  O333  1  0.32726962  0.82471342  0.16394917  1
  O2-  O334  1  0.33192642  0.81140368  0.49905887  1
  O2-  O335  1  0.32821744  0.81414399  0.82831254  1
  O2-  O336  1  0.66526127  0.31464181  0.17422335  1
  O2-  O337  1  0.66702364  0.32547679  0.49762661  1
  O2-  O338  1  0.67330577  0.31249449  0.83778498  1
  O2-  O339  1  0.66555732  0.81960319  0.16515071  1
  O2-  O340  1  0.66814094  0.81036514  0.50616793  1
  O2-  O341  1  0.67263130  0.82506195  0.83895822  1
  O2-  O342  1  0.17121874  0.32883102  0.15966743  1
  O2-  O343  1  0.16641684  0.31521518  0.50207887  1
  O2-  O344  1  0.16614869  0.31075807  0.83729040  1
  O2-  O345  1  0.16978189  0.81511056  0.16880980  1
  O2-  O346  1  0.15836730  0.81700506  0.50563942  1
  O2-  O347  1  0.17137931  0.82213017  0.82776787  1
  O2-  O348  1  0.49584035  0.31790742  0.16841141  1
  O2-  O349  1  0.49999730  0.32268389  0.49617312  1
  O2-  O350  1  0.49527486  0.31344681  0.83261428  1
  O2-  O351  1  0.49938514  0.82712219  0.16437070  1
  O2-  O352  1  0.49699433  0.82173050  0.50497421  1
  O2-  O353  1  0.50390184  0.81807036  0.83402220  1
  O2-  O354  1  0.84002350  0.32122670  0.16054782  1
  O2-  O355  1  0.83136764  0.32079472  0.50729417  1
  O2-  O356  1  0.83035352  0.31548904  0.83730456  1
  O2-  O357  1  0.83272487  0.81233861  0.16575861  1
  O2-  O358  1  0.83127732  0.82040561  0.50405910  1
  O2-  O359  1  0.82993054  0.83265296  0.83510524  1
  O2-  O360  1  0.08656014  0.07326360  0.12734041  1
  O2-  O361  1  0.07190215  0.08424328  0.44468867  1
  O2-  O362  1  0.08418838  0.08090745  0.77897684  1
  O2-  O363  1  0.07997487  0.58316433  0.11278804  1
  O2-  O364  1  0.09508091  0.58156266  0.45242310  1
  O2-  O365  1  0.08587426  0.58331853  0.76457036  1
  O2-  O366  1  0.42690251  0.08273571  0.11544925  1
  O2-  O367  1  0.41246978  0.07843822  0.45173964  1
  O2-  O368  1  0.43017260  0.07316483  0.78236953  1
  O2-  O369  1  0.39274804  0.57809690  0.11075365  1
  O2-  O370  1  0.41130004  0.58326965  0.46153415  1
  O2-  O371  1  0.43591973  0.58610473  0.75528761  1
  O2-  O372  1  0.73920512  0.08403672  0.12374421  1
  O2-  O373  1  0.73731905  0.08004358  0.44622232  1
  O2-  O374  1  0.76054759  0.08369853  0.77677452  1
  O2-  O375  1  0.76047029  0.58264576  0.12718517  1
  O2-  O376  1  0.74725318  0.58566193  0.44648740  1
  O2-  O377  1  0.72519918  0.58232474  0.77176103  1
  O2-  O378  1  0.27067079  0.06508705  0.21994508  1
  O2-  O379  1  0.25152138  0.08331432  0.55728910  1
  O2-  O380  1  0.26289017  0.08040905  0.86827563  1
  O2-  O381  1  0.24085284  0.58059795  0.21271728  1
  O2-  O382  1  0.26309084  0.57919631  0.55213915  1
  O2-  O383  1  0.23509987  0.57911020  0.89787289  1
  O2-  O384  1  0.56339300  0.08132730  0.21176643  1
  O2-  O385  1  0.58687038  0.08386707  0.58653067  1
  O2-  O386  1  0.58133976  0.08404915  0.87168108  1
  O2-  O387  1  0.59372788  0.58377756  0.22844968  1
  O2-  O388  1  0.56887614  0.58328555  0.56652739  1
  O2-  O389  1  0.58089673  0.58049244  0.88108599  1
  O2-  O390  1  0.90705013  0.08050171  0.21812539  1
  O2-  O391  1  0.91056691  0.08047540  0.54377536  1
  O2-  O392  1  0.94189139  0.05776615  0.87942570  1
  O2-  O393  1  0.91403074  0.58216035  0.21021398  1
  O2-  O394  1  0.92543277  0.56570099  0.54150200  1
  O2-  O395  1  0.92196840  0.58379255  0.90025733  1
  O2-  O396  1  0.07790206  0.41925937  0.11023879  1
  O2-  O397  1  0.08054864  0.41631753  0.45162313  1
  O2-  O398  1  0.08484678  0.41528743  0.75880045  1
  O2-  O399  1  0.07617207  0.91549633  0.12369652  1
  O2-  O400  1  0.07657201  0.91622188  0.42658574  1
  O2-  O401  1  0.10086568  0.91816958  0.76915968  1
  O2-  O402  1  0.42130590  0.42384573  0.11512351  1
  O2-  O403  1  0.41927480  0.41751302  0.44957398  1
  O2-  O404  1  0.40854420  0.41940389  0.77666006  1
  O2-  O405  1  0.41201413  0.91928319  0.11227339  1
  O2-  O406  1  0.41095701  0.91566382  0.43661969  1
  O2-  O407  1  0.39293182  0.91693351  0.77621778  1
  O2-  O408  1  0.74147471  0.42026027  0.12154666  1
  O2-  O409  1  0.74907079  0.41691134  0.43951817  1
  O2-  O410  1  0.75730969  0.41843451  0.78017056  1
  O2-  O411  1  0.75835809  0.91949168  0.12880932  1
  O2-  O412  1  0.74846587  0.91904350  0.44946580  1
  O2-  O413  1  0.74244303  0.92209248  0.77496355  1
  O2-  O414  1  0.26124389  0.42207842  0.21874759  1
  O2-  O415  1  0.25914140  0.42034332  0.56776650  1
  O2-  O416  1  0.26524469  0.41854127  0.89428630  1
  O2-  O417  1  0.22817419  0.92464711  0.22685275  1
  O2-  O418  1  0.25279865  0.91731592  0.56765787  1
  O2-  O419  1  0.25345239  0.91654026  0.88279605  1
  O2-  O420  1  0.58325885  0.42298398  0.21181818  1
  O2-  O421  1  0.58518622  0.41798386  0.55767317  1
  O2-  O422  1  0.59487121  0.40741912  0.88328637  1
  O2-  O423  1  0.58832993  0.91641606  0.22305715  1
  O2-  O424  1  0.58686392  0.91387696  0.57662059  1
  O2-  O425  1  0.59167095  0.91823599  0.88332875  1
  O2-  O426  1  0.90307909  0.42213719  0.21874567  1
  O2-  O427  1  0.90880519  0.41656186  0.56408110  1
  O2-  O428  1  0.89872627  0.42250904  0.87427336  1
  O2-  O429  1  0.93280455  0.92238673  0.21121727  1
  O2-  O430  1  0.92095542  0.92083651  0.54945687  1
  O2-  O431  1  0.89814942  0.92193045  0.88652060  1
  O2-  O432  1  -0.01244637  0.01391707  0.03056160  1
  O2-  O433  1  -0.00088983  0.00693178  0.32917292  1
  O2-  O434  1  -0.01292681  -0.00197161  0.70014742  1
  O2-  O435  1  -0.01741940  0.49310052  0.03361747  1
  O2-  O436  1  0.00937983  0.51290784  0.31855821  1
  O2-  O437  1  -0.01036824  0.48950817  0.67011567  1
  O2-  O438  1  0.33567762  0.00053006  -0.00749106  1
  O2-  O439  1  0.35918608  -0.00556448  0.30997906  1
  O2-  O440  1  0.34215622  0.00289532  0.64584488  1
  O2-  O441  1  0.34050625  0.49832549  -0.00551442  1
  O2-  O442  1  0.33660192  0.51353698  0.32749373  1
  O2-  O443  1  0.33597532  0.50864272  0.66414708  1
  O2-  O444  1  0.66343763  0.00072945  0.00881138  1
  O2-  O445  1  0.69472219  0.00430987  0.29226133  1
  O2-  O446  1  0.65704662  0.00810399  0.68857531  1
  O2-  O447  1  0.67674217  0.48271029  -0.01710994  1
  O2-  O448  1  0.66820391  0.49393630  0.33038400  1
  O2-  O449  1  0.65955618  0.50613485  0.66336412  1
  O2-  O450  1  0.16124063  0.02407047  -0.00136484  1
  O2-  O451  1  0.14349260  0.01152985  0.29625701  1
  O2-  O452  1  0.16095975  0.00186246  0.64675375  1
  O2-  O453  1  0.18683303  0.49402263  0.02635332  1
  O2-  O454  1  0.17059921  0.51652990  0.33731443  1
  O2-  O455  1  0.13714780  0.50382051  0.61007230  1
  O2-  O456  1  0.50295050  0.00414595  0.00455349  1
  O2-  O457  1  0.49353989  0.00759275  0.30196806  1
  O2-  O458  1  0.50216957  -0.00932910  0.69162979  1
  O2-  O459  1  0.51128831  0.47640949  -0.00745891  1
  O2-  O460  1  0.50012400  0.48655688  0.33450578  1
  O2-  O461  1  0.49951150  0.49734815  0.67496090  1
  O2-  O462  1  0.83456939  -0.01906417  0.00806282  1
  O2-  O463  1  0.84727107  0.00232464  0.37182774  1
  O2-  O464  1  0.83700288  -0.00313673  0.68045217  1
  O2-  O465  1  0.83273406  0.49893904  0.00404616  1
  O2-  O466  1  0.82399595  0.50723313  0.31797251  1
  O2-  O467  1  0.82616922  0.50131873  0.65106294  1
  O2-  O468  1  0.24937328  0.25514107  0.26031564  1
  O2-  O469  1  0.09070700  0.25167805  0.06103429  1
  O2-  O470  1  0.75428953  0.75336051  0.74054867  1
  O2-  O471  1  0.25212774  0.24886599  0.95400620  1
  O2-  O472  1  0.58078640  0.24572619  0.95008586  1
  O2-  O473  1  0.07909460  0.75101283  0.73519274  1
  O2-  O474  1  0.41750115  0.24419334  0.39137755  1
  O2-  O475  1  0.92049536  0.75835642  0.60490348  1
  O2-  O476  1  0.58114037  0.24944053  0.59021310  1
  O2-  O477  1  0.41457376  0.75751869  0.06761438  1
  O2-  O478  1  0.75054952  0.24787431  0.40516207  1
  O2-  O479  1  0.91346937  0.75329340  0.93832921  1
  O2-  O480  1  0.07056971  0.24953859  0.73572023  1
  O2-  O481  1  0.42960933  0.74996787  0.38944835  1
  O2-  O482  1  0.91356439  0.24696962  0.61050496  1
  O2-  O483  1  0.74347225  0.24750881  0.05475780  1
  O2-  O484  1  0.08238247  0.75226952  0.05288840  1
  O2-  O485  1  0.57553575  0.75180659  0.26518068  1
  O2-  O486  1  0.24022955  0.75141832  0.94048296  1
  O2-  O487  1  0.59449369  0.74928882  0.94461078  1
  O2-  O488  1  0.40681430  0.24724492  0.05736869  1
  O2-  O489  1  0.07537288  0.75003690  0.39361263  1
  O2-  O490  1  0.92345309  0.25678349  0.93675397  1
  O2-  O491  1  0.74549091  0.75096226  0.04561478  1
  O2-  O492  1  0.07959428  0.24862603  0.39660550  1
