# generated using pymatgen
data_Ca108Mn108O277
_symmetry_space_group_name_H-M   'P 1'
_cell_length_a   16.02970094
_cell_length_b   22.30794637
_cell_length_c   16.39094510
_cell_angle_alpha   89.99572591
_cell_angle_beta   89.99869222
_cell_angle_gamma   89.99974656
_symmetry_Int_Tables_number   1
_chemical_formula_structural   Ca108Mn108O277
_chemical_formula_sum   'Ca108 Mn108 O277'
_cell_volume   5861.23327003
_cell_formula_units_Z   1
loop_
 _symmetry_equiv_pos_site_id
 _symmetry_equiv_pos_as_xyz
  1  'x, y, z'
loop_
 _atom_type_symbol
 _atom_type_oxidation_number
  Ca2+  2.0
  Mn3.34+  3.34
  O2-  -2.0
loop_
 _atom_site_type_symbol
 _atom_site_label
 _atom_site_symmetry_multiplicity
 _atom_site_fract_x
 _atom_site_fract_y
 _atom_site_fract_z
 _atom_site_occupancy
  Ca2+  Ca0  1  0.06219788  0.24960790  0.24063964  1
  Ca2+  Ca1  1  0.08268396  0.25362644  0.58886679  1
  Ca2+  Ca2  1  0.08810653  0.24642769  0.92762448  1
  Ca2+  Ca3  1  0.09784110  0.75006856  0.24198482  1
  Ca2+  Ca4  1  0.09650314  0.75129356  0.57945384  1
  Ca2+  Ca5  1  0.07083613  0.74634641  0.92667972  1
  Ca2+  Ca6  1  0.42462027  0.26862809  0.24688832  1
  Ca2+  Ca7  1  0.39919216  0.23481162  0.59899053  1
  Ca2+  Ca8  1  0.41929028  0.24804083  0.89753034  1
  Ca2+  Ca9  1  0.40543505  0.76379185  0.25400928  1
  Ca2+  Ca10  1  0.41616159  0.73298183  0.59713425  1
  Ca2+  Ca11  1  0.41581282  0.75183804  0.89666152  1
  Ca2+  Ca12  1  0.76494432  0.24039814  0.23880143  1
  Ca2+  Ca13  1  0.76837314  0.24970466  0.58644750  1
  Ca2+  Ca14  1  0.74496286  0.24515734  0.92177594  1
  Ca2+  Ca15  1  0.75000856  0.75853544  0.24547616  1
  Ca2+  Ca16  1  0.73649666  0.75678181  0.58276297  1
  Ca2+  Ca17  1  0.75575770  0.76188592  0.91789446  1
  Ca2+  Ca18  1  0.25210974  0.24867353  0.06928125  1
  Ca2+  Ca19  1  0.25009958  0.24944113  0.44582556  1
  Ca2+  Ca20  1  0.26565223  0.24048737  0.74578506  1
  Ca2+  Ca21  1  0.24223795  0.75518255  0.08335657  1
  Ca2+  Ca22  1  0.25967247  0.74854995  0.41092855  1
  Ca2+  Ca23  1  0.27646478  0.74833879  0.75034452  1
  Ca2+  Ca24  1  0.60074984  0.23702834  0.06964682  1
  Ca2+  Ca25  1  0.58601059  0.25050419  0.41679561  1
  Ca2+  Ca26  1  0.56666585  0.24222997  0.76090484  1
  Ca2+  Ca27  1  0.57640944  0.76279272  0.07409561  1
  Ca2+  Ca28  1  0.56620306  0.75327633  0.42492371  1
  Ca2+  Ca29  1  0.56036772  0.74371549  0.75044781  1
  Ca2+  Ca30  1  0.90681513  0.24250715  0.09243593  1
  Ca2+  Ca31  1  0.90859396  0.24457303  0.43255403  1
  Ca2+  Ca32  1  0.91158272  0.25072468  0.73513557  1
  Ca2+  Ca33  1  0.92940964  0.75592856  0.07180193  1
  Ca2+  Ca34  1  0.92082367  0.75577592  0.41320127  1
  Ca2+  Ca35  1  0.91052982  0.74849229  0.77392077  1
  Ca2+  Ca36  1  0.42302906  0.08247616  0.23718866  1
  Ca2+  Ca37  1  0.57465074  0.58424633  0.42902490  1
  Ca2+  Ca38  1  0.61910505  0.09372483  0.41329716  1
  Ca2+  Ca39  1  0.89179006  0.11039663  0.41402163  1
  Ca2+  Ca40  1  0.91495944  0.59805327  0.75298878  1
  Ca2+  Ca41  1  0.27545014  0.58248985  0.73062978  1
  Ca2+  Ca42  1  0.76700100  0.60378085  0.90621736  1
  Ca2+  Ca43  1  0.55949502  0.59061903  0.73981464  1
  Ca2+  Ca44  1  0.93539817  0.59043113  0.06501414  1
  Ca2+  Ca45  1  0.26105926  0.59274922  0.42154767  1
  Ca2+  Ca46  1  0.08763230  0.10985338  0.58257742  1
  Ca2+  Ca47  1  0.10317751  0.58204866  0.59456267  1
  Ca2+  Ca48  1  0.73811097  0.58483979  0.60107267  1
  Ca2+  Ca49  1  0.75098822  0.58451779  0.60192259  1
  Ca2+  Ca50  1  0.41930557  0.09783063  0.91101233  1
  Ca2+  Ca51  1  0.92206873  0.60192699  0.42711496  1
  Ca2+  Ca52  1  0.56460015  0.58724151  0.42647048  1
  Ca2+  Ca53  1  0.58873132  0.58688651  0.07240550  1
  Ca2+  Ca54  1  0.22272244  0.10177617  0.07364616  1
  Ca2+  Ca55  1  0.06131560  0.10183034  0.24048775  1
  Ca2+  Ca56  1  0.74099126  0.58369564  0.25818150  1
  Ca2+  Ca57  1  0.41538458  0.60132535  0.89781940  1
  Ca2+  Ca58  1  0.25590007  0.10582089  0.46292742  1
  Ca2+  Ca59  1  0.41078761  0.08006873  0.23728562  1
  Ca2+  Ca60  1  0.78138702  0.10581658  0.58651307  1
  Ca2+  Ca61  1  0.59507813  0.08959458  0.75416989  1
  Ca2+  Ca62  1  0.91298799  0.09005486  0.73640397  1
  Ca2+  Ca63  1  0.77421165  0.10113893  0.58260604  1
  Ca2+  Ca64  1  0.92476251  0.59363521  0.05996572  1
  Ca2+  Ca65  1  0.08439534  0.58892949  0.92471095  1
  Ca2+  Ca66  1  0.75445165  0.60523533  0.90435811  1
  Ca2+  Ca67  1  0.42825475  0.09450930  0.91412788  1
  Ca2+  Ca68  1  0.28186710  0.58824670  0.72853646  1
  Ca2+  Ca69  1  0.26165578  0.09075941  0.70847382  1
  Ca2+  Ca70  1  0.89913456  0.09428717  0.10529745  1
  Ca2+  Ca71  1  0.07891976  0.11270580  0.58663682  1
  Ca2+  Ca72  1  0.24447567  0.40243142  0.42242742  1
  Ca2+  Ca73  1  0.58633156  0.40851696  0.74234307  1
  Ca2+  Ca74  1  0.08797046  0.40048636  0.91993557  1
  Ca2+  Ca75  1  0.42236153  0.91520680  0.92902434  1
  Ca2+  Ca76  1  0.56229522  0.91699579  0.08752821  1
  Ca2+  Ca77  1  0.93250534  0.39589741  0.08269424  1
  Ca2+  Ca78  1  0.08664493  0.91433476  0.59606350  1
  Ca2+  Ca79  1  0.60315375  0.91192074  0.74490591  1
  Ca2+  Ca80  1  0.07534078  0.90514886  0.91683236  1
  Ca2+  Ca81  1  0.09917232  0.91618717  0.59533475  1
  Ca2+  Ca82  1  0.89400628  0.91436106  0.74367092  1
  Ca2+  Ca83  1  0.40666077  0.41395257  0.58253964  1
  Ca2+  Ca84  1  0.26537113  0.91190324  0.08521593  1
  Ca2+  Ca85  1  0.91434001  0.91196225  0.40507932  1
  Ca2+  Ca86  1  0.75570326  0.39394897  0.24605702  1
  Ca2+  Ca87  1  0.23884525  0.39844296  0.08600356  1
  Ca2+  Ca88  1  0.76438933  0.91817844  0.25740846  1
  Ca2+  Ca89  1  0.24329804  0.41172024  0.74258645  1
  Ca2+  Ca90  1  0.59495555  0.40945257  0.74803479  1
  Ca2+  Ca91  1  0.61236700  0.91498242  0.74763360  1
  Ca2+  Ca92  1  0.25109669  0.89794312  0.41851432  1
  Ca2+  Ca93  1  0.07930547  0.90549324  0.25051147  1
  Ca2+  Ca94  1  0.88238878  0.91676583  0.74699369  1
  Ca2+  Ca95  1  0.76001849  0.40456512  0.58983056  1
  Ca2+  Ca96  1  0.59615013  0.90445226  0.41558264  1
  Ca2+  Ca97  1  0.58743655  0.40024147  0.09220104  1
  Ca2+  Ca98  1  0.25611418  0.40280468  0.42217418  1
  Ca2+  Ca99  1  0.91760032  0.91324118  0.08196460  1
  Ca2+  Ca100  1  0.07930503  0.40138545  0.58743275  1
  Ca2+  Ca101  1  0.58835398  0.40637878  0.41952789  1
  Ca2+  Ca102  1  0.57691071  0.40723616  0.42035971  1
  Ca2+  Ca103  1  0.25322346  0.90939476  0.73861832  1
  Ca2+  Ca104  1  0.57636621  0.39990027  0.09196498  1
  Ca2+  Ca105  1  0.41509687  0.90630424  0.58734374  1
  Ca2+  Ca106  1  0.40986927  0.40459197  0.91436312  1
  Ca2+  Ca107  1  0.75506983  0.91464203  0.25546595  1
  Mn3.34+  Mn108  1  0.08455314  0.33010639  0.08685002  1
  Mn3.34+  Mn109  1  0.07751642  0.33130695  0.41630169  1
  Mn3.34+  Mn110  1  0.07952549  0.33441715  0.75686300  1
  Mn3.34+  Mn111  1  0.08600841  0.83663384  0.08379271  1
  Mn3.34+  Mn112  1  0.08246635  0.83093083  0.41731180  1
  Mn3.34+  Mn113  1  0.08346676  0.83064482  0.75579485  1
  Mn3.34+  Mn114  1  0.41158046  0.32830354  0.08114929  1
  Mn3.34+  Mn115  1  0.41608715  0.33183884  0.41338275  1
  Mn3.34+  Mn116  1  0.41474113  0.33432203  0.74725342  1
  Mn3.34+  Mn117  1  0.41521842  0.83995872  0.08347553  1
  Mn3.34+  Mn118  1  0.41810008  0.83306008  0.41674659  1
  Mn3.34+  Mn119  1  0.41805876  0.83871399  0.75228133  1
  Mn3.34+  Mn120  1  0.75563170  0.32904145  0.07659070  1
  Mn3.34+  Mn121  1  0.75474861  0.32944621  0.41879940  1
  Mn3.34+  Mn122  1  0.75557634  0.33015521  0.75377023  1
  Mn3.34+  Mn123  1  0.74798742  0.84151358  0.08203367  1
  Mn3.34+  Mn124  1  0.75098743  0.83052889  0.42157013  1
  Mn3.34+  Mn125  1  0.74806990  0.82646832  0.75029474  1
  Mn3.34+  Mn126  1  0.24543587  0.33557069  0.24581534  1
  Mn3.34+  Mn127  1  0.24868505  0.33455977  0.58827844  1
  Mn3.34+  Mn128  1  0.25078192  0.33147000  0.91161582  1
  Mn3.34+  Mn129  1  0.25163436  0.83542700  0.24767230  1
  Mn3.34+  Mn130  1  0.25292440  0.83125248  0.57966244  1
  Mn3.34+  Mn131  1  0.24867857  0.83123286  0.91477921  1
  Mn3.34+  Mn132  1  0.58423329  0.33649195  0.24924812  1
  Mn3.34+  Mn133  1  0.58341127  0.33507406  0.58110932  1
  Mn3.34+  Mn134  1  0.58399425  0.33458674  0.91278841  1
  Mn3.34+  Mn135  1  0.58113298  0.83426953  0.24728761  1
  Mn3.34+  Mn136  1  0.58160526  0.83393056  0.58060589  1
  Mn3.34+  Mn137  1  0.58581104  0.83423317  0.91583838  1
  Mn3.34+  Mn138  1  0.91863549  0.33210778  0.25208493  1
  Mn3.34+  Mn139  1  0.91923999  0.33134029  0.58380042  1
  Mn3.34+  Mn140  1  0.91491793  0.33135237  0.91330007  1
  Mn3.34+  Mn141  1  0.91811519  0.83365094  0.24465996  1
  Mn3.34+  Mn142  1  0.91642330  0.82666312  0.57939178  1
  Mn3.34+  Mn143  1  0.91448472  0.83393119  0.91814157  1
  Mn3.34+  Mn144  1  0.90955175  0.16537123  0.25017280  1
  Mn3.34+  Mn145  1  0.08062151  0.17505441  0.41700708  1
  Mn3.34+  Mn146  1  0.08779301  0.66849856  0.75369031  1
  Mn3.34+  Mn147  1  0.59218155  0.16443367  0.24750986  1
  Mn3.34+  Mn148  1  0.25305153  0.66708074  0.57703607  1
  Mn3.34+  Mn149  1  0.58141425  0.16901774  0.24783567  1
  Mn3.34+  Mn150  1  0.24906811  0.66435123  0.24977350  1
  Mn3.34+  Mn151  1  0.92484835  0.16109442  0.91841417  1
  Mn3.34+  Mn152  1  0.91339632  0.66726686  0.24635174  1
  Mn3.34+  Mn153  1  0.41454049  0.66897069  0.07969776  1
  Mn3.34+  Mn154  1  0.24478416  0.17162273  0.24894803  1
  Mn3.34+  Mn155  1  0.24710081  0.17054808  0.91241010  1
  Mn3.34+  Mn156  1  0.57931431  0.66754907  0.58385568  1
  Mn3.34+  Mn157  1  0.75029965  0.16463543  0.75578069  1
  Mn3.34+  Mn158  1  0.75147514  0.67138926  0.42019917  1
  Mn3.34+  Mn159  1  0.58277006  0.16824213  0.58426859  1
  Mn3.34+  Mn160  1  0.40379005  0.66433827  0.08244927  1
  Mn3.34+  Mn161  1  0.41763544  0.16575548  0.07866231  1
  Mn3.34+  Mn162  1  0.41177836  0.66539344  0.41512665  1
  Mn3.34+  Mn163  1  0.58127265  0.66910659  0.91118012  1
  Mn3.34+  Mn164  1  0.91148306  0.16491474  0.91679588  1
  Mn3.34+  Mn165  1  0.74596784  0.67632900  0.74900852  1
  Mn3.34+  Mn166  1  0.59050628  0.16551644  0.91774394  1
  Mn3.34+  Mn167  1  0.91656267  0.67259538  0.57854609  1
  Mn3.34+  Mn168  1  0.58663298  0.66604320  0.24642840  1
  Mn3.34+  Mn169  1  0.74888541  0.67258807  0.08404308  1
  Mn3.34+  Mn170  1  0.25022370  0.66576205  0.91427407  1
  Mn3.34+  Mn171  1  0.57599902  0.66087212  0.24462236  1
  Mn3.34+  Mn172  1  0.09415192  0.66609807  0.08367086  1
  Mn3.34+  Mn173  1  0.41757351  0.16865079  0.41720406  1
  Mn3.34+  Mn174  1  0.25564775  0.17755513  0.25017594  1
  Mn3.34+  Mn175  1  0.92763920  0.66064717  0.24650900  1
  Mn3.34+  Mn176  1  0.08835785  0.16547289  0.76052331  1
  Mn3.34+  Mn177  1  0.07907266  0.67463033  0.75244344  1
  Mn3.34+  Mn178  1  0.08666315  0.66644588  0.42144784  1
  Mn3.34+  Mn179  1  0.57296217  0.16305745  0.58221122  1
  Mn3.34+  Mn180  1  0.09105600  0.50150906  0.08195023  1
  Mn3.34+  Mn181  1  0.09071327  -0.00106020  0.41007411  1
  Mn3.34+  Mn182  1  0.07766139  -0.00134831  0.07644249  1
  Mn3.34+  Mn183  1  0.75821380  0.49690592  0.08920318  1
  Mn3.34+  Mn184  1  0.41169879  0.00000373  0.41731045  1
  Mn3.34+  Mn185  1  0.42170706  0.49359010  0.73523238  1
  Mn3.34+  Mn186  1  0.24627327  0.49945500  0.91843955  1
  Mn3.34+  Mn187  1  0.91792316  0.49334175  0.91192327  1
  Mn3.34+  Mn188  1  0.57870089  0.50286617  0.92099693  1
  Mn3.34+  Mn189  1  0.74752801  0.50202456  0.09124413  1
  Mn3.34+  Mn190  1  0.75664338  -0.00425088  0.41533157  1
  Mn3.34+  Mn191  1  0.59263704  -0.00198197  0.58751664  1
  Mn3.34+  Mn192  1  0.24438800  -0.00027649  0.90955299  1
  Mn3.34+  Mn193  1  0.23434126  0.00467616  0.91227709  1
  Mn3.34+  Mn194  1  0.08548903  0.00002888  0.75254032  1
  Mn3.34+  Mn195  1  0.40756457  0.49747510  0.09749897  1
  Mn3.34+  Mn196  1  0.75717884  0.49797154  0.75226171  1
  Mn3.34+  Mn197  1  0.77293783  0.49528482  0.40966445  1
  Mn3.34+  Mn198  1  0.91044073  0.00247660  0.92398425  1
  Mn3.34+  Mn199  1  0.41142252  0.49883395  0.39191930  1
  Mn3.34+  Mn200  1  0.92835978  0.49711755  0.24586483  1
  Mn3.34+  Mn201  1  0.08071130  0.50497631  0.40849019  1
  Mn3.34+  Mn202  1  0.92106317  0.49878724  0.58397933  1
  Mn3.34+  Mn203  1  0.07638908  0.00497104  0.40866747  1
  Mn3.34+  Mn204  1  0.74607014  0.00424832  0.07058581  1
  Mn3.34+  Mn205  1  0.07710028  0.50099328  0.74974055  1
  Mn3.34+  Mn206  1  0.24939942  0.50269888  0.25580397  1
  Mn3.34+  Mn207  1  0.59207405  0.00279326  0.92902041  1
  Mn3.34+  Mn208  1  0.59251854  0.00109634  0.24629335  1
  Mn3.34+  Mn209  1  0.76287798  0.50381359  0.41405731  1
  Mn3.34+  Mn210  1  0.91484365  -0.00515627  0.57985678  1
  Mn3.34+  Mn211  1  0.41211304  -0.00391054  0.73362921  1
  Mn3.34+  Mn212  1  0.06849134  0.49774146  0.40915649  1
  Mn3.34+  Mn213  1  0.42231785  0.00494414  0.41838732  1
  Mn3.34+  Mn214  1  0.39783051  0.50289974  0.09510631  1
  Mn3.34+  Mn215  1  0.24817238  0.00009586  0.24145062  1
  O2-  O216  1  0.00075663  0.16433145  -0.00278529  1
  O2-  O217  1  -0.00006861  0.16931147  0.33582245  1
  O2-  O218  1  0.00632317  0.16130178  0.67760736  1
  O2-  O219  1  0.00840219  0.65851776  0.00234831  1
  O2-  O220  1  -0.00204490  0.66359060  0.34292819  1
  O2-  O221  1  -0.00036949  0.67238256  0.66598812  1
  O2-  O222  1  0.33141432  0.14801440  -0.00189317  1
  O2-  O223  1  0.33708454  0.15321816  0.32758007  1
  O2-  O224  1  0.32942226  0.16736516  0.66855392  1
  O2-  O225  1  0.33332827  0.64361912  -0.00503235  1
  O2-  O226  1  0.32779983  0.65883012  0.33913740  1
  O2-  O227  1  0.32877828  0.65948748  0.66151309  1
  O2-  O228  1  0.67022353  0.16695077  -0.00948988  1
  O2-  O229  1  0.66355367  0.16963620  0.33606222  1
  O2-  O230  1  0.67130855  0.15321491  0.66122604  1
  O2-  O231  1  0.67074994  0.65899195  -0.00314864  1
  O2-  O232  1  0.66467195  0.65028991  0.33853713  1
  O2-  O233  1  0.66854522  0.65885833  0.66432864  1
  O2-  O234  1  0.17280090  0.17785880  -0.00068185  1
  O2-  O235  1  0.16900877  0.17737008  0.33642220  1
  O2-  O236  1  0.16092339  0.17161183  0.67482855  1
  O2-  O237  1  0.16492445  0.65577989  -0.00680126  1
  O2-  O238  1  0.16554028  0.66929305  0.33848777  1
  O2-  O239  1  0.16451959  0.65934090  0.66721318  1
  O2-  O240  1  0.50305472  0.15221154  0.00204340  1
  O2-  O241  1  0.50156769  0.14263694  0.32881573  1
  O2-  O242  1  0.50488941  0.14992330  0.66844558  1
  O2-  O243  1  0.49971711  0.64430977  -0.00011290  1
  O2-  O244  1  0.50120765  0.64746880  0.33498740  1
  O2-  O245  1  0.50261593  0.65891887  0.66077563  1
  O2-  O246  1  0.84044847  0.14607467  -0.00242026  1
  O2-  O247  1  0.83462892  0.17912136  0.33571008  1
  O2-  O248  1  0.83567150  0.16316825  0.67652556  1
  O2-  O249  1  0.83175663  0.65333535  0.00629544  1
  O2-  O250  1  0.83140672  0.65119401  0.33114965  1
  O2-  O251  1  0.83112875  0.66871667  0.66390951  1
  O2-  O252  1  0.00785037  0.32666466  -0.00003963  1
  O2-  O253  1  -0.00048142  0.31913384  0.33581120  1
  O2-  O254  1  0.00635911  0.33035287  0.66579470  1
  O2-  O255  1  -0.00083666  0.84682999  0.00049751  1
  O2-  O256  1  -0.00308931  0.84264437  0.33682049  1
  O2-  O257  1  0.00331638  0.83157969  0.66333725  1
  O2-  O258  1  0.32871338  0.35076173  0.00051500  1
  O2-  O259  1  0.32795249  0.33901289  0.33497160  1
  O2-  O260  1  0.33313079  0.35301442  0.66604388  1
  O2-  O261  1  0.33363909  0.85091653  -0.00420810  1
  O2-  O262  1  0.33267151  0.84273406  0.33439330  1
  O2-  O263  1  0.33524494  0.84871922  0.66588631  1
  O2-  O264  1  0.66005371  0.34473237  0.00331272  1
  O2-  O265  1  0.66338857  0.34219509  0.34015702  1
  O2-  O266  1  0.66591350  0.34723201  0.66105760  1
  O2-  O267  1  0.66927919  0.82724129  -0.00090553  1
  O2-  O268  1  0.67738013  0.84059195  0.32596570  1
  O2-  O269  1  0.66801490  0.83534491  0.66566054  1
  O2-  O270  1  0.16892485  0.33057408  0.00000072  1
  O2-  O271  1  0.17255296  0.32607524  0.34280086  1
  O2-  O272  1  0.16444392  0.34147110  0.66781038  1
  O2-  O273  1  0.16867175  0.85011949  0.00169998  1
  O2-  O274  1  0.16260299  0.84124182  0.33328143  1
  O2-  O275  1  0.16221121  0.84142929  0.66530024  1
  O2-  O276  1  0.49887708  0.35338489  -0.00202341  1
  O2-  O277  1  0.49966559  0.35258955  0.33202683  1
  O2-  O278  1  0.49984100  0.35677201  0.66385400  1
  O2-  O279  1  0.50535868  0.84986199  0.00187002  1
  O2-  O280  1  0.50923947  0.84608589  0.34272402  1
  O2-  O281  1  0.50757756  0.85898500  0.67582684  1
  O2-  O282  1  0.83886173  0.34959137  0.00186108  1
  O2-  O283  1  0.82609880  0.32972498  0.32876716  1
  O2-  O284  1  0.83290982  0.33989564  0.66560414  1
  O2-  O285  1  0.83677232  0.83935468  0.00691724  1
  O2-  O286  1  0.83236900  0.83883925  0.33304349  1
  O2-  O287  1  0.83912844  0.81915877  0.67209983  1
  O2-  O288  1  -0.00405354  0.17520537  0.16983525  1
  O2-  O289  1  0.00540808  0.17876071  0.49973363  1
  O2-  O290  1  -0.00016505  0.18620648  0.83566993  1
  O2-  O291  1  0.00164890  0.68210376  0.16044556  1
  O2-  O292  1  0.00077388  0.68905360  0.50027358  1
  O2-  O293  1  -0.00109547  0.68206842  0.83197891  1
  O2-  O294  1  0.33252022  0.18792748  0.16523941  1
  O2-  O295  1  0.33944605  0.18332846  0.49221263  1
  O2-  O296  1  0.33814304  0.16619713  0.84209475  1
  O2-  O297  1  0.33700681  0.68758905  0.17026730  1
  O2-  O298  1  0.33337729  0.68041543  0.49669959  1
  O2-  O299  1  0.32745962  0.66953648  0.83116041  1
  O2-  O300  1  0.66566931  0.18278317  0.16853647  1
  O2-  O301  1  0.66386957  0.17858251  0.50619928  1
  O2-  O302  1  0.65881428  0.17700516  0.82536261  1
  O2-  O303  1  0.66621673  0.69066160  0.16341647  1
  O2-  O304  1  0.66663812  0.68368401  0.49875531  1
  O2-  O305  1  0.66747474  0.68768292  0.83436109  1
  O2-  O306  1  0.16624659  0.18504209  0.17018564  1
  O2-  O307  1  0.15984337  0.18202766  0.50084459  1
  O2-  O308  1  0.16941960  0.19333347  0.83354292  1
  O2-  O309  1  0.17203631  0.68341304  0.16507716  1
  O2-  O310  1  0.16830775  0.68604959  0.49876357  1
  O2-  O311  1  0.16665560  0.68698765  0.83374384  1
  O2-  O312  1  0.49144093  0.18001010  0.17504437  1
  O2-  O313  1  0.50910775  0.17830763  0.48714191  1
  O2-  O314  1  0.49879969  0.17018707  0.84394062  1
  O2-  O315  1  0.50355200  0.68438095  0.15533218  1
  O2-  O316  1  0.50608966  0.67110926  0.49227889  1
  O2-  O317  1  0.50016364  0.67060352  0.83626059  1
  O2-  O318  1  0.83694655  0.17148238  0.16799469  1
  O2-  O319  1  0.82394597  0.17413816  0.50564624  1
  O2-  O320  1  0.83432421  0.18006259  0.83701830  1
  O2-  O321  1  0.83285701  0.69114251  0.16204221  1
  O2-  O322  1  0.83631294  0.69269129  0.49702479  1
  O2-  O323  1  0.82195706  0.68320215  0.83306658  1
  O2-  O324  1  -0.00431114  0.31968025  0.15922171  1
  O2-  O325  1  0.00561529  0.31828558  0.50397392  1
  O2-  O326  1  0.00059055  0.31059808  0.83567134  1
  O2-  O327  1  0.00152235  0.82125711  0.16717829  1
  O2-  O328  1  0.00294586  0.80986214  0.49980890  1
  O2-  O329  1  -0.00024467  0.81649276  0.83429645  1
  O2-  O330  1  0.32770861  0.31292226  0.16336809  1
  O2-  O331  1  0.33142405  0.32818632  0.49761105  1
  O2-  O332  1  0.33398783  0.32910204  0.83097447  1
  O2-  O333  1  0.32866483  0.82204888  0.15868277  1
  O2-  O334  1  0.33063807  0.82185752  0.49639336  1
  O2-  O335  1  0.33245812  0.82535047  0.83055701  1
  O2-  O336  1  0.66527126  0.32165218  0.16544459  1
  O2-  O337  1  0.66495548  0.31414014  0.49673237  1
  O2-  O338  1  0.65625998  0.32486225  0.82130308  1
  O2-  O339  1  0.66750036  0.81558008  0.16246063  1
  O2-  O340  1  0.65929655  0.81458494  0.49039371  1
  O2-  O341  1  0.66122634  0.81475836  0.82489475  1
  O2-  O342  1  0.16678810  0.30904840  0.16529671  1
  O2-  O343  1  0.16643868  0.32131267  0.50159623  1
  O2-  O344  1  0.16597659  0.31712633  0.83485540  1
  O2-  O345  1  0.16570755  0.82190629  0.16740003  1
  O2-  O346  1  0.16765835  0.81480480  0.49504141  1
  O2-  O347  1  0.16485968  0.80973913  0.83294825  1
  O2-  O348  1  0.50744437  0.32385293  0.15755976  1
  O2-  O349  1  0.50465346  0.33110928  0.49160702  1
  O2-  O350  1  0.49991478  0.32488629  0.82880307  1
  O2-  O351  1  0.49939146  0.82159080  0.16501298  1
  O2-  O352  1  0.49163603  0.82213049  0.50903990  1
  O2-  O353  1  0.50103436  0.82987023  0.83277127  1
  O2-  O354  1  0.83074469  0.32418672  0.16345500  1
  O2-  O355  1  0.83071279  0.32105738  0.50354880  1
  O2-  O356  1  0.83064692  0.31573772  0.83524788  1
  O2-  O357  1  0.82895502  0.81923715  0.16757909  1
  O2-  O358  1  0.83339785  0.81077552  0.49981251  1
  O2-  O359  1  0.83292446  0.82143771  0.83085266  1
  O2-  O360  1  0.09540060  0.06896845  0.12018550  1
  O2-  O361  1  0.08627431  0.08379027  0.44427495  1
  O2-  O362  1  0.09588914  0.08014589  0.75960567  1
  O2-  O363  1  0.06975974  0.58256779  0.11085329  1
  O2-  O364  1  0.07036388  0.57895256  0.46424861  1
  O2-  O365  1  0.06051626  0.58214949  0.78471320  1
  O2-  O366  1  0.40809307  0.08449714  0.10635295  1
  O2-  O367  1  0.40611742  0.08497568  0.45105861  1
  O2-  O368  1  0.41221203  0.06484256  0.78181192  1
  O2-  O369  1  0.41922243  0.58409811  0.12294006  1
  O2-  O370  1  0.41910939  0.57841718  0.43625256  1
  O2-  O371  1  0.41381839  0.57020587  0.77138621  1
  O2-  O372  1  0.75750174  0.06451548  0.12926254  1
  O2-  O373  1  0.75180472  0.07126590  0.45502698  1
  O2-  O374  1  0.75340563  0.08447722  0.75430815  1
  O2-  O375  1  0.75019864  0.58321045  0.12273298  1
  O2-  O376  1  0.77054112  0.57984143  0.46428812  1
  O2-  O377  1  0.76884613  0.58209001  0.77199214  1
  O2-  O378  1  0.26741863  0.08414740  0.21255749  1
  O2-  O379  1  0.20368735  0.06985206  0.57254903  1
  O2-  O380  1  0.23517033  0.08552362  0.88525544  1
  O2-  O381  1  0.25610779  0.58201052  0.23165047  1
  O2-  O382  1  0.23974433  0.58559892  0.56016588  1
  O2-  O383  1  0.24091736  0.57799853  0.87142641  1
  O2-  O384  1  0.56469338  0.08268050  0.21378686  1
  O2-  O385  1  0.58956714  0.07885317  0.55047515  1
  O2-  O386  1  0.57826189  0.08001025  0.88955633  1
  O2-  O387  1  0.59511846  0.58111834  0.21102686  1
  O2-  O388  1  0.60664658  0.58155657  0.55669255  1
  O2-  O389  1  0.60892170  0.58393725  0.88238885  1
  O2-  O390  1  0.92444673  0.08459927  0.24522973  1
  O2-  O391  1  0.91534191  0.07552935  0.55514818  1
  O2-  O392  1  0.93058575  0.08191518  0.87471328  1
  O2-  O393  1  0.90634239  0.58068688  0.19911322  1
  O2-  O394  1  0.90303672  0.58207717  0.55948952  1
  O2-  O395  1  0.90156701  0.57446471  0.88456914  1
  O2-  O396  1  0.08813711  0.41896099  0.09509745  1
  O2-  O397  1  0.10066175  0.42071058  0.44738203  1
  O2-  O398  1  0.09399040  0.42267864  0.77733240  1
  O2-  O399  1  0.07520906  0.92147575  0.11715062  1
  O2-  O400  1  0.08368509  0.92163414  0.45950756  1
  O2-  O401  1  0.06427997  0.91921678  0.77760882  1
  O2-  O402  1  0.41573972  0.41470848  0.11455656  1
  O2-  O403  1  0.40418698  0.42047231  0.44037304  1
  O2-  O404  1  0.42398379  0.41985674  0.77986216  1
  O2-  O405  1  0.41671443  0.91913996  0.10031778  1
  O2-  O406  1  0.41098668  0.91924382  0.44969033  1
  O2-  O407  1  0.41175706  0.92684955  0.78810307  1
  O2-  O408  1  0.73766662  0.41538282  0.10832970  1
  O2-  O409  1  0.73586974  0.41979636  0.44530925  1
  O2-  O410  1  0.73491894  0.41756706  0.76183682  1
  O2-  O411  1  0.75750894  0.92991643  0.12111806  1
  O2-  O412  1  0.75287436  0.91755737  0.44262995  1
  O2-  O413  1  0.75081380  0.91424261  0.76649613  1
  O2-  O414  1  0.25286699  0.42454584  0.21775871  1
  O2-  O415  1  0.24366992  0.41978785  0.55414612  1
  O2-  O416  1  0.24334644  0.41791701  0.88941389  1
  O2-  O417  1  0.23580991  0.91774916  0.22266282  1
  O2-  O418  1  0.23316367  0.91322274  0.55372218  1
  O2-  O419  1  0.22892124  0.91957718  0.87568483  1
  O2-  O420  1  0.60033599  0.42018896  0.22574802  1
  O2-  O421  1  0.59232716  0.41856206  0.55383417  1
  O2-  O422  1  0.57387786  0.42108873  0.88246151  1
  O2-  O423  1  0.61470935  0.91863266  0.21854119  1
  O2-  O424  1  0.58255474  0.91906370  0.55101834  1
  O2-  O425  1  0.59153565  0.92385934  0.88306906  1
  O2-  O426  1  0.90563233  0.41512996  0.22067844  1
  O2-  O427  1  0.92579762  0.41831255  0.56207357  1
  O2-  O428  1  0.94460668  0.41383277  0.91053252  1
  O2-  O429  1  0.90192854  0.91374783  0.22240405  1
  O2-  O430  1  0.94142990  0.91491914  0.55585845  1
  O2-  O431  1  0.91696192  0.92058734  0.87724438  1
  O2-  O432  1  0.00718399  -0.01833429  -0.00540205  1
  O2-  O433  1  0.00198429  -0.02256618  0.33101344  1
  O2-  O434  1  0.00573085  -0.00480258  0.66274032  1
  O2-  O435  1  -0.00984395  0.51312214  0.00736733  1
  O2-  O436  1  -0.02543282  0.52275550  0.35033913  1
  O2-  O437  1  0.01423467  0.51367267  0.65102772  1
  O2-  O438  1  0.33868536  0.00231605  -0.02497397  1
  O2-  O439  1  0.33727371  0.01104879  0.32498085  1
  O2-  O440  1  0.32784544  -0.00964128  0.67354904  1
  O2-  O441  1  0.34420190  0.49628372  -0.01178639  1
  O2-  O442  1  0.29658537  0.49631148  0.37437764  1
  O2-  O443  1  0.32579491  0.49201408  0.68199987  1
  O2-  O444  1  0.64660578  -0.01346278  0.02721237  1
  O2-  O445  1  0.66389477  -0.00538752  0.34626193  1
  O2-  O446  1  0.65443880  -0.00347108  0.68233228  1
  O2-  O447  1  0.66443188  0.50755905  0.00933396  1
  O2-  O448  1  0.66621814  0.52475781  0.35405033  1
  O2-  O449  1  0.67061231  0.51535067  0.68537553  1
  O2-  O450  1  0.17885240  -0.00717289  0.01808289  1
  O2-  O451  1  0.16447842  0.00418312  0.32272571  1
  O2-  O452  1  0.16537362  -0.02181894  0.68288634  1
  O2-  O453  1  0.14759257  0.50035604  -0.02341577  1
  O2-  O454  1  0.15134104  0.49704095  0.31916388  1
  O2-  O455  1  0.17676772  0.51968753  0.70148738  1
  O2-  O456  1  0.48866517  0.00326928  -0.03967963  1
  O2-  O457  1  0.49855492  0.00580678  0.32759519  1
  O2-  O458  1  0.49893293  -0.01410099  0.66783433  1
  O2-  O459  1  0.50996012  0.49954147  0.03074147  1
  O2-  O460  1  0.52689802  0.49484877  0.39391407  1
  O2-  O461  1  0.52316290  0.49239930  0.69498902  1
  O2-  O462  1  0.84692869  -0.00039026  0.02677626  1
  O2-  O463  1  0.83157696  -0.01581776  0.33646790  1
  O2-  O464  1  0.84543597  -0.00359574  0.67127082  1
  O2-  O465  1  0.83004105  0.51597490  -0.00097717  1
  O2-  O466  1  0.81860000  0.50505217  0.30483744  1
  O2-  O467  1  0.82358100  0.50424236  0.65058332  1
  O2-  O468  1  0.57504639  0.75064071  0.60627459  1
  O2-  O469  1  0.26495923  0.74734591  0.94311898  1
  O2-  O470  1  0.56684449  0.25156896  0.61114728  1
  O2-  O471  1  0.25285891  0.75245095  0.26993373  1
  O2-  O472  1  0.91588168  0.25322343  0.59649658  1
  O2-  O473  1  0.91489736  0.75542487  0.93619426  1
  O2-  O474  1  0.57539117  0.74607914  0.27963168  1
  O2-  O475  1  0.56933353  0.25180265  0.27640084  1
  O2-  O476  1  0.41722434  0.25563867  0.73348142  1
  O2-  O477  1  0.75517598  0.25186602  0.06091823  1
  O2-  O478  1  0.90040604  0.24704558  0.94446103  1
  O2-  O479  1  0.42804956  0.24945851  0.38585358  1
  O2-  O480  1  0.27540486  0.25166957  0.93150803  1
  O2-  O481  1  0.42019651  0.75902072  0.73383065  1
  O2-  O482  1  0.57895133  0.25221092  0.93200971  1
  O2-  O483  1  0.42164864  0.74850604  0.39241204  1
  O2-  O484  1  0.91332275  0.25164316  0.24995415  1
  O2-  O485  1  0.74553112  0.25036834  0.72794562  1
  O2-  O486  1  0.25380513  0.75038000  0.60984671  1
  O2-  O487  1  0.41760604  0.75045829  0.04890400  1
  O2-  O488  1  0.56441860  0.74915581  0.93707006  1
  O2-  O489  1  0.25728319  0.25607454  0.60198189  1
  O2-  O490  1  0.91863921  0.74947625  0.27361263  1
  O2-  O491  1  0.41957740  0.24880703  0.04879654  1
  O2-  O492  1  0.08751457  0.75171552  0.06247082  1
