# generated using pymatgen
data_Ca108Mn108O277
_symmetry_space_group_name_H-M   'P 1'
_cell_length_a   16.02807338
_cell_length_b   22.30662174
_cell_length_c   16.38824761
_cell_angle_alpha   89.99699753
_cell_angle_beta   90.00087366
_cell_angle_gamma   90.00505078
_symmetry_Int_Tables_number   1
_chemical_formula_structural   Ca108Mn108O277
_chemical_formula_sum   'Ca108 Mn108 O277'
_cell_volume   5859.32569743
_cell_formula_units_Z   1
loop_
 _symmetry_equiv_pos_site_id
 _symmetry_equiv_pos_as_xyz
  1  'x, y, z'
loop_
 _atom_type_symbol
 _atom_type_oxidation_number
  Ca2+  2.0
  Mn3.34+  3.34
  O2-  -2.0
loop_
 _atom_site_type_symbol
 _atom_site_label
 _atom_site_symmetry_multiplicity
 _atom_site_fract_x
 _atom_site_fract_y
 _atom_site_fract_z
 _atom_site_occupancy
  Ca2+  Ca0  1  0.10037051  0.24080184  0.25573004  1
  Ca2+  Ca1  1  0.08392530  0.24669921  0.57942778  1
  Ca2+  Ca2  1  0.07692280  0.24467835  0.92113728  1
  Ca2+  Ca3  1  0.09443835  0.75329263  0.25493006  1
  Ca2+  Ca4  1  0.09106399  0.75218196  0.57578055  1
  Ca2+  Ca5  1  0.08602527  0.75260615  0.91988186  1
  Ca2+  Ca6  1  0.41001392  0.23907565  0.26000307  1
  Ca2+  Ca7  1  0.41427788  0.23222568  0.58990723  1
  Ca2+  Ca8  1  0.41458660  0.25189794  0.91090567  1
  Ca2+  Ca9  1  0.41302769  0.74990514  0.23434827  1
  Ca2+  Ca10  1  0.40007946  0.75027257  0.58197332  1
  Ca2+  Ca11  1  0.40577265  0.74654340  0.93155810  1
  Ca2+  Ca12  1  0.74039680  0.24816565  0.24364301  1
  Ca2+  Ca13  1  0.74726749  0.26591194  0.57498713  1
  Ca2+  Ca14  1  0.75880625  0.25980284  0.92558853  1
  Ca2+  Ca15  1  0.73893756  0.76112526  0.24363416  1
  Ca2+  Ca16  1  0.75675536  0.75144393  0.58401887  1
  Ca2+  Ca17  1  0.75716435  0.74552325  0.91649903  1
  Ca2+  Ca18  1  0.24781340  0.24359271  0.10826616  1
  Ca2+  Ca19  1  0.25229250  0.23955524  0.40567466  1
  Ca2+  Ca20  1  0.26910896  0.23819159  0.74800806  1
  Ca2+  Ca21  1  0.25821005  0.75631248  0.08195387  1
  Ca2+  Ca22  1  0.24697272  0.75223022  0.41486103  1
  Ca2+  Ca23  1  0.25446517  0.74632347  0.74865394  1
  Ca2+  Ca24  1  0.58026197  0.24166636  0.11856704  1
  Ca2+  Ca25  1  0.56619562  0.24514574  0.40267383  1
  Ca2+  Ca26  1  0.56132077  0.25326329  0.73814374  1
  Ca2+  Ca27  1  0.56932214  0.74919745  0.08670590  1
  Ca2+  Ca28  1  0.58404517  0.75929203  0.40867663  1
  Ca2+  Ca29  1  0.57947806  0.74681966  0.75661211  1
  Ca2+  Ca30  1  0.91722677  0.25968368  0.09111361  1
  Ca2+  Ca31  1  0.92930306  0.24707286  0.41847244  1
  Ca2+  Ca32  1  0.93123036  0.25834968  0.74205026  1
  Ca2+  Ca33  1  0.91639992  0.75367208  0.07857478  1
  Ca2+  Ca34  1  0.91757586  0.75815026  0.41814204  1
  Ca2+  Ca35  1  0.91202959  0.74945117  0.75585206  1
  Ca2+  Ca36  1  0.55611154  0.09023468  0.40394782  1
  Ca2+  Ca37  1  0.08950554  0.10498042  0.55598045  1
  Ca2+  Ca38  1  0.10826917  0.09589527  0.27730114  1
  Ca2+  Ca39  1  0.77134842  0.59786133  0.59257315  1
  Ca2+  Ca40  1  0.74730821  0.58237336  0.92352794  1
  Ca2+  Ca41  1  0.57877423  0.57753253  0.41235643  1
  Ca2+  Ca42  1  0.54587249  0.09630148  0.74077055  1
  Ca2+  Ca43  1  0.40987212  0.59423131  0.92301926  1
  Ca2+  Ca44  1  0.90976861  0.09666626  0.09169306  1
  Ca2+  Ca45  1  0.60771703  0.56751077  0.06997797  1
  Ca2+  Ca46  1  0.24894038  0.10662622  0.11380499  1
  Ca2+  Ca47  1  0.10075645  0.60116638  0.25305380  1
  Ca2+  Ca48  1  0.77467215  0.08101182  0.58891659  1
  Ca2+  Ca49  1  0.78659109  0.07845287  0.58690307  1
  Ca2+  Ca50  1  0.92142818  0.09658152  0.09048151  1
  Ca2+  Ca51  1  0.26912837  0.61269343  0.09263897  1
  Ca2+  Ca52  1  0.89358667  0.61044656  0.74718661  1
  Ca2+  Ca53  1  0.93348023  0.60351892  0.42854797  1
  Ca2+  Ca54  1  0.89859206  0.57476586  0.06509242  1
  Ca2+  Ca55  1  0.26570252  0.09767636  0.74383525  1
  Ca2+  Ca56  1  0.24016696  0.61158764  0.41420514  1
  Ca2+  Ca57  1  0.74959345  0.07862153  0.93690324  1
  Ca2+  Ca58  1  0.71787632  0.08966040  0.23150925  1
  Ca2+  Ca59  1  0.92056588  0.60271684  0.42828846  1
  Ca2+  Ca60  1  0.42400597  0.58272802  0.58875600  1
  Ca2+  Ca61  1  0.38584470  0.09617388  0.91230603  1
  Ca2+  Ca62  1  0.07621349  0.61181795  0.57747294  1
  Ca2+  Ca63  1  0.58599833  0.58112531  0.74301570  1
  Ca2+  Ca64  1  0.09035944  0.59237476  0.91910427  1
  Ca2+  Ca65  1  0.07766526  0.59167796  0.92054407  1
  Ca2+  Ca66  1  0.76241127  0.07843947  0.93597595  1
  Ca2+  Ca67  1  0.24425808  0.09634277  0.40110487  1
  Ca2+  Ca68  1  0.73902826  0.57508767  0.24677794  1
  Ca2+  Ca69  1  0.96381316  0.09260621  0.41497158  1
  Ca2+  Ca70  1  0.40359437  0.09692659  0.26138445  1
  Ca2+  Ca71  1  0.39643418  0.09427196  0.91436071  1
  Ca2+  Ca72  1  0.57800564  0.90410967  0.74904157  1
  Ca2+  Ca73  1  0.25672312  0.39982144  0.40939825  1
  Ca2+  Ca74  1  0.91990070  0.90833168  0.71571708  1
  Ca2+  Ca75  1  0.43031282  0.40798237  0.58098843  1
  Ca2+  Ca76  1  0.07983563  0.40777738  0.92962102  1
  Ca2+  Ca77  1  0.59013822  0.41241112  0.08810856  1
  Ca2+  Ca78  1  0.93370885  0.92135609  0.42560354  1
  Ca2+  Ca79  1  0.58501113  0.90616581  0.08582537  1
  Ca2+  Ca80  1  0.74531550  0.42958792  0.94610888  1
  Ca2+  Ca81  1  0.26046949  0.40427328  0.75395493  1
  Ca2+  Ca82  1  0.08592832  0.39710173  0.24362165  1
  Ca2+  Ca83  1  0.75491844  0.91141629  0.92756280  1
  Ca2+  Ca84  1  0.41277227  0.89584126  0.57398797  1
  Ca2+  Ca85  1  0.06831101  0.40940724  0.92933457  1
  Ca2+  Ca86  1  0.75194321  0.91303500  0.24464769  1
  Ca2+  Ca87  1  0.73419856  0.42911501  0.94549128  1
  Ca2+  Ca88  1  0.56853480  0.91068728  0.40725074  1
  Ca2+  Ca89  1  0.06534630  0.40065684  0.57776329  1
  Ca2+  Ca90  1  0.43722165  0.41190267  0.91649605  1
  Ca2+  Ca91  1  0.58254462  0.41118064  0.41534646  1
  Ca2+  Ca92  1  0.10440907  0.90467127  0.91959274  1
  Ca2+  Ca93  1  0.74355126  0.91187745  0.92692613  1
  Ca2+  Ca94  1  0.91173167  0.90459906  0.08867073  1
  Ca2+  Ca95  1  0.24781643  0.40504887  0.75450505  1
  Ca2+  Ca96  1  0.24656131  0.39749087  0.09089968  1
  Ca2+  Ca97  1  0.58589097  0.41364698  0.42445889  1
  Ca2+  Ca98  1  0.42501931  0.41355104  0.91869471  1
  Ca2+  Ca99  1  0.25208124  0.89954308  0.74596070  1
  Ca2+  Ca100  1  0.59057554  0.90461693  0.74849579  1
  Ca2+  Ca101  1  0.91179550  0.40186441  0.42065649  1
  Ca2+  Ca102  1  0.39700807  0.91052121  0.92191596  1
  Ca2+  Ca103  1  0.58608887  0.41610319  0.73284608  1
  Ca2+  Ca104  1  0.76606997  0.90375172  0.58186544  1
  Ca2+  Ca105  1  0.74367338  0.41181644  0.24144792  1
  Ca2+  Ca106  1  0.75372719  0.41315125  0.23891444  1
  Ca2+  Ca107  1  0.11581378  0.90839468  0.91702608  1
  Mn3.34+  Mn108  1  0.07849192  0.33124697  0.08908039  1
  Mn3.34+  Mn109  1  0.08638692  0.32762606  0.41718242  1
  Mn3.34+  Mn110  1  0.08143038  0.33101794  0.74923490  1
  Mn3.34+  Mn111  1  0.08816251  0.83034698  0.09387431  1
  Mn3.34+  Mn112  1  0.09029294  0.84009605  0.41370898  1
  Mn3.34+  Mn113  1  0.08270907  0.83072286  0.74598238  1
  Mn3.34+  Mn114  1  0.41926028  0.32970159  0.08666855  1
  Mn3.34+  Mn115  1  0.41546773  0.33266247  0.41689407  1
  Mn3.34+  Mn116  1  0.41747429  0.33141589  0.74647989  1
  Mn3.34+  Mn117  1  0.41309762  0.83268511  0.08749117  1
  Mn3.34+  Mn118  1  0.40197584  0.84778905  0.40584488  1
  Mn3.34+  Mn119  1  0.41578486  0.82902944  0.75008420  1
  Mn3.34+  Mn120  1  0.75140055  0.33422028  0.08439671  1
  Mn3.34+  Mn121  1  0.75155388  0.33460657  0.41633272  1
  Mn3.34+  Mn122  1  0.75216185  0.33561015  0.75282454  1
  Mn3.34+  Mn123  1  0.74972746  0.83298853  0.08720230  1
  Mn3.34+  Mn124  1  0.75080994  0.83250370  0.41518402  1
  Mn3.34+  Mn125  1  0.75197593  0.82813378  0.75195927  1
  Mn3.34+  Mn126  1  0.25583298  0.33191825  0.25021170  1
  Mn3.34+  Mn127  1  0.25012430  0.33016594  0.57742925  1
  Mn3.34+  Mn128  1  0.25102361  0.32756008  0.91819492  1
  Mn3.34+  Mn129  1  0.25238669  0.84368016  0.24845204  1
  Mn3.34+  Mn130  1  0.24643528  0.83146220  0.57550874  1
  Mn3.34+  Mn131  1  0.25472068  0.83051414  0.91624304  1
  Mn3.34+  Mn132  1  0.57876604  0.33816803  0.24844559  1
  Mn3.34+  Mn133  1  0.58665615  0.33598682  0.58150614  1
  Mn3.34+  Mn134  1  0.58600508  0.33463518  0.91279359  1
  Mn3.34+  Mn135  1  0.57672095  0.83725723  0.25010259  1
  Mn3.34+  Mn136  1  0.58253764  0.82638975  0.57742976  1
  Mn3.34+  Mn137  1  0.57851671  0.83203890  0.91893558  1
  Mn3.34+  Mn138  1  0.91679076  0.33129586  0.25222565  1
  Mn3.34+  Mn139  1  0.91274199  0.33526026  0.58411474  1
  Mn3.34+  Mn140  1  0.91377716  0.33304416  0.91431733  1
  Mn3.34+  Mn141  1  0.92397425  0.83723112  0.25180030  1
  Mn3.34+  Mn142  1  0.92417045  0.83147507  0.57608212  1
  Mn3.34+  Mn143  1  0.92103229  0.83331388  0.91205459  1
  Mn3.34+  Mn144  1  0.58000211  0.65983226  0.91307230  1
  Mn3.34+  Mn145  1  0.92221396  0.17076203  0.91132504  1
  Mn3.34+  Mn146  1  0.74726165  0.66835434  0.41522482  1
  Mn3.34+  Mn147  1  0.58879598  0.66568195  0.91523760  1
  Mn3.34+  Mn148  1  0.25531857  0.66833919  0.24919341  1
  Mn3.34+  Mn149  1  0.75258182  0.66564397  0.08415103  1
  Mn3.34+  Mn150  1  0.92055533  0.66679182  0.24331455  1
  Mn3.34+  Mn151  1  0.58811347  0.66415386  0.57999491  1
  Mn3.34+  Mn152  1  0.08301280  0.16841391  0.08462261  1
  Mn3.34+  Mn153  1  0.08363381  0.66802877  0.08699217  1
  Mn3.34+  Mn154  1  0.57701152  0.16508722  0.92037876  1
  Mn3.34+  Mn155  1  0.75005051  0.16775184  0.08733512  1
  Mn3.34+  Mn156  1  0.74771529  0.16601588  0.75321714  1
  Mn3.34+  Mn157  1  0.23540723  0.15991623  0.91691992  1
  Mn3.34+  Mn158  1  0.92747186  0.16743379  0.58080000  1
  Mn3.34+  Mn159  1  0.41334418  0.66224819  0.41734017  1
  Mn3.34+  Mn160  1  0.24995199  0.16931067  0.58125809  1
  Mn3.34+  Mn161  1  0.08406235  0.67002010  0.75163053  1
  Mn3.34+  Mn162  1  0.91904070  0.16799092  0.25320402  1
  Mn3.34+  Mn163  1  0.75685493  0.17188567  0.75093744  1
  Mn3.34+  Mn164  1  0.24925366  0.66932581  0.58249710  1
  Mn3.34+  Mn165  1  0.40931691  0.66445301  0.74959221  1
  Mn3.34+  Mn166  1  0.57469901  0.65623574  0.24639866  1
  Mn3.34+  Mn167  1  0.41110755  0.16160795  0.42111575  1
  Mn3.34+  Mn168  1  0.74595326  0.16110870  0.41544904  1
  Mn3.34+  Mn169  1  0.41576562  0.16803698  0.09217115  1
  Mn3.34+  Mn170  1  0.57585753  0.67163928  0.58178718  1
  Mn3.34+  Mn171  1  0.58662015  0.17092686  0.92099836  1
  Mn3.34+  Mn172  1  0.58499691  0.66125121  0.24752428  1
  Mn3.34+  Mn173  1  0.24959328  0.66826627  0.91270185  1
  Mn3.34+  Mn174  1  0.08497118  0.16714853  0.75107983  1
  Mn3.34+  Mn175  1  0.91750985  0.67674722  0.58415060  1
  Mn3.34+  Mn176  1  0.58157798  0.16948793  0.57854922  1
  Mn3.34+  Mn177  1  0.91138571  0.67241080  0.24585544  1
  Mn3.34+  Mn178  1  0.91410212  0.66939852  0.91451497  1
  Mn3.34+  Mn179  1  0.75581936  0.16623407  0.41270786  1
  Mn3.34+  Mn180  1  0.25416860  0.50024702  0.26076243  1
  Mn3.34+  Mn181  1  0.57579711  0.00339691  0.57833773  1
  Mn3.34+  Mn182  1  0.75747539  0.50198577  0.41588011  1
  Mn3.34+  Mn183  1  0.07293354  0.01329997  0.73824771  1
  Mn3.34+  Mn184  1  0.09406969  0.50376698  0.41606310  1
  Mn3.34+  Mn185  1  0.24569237  -0.00286018  0.56497551  1
  Mn3.34+  Mn186  1  0.08379183  0.50167693  0.08402686  1
  Mn3.34+  Mn187  1  0.25334861  0.50512318  0.91298211  1
  Mn3.34+  Mn188  1  0.94629235  0.00400123  0.91203573  1
  Mn3.34+  Mn189  1  0.91747591  0.50138710  0.90054015  1
  Mn3.34+  Mn190  1  0.56997923  0.00197113  0.92195960  1
  Mn3.34+  Mn191  1  0.08049762  0.49697129  0.41816761  1
  Mn3.34+  Mn192  1  0.25576413  0.00206070  0.56629853  1
  Mn3.34+  Mn193  1  0.42200255  0.50081446  0.09897316  1
  Mn3.34+  Mn194  1  0.40542384  -0.00549496  0.75137727  1
  Mn3.34+  Mn195  1  0.41407252  0.00083017  0.09057434  1
  Mn3.34+  Mn196  1  0.41611908  0.50309430  0.74508901  1
  Mn3.34+  Mn197  1  0.92607558  -0.00137990  0.26551493  1
  Mn3.34+  Mn198  1  0.40667001  0.50313383  0.09573431  1
  Mn3.34+  Mn199  1  0.76809084  0.49768717  0.73657689  1
  Mn3.34+  Mn200  1  0.92331936  0.50101768  0.24853202  1
  Mn3.34+  Mn201  1  0.06248949  0.49699735  0.72956619  1
  Mn3.34+  Mn202  1  0.40826291  0.50007074  0.39846890  1
  Mn3.34+  Mn203  1  0.40438030  -0.00410388  0.08739728  1
  Mn3.34+  Mn204  1  0.75865141  0.49275079  0.73303142  1
  Mn3.34+  Mn205  1  0.07353630  0.50432608  0.73351279  1
  Mn3.34+  Mn206  1  0.23913344  0.49721462  0.57659782  1
  Mn3.34+  Mn207  1  0.10869325  -0.00150685  0.09461871  1
  Mn3.34+  Mn208  1  0.93491410  0.00448793  0.90928341  1
  Mn3.34+  Mn209  1  0.25393213  0.50249908  0.57569856  1
  Mn3.34+  Mn210  1  0.56481397  -0.00027850  0.57779257  1
  Mn3.34+  Mn211  1  0.76214297  0.00110391  0.74533329  1
  Mn3.34+  Mn212  1  0.08446103  0.00554711  0.73855960  1
  Mn3.34+  Mn213  1  0.09729645  -0.00799345  0.09857148  1
  Mn3.34+  Mn214  1  0.57270360  -0.00078364  0.26264563  1
  Mn3.34+  Mn215  1  0.74871129  -0.00403216  0.41006029  1
  O2-  O216  1  -0.00232126  0.14583897  -0.00137396  1
  O2-  O217  1  0.00235298  0.16754626  0.32608454  1
  O2-  O218  1  0.00808625  0.15427312  0.66131024  1
  O2-  O219  1  -0.00081540  0.64772792  0.00248054  1
  O2-  O220  1  -0.00373003  0.66509732  0.33334626  1
  O2-  O221  1  -0.00239687  0.67536934  0.67164172  1
  O2-  O222  1  0.32282688  0.15406066  0.00460056  1
  O2-  O223  1  0.33239280  0.16284095  0.34134729  1
  O2-  O224  1  0.32859208  0.16098290  0.66287794  1
  O2-  O225  1  0.33091281  0.65772587  -0.01237654  1
  O2-  O226  1  0.33352842  0.67996297  0.33592825  1
  O2-  O227  1  0.34048649  0.65073692  0.65706883  1
  O2-  O228  1  0.67330839  0.15352070  -0.00598628  1
  O2-  O229  1  0.66412687  0.14648278  0.33904865  1
  O2-  O230  1  0.67290668  0.14528609  0.66375352  1
  O2-  O231  1  0.66840978  0.64803204  0.00056932  1
  O2-  O232  1  0.66314641  0.64116321  0.33002555  1
  O2-  O233  1  0.66512267  0.67732481  0.66351341  1
  O2-  O234  1  0.16684020  0.17563707  0.00416994  1
  O2-  O235  1  0.16257422  0.17510162  0.34255134  1
  O2-  O236  1  0.16796083  0.14872206  0.66836130  1
  O2-  O237  1  0.16399785  0.65177021  0.00084577  1
  O2-  O238  1  0.17001624  0.67407129  0.32732810  1
  O2-  O239  1  0.16271395  0.66730271  0.66618258  1
  O2-  O240  1  0.49076799  0.14220160  -0.00103156  1
  O2-  O241  1  0.49088956  0.16051533  0.33785611  1
  O2-  O242  1  0.50758710  0.16556079  0.65994874  1
  O2-  O243  1  0.50571576  0.64565302  -0.00526864  1
  O2-  O244  1  0.50491237  0.66145098  0.34278348  1
  O2-  O245  1  0.50482584  0.65381702  0.66959464  1
  O2-  O246  1  0.83541262  0.15287809  -0.00426498  1
  O2-  O247  1  0.83283662  0.14083527  0.33217134  1
  O2-  O248  1  0.83577948  0.15442901  0.66465422  1
  O2-  O249  1  0.83387714  0.65224255  -0.00256131  1
  O2-  O250  1  0.83483972  0.64736513  0.32825702  1
  O2-  O251  1  0.83385100  0.68102039  0.66140436  1
  O2-  O252  1  -0.00281131  0.34694726  0.00440361  1
  O2-  O253  1  -0.00341002  0.33605512  0.33993893  1
  O2-  O254  1  -0.00159515  0.34326733  0.67074234  1
  O2-  O255  1  0.00499287  0.85771134  -0.00865261  1
  O2-  O256  1  0.00401525  0.81374523  0.33481607  1
  O2-  O257  1  -0.00287953  0.81610648  0.66653458  1
  O2-  O258  1  0.34134213  0.34593255  -0.00842028  1
  O2-  O259  1  0.33502015  0.34143074  0.33363157  1
  O2-  O260  1  0.33352802  0.35255995  0.66405046  1
  O2-  O261  1  0.33536766  0.83998033  -0.00455969  1
  O2-  O262  1  0.33033486  0.81216677  0.32601815  1
  O2-  O263  1  0.33597443  0.84450815  0.66659204  1
  O2-  O264  1  0.66651015  0.34940310  -0.00235641  1
  O2-  O265  1  0.66873226  0.35553797  0.33182744  1
  O2-  O266  1  0.66456952  0.33702495  0.67360319  1
  O2-  O267  1  0.66784378  0.84784294  -0.00242534  1
  O2-  O268  1  0.66590547  0.85107284  0.33136633  1
  O2-  O269  1  0.66433910  0.83011754  0.66889506  1
  O2-  O270  1  0.16388162  0.34160525  -0.00272925  1
  O2-  O271  1  0.16503672  0.33761318  0.33040128  1
  O2-  O272  1  0.16577672  0.35596798  0.66610315  1
  O2-  O273  1  0.16795268  0.84025196  -0.00128630  1
  O2-  O274  1  0.16916698  0.82041976  0.33315003  1
  O2-  O275  1  0.17000489  0.83290646  0.67080663  1
  O2-  O276  1  0.50230853  0.35454164  0.00035626  1
  O2-  O277  1  0.50696926  0.35079222  0.33963850  1
  O2-  O278  1  0.50220748  0.34837852  0.67058939  1
  O2-  O279  1  0.49723152  0.85200469  -0.00271291  1
  O2-  O280  1  0.49972011  0.83343576  0.34060850  1
  O2-  O281  1  0.50351357  0.84363526  0.66697891  1
  O2-  O282  1  0.82406022  0.34942647  -0.00964578  1
  O2-  O283  1  0.82724420  0.35319367  0.32901906  1
  O2-  O284  1  0.82751655  0.32239117  0.66764229  1
  O2-  O285  1  0.83634461  0.84782444  -0.00274457  1
  O2-  O286  1  0.83972157  0.84188318  0.33486411  1
  O2-  O287  1  0.83489758  0.82731866  0.66493320  1
  O2-  O288  1  -0.00966797  0.17502733  0.15720832  1
  O2-  O289  1  0.00068730  0.17778879  0.49865700  1
  O2-  O290  1  -0.00087273  0.18849519  0.82972291  1
  O2-  O291  1  0.00202881  0.69051210  0.16884840  1
  O2-  O292  1  -0.00368258  0.68695527  0.50241806  1
  O2-  O293  1  0.00320356  0.68363800  0.83705201  1
  O2-  O294  1  0.33409122  0.17862077  0.16661879  1
  O2-  O295  1  0.32930993  0.18437145  0.50098718  1
  O2-  O296  1  0.32828485  0.18242018  0.85392551  1
  O2-  O297  1  0.32275802  0.68989700  0.16782453  1
  O2-  O298  1  0.33108367  0.68111308  0.49538635  1
  O2-  O299  1  0.33121681  0.68032901  0.83334801  1
  O2-  O300  1  0.67576945  0.17425157  0.16755457  1
  O2-  O301  1  0.67498338  0.18287391  0.50259615  1
  O2-  O302  1  0.65807246  0.19295355  0.82395995  1
  O2-  O303  1  0.67037327  0.67953392  0.16841127  1
  O2-  O304  1  0.66389670  0.68812827  0.50087972  1
  O2-  O305  1  0.66412566  0.68374006  0.83517045  1
  O2-  O306  1  0.15818505  0.17590121  0.16640026  1
  O2-  O307  1  0.16637622  0.18394695  0.50578116  1
  O2-  O308  1  0.16849258  0.19071450  0.83398435  1
  O2-  O309  1  0.16574355  0.68099481  0.16591372  1
  O2-  O310  1  0.16964417  0.68084672  0.50496518  1
  O2-  O311  1  0.15888576  0.68467171  0.83812167  1
  O2-  O312  1  0.49011167  0.17721585  0.17038184  1
  O2-  O313  1  0.50600371  0.17989364  0.49590413  1
  O2-  O314  1  0.49393082  0.17377199  0.84139899  1
  O2-  O315  1  0.50305722  0.67863785  0.16786317  1
  O2-  O316  1  0.49558862  0.68578475  0.50298785  1
  O2-  O317  1  0.49619951  0.68181939  0.83410407  1
  O2-  O318  1  0.83926068  0.17382673  0.16065006  1
  O2-  O319  1  0.83217570  0.18155407  0.49721151  1
  O2-  O320  1  0.82998454  0.19200955  0.83688263  1
  O2-  O321  1  0.83395376  0.69210571  0.16595978  1
  O2-  O322  1  0.83752162  0.68590391  0.49582773  1
  O2-  O323  1  0.83743958  0.68315364  0.83643091  1
  O2-  O324  1  0.00427259  0.31814363  0.17858564  1
  O2-  O325  1  0.00586027  0.31531753  0.49969044  1
  O2-  O326  1  0.01143994  0.32319888  0.84593395  1
  O2-  O327  1  -0.00535295  0.81460383  0.16494388  1
  O2-  O328  1  0.00304781  0.81485359  0.49600838  1
  O2-  O329  1  0.00301090  0.81735570  0.83064025  1
  O2-  O330  1  0.32849587  0.32110846  0.15710236  1
  O2-  O331  1  0.33690198  0.32396715  0.50243568  1
  O2-  O332  1  0.32912235  0.32052653  0.82779271  1
  O2-  O333  1  0.33016984  0.81935959  0.16918746  1
  O2-  O334  1  0.33484559  0.81879060  0.49658173  1
  O2-  O335  1  0.33411430  0.81916926  0.83103546  1
  O2-  O336  1  0.67119318  0.32363636  0.16891927  1
  O2-  O337  1  0.66246908  0.32416772  0.48916894  1
  O2-  O338  1  0.66671400  0.31360490  0.83548872  1
  O2-  O339  1  0.66437719  0.82533682  0.16343968  1
  O2-  O340  1  0.66922955  0.81407765  0.50144630  1
  O2-  O341  1  0.66595163  0.81515793  0.83282410  1
  O2-  O342  1  0.16647395  0.32112325  0.16523430  1
  O2-  O343  1  0.16940557  0.31255342  0.49652396  1
  O2-  O344  1  0.17081434  0.32860443  0.83146657  1
  O2-  O345  1  0.17332343  0.81271544  0.17266539  1
  O2-  O346  1  0.16493149  0.81467151  0.49453812  1
  O2-  O347  1  0.16362577  0.82102740  0.83500725  1
  O2-  O348  1  0.50677614  0.32709983  0.15974071  1
  O2-  O349  1  0.50225847  0.32712220  0.49732791  1
  O2-  O350  1  0.49166245  0.32338395  0.83999137  1
  O2-  O351  1  0.50312465  0.82256357  0.16273988  1
  O2-  O352  1  0.49830301  0.80745560  0.50613976  1
  O2-  O353  1  0.50704299  0.82082934  0.82509165  1
  O2-  O354  1  0.82854674  0.32691355  0.17207100  1
  O2-  O355  1  0.83852193  0.31872764  0.48935666  1
  O2-  O356  1  0.83700232  0.31351258  0.83054516  1
  O2-  O357  1  0.83349169  0.82022734  0.16702144  1
  O2-  O358  1  0.83549951  0.81468100  0.50262042  1
  O2-  O359  1  0.83007934  0.81862388  0.83723193  1
  O2-  O360  1  0.08706612  0.08075039  0.11441728  1
  O2-  O361  1  0.10225180  0.06991672  0.42957220  1
  O2-  O362  1  0.09553790  0.08449786  0.79068509  1
  O2-  O363  1  0.08033602  0.58444673  0.11779372  1
  O2-  O364  1  0.07410341  0.58343122  0.44668726  1
  O2-  O365  1  0.06891744  0.57824714  0.78550358  1
  O2-  O366  1  0.39719102  0.08162886  0.11896223  1
  O2-  O367  1  0.41313882  0.08255067  0.43495390  1
  O2-  O368  1  0.41326113  0.07458972  0.78401260  1
  O2-  O369  1  0.41035765  0.58343121  0.10504369  1
  O2-  O370  1  0.41716230  0.57634395  0.45062129  1
  O2-  O371  1  0.42744992  0.58091024  0.78105019  1
  O2-  O372  1  0.76885160  0.08097434  0.09280885  1
  O2-  O373  1  0.74552765  0.07649128  0.45728715  1
  O2-  O374  1  0.74938894  0.08138116  0.79836172  1
  O2-  O375  1  0.75930884  0.58473639  0.11141928  1
  O2-  O376  1  0.77089773  0.58303881  0.45227723  1
  O2-  O377  1  0.75169497  0.57421183  0.78415782  1
  O2-  O378  1  0.24452193  0.06379729  0.23353050  1
  O2-  O379  1  0.24198646  0.08445921  0.54659661  1
  O2-  O380  1  0.25585262  0.08211880  0.88123652  1
  O2-  O381  1  0.24881121  0.58103530  0.22725897  1
  O2-  O382  1  0.24552537  0.58403093  0.55214182  1
  O2-  O383  1  0.22913115  0.58484202  0.88773890  1
  O2-  O384  1  0.57300524  0.06520528  0.21409733  1
  O2-  O385  1  0.58819863  0.08388409  0.54769004  1
  O2-  O386  1  0.59733161  0.08529961  0.87935832  1
  O2-  O387  1  0.58963148  0.57609160  0.21425208  1
  O2-  O388  1  0.57935232  0.58121872  0.55226481  1
  O2-  O389  1  0.58658667  0.58002297  0.88117159  1
  O2-  O390  1  0.92679172  0.07644122  0.22310533  1
  O2-  O391  1  0.91248959  0.08425450  0.54743148  1
  O2-  O392  1  0.89745182  0.08419529  0.88486342  1
  O2-  O393  1  0.91958457  0.58157297  0.20700664  1
  O2-  O394  1  0.91771735  0.59261607  0.55963691  1
  O2-  O395  1  0.92443467  0.58480826  0.88171817  1
  O2-  O396  1  0.09146561  0.41650204  0.10485325  1
  O2-  O397  1  0.09554652  0.41678196  0.44130440  1
  O2-  O398  1  0.09277022  0.42674923  0.79167273  1
  O2-  O399  1  0.07623569  0.91456829  0.11857370  1
  O2-  O400  1  0.07184092  0.91404104  0.43059004  1
  O2-  O401  1  0.08241840  0.92512271  0.78323197  1
  O2-  O402  1  0.40515048  0.41829441  0.10801918  1
  O2-  O403  1  0.41287304  0.42053921  0.44320587  1
  O2-  O404  1  0.40076415  0.42152414  0.78467065  1
  O2-  O405  1  0.41403507  0.91573032  0.11104381  1
  O2-  O406  1  0.43603812  0.92011447  0.44933186  1
  O2-  O407  1  0.43165509  0.91431730  0.78101366  1
  O2-  O408  1  0.74457662  0.41863211  0.10191855  1
  O2-  O409  1  0.74972013  0.42119781  0.44070320  1
  O2-  O410  1  0.74321189  0.42312204  0.79942214  1
  O2-  O411  1  0.75313137  0.91591852  0.09944649  1
  O2-  O412  1  0.75263710  0.91545671  0.44892970  1
  O2-  O413  1  0.73164955  0.91882696  0.78364563  1
  O2-  O414  1  0.24004671  0.41964868  0.22787295  1
  O2-  O415  1  0.24209736  0.41670403  0.54519818  1
  O2-  O416  1  0.26624961  0.42321265  0.88656035  1
  O2-  O417  1  0.24814246  0.91680838  0.23842869  1
  O2-  O418  1  0.25914687  0.91460452  0.55442764  1
  O2-  O419  1  0.24836705  0.91327120  0.88300943  1
  O2-  O420  1  0.60791515  0.42309132  0.22356661  1
  O2-  O421  1  0.57788981  0.41903323  0.55618033  1
  O2-  O422  1  0.57239259  0.41779744  0.87989953  1
  O2-  O423  1  0.58994395  0.92852172  0.21882555  1
  O2-  O424  1  0.58105590  0.91686519  0.55348019  1
  O2-  O425  1  0.59059246  0.91915684  0.88086698  1
  O2-  O426  1  0.91889968  0.41824643  0.23478959  1
  O2-  O427  1  0.92659395  0.41269621  0.55356137  1
  O2-  O428  1  0.93135597  0.41837596  0.89067455  1
  O2-  O429  1  0.90958805  0.92531344  0.22070651  1
  O2-  O430  1  0.91246415  0.91012161  0.56471199  1
  O2-  O431  1  0.91532831  0.92177372  0.86992098  1
  O2-  O432  1  -0.01479431  0.00414352  0.03048037  1
  O2-  O433  1  -0.00547239  0.00385574  0.34509438  1
  O2-  O434  1  -0.02302846  -0.00560816  0.68627423  1
  O2-  O435  1  0.00958175  0.50891156  -0.02145247  1
  O2-  O436  1  -0.02171341  0.51377601  0.35616705  1
  O2-  O437  1  0.02779251  0.50583909  0.62393652  1
  O2-  O438  1  0.35718570  0.00665171  -0.02189584  1
  O2-  O439  1  0.32128672  0.02196120  0.32873574  1
  O2-  O440  1  0.32223831  -0.00527186  0.66684464  1
  O2-  O441  1  0.33561593  0.50386334  0.00253878  1
  O2-  O442  1  0.29075551  0.50267071  0.38016828  1
  O2-  O443  1  0.33534080  0.48547513  0.65962214  1
  O2-  O444  1  0.68656739  -0.00384141  -0.04418927  1
  O2-  O445  1  0.66814866  0.00312717  0.31917817  1
  O2-  O446  1  0.65713179  -0.00077946  0.66875295  1
  O2-  O447  1  0.66690735  0.49933472  -0.00559730  1
  O2-  O448  1  0.66915169  0.50511871  0.35270792  1
  O2-  O449  1  0.65231438  0.50046726  0.69259811  1
  O2-  O450  1  0.15071001  -0.01417570  -0.01296357  1
  O2-  O451  1  0.17898049  0.01567264  0.33532061  1
  O2-  O452  1  0.15841757  0.00382645  0.64803767  1
  O2-  O453  1  0.15908505  0.49133260  -0.01898653  1
  O2-  O454  1  0.13899497  0.50522736  0.30568916  1
  O2-  O455  1  0.18155794  0.49459442  0.68362343  1
  O2-  O456  1  0.51830877  -0.00575970  0.03136030  1
  O2-  O457  1  0.50609774  -0.00015389  0.34268156  1
  O2-  O458  1  0.50221134  -0.00430810  0.67980188  1
  O2-  O459  1  0.50085613  0.49459693  0.01728472  1
  O2-  O460  1  0.51883933  0.49475591  0.37690964  1
  O2-  O461  1  0.49432849  0.50002337  0.67315757  1
  O2-  O462  1  0.83529000  -0.00551572  -0.02316226  1
  O2-  O463  1  0.83130167  -0.00362729  0.32532096  1
  O2-  O464  1  0.81250139  -0.00679608  0.63564672  1
  O2-  O465  1  0.82837658  0.50613341  -0.02690139  1
  O2-  O466  1  0.82011593  0.50265927  0.30976518  1
  O2-  O467  1  0.84947886  0.52512951  0.66827902  1
  O2-  O468  1  0.59116320  0.74471444  0.27020973  1
  O2-  O469  1  0.24941815  0.74913472  0.94025339  1
  O2-  O470  1  0.07903215  0.74940701  0.05612755  1
  O2-  O471  1  0.41723359  0.25397376  0.72841196  1
  O2-  O472  1  0.59214661  0.25115751  0.60274110  1
  O2-  O473  1  0.06794623  0.25033674  0.06281506  1
  O2-  O474  1  0.58483994  0.25827660  0.26625100  1
  O2-  O475  1  0.08710110  0.24898629  0.72142323  1
  O2-  O476  1  0.91900537  0.25079369  0.94951141  1
  O2-  O477  1  0.24931089  0.25265362  0.61320561  1
  O2-  O478  1  0.89522261  0.24923294  0.27477782  1
  O2-  O479  1  0.74321821  0.74837183  0.38127821  1
  O2-  O480  1  0.74725312  0.74968380  0.05539088  1
  O2-  O481  1  0.75474369  0.25068937  0.06301777  1
  O2-  O482  1  0.57327278  0.25087685  0.95283486  1
  O2-  O483  1  0.42264249  0.24913067  0.05438890  1
  O2-  O484  1  0.42067706  0.75468415  0.06649992  1
  O2-  O485  1  0.91983357  0.24841741  0.60231872  1
  O2-  O486  1  0.57789213  0.74643245  0.94709174  1
  O2-  O487  1  0.74737613  0.25080379  0.38481469  1
  O2-  O488  1  0.25768666  0.75010286  0.60691002  1
  O2-  O489  1  0.41638788  0.74807116  0.72245525  1
  O2-  O490  1  0.41968499  0.25265561  0.39887843  1
  O2-  O491  1  0.25383269  0.25363371  0.26144670  1
  O2-  O492  1  0.92156398  0.75076113  0.94381780  1
