# generated using pymatgen
data_Ca108Mn108O277
_symmetry_space_group_name_H-M   'P 1'
_cell_length_a   16.00704721
_cell_length_b   22.27772149
_cell_length_c   16.37296230
_cell_angle_alpha   90.00173285
_cell_angle_beta   90.00062896
_cell_angle_gamma   90.00025001
_symmetry_Int_Tables_number   1
_chemical_formula_structural   Ca108Mn108O277
_chemical_formula_sum   'Ca108 Mn108 O277'
_cell_volume   5838.60718588
_cell_formula_units_Z   1
loop_
 _symmetry_equiv_pos_site_id
 _symmetry_equiv_pos_as_xyz
  1  'x, y, z'
loop_
 _atom_type_symbol
 _atom_type_oxidation_number
  Ca2+  2.0
  Mn3.34+  3.34
  O2-  -2.0
loop_
 _atom_site_type_symbol
 _atom_site_label
 _atom_site_symmetry_multiplicity
 _atom_site_fract_x
 _atom_site_fract_y
 _atom_site_fract_z
 _atom_site_occupancy
  Ca2+  Ca0  1  0.09651787  0.24945375  0.23373670  1
  Ca2+  Ca1  1  0.07575318  0.25189917  0.59349008  1
  Ca2+  Ca2  1  0.09053313  0.23887521  0.91598106  1
  Ca2+  Ca3  1  0.08383893  0.75856382  0.26031990  1
  Ca2+  Ca4  1  0.08324683  0.75447919  0.57836282  1
  Ca2+  Ca5  1  0.08210853  0.75487615  0.90898293  1
  Ca2+  Ca6  1  0.41824965  0.25758846  0.24694961  1
  Ca2+  Ca7  1  0.42305915  0.24979466  0.60054842  1
  Ca2+  Ca8  1  0.39772973  0.24693526  0.89948743  1
  Ca2+  Ca9  1  0.42127339  0.74767308  0.23282222  1
  Ca2+  Ca10  1  0.40507528  0.76017727  0.57663820  1
  Ca2+  Ca11  1  0.41828843  0.74497049  0.93988628  1
  Ca2+  Ca12  1  0.73695851  0.25310097  0.24466157  1
  Ca2+  Ca13  1  0.74823456  0.25337681  0.58909589  1
  Ca2+  Ca14  1  0.76705499  0.24646831  0.91721805  1
  Ca2+  Ca15  1  0.74373008  0.74778043  0.22707994  1
  Ca2+  Ca16  1  0.76360692  0.75126091  0.59618732  1
  Ca2+  Ca17  1  0.74517208  0.73557314  0.92604446  1
  Ca2+  Ca18  1  0.24036035  0.25178636  0.06604430  1
  Ca2+  Ca19  1  0.25069690  0.25355494  0.41121219  1
  Ca2+  Ca20  1  0.25689180  0.24684074  0.76127629  1
  Ca2+  Ca21  1  0.27433574  0.75163687  0.08176635  1
  Ca2+  Ca22  1  0.25319410  0.75569795  0.41256346  1
  Ca2+  Ca23  1  0.24829653  0.76104454  0.75688472  1
  Ca2+  Ca24  1  0.58852634  0.25201168  0.08847302  1
  Ca2+  Ca25  1  0.58392964  0.25707861  0.42068210  1
  Ca2+  Ca26  1  0.56899370  0.25025063  0.74384655  1
  Ca2+  Ca27  1  0.58087091  0.74718412  0.08389020  1
  Ca2+  Ca28  1  0.57634212  0.75660803  0.40057361  1
  Ca2+  Ca29  1  0.59817979  0.74941408  0.76691859  1
  Ca2+  Ca30  1  0.92081058  0.24016525  0.05995087  1
  Ca2+  Ca31  1  0.91430147  0.26136343  0.43314985  1
  Ca2+  Ca32  1  0.92173141  0.23925346  0.75807444  1
  Ca2+  Ca33  1  0.89333412  0.75208908  0.07702809  1
  Ca2+  Ca34  1  0.92197800  0.75050324  0.41671938  1
  Ca2+  Ca35  1  0.90065378  0.74934886  0.75203880  1
  Ca2+  Ca36  1  0.07808899  0.10224990  0.59507782  1
  Ca2+  Ca37  1  0.25380688  0.57888691  0.75974747  1
  Ca2+  Ca38  1  0.25694324  0.58878850  0.41703673  1
  Ca2+  Ca39  1  0.43135743  0.09293379  0.25738445  1
  Ca2+  Ca40  1  0.77616241  0.59574480  0.59340954  1
  Ca2+  Ca41  1  0.43017307  0.59878354  0.93108495  1
  Ca2+  Ca42  1  0.41833095  0.09269729  0.25757658  1
  Ca2+  Ca43  1  0.25362292  0.10453635  0.41937921  1
  Ca2+  Ca44  1  0.91461297  0.59198443  0.42393127  1
  Ca2+  Ca45  1  0.42465525  0.59917157  0.24146554  1
  Ca2+  Ca46  1  0.22961796  0.09157739  0.06134659  1
  Ca2+  Ca47  1  0.59489467  0.60515683  0.07903984  1
  Ca2+  Ca48  1  0.59003300  0.57528874  0.39342536  1
  Ca2+  Ca49  1  0.40361671  0.58095869  0.58135604  1
  Ca2+  Ca50  1  0.74679751  0.09791519  0.22032846  1
  Ca2+  Ca51  1  0.07781004  0.09051882  0.23111870  1
  Ca2+  Ca52  1  0.57654929  0.08768504  0.73438029  1
  Ca2+  Ca53  1  0.77736002  0.09981361  0.91959318  1
  Ca2+  Ca54  1  0.06641176  0.10118326  0.59502993  1
  Ca2+  Ca55  1  0.25013880  0.10977802  0.76802166  1
  Ca2+  Ca56  1  0.09131643  0.58969978  0.25565496  1
  Ca2+  Ca57  1  0.58774446  0.08738138  0.73418958  1
  Ca2+  Ca58  1  0.24514486  0.58868221  0.41733917  1
  Ca2+  Ca59  1  0.73789632  0.58898454  0.24559284  1
  Ca2+  Ca60  1  0.06208781  0.59274698  0.58019612  1
  Ca2+  Ca61  1  0.88286426  0.59912992  0.08069701  1
  Ca2+  Ca62  1  0.07472355  0.59158127  0.58121368  1
  Ca2+  Ca63  1  0.07849829  0.58939426  0.25598674  1
  Ca2+  Ca64  1  0.89528068  0.59778428  0.08024432  1
  Ca2+  Ca65  1  0.24125193  0.57892470  0.75945979  1
  Ca2+  Ca66  1  0.41636765  0.58050433  0.58140264  1
  Ca2+  Ca67  1  0.92226642  0.09126648  0.42656845  1
  Ca2+  Ca68  1  0.26867233  0.59847301  0.07317418  1
  Ca2+  Ca69  1  0.58423741  0.60506892  0.08115751  1
  Ca2+  Ca70  1  0.57208390  0.09296102  0.43239774  1
  Ca2+  Ca71  1  0.42456940  0.10034978  0.59257813  1
  Ca2+  Ca72  1  0.09164921  0.40075368  0.25085549  1
  Ca2+  Ca73  1  0.74401626  0.41841490  0.26291996  1
  Ca2+  Ca74  1  0.41272283  0.90798778  0.92171913  1
  Ca2+  Ca75  1  0.25601606  0.40635211  0.42931187  1
  Ca2+  Ca76  1  0.92220222  0.39527938  0.74841820  1
  Ca2+  Ca77  1  0.07215414  0.90383358  0.58761438  1
  Ca2+  Ca78  1  0.75522653  0.91044473  0.90747455  1
  Ca2+  Ca79  1  0.08915864  0.91184434  0.92747907  1
  Ca2+  Ca80  1  0.25775121  0.89930177  0.41542828  1
  Ca2+  Ca81  1  0.58711651  0.91626149  0.74430062  1
  Ca2+  Ca82  1  0.91458720  0.39871517  0.08417151  1
  Ca2+  Ca83  1  0.92109074  0.90798720  0.41842535  1
  Ca2+  Ca84  1  0.08001600  0.40073539  0.25128502  1
  Ca2+  Ca85  1  0.90906682  0.90815249  0.41837671  1
  Ca2+  Ca86  1  0.75158462  0.40601519  0.56957470  1
  Ca2+  Ca87  1  0.58256604  0.90603281  0.08372368  1
  Ca2+  Ca88  1  0.42157671  0.40315393  0.25454161  1
  Ca2+  Ca89  1  0.42031049  0.90050812  0.24318254  1
  Ca2+  Ca90  1  0.42880272  0.90778844  0.58355006  1
  Ca2+  Ca91  1  0.58406110  0.40414945  0.08757771  1
  Ca2+  Ca92  1  0.73308019  0.41824747  0.26433748  1
  Ca2+  Ca93  1  0.40482570  0.40388478  0.90955517  1
  Ca2+  Ca94  1  0.91502950  0.91487905  0.08666254  1
  Ca2+  Ca95  1  0.58811086  0.41177592  0.41511930  1
  Ca2+  Ca96  1  0.57882364  0.90530651  0.42354770  1
  Ca2+  Ca97  1  0.57829998  0.40024051  0.75066220  1
  Ca2+  Ca98  1  0.25669827  0.90484612  0.75599728  1
  Ca2+  Ca99  1  0.92456189  0.91825006  0.08878771  1
  Ca2+  Ca100  1  0.07625426  0.90816619  0.23723027  1
  Ca2+  Ca101  1  0.75132919  0.91859982  0.60401389  1
  Ca2+  Ca102  1  0.25003336  0.40491932  0.75748811  1
  Ca2+  Ca103  1  0.74419065  0.39710597  0.91577632  1
  Ca2+  Ca104  1  0.75178180  0.90656232  0.24439274  1
  Ca2+  Ca105  1  0.07769283  0.91178537  0.92664349  1
  Ca2+  Ca106  1  0.08571299  0.40465699  0.58242827  1
  Ca2+  Ca107  1  0.59787062  0.91683457  0.74427545  1
  Mn3.34+  Mn108  1  0.08432647  0.32930979  0.07632325  1
  Mn3.34+  Mn109  1  0.08323386  0.32945533  0.42014917  1
  Mn3.34+  Mn110  1  0.08628157  0.33137516  0.75348563  1
  Mn3.34+  Mn111  1  0.08641669  0.83543146  0.08557643  1
  Mn3.34+  Mn112  1  0.08584732  0.83198199  0.41723321  1
  Mn3.34+  Mn113  1  0.07890184  0.83604202  0.74952591  1
  Mn3.34+  Mn114  1  0.41188504  0.33360669  0.07927786  1
  Mn3.34+  Mn115  1  0.41594528  0.33256759  0.42348009  1
  Mn3.34+  Mn116  1  0.41446919  0.33016246  0.74820190  1
  Mn3.34+  Mn117  1  0.41676834  0.83170565  0.08311753  1
  Mn3.34+  Mn118  1  0.41727631  0.83288415  0.41577811  1
  Mn3.34+  Mn119  1  0.41840906  0.83508022  0.75301698  1
  Mn3.34+  Mn120  1  0.75201693  0.32985837  0.08314872  1
  Mn3.34+  Mn121  1  0.75250321  0.33937855  0.41924995  1
  Mn3.34+  Mn122  1  0.74977388  0.32952893  0.75072082  1
  Mn3.34+  Mn123  1  0.74752191  0.83203607  0.08142769  1
  Mn3.34+  Mn124  1  0.74722631  0.83021667  0.41901188  1
  Mn3.34+  Mn125  1  0.75259514  0.83432978  0.75320507  1
  Mn3.34+  Mn126  1  0.25410084  0.33254403  0.24654222  1
  Mn3.34+  Mn127  1  0.25163930  0.33763853  0.58397504  1
  Mn3.34+  Mn128  1  0.24511865  0.33709022  0.91565746  1
  Mn3.34+  Mn129  1  0.25010971  0.83017260  0.24505477  1
  Mn3.34+  Mn130  1  0.24932318  0.83181952  0.58450039  1
  Mn3.34+  Mn131  1  0.25193691  0.83214740  0.91890280  1
  Mn3.34+  Mn132  1  0.58129454  0.33429375  0.24841682  1
  Mn3.34+  Mn133  1  0.58127375  0.33172899  0.58235789  1
  Mn3.34+  Mn134  1  0.58055905  0.33502920  0.91537900  1
  Mn3.34+  Mn135  1  0.58447322  0.83345086  0.24791371  1
  Mn3.34+  Mn136  1  0.58535406  0.83732390  0.58150881  1
  Mn3.34+  Mn137  1  0.58377746  0.83187814  0.91692246  1
  Mn3.34+  Mn138  1  0.91513147  0.32820869  0.25036609  1
  Mn3.34+  Mn139  1  0.91708146  0.33044435  0.58435032  1
  Mn3.34+  Mn140  1  0.92151523  0.32738402  0.91389940  1
  Mn3.34+  Mn141  1  0.91594443  0.83468897  0.24681948  1
  Mn3.34+  Mn142  1  0.91429006  0.84046349  0.58686373  1
  Mn3.34+  Mn143  1  0.91416754  0.83418968  0.91232908  1
  Mn3.34+  Mn144  1  0.25126087  0.17380878  0.58485199  1
  Mn3.34+  Mn145  1  0.08311484  0.17527988  0.41698751  1
  Mn3.34+  Mn146  1  0.06916973  0.66248835  0.75474198  1
  Mn3.34+  Mn147  1  0.90907823  0.66856868  0.91548158  1
  Mn3.34+  Mn148  1  0.58333979  0.16319669  0.91620714  1
  Mn3.34+  Mn149  1  0.07980882  0.66789245  0.75476500  1
  Mn3.34+  Mn150  1  0.25230346  0.66294917  0.91744935  1
  Mn3.34+  Mn151  1  0.07872928  0.66815410  0.41938082  1
  Mn3.34+  Mn152  1  0.92153637  0.16852696  0.24453636  1
  Mn3.34+  Mn153  1  0.75423722  0.16601268  0.42048448  1
  Mn3.34+  Mn154  1  0.74804697  0.66013378  0.41753355  1
  Mn3.34+  Mn155  1  0.08846258  0.67268108  0.08020144  1
  Mn3.34+  Mn156  1  0.58734975  0.16894235  0.24360640  1
  Mn3.34+  Mn157  1  0.07964587  0.67892453  0.07969295  1
  Mn3.34+  Mn158  1  0.75103841  0.66985863  0.75657721  1
  Mn3.34+  Mn159  1  0.91529217  0.66953295  0.24698550  1
  Mn3.34+  Mn160  1  0.25386057  0.66735573  0.24580770  1
  Mn3.34+  Mn161  1  0.07985667  0.15918627  0.07056448  1
  Mn3.34+  Mn162  1  0.25120131  0.66518651  0.58235011  1
  Mn3.34+  Mn163  1  0.41960870  0.66762792  0.41382225  1
  Mn3.34+  Mn164  1  0.40866257  0.16587051  0.07941561  1
  Mn3.34+  Mn165  1  0.24523954  0.16929241  0.24817786  1
  Mn3.34+  Mn166  1  0.58999886  0.67122502  0.58829625  1
  Mn3.34+  Mn167  1  0.75692735  0.66630202  0.41686523  1
  Mn3.34+  Mn168  1  0.57911689  0.67124304  0.58293532  1
  Mn3.34+  Mn169  1  0.91241704  0.16256090  0.24336728  1
  Mn3.34+  Mn170  1  0.59255718  0.16892601  0.91666961  1
  Mn3.34+  Mn171  1  0.43121539  0.66400400  0.75772832  1
  Mn3.34+  Mn172  1  0.58272130  0.66412578  0.24630191  1
  Mn3.34+  Mn173  1  0.58387926  0.16530379  0.58512345  1
  Mn3.34+  Mn174  1  0.41827843  0.16023136  0.07894766  1
  Mn3.34+  Mn175  1  0.41704389  0.17248681  0.42024839  1
  Mn3.34+  Mn176  1  0.91246390  0.16515265  0.58970459  1
  Mn3.34+  Mn177  1  0.74513419  0.17214324  0.42011033  1
  Mn3.34+  Mn178  1  0.41761871  0.67015191  0.75671694  1
  Mn3.34+  Mn179  1  0.75771367  0.15365977  0.74717820  1
  Mn3.34+  Mn180  1  0.91254423  0.50049759  0.25803635  1
  Mn3.34+  Mn181  1  0.75558582  0.50746870  0.75228661  1
  Mn3.34+  Mn182  1  0.24526498  -0.00221468  0.57918255  1
  Mn3.34+  Mn183  1  0.25608348  0.49923551  0.24569775  1
  Mn3.34+  Mn184  1  0.08352626  0.49688805  0.74394954  1
  Mn3.34+  Mn185  1  0.91825329  0.49425932  0.58295852  1
  Mn3.34+  Mn186  1  0.92398520  0.49769627  0.90942647  1
  Mn3.34+  Mn187  1  0.24541464  0.00140477  0.23976955  1
  Mn3.34+  Mn188  1  0.07622860  0.00418588  0.41947900  1
  Mn3.34+  Mn189  1  0.25740008  0.00332771  0.57800013  1
  Mn3.34+  Mn190  1  0.74345228  -0.00192943  0.42057354  1
  Mn3.34+  Mn191  1  0.41702883  0.49723074  0.74134779  1
  Mn3.34+  Mn192  1  0.74547141  0.49889284  0.08028271  1
  Mn3.34+  Mn193  1  0.39989925  0.49658374  0.08035836  1
  Mn3.34+  Mn194  1  0.75398617  0.00211967  0.41898662  1
  Mn3.34+  Mn195  1  0.10365243  0.49704835  0.06658236  1
  Mn3.34+  Mn196  1  0.41645503  0.49899297  0.07956140  1
  Mn3.34+  Mn197  1  0.74297857  0.50123230  0.75276294  1
  Mn3.34+  Mn198  1  0.25613974  -0.00375768  0.24053273  1
  Mn3.34+  Mn199  1  0.58295530  0.49681422  0.58394101  1
  Mn3.34+  Mn200  1  0.41804636  -0.00009330  0.41841612  1
  Mn3.34+  Mn201  1  0.91084128  0.50392225  0.90962144  1
  Mn3.34+  Mn202  1  0.58135679  0.00135557  0.92585515  1
  Mn3.34+  Mn203  1  0.41698282  0.00455768  0.74952366  1
  Mn3.34+  Mn204  1  0.24590838  0.00363064  0.92968923  1
  Mn3.34+  Mn205  1  0.92305877  0.00601553  0.92932900  1
  Mn3.34+  Mn206  1  0.06319933  0.01093250  0.75100984  1
  Mn3.34+  Mn207  1  0.07402580  0.00428079  0.75379807  1
  Mn3.34+  Mn208  1  0.58757974  0.50439449  0.91724961  1
  Mn3.34+  Mn209  1  0.42113980  0.49786872  0.40717850  1
  Mn3.34+  Mn210  1  0.74805642  0.00420035  0.07480395  1
  Mn3.34+  Mn211  1  0.07985172  0.49717926  0.41710936  1
  Mn3.34+  Mn212  1  0.58289353  0.00083358  0.24703707  1
  Mn3.34+  Mn213  1  0.41516727  -0.00294796  0.07723567  1
  Mn3.34+  Mn214  1  0.09106546  -0.00147790  0.42082283  1
  Mn3.34+  Mn215  1  0.09111979  0.49555038  0.07598242  1
  O2-  O216  1  0.00204916  0.16868140  0.00246609  1
  O2-  O217  1  -0.00276005  0.17288204  0.33290733  1
  O2-  O218  1  0.00035829  0.17060743  0.65998973  1
  O2-  O219  1  -0.00728420  0.66640791  0.00406252  1
  O2-  O220  1  0.00285263  0.65729499  0.32946719  1
  O2-  O221  1  0.00689615  0.66682869  0.65762473  1
  O2-  O222  1  0.32716280  0.16445323  0.00381414  1
  O2-  O223  1  0.33648465  0.16320201  0.33165870  1
  O2-  O224  1  0.33072182  0.17004888  0.66032485  1
  O2-  O225  1  0.33433832  0.66381494  -0.00655896  1
  O2-  O226  1  0.32708699  0.65573411  0.33752558  1
  O2-  O227  1  0.33736408  0.65364382  0.66915818  1
  O2-  O228  1  0.67250997  0.17264537  -0.00579735  1
  O2-  O229  1  0.66581423  0.16046213  0.33461266  1
  O2-  O230  1  0.66312882  0.16894447  0.67351472  1
  O2-  O231  1  0.65056091  0.67485801  0.00517660  1
  O2-  O232  1  0.66590028  0.66063453  0.33481623  1
  O2-  O233  1  0.66802011  0.67053690  0.66793720  1
  O2-  O234  1  0.16575457  0.16822110  0.00765140  1
  O2-  O235  1  0.16654537  0.16720007  0.33586953  1
  O2-  O236  1  0.16375448  0.17137618  0.65665434  1
  O2-  O237  1  0.17023682  0.66855732  -0.00029758  1
  O2-  O238  1  0.16485984  0.65483249  0.33466372  1
  O2-  O239  1  0.16625686  0.65465971  0.66841724  1
  O2-  O240  1  0.50422839  0.16547848  0.00276607  1
  O2-  O241  1  0.49644532  0.16384596  0.33189783  1
  O2-  O242  1  0.50630403  0.16243604  0.66566144  1
  O2-  O243  1  0.51004184  0.66822554  0.00532239  1
  O2-  O244  1  0.50256892  0.65979835  0.33498780  1
  O2-  O245  1  0.49015459  0.66262096  0.65813633  1
  O2-  O246  1  0.82750744  0.17631478  -0.00330266  1
  O2-  O247  1  0.83417028  0.16835129  0.33066406  1
  O2-  O248  1  0.82871336  0.17892093  0.66672106  1
  O2-  O249  1  0.83685352  0.66612111  0.00238289  1
  O2-  O250  1  0.83769537  0.65837774  0.33082929  1
  O2-  O251  1  0.82575647  0.67423822  0.66510613  1
  O2-  O252  1  -0.00685389  0.33475433  0.00670482  1
  O2-  O253  1  0.00534397  0.32154050  0.32915181  1
  O2-  O254  1  0.00232498  0.32976848  0.66680273  1
  O2-  O255  1  0.00161873  0.83558513  0.00144339  1
  O2-  O256  1  -0.00237876  0.84107214  0.33482056  1
  O2-  O257  1  0.00208521  0.82433121  0.65968212  1
  O2-  O258  1  0.33602376  0.33037195  -0.00574780  1
  O2-  O259  1  0.33424063  0.32989439  0.33605258  1
  O2-  O260  1  0.32834942  0.32717537  0.66803508  1
  O2-  O261  1  0.33762683  0.83408416  -0.00308456  1
  O2-  O262  1  0.33270138  0.83770652  0.33453024  1
  O2-  O263  1  0.33427207  0.83840920  0.66485522  1
  O2-  O264  1  0.66675422  0.33195175  0.00282135  1
  O2-  O265  1  0.66801462  0.33826388  0.33050607  1
  O2-  O266  1  0.66783363  0.33080846  0.66593676  1
  O2-  O267  1  0.66675769  0.83437008  -0.00130979  1
  O2-  O268  1  0.66489505  0.83911575  0.33359841  1
  O2-  O269  1  0.66440465  0.83355815  0.66808557  1
  O2-  O270  1  0.16667976  0.32735248  -0.00011863  1
  O2-  O271  1  0.16418766  0.33203330  0.33283684  1
  O2-  O272  1  0.16534592  0.32287588  0.66331676  1
  O2-  O273  1  0.15874038  0.83204443  -0.00575872  1
  O2-  O274  1  0.16725742  0.83754099  0.33171048  1
  O2-  O275  1  0.16677566  0.83829402  0.66768871  1
  O2-  O276  1  0.50235203  0.34026204  0.00300037  1
  O2-  O277  1  0.49868267  0.33145040  0.33465880  1
  O2-  O278  1  0.50376294  0.33327466  0.67016552  1
  O2-  O279  1  0.50073520  0.83231505  -0.00035504  1
  O2-  O280  1  0.50139527  0.83867315  0.33369528  1
  O2-  O281  1  0.50296982  0.83480257  0.66526318  1
  O2-  O282  1  0.83266204  0.33232661  -0.00106747  1
  O2-  O283  1  0.82779160  0.33090614  0.32710495  1
  O2-  O284  1  0.83340010  0.33115445  0.66720889  1
  O2-  O285  1  0.83932582  0.84468519  0.00602269  1
  O2-  O286  1  0.83687623  0.84272098  0.33703880  1
  O2-  O287  1  0.83019134  0.82887976  0.66353312  1
  O2-  O288  1  0.00491788  0.17542604  0.16824825  1
  O2-  O289  1  0.00128229  0.17557696  0.49722720  1
  O2-  O290  1  0.00741625  0.17625990  0.83280657  1
  O2-  O291  1  0.00115011  0.67128135  0.16755369  1
  O2-  O292  1  0.00259263  0.67299160  0.49943762  1
  O2-  O293  1  -0.00306358  0.67620035  0.84068496  1
  O2-  O294  1  0.33731784  0.16646197  0.17343812  1
  O2-  O295  1  0.33068434  0.18219042  0.49598958  1
  O2-  O296  1  0.32600226  0.17639615  0.83269699  1
  O2-  O297  1  0.33182552  0.66950541  0.16985739  1
  O2-  O298  1  0.33620170  0.66637976  0.49907250  1
  O2-  O299  1  0.32682922  0.66989085  0.82770336  1
  O2-  O300  1  0.66899516  0.17775591  0.17179956  1
  O2-  O301  1  0.66258949  0.17113639  0.50051374  1
  O2-  O302  1  0.66893155  0.17441330  0.82637788  1
  O2-  O303  1  0.66480684  0.66860241  0.17059761  1
  O2-  O304  1  0.66550159  0.67470008  0.49967271  1
  O2-  O305  1  0.67033517  0.68370899  0.83275167  1
  O2-  O306  1  0.16560474  0.16954923  0.17129644  1
  O2-  O307  1  0.16486945  0.17982014  0.49959465  1
  O2-  O308  1  0.16769720  0.18030031  0.82920424  1
  O2-  O309  1  0.16094663  0.67309949  0.17196298  1
  O2-  O310  1  0.16618665  0.66528755  0.49696880  1
  O2-  O311  1  0.16868634  0.66917722  0.82833491  1
  O2-  O312  1  0.49176356  0.16876939  0.16882599  1
  O2-  O313  1  0.50115380  0.17581624  0.49863932  1
  O2-  O314  1  0.51097885  0.16804030  0.83161265  1
  O2-  O315  1  0.50399188  0.66832805  0.16929108  1
  O2-  O316  1  0.49678309  0.67343757  0.50525550  1
  O2-  O317  1  0.49844450  0.68073684  0.84333055  1
  O2-  O318  1  0.83118145  0.18423592  0.17025878  1
  O2-  O319  1  0.83934344  0.17075594  0.49686135  1
  O2-  O320  1  0.82414984  0.17798987  0.82613045  1
  O2-  O321  1  0.83824376  0.66843441  0.16730889  1
  O2-  O322  1  0.83629482  0.67329095  0.49927971  1
  O2-  O323  1  0.83411452  0.67880010  0.83395218  1
  O2-  O324  1  0.00290514  0.32914972  0.17296883  1
  O2-  O325  1  0.00480689  0.32207762  0.50340666  1
  O2-  O326  1  -0.00311843  0.32169666  0.82599957  1
  O2-  O327  1  -0.00010403  0.82263531  0.16384545  1
  O2-  O328  1  -0.00349711  0.82620372  0.49962148  1
  O2-  O329  1  0.00835454  0.83172777  0.84309204  1
  O2-  O330  1  0.33959142  0.32968118  0.17269872  1
  O2-  O331  1  0.32894000  0.31561265  0.49964437  1
  O2-  O332  1  0.33403573  0.33006981  0.83132504  1
  O2-  O333  1  0.33844484  0.82646686  0.17077146  1
  O2-  O334  1  0.33262468  0.83046464  0.49936913  1
  O2-  O335  1  0.33127969  0.83288953  0.83219638  1
  O2-  O336  1  0.66852460  0.32481858  0.16655859  1
  O2-  O337  1  0.66624832  0.32887581  0.49827227  1
  O2-  O338  1  0.66637519  0.32540285  0.83294737  1
  O2-  O339  1  0.66784008  0.83198977  0.16733596  1
  O2-  O340  1  0.66407299  0.82100851  0.50161845  1
  O2-  O341  1  0.66344925  0.82830524  0.83160903  1
  O2-  O342  1  0.16023983  0.33180307  0.17325203  1
  O2-  O343  1  0.16889794  0.31659222  0.50001687  1
  O2-  O344  1  0.17063107  0.32265180  0.82685405  1
  O2-  O345  1  0.16214621  0.81860661  0.16797893  1
  O2-  O346  1  0.16725875  0.83043101  0.50158888  1
  O2-  O347  1  0.16572923  0.83538775  0.83531908  1
  O2-  O348  1  0.50072896  0.33164333  0.16776805  1
  O2-  O349  1  0.50308543  0.32117882  0.49614229  1
  O2-  O350  1  0.49870789  0.33304042  0.83319832  1
  O2-  O351  1  0.50108326  0.82989840  0.16699180  1
  O2-  O352  1  0.50071030  0.82396488  0.50185587  1
  O2-  O353  1  0.50417111  0.82591202  0.83296008  1
  O2-  O354  1  0.83292992  0.32108013  0.16679531  1
  O2-  O355  1  0.82967053  0.32828277  0.50460043  1
  O2-  O356  1  0.83253429  0.32508209  0.83300240  1
  O2-  O357  1  0.83386223  0.83186433  0.16466466  1
  O2-  O358  1  0.83886214  0.82361931  0.49809086  1
  O2-  O359  1  0.82828119  0.82873961  0.83845016  1
  O2-  O360  1  0.09340263  0.08118499  0.10186922  1
  O2-  O361  1  0.08363006  0.08548286  0.43772450  1
  O2-  O362  1  0.09098916  0.08878571  0.75132131  1
  O2-  O363  1  0.08063723  0.57938405  0.11006684  1
  O2-  O364  1  0.08495794  0.58091744  0.43941357  1
  O2-  O365  1  0.09326265  0.57901337  0.76967928  1
  O2-  O366  1  0.41159006  0.07624134  0.11639622  1
  O2-  O367  1  0.41514245  0.08176567  0.43646306  1
  O2-  O368  1  0.42777627  0.08111283  0.75976472  1
  O2-  O369  1  0.41995342  0.57992232  0.10076118  1
  O2-  O370  1  0.41134254  0.57723601  0.44576330  1
  O2-  O371  1  0.41191772  0.57939262  0.77605753  1
  O2-  O372  1  0.75249889  0.07898737  0.09404258  1
  O2-  O373  1  0.75141747  0.08402164  0.43130291  1
  O2-  O374  1  0.73152899  0.07884420  0.77007822  1
  O2-  O375  1  0.75213128  0.57915097  0.10645193  1
  O2-  O376  1  0.75182348  0.57926082  0.44013904  1
  O2-  O377  1  0.74932243  0.58734837  0.75890550  1
  O2-  O378  1  0.25494234  0.08393846  0.23602572  1
  O2-  O379  1  0.24501613  0.08456436  0.55992037  1
  O2-  O380  1  0.24907185  0.07469734  0.89717519  1
  O2-  O381  1  0.23732016  0.58325251  0.22936809  1
  O2-  O382  1  0.25836979  0.57915873  0.55448484  1
  O2-  O383  1  0.25803335  0.58186814  0.89175308  1
  O2-  O384  1  0.57156957  0.08380739  0.23637763  1
  O2-  O385  1  0.57245938  0.08337410  0.57269535  1
  O2-  O386  1  0.59027310  0.07969477  0.89063505  1
  O2-  O387  1  0.58347138  0.58121830  0.22812972  1
  O2-  O388  1  0.57201132  0.57843765  0.55316246  1
  O2-  O389  1  0.57099841  0.57997625  0.91278231  1
  O2-  O390  1  0.91720055  0.08028501  0.23997672  1
  O2-  O391  1  0.93637746  0.08396988  0.55998612  1
  O2-  O392  1  0.91286046  0.07667519  0.89732160  1
  O2-  O393  1  0.92605023  0.58126633  0.22563725  1
  O2-  O394  1  0.92889197  0.57429007  0.55419110  1
  O2-  O395  1  0.91692936  0.58498632  0.91090728  1
  O2-  O396  1  0.07291235  0.41742263  0.10816522  1
  O2-  O397  1  0.09268286  0.41603224  0.42504241  1
  O2-  O398  1  0.08363676  0.41746855  0.75315496  1
  O2-  O399  1  0.06399182  0.92076435  0.10083489  1
  O2-  O400  1  0.07729458  0.91664088  0.43460901  1
  O2-  O401  1  0.08450997  0.92270775  0.76937464  1
  O2-  O402  1  0.42233752  0.41728586  0.10256913  1
  O2-  O403  1  0.41217035  0.41885402  0.42122347  1
  O2-  O404  1  0.41736335  0.41832774  0.76573204  1
  O2-  O405  1  0.42483842  0.91737398  0.10075910  1
  O2-  O406  1  0.41955837  0.91757879  0.43564457  1
  O2-  O407  1  0.42069755  0.92050968  0.77085089  1
  O2-  O408  1  0.75099845  0.41951782  0.11078163  1
  O2-  O409  1  0.74142380  0.41929458  0.42288172  1
  O2-  O410  1  0.75045168  0.41975885  0.76959176  1
  O2-  O411  1  0.75717847  0.92264840  0.10505756  1
  O2-  O412  1  0.75188546  0.91531069  0.43884164  1
  O2-  O413  1  0.73518789  0.91617842  0.76199932  1
  O2-  O414  1  0.23813739  0.41592534  0.24747518  1
  O2-  O415  1  0.23567119  0.41686658  0.56668002  1
  O2-  O416  1  0.26079920  0.41731355  0.89287137  1
  O2-  O417  1  0.24692896  0.91431478  0.23959348  1
  O2-  O418  1  0.25104931  0.91613969  0.56830772  1
  O2-  O419  1  0.24456824  0.92487420  0.89472970  1
  O2-  O420  1  0.59434510  0.41663082  0.23354023  1
  O2-  O421  1  0.59272529  0.41592801  0.56667845  1
  O2-  O422  1  0.58922969  0.42077392  0.89523004  1
  O2-  O423  1  0.58360101  0.91874104  0.23151025  1
  O2-  O424  1  0.58235782  0.91892216  0.56823843  1
  O2-  O425  1  0.58357530  0.92339991  0.88803938  1
  O2-  O426  1  0.92169906  0.42047054  0.23158982  1
  O2-  O427  1  0.91898265  0.41344644  0.57939281  1
  O2-  O428  1  0.90971191  0.41564612  0.89887211  1
  O2-  O429  1  0.92042852  0.91837082  0.22495610  1
  O2-  O430  1  0.91470368  0.92536590  0.54996233  1
  O2-  O431  1  0.92571485  0.92225354  0.90408494  1
  O2-  O432  1  0.00212081  -0.01081283  -0.00285622  1
  O2-  O433  1  -0.00149618  -0.00458101  0.33739820  1
  O2-  O434  1  0.00959939  0.00355668  0.65154226  1
  O2-  O435  1  -0.00319642  0.50197302  0.00668185  1
  O2-  O436  1  0.00935866  0.50989342  0.32016985  1
  O2-  O437  1  0.01001676  0.50583684  0.65426011  1
  O2-  O438  1  0.33053138  -0.00033871  -0.00247280  1
  O2-  O439  1  0.33421022  0.00371322  0.33085066  1
  O2-  O440  1  0.33677407  -0.00106007  0.66506273  1
  O2-  O441  1  0.33547157  0.51026839  -0.00528968  1
  O2-  O442  1  0.32577106  0.51147415  0.34479925  1
  O2-  O443  1  0.32914765  0.51828813  0.67492052  1
  O2-  O444  1  0.67178743  -0.00685804  -0.00592382  1
  O2-  O445  1  0.66388046  0.00093761  0.33413647  1
  O2-  O446  1  0.65665540  -0.00284976  0.68698904  1
  O2-  O447  1  0.65891161  0.49956231  0.00828265  1
  O2-  O448  1  0.67064394  0.49866286  0.32400781  1
  O2-  O449  1  0.66834600  0.50060371  0.66243139  1
  O2-  O450  1  0.16008713  -0.00440383  -0.01092455  1
  O2-  O451  1  0.16607310  0.00497774  0.32903262  1
  O2-  O452  1  0.16932237  -0.00003554  0.67183877  1
  O2-  O453  1  0.18144575  0.51317052  0.00120251  1
  O2-  O454  1  0.16495183  0.51189572  0.33171062  1
  O2-  O455  1  0.16936886  0.51268147  0.67588708  1
  O2-  O456  1  0.49927132  -0.00935292  0.00073604  1
  O2-  O457  1  0.49453582  0.00624319  0.32770547  1
  O2-  O458  1  0.50854951  -0.00315010  0.68470415  1
  O2-  O459  1  0.49983554  0.49841798  0.00144319  1
  O2-  O460  1  0.50404088  0.50306722  0.34062175  1
  O2-  O461  1  0.49097801  0.51021509  0.65440332  1
  O2-  O462  1  0.83671558  -0.00801119  -0.00138233  1
  O2-  O463  1  0.84052581  -0.00755819  0.34470040  1
  O2-  O464  1  0.81937174  0.00032843  0.65952131  1
  O2-  O465  1  0.83952049  0.50190908  0.00861337  1
  O2-  O466  1  0.81836693  0.50277254  0.31158247  1
  O2-  O467  1  0.83019181  0.50178956  0.65937119  1
  O2-  O468  1  0.58373266  0.75035830  0.25793516  1
  O2-  O469  1  0.58055922  0.25035036  0.25610198  1
  O2-  O470  1  0.25074547  0.25011836  0.25478766  1
  O2-  O471  1  0.74973544  0.75288627  0.74408150  1
  O2-  O472  1  0.75168200  0.74736875  0.40651386  1
  O2-  O473  1  0.91439397  0.24946300  0.58117489  1
  O2-  O474  1  0.74925384  0.25342472  0.41025813  1
  O2-  O475  1  0.08445286  0.24887680  0.08521971  1
  O2-  O476  1  0.41188959  0.75136070  0.73892518  1
  O2-  O477  1  0.09038938  0.75073909  0.74869660  1
  O2-  O478  1  0.75126421  0.75299798  0.08105955  1
  O2-  O479  1  0.91748905  0.75185569  0.92485764  1
  O2-  O480  1  0.08523107  0.74925627  0.40730647  1
  O2-  O481  1  0.91785807  0.75094663  0.26116668  1
  O2-  O482  1  0.24842577  0.74841122  0.26366680  1
  O2-  O483  1  0.41907183  0.25120269  0.74977712  1
  O2-  O484  1  0.24969874  0.74877489  0.58934141  1
  O2-  O485  1  0.41328467  0.75136386  0.41309221  1
  O2-  O486  1  0.24824933  0.74881318  0.91437211  1
  O2-  O487  1  0.58523900  0.24964182  0.58794395  1
  O2-  O488  1  0.42052757  0.25029318  0.08551050  1
  O2-  O489  1  0.41646484  0.75237094  0.08176782  1
  O2-  O490  1  0.25202415  0.25203318  0.91636968  1
  O2-  O491  1  0.57816007  0.25188861  0.92140735  1
  O2-  O492  1  0.91921293  0.24854132  0.91939922  1
