# generated using pymatgen
data_Ca108Mn108O277
_symmetry_space_group_name_H-M   'P 1'
_cell_length_a   16.02625858
_cell_length_b   22.30455226
_cell_length_c   16.38878644
_cell_angle_alpha   90.00324662
_cell_angle_beta   90.00180124
_cell_angle_gamma   89.99977934
_symmetry_Int_Tables_number   1
_chemical_formula_structural   Ca108Mn108O277
_chemical_formula_sum   'Ca108 Mn108 O277'
_cell_volume   5858.31136796
_cell_formula_units_Z   1
loop_
 _symmetry_equiv_pos_site_id
 _symmetry_equiv_pos_as_xyz
  1  'x, y, z'
loop_
 _atom_type_symbol
 _atom_type_oxidation_number
  Ca2+  2.0
  Mn3.34+  3.34
  O2-  -2.0
loop_
 _atom_site_type_symbol
 _atom_site_label
 _atom_site_symmetry_multiplicity
 _atom_site_fract_x
 _atom_site_fract_y
 _atom_site_fract_z
 _atom_site_occupancy
  Ca2+  Ca0  1  0.08272995  0.26112523  0.24424728  1
  Ca2+  Ca1  1  0.05528167  0.24181802  0.59855457  1
  Ca2+  Ca2  1  0.07342584  0.25080815  0.91069219  1
  Ca2+  Ca3  1  0.08456057  0.74336538  0.24589680  1
  Ca2+  Ca4  1  0.09405384  0.74301312  0.57193944  1
  Ca2+  Ca5  1  0.09053728  0.73926937  0.92810439  1
  Ca2+  Ca6  1  0.42427724  0.26205532  0.25363509  1
  Ca2+  Ca7  1  0.43748833  0.25388687  0.59656611  1
  Ca2+  Ca8  1  0.42875059  0.24540037  0.91130423  1
  Ca2+  Ca9  1  0.40150802  0.74499312  0.22743713  1
  Ca2+  Ca10  1  0.39569376  0.74950701  0.59973212  1
  Ca2+  Ca11  1  0.40633747  0.74868722  0.92727185  1
  Ca2+  Ca12  1  0.74246592  0.25583755  0.25405906  1
  Ca2+  Ca13  1  0.74232808  0.24145420  0.59604348  1
  Ca2+  Ca14  1  0.74702235  0.25379232  0.90558209  1
  Ca2+  Ca15  1  0.76741892  0.74875894  0.24513977  1
  Ca2+  Ca16  1  0.76131087  0.75070677  0.56981284  1
  Ca2+  Ca17  1  0.76362717  0.74622641  0.92902753  1
  Ca2+  Ca18  1  0.25622704  0.26030869  0.06921760  1
  Ca2+  Ca19  1  0.25514997  0.26875912  0.42180191  1
  Ca2+  Ca20  1  0.25180586  0.25773119  0.76074910  1
  Ca2+  Ca21  1  0.24790804  0.73611225  0.08124962  1
  Ca2+  Ca22  1  0.22456199  0.74884596  0.40783254  1
  Ca2+  Ca23  1  0.24576169  0.75069240  0.75286386  1
  Ca2+  Ca24  1  0.58292816  0.25676675  0.07210741  1
  Ca2+  Ca25  1  0.58092159  0.24211260  0.45103827  1
  Ca2+  Ca26  1  0.58540224  0.23832003  0.73772454  1
  Ca2+  Ca27  1  0.56309295  0.74650922  0.07807527  1
  Ca2+  Ca28  1  0.59781819  0.76330026  0.41486502  1
  Ca2+  Ca29  1  0.56640600  0.74625992  0.75664569  1
  Ca2+  Ca30  1  0.91333507  0.26223207  0.07074756  1
  Ca2+  Ca31  1  0.90542038  0.25154102  0.45473711  1
  Ca2+  Ca32  1  0.90688312  0.22879059  0.73620190  1
  Ca2+  Ca33  1  0.94040393  0.74507509  0.08764923  1
  Ca2+  Ca34  1  0.94110587  0.73964696  0.40739018  1
  Ca2+  Ca35  1  0.93564529  0.75610661  0.74656923  1
  Ca2+  Ca36  1  0.23488110  0.59792089  0.40354445  1
  Ca2+  Ca37  1  0.42580392  0.10351027  0.24564444  1
  Ca2+  Ca38  1  0.93311861  0.08253871  0.06834648  1
  Ca2+  Ca39  1  0.40106858  0.61347483  0.92476266  1
  Ca2+  Ca40  1  0.07756067  0.08513196  0.90647911  1
  Ca2+  Ca41  1  0.74629439  0.10008095  0.90520130  1
  Ca2+  Ca42  1  0.92187620  0.59125833  0.75583027  1
  Ca2+  Ca43  1  0.75131598  0.59576549  0.57783970  1
  Ca2+  Ca44  1  0.93996127  0.59848865  0.08301254  1
  Ca2+  Ca45  1  0.26689059  0.61701539  0.76802102  1
  Ca2+  Ca46  1  0.93382201  0.59362755  0.75740398  1
  Ca2+  Ca47  1  0.08928063  0.08522532  0.90659559  1
  Ca2+  Ca48  1  0.73493810  0.09711715  0.25037771  1
  Ca2+  Ca49  1  0.06287405  0.07594896  0.63071330  1
  Ca2+  Ca50  1  0.71614859  0.09578158  0.59265802  1
  Ca2+  Ca51  1  0.26405307  0.07917711  0.42260498  1
  Ca2+  Ca52  1  0.91201816  0.09557156  0.43383867  1
  Ca2+  Ca53  1  0.58128277  0.58271116  0.42027284  1
  Ca2+  Ca54  1  0.47864510  0.08500379  0.59277073  1
  Ca2+  Ca55  1  0.73878107  0.59553943  0.57783737  1
  Ca2+  Ca56  1  0.72527981  0.57042335  0.94760180  1
  Ca2+  Ca57  1  0.08088065  0.08095453  0.25074129  1
  Ca2+  Ca58  1  0.76719008  0.59223704  0.23128381  1
  Ca2+  Ca59  1  0.25138540  0.07756282  0.42245363  1
  Ca2+  Ca60  1  0.08885747  0.60345631  0.23715291  1
  Ca2+  Ca61  1  0.38408972  0.58744047  0.23371203  1
  Ca2+  Ca62  1  0.74806180  0.09693044  0.25031319  1
  Ca2+  Ca63  1  0.57969855  0.09737790  0.06388659  1
  Ca2+  Ca64  1  0.24752917  0.08594184  0.74793998  1
  Ca2+  Ca65  1  0.94465815  0.07956868  0.07232389  1
  Ca2+  Ca66  1  0.24197299  0.59268259  0.40622676  1
  Ca2+  Ca67  1  0.42830372  0.09657738  0.25363357  1
  Ca2+  Ca68  1  0.23422732  0.08713666  0.06308186  1
  Ca2+  Ca69  1  0.89967438  0.09522044  0.43508819  1
  Ca2+  Ca70  1  0.73456105  0.57239683  0.95159845  1
  Ca2+  Ca71  1  0.49075400  0.08402159  0.59029687  1
  Ca2+  Ca72  1  0.73301348  0.41669237  0.90452954  1
  Ca2+  Ca73  1  0.91180128  0.40257179  0.41414738  1
  Ca2+  Ca74  1  0.09676582  0.39969742  0.58398533  1
  Ca2+  Ca75  1  0.95151123  0.91371808  0.75297984  1
  Ca2+  Ca76  1  0.10788577  0.42273546  0.24436527  1
  Ca2+  Ca77  1  0.60432677  0.43073179  0.05016996  1
  Ca2+  Ca78  1  0.90581403  0.40982309  0.75354852  1
  Ca2+  Ca79  1  0.42548211  0.40811571  0.91746212  1
  Ca2+  Ca80  1  0.07778240  0.41617250  0.92504003  1
  Ca2+  Ca81  1  0.08407369  0.89516931  0.24565789  1
  Ca2+  Ca82  1  0.93631281  0.90258851  0.08681657  1
  Ca2+  Ca83  1  0.73792652  0.41474957  0.59477934  1
  Ca2+  Ca84  1  0.24924809  0.89386506  0.42139950  1
  Ca2+  Ca85  1  0.09603452  0.41992238  0.24612097  1
  Ca2+  Ca86  1  0.43604339  0.40842149  0.91712866  1
  Ca2+  Ca87  1  0.08856006  0.41544661  0.92542686  1
  Ca2+  Ca88  1  0.27492511  0.42673663  0.40933815  1
  Ca2+  Ca89  1  0.09655588  0.40116044  0.59416741  1
  Ca2+  Ca90  1  0.76016385  0.40962699  0.24339304  1
  Ca2+  Ca91  1  0.74761577  0.40889198  0.24372665  1
  Ca2+  Ca92  1  0.73999341  0.90364796  0.58563684  1
  Ca2+  Ca93  1  0.41820265  0.88661971  0.24998916  1
  Ca2+  Ca94  1  0.90897290  0.42249614  0.06822711  1
  Ca2+  Ca95  1  0.56027560  0.40854489  0.42111521  1
  Ca2+  Ca96  1  0.58069084  0.91936284  0.72715616  1
  Ca2+  Ca97  1  0.57082843  0.91615347  0.72891630  1
  Ca2+  Ca98  1  0.39360207  0.42846853  0.27704175  1
  Ca2+  Ca99  1  0.41030295  0.90560339  0.58290921  1
  Ca2+  Ca100  1  0.22831467  0.91542189  0.74453958  1
  Ca2+  Ca101  1  0.75572400  0.89990088  0.90971832  1
  Ca2+  Ca102  1  0.74305993  0.90045906  0.91064312  1
  Ca2+  Ca103  1  0.74265248  0.40830513  0.59753517  1
  Ca2+  Ca104  1  0.75259281  0.90376211  0.58528699  1
  Ca2+  Ca105  1  0.41409165  0.89582522  0.91234344  1
  Ca2+  Ca106  1  0.24684545  0.41994633  0.08168532  1
  Ca2+  Ca107  1  0.75604123  0.89268341  0.24460122  1
  Mn3.34+  Mn108  1  0.08313646  0.33241035  0.08430408  1
  Mn3.34+  Mn109  1  0.08502026  0.33293093  0.41748696  1
  Mn3.34+  Mn110  1  0.08678172  0.33463119  0.75828498  1
  Mn3.34+  Mn111  1  0.09295206  0.83580079  0.08025471  1
  Mn3.34+  Mn112  1  0.07885531  0.83321881  0.41776048  1
  Mn3.34+  Mn113  1  0.08791672  0.83439955  0.75193458  1
  Mn3.34+  Mn114  1  0.42016597  0.33797743  0.09138193  1
  Mn3.34+  Mn115  1  0.41798970  0.33244094  0.41987427  1
  Mn3.34+  Mn116  1  0.41795965  0.33196227  0.74814733  1
  Mn3.34+  Mn117  1  0.41176857  0.82813558  0.08177058  1
  Mn3.34+  Mn118  1  0.41751289  0.83174958  0.42101445  1
  Mn3.34+  Mn119  1  0.41013711  0.83196727  0.75397111  1
  Mn3.34+  Mn120  1  0.74992350  0.33552058  0.07971168  1
  Mn3.34+  Mn121  1  0.74664366  0.33510407  0.42150180  1
  Mn3.34+  Mn122  1  0.74722955  0.33663624  0.75411636  1
  Mn3.34+  Mn123  1  0.75012139  0.82812647  0.08526415  1
  Mn3.34+  Mn124  1  0.75554940  0.83109845  0.41282859  1
  Mn3.34+  Mn125  1  0.74998866  0.82578733  0.75242581  1
  Mn3.34+  Mn126  1  0.25336831  0.33617352  0.24500928  1
  Mn3.34+  Mn127  1  0.26206607  0.33965263  0.58597858  1
  Mn3.34+  Mn128  1  0.25310804  0.34130701  0.91317021  1
  Mn3.34+  Mn129  1  0.24818644  0.82751912  0.24817295  1
  Mn3.34+  Mn130  1  0.24415899  0.83140032  0.58294106  1
  Mn3.34+  Mn131  1  0.24386243  0.83971942  0.91588806  1
  Mn3.34+  Mn132  1  0.58277989  0.33372982  0.24605861  1
  Mn3.34+  Mn133  1  0.57836695  0.33463389  0.58800987  1
  Mn3.34+  Mn134  1  0.58579117  0.33474870  0.91216995  1
  Mn3.34+  Mn135  1  0.58421311  0.82866901  0.24982010  1
  Mn3.34+  Mn136  1  0.57778270  0.82903353  0.57917526  1
  Mn3.34+  Mn137  1  0.57993031  0.83125137  0.91467045  1
  Mn3.34+  Mn138  1  0.91894577  0.33445347  0.24671726  1
  Mn3.34+  Mn139  1  0.91743615  0.33449746  0.58791198  1
  Mn3.34+  Mn140  1  0.91279553  0.33487487  0.91350174  1
  Mn3.34+  Mn141  1  0.92020345  0.83228083  0.25022558  1
  Mn3.34+  Mn142  1  0.92491298  0.83274540  0.57981333  1
  Mn3.34+  Mn143  1  0.92579505  0.83243412  0.91713177  1
  Mn3.34+  Mn144  1  0.57609598  0.67063952  0.58546485  1
  Mn3.34+  Mn145  1  0.74591349  0.66158841  0.76179344  1
  Mn3.34+  Mn146  1  0.42017895  0.16577140  0.75785391  1
  Mn3.34+  Mn147  1  0.58384684  0.17830375  0.25106761  1
  Mn3.34+  Mn148  1  0.74851188  0.17362999  0.07846671  1
  Mn3.34+  Mn149  1  0.91961236  0.18020705  0.24905236  1
  Mn3.34+  Mn150  1  0.08002641  0.16665379  0.42157837  1
  Mn3.34+  Mn151  1  0.74320491  0.17171241  0.42517754  1
  Mn3.34+  Mn152  1  0.42035274  0.16735156  0.42530941  1
  Mn3.34+  Mn153  1  0.59044205  0.66331091  0.24456157  1
  Mn3.34+  Mn154  1  0.24875434  0.66489633  0.58735150  1
  Mn3.34+  Mn155  1  0.08927488  0.66837336  0.75111348  1
  Mn3.34+  Mn156  1  0.58375770  0.16771444  0.91030620  1
  Mn3.34+  Mn157  1  0.42394585  0.66413716  0.42487270  1
  Mn3.34+  Mn158  1  0.92221158  0.66537182  0.25121974  1
  Mn3.34+  Mn159  1  0.24782874  0.18227577  0.25096874  1
  Mn3.34+  Mn160  1  0.58124691  0.66903685  0.24553061  1
  Mn3.34+  Mn161  1  0.24314988  0.66440099  0.23645844  1
  Mn3.34+  Mn162  1  0.91346974  0.16639189  0.91164625  1
  Mn3.34+  Mn163  1  0.75528465  0.66494475  0.08060456  1
  Mn3.34+  Mn164  1  0.91332947  0.17290520  0.24654461  1
  Mn3.34+  Mn165  1  0.92305178  0.66897405  0.91877480  1
  Mn3.34+  Mn166  1  0.08081794  0.16908036  0.75413430  1
  Mn3.34+  Mn167  1  0.75401873  0.66637041  0.41361433  1
  Mn3.34+  Mn168  1  0.41804902  0.17246590  0.07552183  1
  Mn3.34+  Mn169  1  0.25438826  0.16229456  0.91148508  1
  Mn3.34+  Mn170  1  0.74725853  0.16533875  0.74595033  1
  Mn3.34+  Mn171  1  0.24813217  0.16848076  0.58693356  1
  Mn3.34+  Mn172  1  0.09166691  0.16368703  0.42551985  1
  Mn3.34+  Mn173  1  0.73709181  0.66756536  0.76025690  1
  Mn3.34+  Mn174  1  0.08524065  0.17168363  0.08050917  1
  Mn3.34+  Mn175  1  0.41525054  0.67029809  0.42331839  1
  Mn3.34+  Mn176  1  0.57831685  0.66258314  0.91536699  1
  Mn3.34+  Mn177  1  0.25328882  0.17458356  0.24808970  1
  Mn3.34+  Mn178  1  0.25811405  0.17364325  0.58769734  1
  Mn3.34+  Mn179  1  0.92388482  0.67141566  0.57793479  1
  Mn3.34+  Mn180  1  0.58005116  0.50206773  0.58722902  1
  Mn3.34+  Mn181  1  0.73779402  -0.00199068  0.42081605  1
  Mn3.34+  Mn182  1  0.10526810  0.50438631  0.74697472  1
  Mn3.34+  Mn183  1  0.72737459  0.00317399  0.42254801  1
  Mn3.34+  Mn184  1  0.93416332  0.50353655  0.58331307  1
  Mn3.34+  Mn185  1  0.41156867  0.50724061  0.74631538  1
  Mn3.34+  Mn186  1  0.41910752  0.49780819  0.07296337  1
  Mn3.34+  Mn187  1  0.76086888  0.50261886  0.40775939  1
  Mn3.34+  Mn188  1  0.92231531  -0.00163626  0.25992821  1
  Mn3.34+  Mn189  1  0.40839685  -0.00274224  0.07864984  1
  Mn3.34+  Mn190  1  0.44176219  -0.00091085  0.41711036  1
  Mn3.34+  Mn191  1  0.91973726  0.50058683  0.23854740  1
  Mn3.34+  Mn192  1  0.92233452  0.50705966  0.58316667  1
  Mn3.34+  Mn193  1  0.58921083  -0.00842975  0.23347278  1
  Mn3.34+  Mn194  1  0.56715414  0.49614563  0.24246298  1
  Mn3.34+  Mn195  1  0.57623051  -0.00161364  0.23055722  1
  Mn3.34+  Mn196  1  0.07781130  0.50645168  0.41940779  1
  Mn3.34+  Mn197  1  0.24299800  -0.00509268  0.59591584  1
  Mn3.34+  Mn198  1  0.25013254  0.50371232  0.58611370  1
  Mn3.34+  Mn199  1  0.57860683  0.50139817  0.24276558  1
  Mn3.34+  Mn200  1  0.92187498  -0.00180650  0.91284660  1
  Mn3.34+  Mn201  1  0.92105727  -0.01000130  0.60063848  1
  Mn3.34+  Mn202  1  0.92271378  0.50351802  0.92569481  1
  Mn3.34+  Mn203  1  0.24594959  0.50221078  0.93217459  1
  Mn3.34+  Mn204  1  0.24263507  0.00040644  0.23712171  1
  Mn3.34+  Mn205  1  0.23687974  -0.00725319  0.92844905  1
  Mn3.34+  Mn206  1  0.25710990  -0.00487639  0.24007015  1
  Mn3.34+  Mn207  1  0.74955636  0.00222489  0.74421915  1
  Mn3.34+  Mn208  1  0.73600663  -0.00567416  0.08095065  1
  Mn3.34+  Mn209  1  0.42045166  -0.00902105  0.07363937  1
  Mn3.34+  Mn210  1  0.07404074  -0.00279889  0.42081211  1
  Mn3.34+  Mn211  1  0.57930764  0.00404173  0.90642332  1
  Mn3.34+  Mn212  1  0.06327903  0.50180757  0.42135667  1
  Mn3.34+  Mn213  1  0.42145123  0.50205266  0.74652750  1
  Mn3.34+  Mn214  1  0.74747142  0.00021228  0.08164734  1
  Mn3.34+  Mn215  1  0.41450475  0.00279712  0.75194539  1
  O2-  O216  1  0.00237370  0.14989963  -0.00502751  1
  O2-  O217  1  0.00219557  0.14858331  0.32503035  1
  O2-  O218  1  0.00544575  0.16154227  0.67348987  1
  O2-  O219  1  -0.00133464  0.66317889  -0.00451285  1
  O2-  O220  1  0.00017762  0.66106120  0.32492127  1
  O2-  O221  1  -0.01061729  0.65612120  0.67113503  1
  O2-  O222  1  0.31840471  0.16564280  0.01054744  1
  O2-  O223  1  0.33317473  0.14634686  0.33500540  1
  O2-  O224  1  0.33678350  0.16138237  0.66949575  1
  O2-  O225  1  0.31564341  0.68096679  -0.01805396  1
  O2-  O226  1  0.33703706  0.66453791  0.33840270  1
  O2-  O227  1  0.32747440  0.67359203  0.67097254  1
  O2-  O228  1  0.66899221  0.15840403  -0.00080396  1
  O2-  O229  1  0.67131930  0.16351382  0.32866002  1
  O2-  O230  1  0.66352221  0.16421384  0.67437317  1
  O2-  O231  1  0.67368243  0.66550864  -0.00731679  1
  O2-  O232  1  0.65946333  0.64473696  0.33256589  1
  O2-  O233  1  0.66659357  0.67000937  0.66571244  1
  O2-  O234  1  0.16265743  0.15497200  -0.01014685  1
  O2-  O235  1  0.17024912  0.14532411  0.33411760  1
  O2-  O236  1  0.17101558  0.16385518  0.67371328  1
  O2-  O237  1  0.17671753  0.67437648  -0.00516090  1
  O2-  O238  1  0.17280858  0.66263042  0.33006724  1
  O2-  O239  1  0.16609227  0.65137150  0.66640751  1
  O2-  O240  1  0.50168966  0.16120455  -0.00169291  1
  O2-  O241  1  0.49938016  0.16011815  0.33158802  1
  O2-  O242  1  0.49795296  0.15921556  0.67567188  1
  O2-  O243  1  0.50812221  0.67157595  -0.00547937  1
  O2-  O244  1  0.50019759  0.65872267  0.33622210  1
  O2-  O245  1  0.50275053  0.70147978  0.65585007  1
  O2-  O246  1  0.84156424  0.14317753  0.00724173  1
  O2-  O247  1  0.83330805  0.14975206  0.33268850  1
  O2-  O248  1  0.82093811  0.15977317  0.66521085  1
  O2-  O249  1  0.83017300  0.64843079  -0.01079334  1
  O2-  O250  1  0.82334597  0.65710027  0.32336474  1
  O2-  O251  1  0.82565116  0.65033899  0.66999807  1
  O2-  O252  1  0.00003310  0.35087414  0.00154067  1
  O2-  O253  1  0.00622995  0.35535772  0.32216390  1
  O2-  O254  1  0.00209063  0.35247058  0.67094389  1
  O2-  O255  1  0.00105384  0.84099220  0.00193819  1
  O2-  O256  1  0.00277720  0.84012196  0.32860694  1
  O2-  O257  1  -0.00438611  0.84213506  0.66991801  1
  O2-  O258  1  0.33446519  0.35272859  0.00157705  1
  O2-  O259  1  0.33035227  0.33669564  0.33270783  1
  O2-  O260  1  0.33158023  0.31434164  0.66810758  1
  O2-  O261  1  0.33557617  0.83705418  -0.00695685  1
  O2-  O262  1  0.33418183  0.83285038  0.33668419  1
  O2-  O263  1  0.33490338  0.84036206  0.66612537  1
  O2-  O264  1  0.66638823  0.34544729  -0.00058026  1
  O2-  O265  1  0.66866973  0.34691289  0.32838161  1
  O2-  O266  1  0.66998095  0.34131676  0.66331053  1
  O2-  O267  1  0.67201750  0.83657017  -0.00874569  1
  O2-  O268  1  0.66843644  0.84508430  0.33379160  1
  O2-  O269  1  0.66233481  0.82689145  0.67100264  1
  O2-  O270  1  0.16993314  0.34544649  0.00042122  1
  O2-  O271  1  0.16764379  0.34208028  0.32774581  1
  O2-  O272  1  0.16919350  0.33578948  0.66748211  1
  O2-  O273  1  0.17211464  0.82136224  -0.00139348  1
  O2-  O274  1  0.16933571  0.83837480  0.33357850  1
  O2-  O275  1  0.17226704  0.84202649  0.67099859  1
  O2-  O276  1  0.50290166  0.34884810  0.00616235  1
  O2-  O277  1  0.49950023  0.33837397  0.32768852  1
  O2-  O278  1  0.49828919  0.34054670  0.66796547  1
  O2-  O279  1  0.49839922  0.83072624  -0.00421947  1
  O2-  O280  1  0.49564014  0.82216702  0.33440273  1
  O2-  O281  1  0.49877773  0.83653339  0.66856213  1
  O2-  O282  1  0.83547505  0.35101451  0.00012700  1
  O2-  O283  1  0.83392169  0.34460525  0.33065681  1
  O2-  O284  1  0.83069615  0.35206079  0.66246947  1
  O2-  O285  1  0.83316673  0.85054242  -0.00013417  1
  O2-  O286  1  0.83298830  0.84100077  0.32932615  1
  O2-  O287  1  0.82534569  0.84421484  0.66697414  1
  O2-  O288  1  -0.00456078  0.19004700  0.16042029  1
  O2-  O289  1  -0.01183848  0.16949043  0.49458141  1
  O2-  O290  1  0.00585744  0.17584683  0.84156692  1
  O2-  O291  1  -0.00098647  0.67140579  0.16993232  1
  O2-  O292  1  -0.00025229  0.68351128  0.50729398  1
  O2-  O293  1  -0.00627319  0.67804127  0.82625161  1
  O2-  O294  1  0.34983667  0.17900886  0.17913758  1
  O2-  O295  1  0.31893400  0.18270664  0.48901908  1
  O2-  O296  1  0.33276429  0.18653184  0.83436648  1
  O2-  O297  1  0.33176256  0.66912495  0.17308636  1
  O2-  O298  1  0.33959645  0.68674489  0.50468232  1
  O2-  O299  1  0.33116321  0.68876411  0.84399862  1
  O2-  O300  1  0.66718230  0.18432495  0.17109597  1
  O2-  O301  1  0.67241125  0.17958061  0.50560441  1
  O2-  O302  1  0.67063779  0.18089059  0.83894304  1
  O2-  O303  1  0.67651015  0.67749405  0.16643743  1
  O2-  O304  1  0.67087622  0.68007974  0.50632778  1
  O2-  O305  1  0.66409589  0.69646656  0.84000493  1
  O2-  O306  1  0.16728760  0.19112646  0.16513208  1
  O2-  O307  1  0.16531848  0.19698599  0.51212181  1
  O2-  O308  1  0.16772955  0.18475700  0.83797295  1
  O2-  O309  1  0.16527426  0.67289565  0.16701738  1
  O2-  O310  1  0.18620300  0.67385357  0.49298885  1
  O2-  O311  1  0.16641075  0.68173822  0.82658502  1
  O2-  O312  1  0.50152122  0.17726617  0.16954870  1
  O2-  O313  1  0.48859777  0.17410217  0.51127380  1
  O2-  O314  1  0.50272346  0.17828117  0.83469310  1
  O2-  O315  1  0.49877103  0.67997801  0.17285994  1
  O2-  O316  1  0.51128777  0.68750350  0.49112484  1
  O2-  O317  1  0.50160103  0.68800343  0.84724070  1
  O2-  O318  1  0.82049600  0.18357202  0.17500573  1
  O2-  O319  1  0.83368055  0.17157898  0.49156945  1
  O2-  O320  1  0.82789289  0.17691673  0.84051870  1
  O2-  O321  1  0.83783060  0.67393300  0.15900687  1
  O2-  O322  1  0.82953603  0.67576763  0.50572996  1
  O2-  O323  1  0.83925494  0.68735076  0.82489380  1
  O2-  O324  1  -0.00164538  0.31432314  0.16591154  1
  O2-  O325  1  0.00280007  0.32146819  0.50653534  1
  O2-  O326  1  0.00803161  0.33102077  0.84373672  1
  O2-  O327  1  0.00046610  0.82224753  0.16782063  1
  O2-  O328  1  -0.00096041  0.81676388  0.49945819  1
  O2-  O329  1  -0.00353777  0.82443874  0.82888178  1
  O2-  O330  1  0.33368970  0.31347452  0.16793293  1
  O2-  O331  1  0.33795076  0.31691336  0.50415893  1
  O2-  O332  1  0.33899360  0.32058585  0.84241161  1
  O2-  O333  1  0.33433146  0.82374540  0.17078550  1
  O2-  O334  1  0.33198355  0.81784938  0.50082928  1
  O2-  O335  1  0.33259922  0.81487576  0.83478094  1
  O2-  O336  1  0.66975753  0.31394390  0.16953666  1
  O2-  O337  1  0.66881322  0.32467920  0.50438022  1
  O2-  O338  1  0.67062743  0.32476954  0.83728320  1
  O2-  O339  1  0.67254288  0.81872042  0.17088116  1
  O2-  O340  1  0.66911674  0.81762792  0.50997211  1
  O2-  O341  1  0.66744575  0.81617109  0.83547668  1
  O2-  O342  1  0.16942243  0.31454978  0.16587923  1
  O2-  O343  1  0.16756681  0.32100704  0.50910856  1
  O2-  O344  1  0.16718453  0.31517513  0.84214179  1
  O2-  O345  1  0.16232200  0.82258345  0.17476254  1
  O2-  O346  1  0.16890995  0.82279655  0.49749260  1
  O2-  O347  1  0.16822995  0.81575001  0.83388769  1
  O2-  O348  1  0.50483202  0.31200498  0.16654861  1
  O2-  O349  1  0.50545851  0.32363119  0.49479724  1
  O2-  O350  1  0.49124540  0.32730972  0.84552645  1
  O2-  O351  1  0.49859859  0.81499674  0.17072011  1
  O2-  O352  1  0.49639203  0.80715404  0.50439223  1
  O2-  O353  1  0.49745502  0.81679291  0.83220157  1
  O2-  O354  1  0.83040322  0.31483760  0.17429103  1
  O2-  O355  1  0.83542060  0.33210336  0.50404314  1
  O2-  O356  1  0.83750457  0.32473112  0.82838525  1
  O2-  O357  1  0.83615829  0.82381114  0.16447566  1
  O2-  O358  1  0.82647143  0.82630811  0.50717432  1
  O2-  O359  1  0.82710633  0.81922660  0.83803450  1
  O2-  O360  1  0.07487232  0.08848086  0.11932838  1
  O2-  O361  1  0.11205431  0.07960835  0.46485102  1
  O2-  O362  1  0.09363184  0.08640034  0.77302079  1
  O2-  O363  1  0.06124412  0.55865352  0.12181207  1
  O2-  O364  1  0.09877991  0.58403645  0.43469336  1
  O2-  O365  1  0.06919917  0.58383012  0.77734532  1
  O2-  O366  1  0.42890128  0.07722352  0.11891899  1
  O2-  O367  1  0.40115521  0.07994557  0.46061738  1
  O2-  O368  1  0.39905667  0.08259549  0.76779662  1
  O2-  O369  1  0.41922586  0.56997023  0.10326402  1
  O2-  O370  1  0.42075449  0.58326485  0.44212591  1
  O2-  O371  1  0.41045135  0.58228646  0.78984019  1
  O2-  O372  1  0.73485971  0.08020825  0.11624709  1
  O2-  O373  1  0.75593086  0.08426389  0.44696520  1
  O2-  O374  1  0.74904915  0.08070907  0.77092033  1
  O2-  O375  1  0.75321451  0.58197751  0.09194287  1
  O2-  O376  1  0.73727072  0.58206219  0.44608353  1
  O2-  O377  1  0.76685053  0.57887635  0.79586691  1
  O2-  O378  1  0.25400300  0.08231062  0.20316438  1
  O2-  O379  1  0.25035768  0.07878582  0.55684206  1
  O2-  O380  1  0.23396930  0.07292466  0.87975169  1
  O2-  O381  1  0.24535933  0.58327542  0.25292968  1
  O2-  O382  1  0.26055894  0.58144537  0.54638496  1
  O2-  O383  1  0.27124971  0.56731262  0.88570623  1
  O2-  O384  1  0.59778720  0.08060337  0.20902047  1
  O2-  O385  1  0.59932135  0.05819934  0.53202183  1
  O2-  O386  1  0.59934880  0.08456377  0.90393503  1
  O2-  O387  1  0.58003855  0.58224434  0.21382764  1
  O2-  O388  1  0.59370075  0.58356751  0.55740123  1
  O2-  O389  1  0.59662742  0.58754456  0.89491163  1
  O2-  O390  1  0.89672913  0.08147435  0.20230430  1
  O2-  O391  1  0.93596582  0.06058194  0.55185131  1
  O2-  O392  1  0.92838283  0.08061581  0.88725543  1
  O2-  O393  1  0.90992360  0.58140657  0.22566810  1
  O2-  O394  1  0.90336601  0.58681655  0.55888330  1
  O2-  O395  1  0.91631583  0.58184032  0.89002954  1
  O2-  O396  1  0.08566489  0.41300994  0.11354331  1
  O2-  O397  1  0.07012544  0.42200001  0.45763858  1
  O2-  O398  1  0.08981351  0.42025498  0.78523477  1
  O2-  O399  1  0.07649710  0.91767493  0.11262968  1
  O2-  O400  1  0.10175879  0.91769657  0.42334322  1
  O2-  O401  1  0.09076505  0.91392405  0.77334126  1
  O2-  O402  1  0.41495528  0.42587781  0.13009295  1
  O2-  O403  1  0.41608796  0.41237028  0.42407279  1
  O2-  O404  1  0.41087423  0.42088794  0.77862355  1
  O2-  O405  1  0.41988861  0.91354412  0.11152770  1
  O2-  O406  1  0.40909395  0.91932341  0.44343641  1
  O2-  O407  1  0.43794699  0.92201199  0.77847948  1
  O2-  O408  1  0.75207099  0.41723557  0.11185669  1
  O2-  O409  1  0.75562569  0.42150289  0.45312401  1
  O2-  O410  1  0.75531489  0.41880976  0.76189191  1
  O2-  O411  1  0.74676274  0.91498156  0.10827958  1
  O2-  O412  1  0.74046978  0.91709115  0.45000763  1
  O2-  O413  1  0.73842162  0.92060607  0.77880353  1
  O2-  O414  1  0.23977223  0.42248543  0.21636406  1
  O2-  O415  1  0.23690864  0.42396278  0.54364333  1
  O2-  O416  1  0.23809590  0.42973540  0.88224235  1
  O2-  O417  1  0.25555695  0.91379567  0.24461794  1
  O2-  O418  1  0.26076841  0.91847870  0.55782013  1
  O2-  O419  1  0.27625543  0.92465837  0.87632970  1
  O2-  O420  1  0.60731511  0.41959968  0.20555826  1
  O2-  O421  1  0.59455444  0.42084129  0.55728614  1
  O2-  O422  1  0.57303735  0.41498826  0.89813497  1
  O2-  O423  1  0.56820226  0.91174596  0.23742111  1
  O2-  O424  1  0.59507184  0.90962385  0.58196265  1
  O2-  O425  1  0.59035253  0.92238123  0.87093166  1
  O2-  O426  1  0.90714393  0.42012852  0.20559330  1
  O2-  O427  1  0.93642617  0.42110958  0.55429508  1
  O2-  O428  1  0.92765892  0.42516888  0.88662039  1
  O2-  O429  1  0.91225880  0.91732043  0.22447716  1
  O2-  O430  1  0.89946444  0.91816977  0.55917080  1
  O2-  O431  1  0.89251447  0.91952276  0.88439782  1
  O2-  O432  1  0.00113471  0.01411299  -0.00563921  1
  O2-  O433  1  -0.00855835  0.03477658  0.34769135  1
  O2-  O434  1  -0.00680940  -0.00594402  0.67638009  1
  O2-  O435  1  0.00120409  0.48612035  -0.00207245  1
  O2-  O436  1  0.00146196  0.48603830  0.32104885  1
  O2-  O437  1  -0.01293747  0.49765973  0.69122927  1
  O2-  O438  1  0.32060087  0.01121906  0.00662119  1
  O2-  O439  1  0.33159042  0.02186490  0.33253229  1
  O2-  O440  1  0.33637480  -0.00577292  0.66248683  1
  O2-  O441  1  0.33362061  0.48057364  -0.00035601  1
  O2-  O442  1  0.32201719  0.50755435  0.34638963  1
  O2-  O443  1  0.31869288  0.50441037  0.67961389  1
  O2-  O444  1  0.67991171  -0.00848028  -0.02500390  1
  O2-  O445  1  0.66243705  0.01471613  0.32419163  1
  O2-  O446  1  0.66745950  -0.01687874  0.67214129  1
  O2-  O447  1  0.67519117  0.48867763  -0.02481242  1
  O2-  O448  1  0.66252940  0.49839042  0.33072661  1
  O2-  O449  1  0.69530804  0.50378568  0.60391777  1
  O2-  O450  1  0.15559830  0.02309463  -0.00731263  1
  O2-  O451  1  0.16759643  0.01746067  0.33191786  1
  O2-  O452  1  0.17240827  0.01255496  0.67410529  1
  O2-  O453  1  0.16453684  0.48481705  -0.00236141  1
  O2-  O454  1  0.16130683  0.48094442  0.34197714  1
  O2-  O455  1  0.14333938  0.48971350  0.63336430  1
  O2-  O456  1  0.50465244  0.00406942  -0.00260737  1
  O2-  O457  1  0.48891010  0.01875130  0.30741569  1
  O2-  O458  1  0.50071718  -0.00173253  0.66996639  1
  O2-  O459  1  0.49154314  0.48467541  -0.00473770  1
  O2-  O460  1  0.49682530  0.49402458  0.33203632  1
  O2-  O461  1  0.49798038  0.50494377  0.66321374  1
  O2-  O462  1  0.84124699  0.00963373  0.00906900  1
  O2-  O463  1  0.82263168  0.01956978  0.33385658  1
  O2-  O464  1  0.81779795  -0.00488500  0.64461540  1
  O2-  O465  1  0.83141590  0.49645178  -0.01758978  1
  O2-  O466  1  0.82382781  0.48538724  0.30709912  1
  O2-  O467  1  0.83296070  0.50268418  0.65781500  1
  O2-  O468  1  0.07205161  0.25341410  0.73465740  1
  O2-  O469  1  0.75948657  0.25152232  0.39629462  1
  O2-  O470  1  0.75425109  0.25199325  0.73521389  1
  O2-  O471  1  0.40999297  0.74992498  0.07426688  1
  O2-  O472  1  0.08064370  0.74919724  0.72146348  1
  O2-  O473  1  0.91241985  0.75050241  0.94258018  1
  O2-  O474  1  0.75998145  0.74937947  0.06397115  1
  O2-  O475  1  0.90669672  0.75057168  0.60793431  1
  O2-  O476  1  0.07256799  0.24786248  0.38224846  1
  O2-  O477  1  0.91171003  0.25591035  0.60124313  1
  O2-  O478  1  0.23963862  0.75005234  0.60533059  1
  O2-  O479  1  0.08402130  0.75257444  0.07490231  1
  O2-  O480  1  0.74745227  0.74860795  0.39383287  1
  O2-  O481  1  0.76053031  0.25350304  0.04841923  1
  O2-  O482  1  0.08072359  0.25191127  0.04957600  1
  O2-  O483  1  0.25057816  0.74786088  0.26454448  1
  O2-  O484  1  0.60170792  0.74760510  0.27630973  1
  O2-  O485  1  0.08259158  0.75425201  0.39968466  1
  O2-  O486  1  0.43082308  0.24895271  0.73932394  1
  O2-  O487  1  0.58281261  0.25094384  0.93568267  1
  O2-  O488  1  0.41453744  0.24706307  0.39316198  1
  O2-  O489  1  0.91875199  0.24962518  0.93696960  1
  O2-  O490  1  0.58251733  0.25514169  0.59628020  1
  O2-  O491  1  0.41452835  0.25644259  0.05598545  1
  O2-  O492  1  0.91250323  0.74974941  0.26595690  1
