# generated using pymatgen
data_Ca108Mn108O277
_symmetry_space_group_name_H-M   'P 1'
_cell_length_a   16.02755884
_cell_length_b   22.30626428
_cell_length_c   16.38868502
_cell_angle_alpha   90.00176002
_cell_angle_beta   89.99746124
_cell_angle_gamma   90.00048709
_symmetry_Int_Tables_number   1
_chemical_formula_structural   Ca108Mn108O277
_chemical_formula_sum   'Ca108 Mn108 O277'
_cell_volume   5859.20011392
_cell_formula_units_Z   1
loop_
 _symmetry_equiv_pos_site_id
 _symmetry_equiv_pos_as_xyz
  1  'x, y, z'
loop_
 _atom_type_symbol
 _atom_type_oxidation_number
  Ca2+  2.0
  Mn3.34+  3.34
  O2-  -2.0
loop_
 _atom_site_type_symbol
 _atom_site_label
 _atom_site_symmetry_multiplicity
 _atom_site_fract_x
 _atom_site_fract_y
 _atom_site_fract_z
 _atom_site_occupancy
  Ca2+  Ca0  1  0.09898311  0.25066733  0.22473401  1
  Ca2+  Ca1  1  0.10459199  0.25699275  0.58714037  1
  Ca2+  Ca2  1  0.09838771  0.24990769  0.93084798  1
  Ca2+  Ca3  1  0.08659138  0.73197203  0.26254081  1
  Ca2+  Ca4  1  0.05014120  0.73666864  0.56757079  1
  Ca2+  Ca5  1  0.07244747  0.73794297  0.92508751  1
  Ca2+  Ca6  1  0.41631457  0.23717381  0.26544579  1
  Ca2+  Ca7  1  0.40068124  0.24725890  0.56718864  1
  Ca2+  Ca8  1  0.43234894  0.23950447  0.92209093  1
  Ca2+  Ca9  1  0.41200164  0.74935817  0.23794526  1
  Ca2+  Ca10  1  0.44237674  0.75304256  0.57394203  1
  Ca2+  Ca11  1  0.42988910  0.74761077  0.93183436  1
  Ca2+  Ca12  1  0.73542899  0.26836818  0.25340079  1
  Ca2+  Ca13  1  0.75489704  0.25715123  0.58552201  1
  Ca2+  Ca14  1  0.73135172  0.26049069  0.91609973  1
  Ca2+  Ca15  1  0.75281436  0.74688264  0.25550757  1
  Ca2+  Ca16  1  0.76066136  0.74821866  0.56991974  1
  Ca2+  Ca17  1  0.75346712  0.75079511  0.92114101  1
  Ca2+  Ca18  1  0.23341241  0.25322873  0.08334218  1
  Ca2+  Ca19  1  0.27271419  0.24305413  0.42533528  1
  Ca2+  Ca20  1  0.25409166  0.22796764  0.73943394  1
  Ca2+  Ca21  1  0.24594404  0.74464705  0.09067002  1
  Ca2+  Ca22  1  0.22771359  0.75043839  0.40804739  1
  Ca2+  Ca23  1  0.23681659  0.75130399  0.75313447  1
  Ca2+  Ca24  1  0.58241991  0.26907933  0.07174105  1
  Ca2+  Ca25  1  0.56631619  0.24542451  0.41128742  1
  Ca2+  Ca26  1  0.58010382  0.25184233  0.76854845  1
  Ca2+  Ca27  1  0.58968383  0.74495522  0.07985018  1
  Ca2+  Ca28  1  0.60126536  0.74323356  0.43572750  1
  Ca2+  Ca29  1  0.59804455  0.76003576  0.74444701  1
  Ca2+  Ca30  1  0.93531117  0.26369098  0.08597344  1
  Ca2+  Ca31  1  0.90790722  0.26725699  0.42168236  1
  Ca2+  Ca32  1  0.91182948  0.26268713  0.74504026  1
  Ca2+  Ca33  1  0.91530597  0.74343658  0.08182717  1
  Ca2+  Ca34  1  0.91956235  0.74638429  0.42214647  1
  Ca2+  Ca35  1  0.91321385  0.74868928  0.73377110  1
  Ca2+  Ca36  1  0.23698188  0.10274147  0.05944170  1
  Ca2+  Ca37  1  0.92249095  0.60548124  0.41876261  1
  Ca2+  Ca38  1  0.71352767  0.09154785  0.91129426  1
  Ca2+  Ca39  1  0.11646665  0.11114140  0.91701064  1
  Ca2+  Ca40  1  0.75147530  0.58332579  0.24998164  1
  Ca2+  Ca41  1  0.10091633  0.09076991  0.23778706  1
  Ca2+  Ca42  1  0.53198739  0.09303396  0.41368586  1
  Ca2+  Ca43  1  0.93319290  0.08903173  0.08233416  1
  Ca2+  Ca44  1  0.59983934  0.58339178  0.75760085  1
  Ca2+  Ca45  1  0.61432133  0.59050855  0.41140137  1
  Ca2+  Ca46  1  0.91059580  0.07652320  0.40171391  1
  Ca2+  Ca47  1  0.56832244  0.07146020  0.02152481  1
  Ca2+  Ca48  1  0.22463981  0.59653912  0.11147059  1
  Ca2+  Ca49  1  0.29908400  0.08916130  0.40755792  1
  Ca2+  Ca50  1  0.22243391  0.59309753  0.34877828  1
  Ca2+  Ca51  1  0.41130633  0.59329497  0.24307025  1
  Ca2+  Ca52  1  0.40443045  0.12029694  0.60290288  1
  Ca2+  Ca53  1  0.11144819  0.10011619  0.59350647  1
  Ca2+  Ca54  1  0.73721202  0.57600081  0.95282781  1
  Ca2+  Ca55  1  0.21545790  0.59526066  0.35584193  1
  Ca2+  Ca56  1  0.77126012  0.59664225  0.56595297  1
  Ca2+  Ca57  1  0.40769758  0.11618031  0.59492263  1
  Ca2+  Ca58  1  0.23432472  0.59744362  0.11417203  1
  Ca2+  Ca59  1  0.41886240  0.59100958  0.58381465  1
  Ca2+  Ca60  1  0.73604987  0.09926179  0.59028419  1
  Ca2+  Ca61  1  0.93947104  0.59681625  0.73529912  1
  Ca2+  Ca62  1  0.73594950  0.08484152  0.25640058  1
  Ca2+  Ca63  1  0.43167739  0.59180925  0.58336375  1
  Ca2+  Ca64  1  0.55287486  0.11436751  0.78128103  1
  Ca2+  Ca65  1  0.92381945  0.07585981  0.40201191  1
  Ca2+  Ca66  1  0.91458058  0.08899741  0.74908412  1
  Ca2+  Ca67  1  0.23558386  0.10339059  0.06942223  1
  Ca2+  Ca68  1  0.31013651  0.08937811  0.41215636  1
  Ca2+  Ca69  1  0.59038230  0.58222430  0.76335381  1
  Ca2+  Ca70  1  0.22453352  0.58944821  0.76032586  1
  Ca2+  Ca71  1  0.72681339  0.57637597  0.95260288  1
  Ca2+  Ca72  1  0.24951618  0.90629927  0.75456208  1
  Ca2+  Ca73  1  0.44270481  0.92269248  0.92774506  1
  Ca2+  Ca74  1  0.09542250  0.90442053  0.91995173  1
  Ca2+  Ca75  1  0.24117673  0.39900408  0.75174151  1
  Ca2+  Ca76  1  0.90512636  0.90618217  0.08683831  1
  Ca2+  Ca77  1  0.75332506  0.90170697  0.25080441  1
  Ca2+  Ca78  1  0.42073775  0.39802845  0.58079542  1
  Ca2+  Ca79  1  0.41637913  0.90318564  0.57516896  1
  Ca2+  Ca80  1  0.43593335  0.40257703  0.91224736  1
  Ca2+  Ca81  1  0.25684613  0.90954193  0.08618800  1
  Ca2+  Ca82  1  0.24865919  0.41034763  0.40815791  1
  Ca2+  Ca83  1  0.91523416  0.89689176  0.74520995  1
  Ca2+  Ca84  1  0.09263828  0.41616446  0.22546523  1
  Ca2+  Ca85  1  0.42552541  0.40210278  0.91345964  1
  Ca2+  Ca86  1  0.76684871  0.41043059  0.59686758  1
  Ca2+  Ca87  1  0.42796819  0.90304045  0.57495215  1
  Ca2+  Ca88  1  0.40786235  0.39869286  0.58013114  1
  Ca2+  Ca89  1  0.57581995  0.90106788  0.40558212  1
  Ca2+  Ca90  1  0.10181485  0.41397766  0.22928269  1
  Ca2+  Ca91  1  0.88988541  0.41692522  0.40565052  1
  Ca2+  Ca92  1  0.07186998  0.90433790  0.26041387  1
  Ca2+  Ca93  1  0.43143815  0.92002826  0.93267951  1
  Ca2+  Ca94  1  0.23057170  0.39709582  0.75503553  1
  Ca2+  Ca95  1  0.58880283  0.91279454  0.07859785  1
  Ca2+  Ca96  1  0.23999690  0.91663088  0.39152183  1
  Ca2+  Ca97  1  0.25177627  0.91625244  0.39248396  1
  Ca2+  Ca98  1  0.26199427  0.90537796  0.75719663  1
  Ca2+  Ca99  1  0.75755973  0.41007554  0.59099867  1
  Ca2+  Ca100  1  0.72953696  0.90916916  0.92323666  1
  Ca2+  Ca101  1  0.90893763  0.41064994  0.75471318  1
  Ca2+  Ca102  1  0.92023692  0.90034716  0.41748870  1
  Ca2+  Ca103  1  0.40396231  0.40760689  0.24887417  1
  Ca2+  Ca104  1  0.08261360  0.90309541  0.91913569  1
  Ca2+  Ca105  1  0.60163837  0.41489418  0.40225636  1
  Ca2+  Ca106  1  0.41543289  0.40725768  0.24950826  1
  Ca2+  Ca107  1  0.41361873  0.92306930  0.26803789  1
  Mn3.34+  Mn108  1  0.08272706  0.33872823  0.07232706  1
  Mn3.34+  Mn109  1  0.07957401  0.33407782  0.41434787  1
  Mn3.34+  Mn110  1  0.07385939  0.33159624  0.75688577  1
  Mn3.34+  Mn111  1  0.08139169  0.82709107  0.09120512  1
  Mn3.34+  Mn112  1  0.08017624  0.82895336  0.41866027  1
  Mn3.34+  Mn113  1  0.08074840  0.82474827  0.74999517  1
  Mn3.34+  Mn114  1  0.41597664  0.33698055  0.08571178  1
  Mn3.34+  Mn115  1  0.41972486  0.33229576  0.41586411  1
  Mn3.34+  Mn116  1  0.41469657  0.31707149  0.75130410  1
  Mn3.34+  Mn117  1  0.41869102  0.83356947  0.09029979  1
  Mn3.34+  Mn118  1  0.41605857  0.83402418  0.41498581  1
  Mn3.34+  Mn119  1  0.42235558  0.83394667  0.75372277  1
  Mn3.34+  Mn120  1  0.75436224  0.34267421  0.08079585  1
  Mn3.34+  Mn121  1  0.74491290  0.33502378  0.41729046  1
  Mn3.34+  Mn122  1  0.74801201  0.33888919  0.75526237  1
  Mn3.34+  Mn123  1  0.74929412  0.83042986  0.08439643  1
  Mn3.34+  Mn124  1  0.75081781  0.83050331  0.41600185  1
  Mn3.34+  Mn125  1  0.75065538  0.83417513  0.74900456  1
  Mn3.34+  Mn126  1  0.24947456  0.33289801  0.24898903  1
  Mn3.34+  Mn127  1  0.24171128  0.33473823  0.57617532  1
  Mn3.34+  Mn128  1  0.24889123  0.33618205  0.91745468  1
  Mn3.34+  Mn129  1  0.24684330  0.83610014  0.24266783  1
  Mn3.34+  Mn130  1  0.24348214  0.83009139  0.57954007  1
  Mn3.34+  Mn131  1  0.25332617  0.83018644  0.91916513  1
  Mn3.34+  Mn132  1  0.58561882  0.33545793  0.24360902  1
  Mn3.34+  Mn133  1  0.58434706  0.32493630  0.58347195  1
  Mn3.34+  Mn134  1  0.59387927  0.34177322  0.91630744  1
  Mn3.34+  Mn135  1  0.58193499  0.83564825  0.24466065  1
  Mn3.34+  Mn136  1  0.59541897  0.83071311  0.58468473  1
  Mn3.34+  Mn137  1  0.58524490  0.83225392  0.91284416  1
  Mn3.34+  Mn138  1  0.91226787  0.34229913  0.24382445  1
  Mn3.34+  Mn139  1  0.92925524  0.33770721  0.58233189  1
  Mn3.34+  Mn140  1  0.91375994  0.33938576  0.91939397  1
  Mn3.34+  Mn141  1  0.91656589  0.83808021  0.24599852  1
  Mn3.34+  Mn142  1  0.91394902  0.83272979  0.58141348  1
  Mn3.34+  Mn143  1  0.91380875  0.83233349  0.91596647  1
  Mn3.34+  Mn144  1  0.08741953  0.17344318  0.75394978  1
  Mn3.34+  Mn145  1  0.75096413  0.66315857  0.75235311  1
  Mn3.34+  Mn146  1  0.73733800  0.16318833  0.08814906  1
  Mn3.34+  Mn147  1  0.92376176  0.16703330  0.58534893  1
  Mn3.34+  Mn148  1  0.76043150  0.65740966  0.75376344  1
  Mn3.34+  Mn149  1  0.41813861  0.67630409  0.76036817  1
  Mn3.34+  Mn150  1  0.24677281  0.66563593  0.58200403  1
  Mn3.34+  Mn151  1  0.07442391  0.66412351  0.09004902  1
  Mn3.34+  Mn152  1  0.74171408  0.17057229  0.41872258  1
  Mn3.34+  Mn153  1  0.58106445  0.16482493  0.25310926  1
  Mn3.34+  Mn154  1  0.75355098  0.66551475  0.08992607  1
  Mn3.34+  Mn155  1  0.23229887  0.65953259  0.58184751  1
  Mn3.34+  Mn156  1  0.91869249  0.16643739  0.24765185  1
  Mn3.34+  Mn157  1  0.58563420  0.17472801  0.58328648  1
  Mn3.34+  Mn158  1  0.91758768  0.65810707  0.24224077  1
  Mn3.34+  Mn159  1  0.91103395  0.15985339  0.58247786  1
  Mn3.34+  Mn160  1  0.91988593  0.66289387  0.92198333  1
  Mn3.34+  Mn161  1  0.58120417  0.66531618  0.92582454  1
  Mn3.34+  Mn162  1  0.40692153  0.67683646  0.75728168  1
  Mn3.34+  Mn163  1  0.91966017  0.16591463  0.91348413  1
  Mn3.34+  Mn164  1  0.58732195  0.66269414  0.23881903  1
  Mn3.34+  Mn165  1  0.42815170  0.66369030  0.41382565  1
  Mn3.34+  Mn166  1  0.74327828  0.17352155  0.75442004  1
  Mn3.34+  Mn167  1  0.08085336  0.66771067  0.76140860  1
  Mn3.34+  Mn168  1  0.25288896  0.16277986  0.24281978  1
  Mn3.34+  Mn169  1  0.41546897  0.66917689  0.08415934  1
  Mn3.34+  Mn170  1  0.42864607  0.16365118  0.08505011  1
  Mn3.34+  Mn171  1  0.41857845  0.16831454  0.08629085  1
  Mn3.34+  Mn172  1  0.90898819  0.17470512  0.91693556  1
  Mn3.34+  Mn173  1  0.90981083  0.17228027  0.25000159  1
  Mn3.34+  Mn174  1  0.75448661  0.66422983  0.41456207  1
  Mn3.34+  Mn175  1  0.08639942  0.16341875  0.41694473  1
  Mn3.34+  Mn176  1  0.41402022  0.66914675  0.41313428  1
  Mn3.34+  Mn177  1  0.74978508  0.17022607  0.08521905  1
  Mn3.34+  Mn178  1  0.09662653  0.16851604  0.41558295  1
  Mn3.34+  Mn179  1  0.24642927  0.65844727  0.92118319  1
  Mn3.34+  Mn180  1  0.43586195  0.50365857  0.06442011  1
  Mn3.34+  Mn181  1  0.73209494  0.00214915  0.42162726  1
  Mn3.34+  Mn182  1  0.58582951  0.49972628  0.58406526  1
  Mn3.34+  Mn183  1  0.25743995  0.00160530  0.57900557  1
  Mn3.34+  Mn184  1  0.57309779  0.00449005  0.57907912  1
  Mn3.34+  Mn185  1  0.91141111  0.50146428  0.25708788  1
  Mn3.34+  Mn186  1  0.08126119  0.49731364  0.74646584  1
  Mn3.34+  Mn187  1  0.57157214  0.00486576  0.25409301  1
  Mn3.34+  Mn188  1  0.22865007  0.49926228  0.59205483  1
  Mn3.34+  Mn189  1  0.41905180  0.00390082  0.75189046  1
  Mn3.34+  Mn190  1  0.06827949  0.50496068  0.43199439  1
  Mn3.34+  Mn191  1  0.73752765  0.00050296  0.75568174  1
  Mn3.34+  Mn192  1  0.91631069  -0.00339478  0.58681339  1
  Mn3.34+  Mn193  1  0.74638812  -0.00393675  0.42141298  1
  Mn3.34+  Mn194  1  0.40987028  0.50167786  0.75599886  1
  Mn3.34+  Mn195  1  0.08476140  -0.00100030  0.41772363  1
  Mn3.34+  Mn196  1  0.24265354  -0.00401649  0.57755563  1
  Mn3.34+  Mn197  1  0.07989930  0.49748316  0.43108048  1
  Mn3.34+  Mn198  1  0.92145571  0.50093379  0.59587583  1
  Mn3.34+  Mn199  1  0.23792860  0.49936835  0.94099426  1
  Mn3.34+  Mn200  1  0.07719236  -0.00785577  0.08942100  1
  Mn3.34+  Mn201  1  0.74820406  0.00502355  0.75416104  1
  Mn3.34+  Mn202  1  0.08787162  -0.00302569  0.08879261  1
  Mn3.34+  Mn203  1  0.92249717  0.49533279  0.94494101  1
  Mn3.34+  Mn204  1  0.08827499  0.00818594  0.75762616  1
  Mn3.34+  Mn205  1  0.44580630  0.50931609  0.06038982  1
  Mn3.34+  Mn206  1  0.41809079  0.50014704  0.41030045  1
  Mn3.34+  Mn207  1  0.90790782  -0.00253291  0.91712480  1
  Mn3.34+  Mn208  1  0.58696952  -0.00193802  0.57935857  1
  Mn3.34+  Mn209  1  0.58610993  0.49930120  0.25369425  1
  Mn3.34+  Mn210  1  0.93223242  0.50340340  0.94441865  1
  Mn3.34+  Mn211  1  0.40911989  -0.00293690  0.08845903  1
  Mn3.34+  Mn212  1  0.74964222  -0.00107481  0.08407480  1
  Mn3.34+  Mn213  1  0.60267868  0.49739521  0.58295851  1
  Mn3.34+  Mn214  1  0.41332129  0.49875552  0.76688746  1
  Mn3.34+  Mn215  1  0.07803149  0.00245307  0.75673971  1
  O2-  O216  1  -0.00205011  0.16211439  -0.00414586  1
  O2-  O217  1  0.00147854  0.15087440  0.33609602  1
  O2-  O218  1  -0.00008786  0.14492643  0.66733129  1
  O2-  O219  1  -0.00382851  0.66158750  0.00294956  1
  O2-  O220  1  -0.01601319  0.67427631  0.32577270  1
  O2-  O221  1  0.00802658  0.68063036  0.68042225  1
  O2-  O222  1  0.33689467  0.16565823  0.00748219  1
  O2-  O223  1  0.33371328  0.15931276  0.32319238  1
  O2-  O224  1  0.34521044  0.18642371  0.66279787  1
  O2-  O225  1  0.32488101  0.66451990  0.00709168  1
  O2-  O226  1  0.33864680  0.65199451  0.33391186  1
  O2-  O227  1  0.32502415  0.64807928  0.67006945  1
  O2-  O228  1  0.66346566  0.15081331  0.00554194  1
  O2-  O229  1  0.65931786  0.14642250  0.34017904  1
  O2-  O230  1  0.66713266  0.16246017  0.66918146  1
  O2-  O231  1  0.66796715  0.66105867  0.00087759  1
  O2-  O232  1  0.66545609  0.66416444  0.32680430  1
  O2-  O233  1  0.66683197  0.64590005  0.67529985  1
  O2-  O234  1  0.17558131  0.17776661  0.00019993  1
  O2-  O235  1  0.17232904  0.14495421  0.33031206  1
  O2-  O236  1  0.16122788  0.16453383  0.67445973  1
  O2-  O237  1  0.16747253  0.66436779  0.00618445  1
  O2-  O238  1  0.18513594  0.68276151  0.32365263  1
  O2-  O239  1  0.16924884  0.66667242  0.68048919  1
  O2-  O240  1  0.50111974  0.15917388  0.00249726  1
  O2-  O241  1  0.49987237  0.16222029  0.32724715  1
  O2-  O242  1  0.50772833  0.18076993  0.66203039  1
  O2-  O243  1  0.49455970  0.66213008  -0.00204474  1
  O2-  O244  1  0.50341440  0.66590349  0.32430377  1
  O2-  O245  1  0.49127924  0.65586066  0.66792840  1
  O2-  O246  1  0.83381262  0.14975077  0.00077459  1
  O2-  O247  1  0.83261352  0.14962634  0.33456743  1
  O2-  O248  1  0.83243432  0.15112603  0.66953255  1
  O2-  O249  1  0.82535161  0.65160192  -0.00753237  1
  O2-  O250  1  0.82967090  0.66187532  0.32069302  1
  O2-  O251  1  0.83632966  0.64970552  0.66927161  1
  O2-  O252  1  0.00074456  0.32388267  -0.00674466  1
  O2-  O253  1  -0.00973987  0.33748831  0.33888173  1
  O2-  O254  1  -0.00530824  0.34872629  0.67755298  1
  O2-  O255  1  0.00134055  0.85142298  0.00410453  1
  O2-  O256  1  -0.00364035  0.83719902  0.33333565  1
  O2-  O257  1  -0.00223722  0.82992715  0.67147908  1
  O2-  O258  1  0.34200277  0.34207374  -0.01057021  1
  O2-  O259  1  0.33271338  0.34658079  0.33750245  1
  O2-  O260  1  0.33027933  0.34610755  0.66631875  1
  O2-  O261  1  0.34200243  0.85230375  -0.00712760  1
  O2-  O262  1  0.32607080  0.84004862  0.33480608  1
  O2-  O263  1  0.33996942  0.85114199  0.66891423  1
  O2-  O264  1  0.67311877  0.34138952  -0.00285105  1
  O2-  O265  1  0.66281012  0.34125345  0.33558553  1
  O2-  O266  1  0.67427353  0.33846397  0.65640280  1
  O2-  O267  1  0.66259966  0.84434002  0.00371812  1
  O2-  O268  1  0.66327408  0.83745753  0.33002986  1
  O2-  O269  1  0.66527380  0.83850197  0.67174951  1
  O2-  O270  1  0.17281507  0.32666860  -0.00144066  1
  O2-  O271  1  0.15694832  0.35373304  0.32530389  1
  O2-  O272  1  0.16347588  0.34411239  0.66266142  1
  O2-  O273  1  0.16872208  0.84284240  0.00615843  1
  O2-  O274  1  0.16553720  0.83435117  0.32676698  1
  O2-  O275  1  0.17651013  0.83717753  0.68103766  1
  O2-  O276  1  0.50342470  0.34723933  0.00313963  1
  O2-  O277  1  0.49771586  0.35018288  0.33528757  1
  O2-  O278  1  0.49109552  0.32148666  0.66014754  1
  O2-  O279  1  0.49835585  0.84704444  0.00084753  1
  O2-  O280  1  0.49250495  0.84135525  0.32586209  1
  O2-  O281  1  0.49586916  0.83854656  0.66007916  1
  O2-  O282  1  0.83768725  0.31595808  -0.00049724  1
  O2-  O283  1  0.83276476  0.34008244  0.33455385  1
  O2-  O284  1  0.83918636  0.34205963  0.66287329  1
  O2-  O285  1  0.82871428  0.85309289  -0.00460348  1
  O2-  O286  1  0.83340233  0.83784638  0.32912885  1
  O2-  O287  1  0.83511391  0.84061838  0.66825637  1
  O2-  O288  1  -0.00121030  0.18685724  0.17252227  1
  O2-  O289  1  0.00079269  0.18058888  0.49833657  1
  O2-  O290  1  -0.00612968  0.18903880  0.83210393  1
  O2-  O291  1  -0.00394800  0.68545453  0.16874993  1
  O2-  O292  1  -0.01291922  0.67462238  0.49085603  1
  O2-  O293  1  -0.00519081  0.68354276  0.83441763  1
  O2-  O294  1  0.33765430  0.18030653  0.16271176  1
  O2-  O295  1  0.33931736  0.16533694  0.49138799  1
  O2-  O296  1  0.35328697  0.19109376  0.82743614  1
  O2-  O297  1  0.33316509  0.67597653  0.16380226  1
  O2-  O298  1  0.34880781  0.67376103  0.51625832  1
  O2-  O299  1  0.33027219  0.69655650  0.84198508  1
  O2-  O300  1  0.67557013  0.17786136  0.18365468  1
  O2-  O301  1  0.67257855  0.18985567  0.50736499  1
  O2-  O302  1  0.66579536  0.17989295  0.83162619  1
  O2-  O303  1  0.67073347  0.68725728  0.16771929  1
  O2-  O304  1  0.67625570  0.67100951  0.49503311  1
  O2-  O305  1  0.67006376  0.68077566  0.83193848  1
  O2-  O306  1  0.17407883  0.17361498  0.16381589  1
  O2-  O307  1  0.16686711  0.17703759  0.50312649  1
  O2-  O308  1  0.16116225  0.18656107  0.83321696  1
  O2-  O309  1  0.16443224  0.68109783  0.16037342  1
  O2-  O310  1  0.17407139  0.67542375  0.49063698  1
  O2-  O311  1  0.16811466  0.68655597  0.83885417  1
  O2-  O312  1  0.50487854  0.18031662  0.16550302  1
  O2-  O313  1  0.50211877  0.17786931  0.50705888  1
  O2-  O314  1  0.48343549  0.19148892  0.82140391  1
  O2-  O315  1  0.49841057  0.68390335  0.16763530  1
  O2-  O316  1  0.50025557  0.67724149  0.49819069  1
  O2-  O317  1  0.51595164  0.67540393  0.82579582  1
  O2-  O318  1  0.83217807  0.18544854  0.16350191  1
  O2-  O319  1  0.83662902  0.17916996  0.49710891  1
  O2-  O320  1  0.83153292  0.18820247  0.83505525  1
  O2-  O321  1  0.83377572  0.68632335  0.16804930  1
  O2-  O322  1  0.83541454  0.67346733  0.49016292  1
  O2-  O323  1  0.83980915  0.67513707  0.83166484  1
  O2-  O324  1  0.00608875  0.32529771  0.17495704  1
  O2-  O325  1  0.00585038  0.31481897  0.50145926  1
  O2-  O326  1  -0.00523947  0.31554085  0.83526031  1
  O2-  O327  1  -0.00278778  0.81604289  0.16932694  1
  O2-  O328  1  -0.00212136  0.82703900  0.49752578  1
  O2-  O329  1  0.00526590  0.81866921  0.83904431  1
  O2-  O330  1  0.33748837  0.32388024  0.17619112  1
  O2-  O331  1  0.33945927  0.32769925  0.50349870  1
  O2-  O332  1  0.32577822  0.32070720  0.82742266  1
  O2-  O333  1  0.32834038  0.81699637  0.16550448  1
  O2-  O334  1  0.34526354  0.82402193  0.51030421  1
  O2-  O335  1  0.32458653  0.81802735  0.82202104  1
  O2-  O336  1  0.66397305  0.32593616  0.16300641  1
  O2-  O337  1  0.66380086  0.31472271  0.50023590  1
  O2-  O338  1  0.66421244  0.32436804  0.82763497  1
  O2-  O339  1  0.66905808  0.81737985  0.16946808  1
  O2-  O340  1  0.66609600  0.82318232  0.49464549  1
  O2-  O341  1  0.67352030  0.81947713  0.83939593  1
  O2-  O342  1  0.16660217  0.33163975  0.16918058  1
  O2-  O343  1  0.17557225  0.32587872  0.48317813  1
  O2-  O344  1  0.17030148  0.32013346  0.82830347  1
  O2-  O345  1  0.16567371  0.81199084  0.16887877  1
  O2-  O346  1  0.17734952  0.82982577  0.48299431  1
  O2-  O347  1  0.16056814  0.81380016  0.84072828  1
  O2-  O348  1  0.49106095  0.32514082  0.17761046  1
  O2-  O349  1  0.49701803  0.31944025  0.50300759  1
  O2-  O350  1  0.48860670  0.31941248  0.83930564  1
  O2-  O351  1  0.50334152  0.81360510  0.16505488  1
  O2-  O352  1  0.50186238  0.82709912  0.49675301  1
  O2-  O353  1  0.49638206  0.81172907  0.83590404  1
  O2-  O354  1  0.83509376  0.31208905  0.16757593  1
  O2-  O355  1  0.82999610  0.32860637  0.50406529  1
  O2-  O356  1  0.83337872  0.32392378  0.83263251  1
  O2-  O357  1  0.83429656  0.81973369  0.16719707  1
  O2-  O358  1  0.83653918  0.82453776  0.49120742  1
  O2-  O359  1  0.83865430  0.82310878  0.82938679  1
  O2-  O360  1  0.08119581  0.08024844  0.10219185  1
  O2-  O361  1  0.06229393  0.07796662  0.45512423  1
  O2-  O362  1  0.07181461  0.08759094  0.78904898  1
  O2-  O363  1  0.09250130  0.58739868  0.11848052  1
  O2-  O364  1  0.09265527  0.58343924  0.42775308  1
  O2-  O365  1  0.08148655  0.57960826  0.76873859  1
  O2-  O366  1  0.41361776  0.08042057  0.10220961  1
  O2-  O367  1  0.41940477  0.05935553  0.48698482  1
  O2-  O368  1  0.42874180  0.08071928  0.72659612  1
  O2-  O369  1  0.41079448  0.58338881  0.10951075  1
  O2-  O370  1  0.42217908  0.58073006  0.44792074  1
  O2-  O371  1  0.40878963  0.58561184  0.77888020  1
  O2-  O372  1  0.76267907  0.08111392  0.11667488  1
  O2-  O373  1  0.75425527  0.08130244  0.45590987  1
  O2-  O374  1  0.75647994  0.08720464  0.78148166  1
  O2-  O375  1  0.74720432  0.58533132  0.10193647  1
  O2-  O376  1  0.75432918  0.58258603  0.42788036  1
  O2-  O377  1  0.73880769  0.57714189  0.79783954  1
  O2-  O378  1  0.24286766  0.08084146  0.20584355  1
  O2-  O379  1  0.24989454  0.08167786  0.55256584  1
  O2-  O380  1  0.23592454  0.07383514  0.94139574  1
  O2-  O381  1  0.26902485  0.56872015  0.23352938  1
  O2-  O382  1  0.26232235  0.57858056  0.55060667  1
  O2-  O383  1  0.25253384  0.57149323  0.88601134  1
  O2-  O384  1  0.59009207  0.08046878  0.21591895  1
  O2-  O385  1  0.59363233  0.08408288  0.54929318  1
  O2-  O386  1  0.59233691  0.06020630  0.88408495  1
  O2-  O387  1  0.58715973  0.57738559  0.22362231  1
  O2-  O388  1  0.56121600  0.57565288  0.54167391  1
  O2-  O389  1  0.60118640  0.58247867  0.89337455  1
  O2-  O390  1  0.92584367  0.08125625  0.22185964  1
  O2-  O391  1  0.91314540  0.07788548  0.53797957  1
  O2-  O392  1  0.91005952  0.08161686  0.88340927  1
  O2-  O393  1  0.89823367  0.57788337  0.22205524  1
  O2-  O394  1  0.92440866  0.57061380  0.55168457  1
  O2-  O395  1  0.91695626  0.57199303  0.88677538  1
  O2-  O396  1  0.08320448  0.41868615  0.09847148  1
  O2-  O397  1  0.06521357  0.41894627  0.44470851  1
  O2-  O398  1  0.09374461  0.41637436  0.77840432  1
  O2-  O399  1  0.08723552  0.91220547  0.12397115  1
  O2-  O400  1  0.10042618  0.91756176  0.41317297  1
  O2-  O401  1  0.09679048  0.91924298  0.77729293  1
  O2-  O402  1  0.41721943  0.42746406  0.11770051  1
  O2-  O403  1  0.42242792  0.42018008  0.44785509  1
  O2-  O404  1  0.40826688  0.41421684  0.76920084  1
  O2-  O405  1  0.41349871  0.91749402  0.12662093  1
  O2-  O406  1  0.41086860  0.91480594  0.43982428  1
  O2-  O407  1  0.39514440  0.92576566  0.79989717  1
  O2-  O408  1  0.76526297  0.41734423  0.09647819  1
  O2-  O409  1  0.73793490  0.41748941  0.45608610  1
  O2-  O410  1  0.76283250  0.41853842  0.74073808  1
  O2-  O411  1  0.74642201  0.91843563  0.11455488  1
  O2-  O412  1  0.74344743  0.91448697  0.42541458  1
  O2-  O413  1  0.75799647  0.91951968  0.78350348  1
  O2-  O414  1  0.25483959  0.41727782  0.23902382  1
  O2-  O415  1  0.26944061  0.42183924  0.55423589  1
  O2-  O416  1  0.26971287  0.42980503  0.87785600  1
  O2-  O417  1  0.25002644  0.91903684  0.23769305  1
  O2-  O418  1  0.25604763  0.91545822  0.55143585  1
  O2-  O419  1  0.22693747  0.91833624  0.88285810  1
  O2-  O420  1  0.56340516  0.41956406  0.23232842  1
  O2-  O421  1  0.56473126  0.41617545  0.56007048  1
  O2-  O422  1  0.56239360  0.41566055  0.87729911  1
  O2-  O423  1  0.57699954  0.92545087  0.21860682  1
  O2-  O424  1  0.57193729  0.91755957  0.54739365  1
  O2-  O425  1  0.57510859  0.91381426  0.89373385  1
  O2-  O426  1  0.95327405  0.42722919  0.23062695  1
  O2-  O427  1  0.90755312  0.42548196  0.54923038  1
  O2-  O428  1  0.92544313  0.42728911  0.88988036  1
  O2-  O429  1  0.91916005  0.91823937  0.22577690  1
  O2-  O430  1  0.91854195  0.91703110  0.55976446  1
  O2-  O431  1  0.94364926  0.91875800  0.87921430  1
  O2-  O432  1  0.00042453  -0.00152391  0.00090581  1
  O2-  O433  1  -0.01435338  -0.00540436  0.36399689  1
  O2-  O434  1  0.00117528  0.01444505  0.67005717  1
  O2-  O435  1  0.02716874  0.50586458  -0.00927831  1
  O2-  O436  1  -0.00570442  0.50704277  0.34275701  1
  O2-  O437  1  -0.02935591  0.49738007  0.69993313  1
  O2-  O438  1  0.33558362  -0.01968626  0.01335294  1
  O2-  O439  1  0.31889588  -0.00483283  0.37142229  1
  O2-  O440  1  0.32640544  -0.01868530  0.67342909  1
  O2-  O441  1  0.34140316  0.49343536  -0.00679425  1
  O2-  O442  1  0.32127513  0.50236734  0.36515813  1
  O2-  O443  1  0.35990461  0.50794380  0.64158438  1
  O2-  O444  1  0.67077650  -0.00306290  0.01145058  1
  O2-  O445  1  0.67155909  0.00059234  0.31869699  1
  O2-  O446  1  0.66066712  0.01267638  0.66867135  1
  O2-  O447  1  0.66233833  0.50267274  0.00985524  1
  O2-  O448  1  0.64765290  0.50338704  0.34351469  1
  O2-  O449  1  0.66404881  0.52143886  0.67310204  1
  O2-  O450  1  0.16396368  -0.02109741  0.00687584  1
  O2-  O451  1  0.16773974  0.01263109  0.35013887  1
  O2-  O452  1  0.16742129  0.00649320  0.66849527  1
  O2-  O453  1  0.18852019  0.52164796  0.02920917  1
  O2-  O454  1  0.16545346  0.49316237  0.35390643  1
  O2-  O455  1  0.19980841  0.49487165  0.71348947  1
  O2-  O456  1  0.49869254  -0.01583877  0.01765780  1
  O2-  O457  1  0.50427907  -0.00700976  0.33890977  1
  O2-  O458  1  0.48832236  -0.02117578  0.65607678  1
  O2-  O459  1  0.49668621  0.48814592  -0.03577544  1
  O2-  O460  1  0.47438565  0.50057458  0.30312833  1
  O2-  O461  1  0.50823394  0.51255104  0.68151665  1
  O2-  O462  1  0.84206812  -0.00433143  0.01846000  1
  O2-  O463  1  0.83124787  0.01289289  0.34165453  1
  O2-  O464  1  0.83563648  0.01290070  0.67499147  1
  O2-  O465  1  0.81792863  0.49778324  -0.02509681  1
  O2-  O466  1  0.83401138  0.49631902  0.32913604  1
  O2-  O467  1  0.81333086  0.50297024  0.62520430  1
  O2-  O468  1  0.41266756  0.75166531  0.40275972  1
  O2-  O469  1  0.07858485  0.75117363  0.41347138  1
  O2-  O470  1  0.24733745  0.25742637  0.59075277  1
  O2-  O471  1  0.58309256  0.74921992  0.93992186  1
  O2-  O472  1  0.58510489  0.25106010  0.27112617  1
  O2-  O473  1  0.75405929  0.74636842  0.72617552  1
  O2-  O474  1  0.41624251  0.25461126  0.40017157  1
  O2-  O475  1  0.25469775  0.74776095  0.60446347  1
  O2-  O476  1  0.75531405  0.75108507  0.05712745  1
  O2-  O477  1  0.06900490  0.25220740  0.72013940  1
  O2-  O478  1  0.75996305  0.25087041  0.39152186  1
  O2-  O479  1  0.91286556  0.24906558  0.60329122  1
  O2-  O480  1  0.08682555  0.25743533  0.07994105  1
  O2-  O481  1  0.75622357  0.25252355  0.72627622  1
  O2-  O482  1  0.58469270  0.25898739  0.93072439  1
  O2-  O483  1  0.74936800  0.75018839  0.39923134  1
  O2-  O484  1  0.41158469  0.75280021  0.06330936  1
  O2-  O485  1  0.08546120  0.25091336  0.38649007  1
  O2-  O486  1  0.24327133  0.24897342  0.27198707  1
  O2-  O487  1  0.07579277  0.75093815  0.05904378  1
  O2-  O488  1  0.73159738  0.24964826  0.06346770  1
  O2-  O489  1  0.90753917  0.75263980  0.59032644  1
  O2-  O490  1  0.90758031  0.75168633  0.94271018  1
  O2-  O491  1  0.42452953  0.25134909  0.06615313  1
  O2-  O492  1  0.58627970  0.75229495  0.59595822  1
