# generated using pymatgen
data_Ca108Mn108O277
_symmetry_space_group_name_H-M   'P 1'
_cell_length_a   16.02867023
_cell_length_b   22.30826639
_cell_length_c   16.38970680
_cell_angle_alpha   89.99721214
_cell_angle_beta   89.99969591
_cell_angle_gamma   90.00019636
_symmetry_Int_Tables_number   1
_chemical_formula_structural   Ca108Mn108O277
_chemical_formula_sum   'Ca108 Mn108 O277'
_cell_volume   5860.49769570
_cell_formula_units_Z   1
loop_
 _symmetry_equiv_pos_site_id
 _symmetry_equiv_pos_as_xyz
  1  'x, y, z'
loop_
 _atom_type_symbol
 _atom_type_oxidation_number
  Ca2+  2.0
  Mn3.34+  3.34
  O2-  -2.0
loop_
 _atom_site_type_symbol
 _atom_site_label
 _atom_site_symmetry_multiplicity
 _atom_site_fract_x
 _atom_site_fract_y
 _atom_site_fract_z
 _atom_site_occupancy
  Ca2+  Ca0  1  0.08523756  0.24540775  0.25201262  1
  Ca2+  Ca1  1  0.04844850  0.25250905  0.57545766  1
  Ca2+  Ca2  1  0.07496858  0.24602901  0.92629226  1
  Ca2+  Ca3  1  0.08850288  0.74672047  0.25898542  1
  Ca2+  Ca4  1  0.08692536  0.75044637  0.56664120  1
  Ca2+  Ca5  1  0.08714996  0.74764807  0.91632000  1
  Ca2+  Ca6  1  0.42393805  0.24946498  0.25153126  1
  Ca2+  Ca7  1  0.42068461  0.24786156  0.59591191  1
  Ca2+  Ca8  1  0.42242408  0.24103722  0.89440962  1
  Ca2+  Ca9  1  0.41731558  0.75863342  0.24655116  1
  Ca2+  Ca10  1  0.40205851  0.76022841  0.56613498  1
  Ca2+  Ca11  1  0.40183433  0.75582392  0.92753195  1
  Ca2+  Ca12  1  0.74642147  0.24437995  0.26802770  1
  Ca2+  Ca13  1  0.76343467  0.25380666  0.56848665  1
  Ca2+  Ca14  1  0.74342388  0.25372654  0.91999133  1
  Ca2+  Ca15  1  0.74458124  0.73670014  0.24840733  1
  Ca2+  Ca16  1  0.75352577  0.74686149  0.54465654  1
  Ca2+  Ca17  1  0.76401314  0.74989806  0.93199964  1
  Ca2+  Ca18  1  0.25357859  0.25221738  0.09131997  1
  Ca2+  Ca19  1  0.26299711  0.25411779  0.40906685  1
  Ca2+  Ca20  1  0.26854017  0.25587740  0.75494714  1
  Ca2+  Ca21  1  0.24739874  0.74092491  0.08479385  1
  Ca2+  Ca22  1  0.23888074  0.74456020  0.41402299  1
  Ca2+  Ca23  1  0.23434961  0.75392244  0.74914255  1
  Ca2+  Ca24  1  0.59022955  0.25477066  0.08265865  1
  Ca2+  Ca25  1  0.60239694  0.24785425  0.41189031  1
  Ca2+  Ca26  1  0.57924598  0.24556029  0.75542867  1
  Ca2+  Ca27  1  0.59550616  0.75373366  0.09679560  1
  Ca2+  Ca28  1  0.59460106  0.76126785  0.40384368  1
  Ca2+  Ca29  1  0.59124601  0.76836008  0.74656683  1
  Ca2+  Ca30  1  0.90276120  0.25199251  0.07783839  1
  Ca2+  Ca31  1  0.89354976  0.25190479  0.42972007  1
  Ca2+  Ca32  1  0.89474587  0.24026278  0.73627686  1
  Ca2+  Ca33  1  0.90684259  0.74405930  0.08529644  1
  Ca2+  Ca34  1  0.92118914  0.73488884  0.40777851  1
  Ca2+  Ca35  1  0.93367940  0.75760204  0.75290890  1
  Ca2+  Ca36  1  0.38320095  0.57379357  0.93627760  1
  Ca2+  Ca37  1  0.08398895  0.59141124  0.91772461  1
  Ca2+  Ca38  1  0.60459083  0.08150574  0.06514732  1
  Ca2+  Ca39  1  0.61522505  0.59371302  0.39941298  1
  Ca2+  Ca40  1  0.75949553  0.10863309  0.57512867  1
  Ca2+  Ca41  1  0.62304583  0.59028786  0.09745636  1
  Ca2+  Ca42  1  0.61149651  0.10289338  0.41120934  1
  Ca2+  Ca43  1  0.03720683  0.10810274  0.57428106  1
  Ca2+  Ca44  1  0.90710164  0.10058859  0.08736726  1
  Ca2+  Ca45  1  0.07606808  0.57793495  0.58784067  1
  Ca2+  Ca46  1  0.23798093  0.59464225  0.41248809  1
  Ca2+  Ca47  1  0.62338362  0.58975258  0.40295562  1
  Ca2+  Ca48  1  0.88941508  0.10874887  0.40154130  1
  Ca2+  Ca49  1  0.44051922  0.09627241  0.60350246  1
  Ca2+  Ca50  1  0.87866527  0.59500234  0.09581548  1
  Ca2+  Ca51  1  0.29008852  0.09815259  0.77973746  1
  Ca2+  Ca52  1  0.22730783  0.59669379  0.41481829  1
  Ca2+  Ca53  1  0.56780660  0.09868142  0.76320184  1
  Ca2+  Ca54  1  0.24814532  0.09361710  0.38873047  1
  Ca2+  Ca55  1  0.63455846  0.59114618  0.10193185  1
  Ca2+  Ca56  1  0.58246172  0.57960560  0.73808094  1
  Ca2+  Ca57  1  0.95327531  0.57097056  0.73757944  1
  Ca2+  Ca58  1  0.40304648  0.58703611  0.58090870  1
  Ca2+  Ca59  1  0.22042039  0.57593239  0.75258326  1
  Ca2+  Ca60  1  0.06231058  0.59637508  0.26771520  1
  Ca2+  Ca61  1  0.78048615  0.57911000  0.27813659  1
  Ca2+  Ca62  1  0.75113196  0.10028491  0.91925644  1
  Ca2+  Ca63  1  0.89316061  0.10212397  0.40473724  1
  Ca2+  Ca64  1  0.41804455  0.10178205  0.24469957  1
  Ca2+  Ca65  1  0.76156983  0.10113416  0.91906732  1
  Ca2+  Ca66  1  0.76913304  0.10619185  0.57819642  1
  Ca2+  Ca67  1  0.27814486  0.09756367  0.77617141  1
  Ca2+  Ca68  1  0.41654493  0.59150208  0.25170117  1
  Ca2+  Ca69  1  0.22907139  0.57264684  0.74853486  1
  Ca2+  Ca70  1  0.61320001  0.08476785  0.06900869  1
  Ca2+  Ca71  1  0.76996266  0.58161369  0.94069116  1
  Ca2+  Ca72  1  0.06386052  0.40808544  0.25378993  1
  Ca2+  Ca73  1  0.41926048  0.39568423  0.58112033  1
  Ca2+  Ca74  1  0.58237235  0.91672783  0.74434482  1
  Ca2+  Ca75  1  0.72409109  0.92637680  0.93173535  1
  Ca2+  Ca76  1  0.93757354  0.41982250  0.72457649  1
  Ca2+  Ca77  1  0.75934459  0.91879123  0.24098050  1
  Ca2+  Ca78  1  0.24626729  0.41181545  0.74372071  1
  Ca2+  Ca79  1  0.41795364  0.40885846  0.25276897  1
  Ca2+  Ca80  1  0.74234318  0.90409639  0.58290046  1
  Ca2+  Ca81  1  0.75404956  0.90445387  0.58339705  1
  Ca2+  Ca82  1  0.25644546  0.41173782  0.06719243  1
  Ca2+  Ca83  1  0.43016410  0.40746130  0.25030038  1
  Ca2+  Ca84  1  0.09456686  0.90231201  0.91631336  1
  Ca2+  Ca85  1  0.90624996  0.91117521  0.08366848  1
  Ca2+  Ca86  1  0.58576542  0.91112081  0.08078476  1
  Ca2+  Ca87  1  0.25979133  0.90163940  0.75597111  1
  Ca2+  Ca88  1  0.25229231  0.40784274  0.41711761  1
  Ca2+  Ca89  1  0.07817794  0.42115784  0.59402968  1
  Ca2+  Ca90  1  0.08575344  0.40872784  0.91170682  1
  Ca2+  Ca91  1  0.07498919  0.40376325  0.25672371  1
  Ca2+  Ca92  1  0.75621332  0.40569069  0.93393241  1
  Ca2+  Ca93  1  0.24855638  0.89741144  0.41695311  1
  Ca2+  Ca94  1  0.07109532  0.90765241  0.25755577  1
  Ca2+  Ca95  1  0.40862152  0.91067282  0.91463494  1
  Ca2+  Ca96  1  0.25956420  0.90303708  0.07526841  1
  Ca2+  Ca97  1  0.91350088  0.90456342  0.41207365  1
  Ca2+  Ca98  1  0.92711635  0.42084198  0.72504888  1
  Ca2+  Ca99  1  0.88440233  0.42823330  0.43599708  1
  Ca2+  Ca100  1  0.88957878  0.41550049  0.08631880  1
  Ca2+  Ca101  1  0.73345270  0.92378773  0.93496778  1
  Ca2+  Ca102  1  0.75059950  0.91680537  0.24601376  1
  Ca2+  Ca103  1  0.09737876  0.41192712  0.91014542  1
  Ca2+  Ca104  1  0.40659722  0.40064102  0.91550937  1
  Ca2+  Ca105  1  0.24855299  0.90449544  0.07559803  1
  Ca2+  Ca106  1  0.25976474  0.89754847  0.41808177  1
  Ca2+  Ca107  1  0.58430488  0.39368571  0.75199094  1
  Mn3.34+  Mn108  1  0.07928501  0.32947149  0.08621097  1
  Mn3.34+  Mn109  1  0.07992723  0.33468174  0.42178962  1
  Mn3.34+  Mn110  1  0.08478357  0.32712528  0.75077228  1
  Mn3.34+  Mn111  1  0.07525093  0.83032103  0.08552075  1
  Mn3.34+  Mn112  1  0.07836604  0.82920354  0.41787636  1
  Mn3.34+  Mn113  1  0.08138382  0.83417459  0.74643563  1
  Mn3.34+  Mn114  1  0.41951266  0.33402410  0.08181236  1
  Mn3.34+  Mn115  1  0.42429300  0.33156016  0.42181986  1
  Mn3.34+  Mn116  1  0.41723290  0.33155129  0.74999937  1
  Mn3.34+  Mn117  1  0.42335988  0.83131839  0.08489042  1
  Mn3.34+  Mn118  1  0.42273711  0.83107934  0.41169134  1
  Mn3.34+  Mn119  1  0.41806299  0.83178491  0.75010700  1
  Mn3.34+  Mn120  1  0.74260172  0.33627165  0.09082449  1
  Mn3.34+  Mn121  1  0.74236920  0.34080143  0.41625142  1
  Mn3.34+  Mn122  1  0.75072838  0.33171356  0.75019242  1
  Mn3.34+  Mn123  1  0.75097565  0.83243666  0.08465324  1
  Mn3.34+  Mn124  1  0.74815510  0.83444678  0.41196390  1
  Mn3.34+  Mn125  1  0.75694581  0.83864793  0.76018008  1
  Mn3.34+  Mn126  1  0.24972854  0.33393496  0.24592334  1
  Mn3.34+  Mn127  1  0.24596275  0.33138697  0.58191451  1
  Mn3.34+  Mn128  1  0.24960199  0.32924104  0.91444063  1
  Mn3.34+  Mn129  1  0.25033703  0.83299096  0.24361415  1
  Mn3.34+  Mn130  1  0.24731837  0.83099993  0.58719771  1
  Mn3.34+  Mn131  1  0.24958303  0.83133723  0.91197131  1
  Mn3.34+  Mn132  1  0.58949290  0.33312674  0.24949576  1
  Mn3.34+  Mn133  1  0.58851680  0.32929118  0.57998676  1
  Mn3.34+  Mn134  1  0.58263139  0.33032355  0.91869722  1
  Mn3.34+  Mn135  1  0.58215379  0.83911016  0.24999087  1
  Mn3.34+  Mn136  1  0.57662416  0.83543944  0.57831407  1
  Mn3.34+  Mn137  1  0.58055007  0.83474524  0.91537661  1
  Mn3.34+  Mn138  1  0.90533677  0.33972351  0.24861796  1
  Mn3.34+  Mn139  1  0.91068954  0.33714617  0.57880868  1
  Mn3.34+  Mn140  1  0.91689156  0.33158944  0.91013449  1
  Mn3.34+  Mn141  1  0.91523796  0.83529573  0.24506031  1
  Mn3.34+  Mn142  1  0.92055642  0.83153308  0.58407659  1
  Mn3.34+  Mn143  1  0.92034140  0.83343564  0.91402868  1
  Mn3.34+  Mn144  1  0.23766642  0.17024716  0.58064434  1
  Mn3.34+  Mn145  1  0.57922005  0.67066865  0.58147903  1
  Mn3.34+  Mn146  1  0.08266297  0.17251271  0.08690781  1
  Mn3.34+  Mn147  1  0.41483053  0.66346854  0.08658220  1
  Mn3.34+  Mn148  1  0.58512152  0.16797433  0.58268720  1
  Mn3.34+  Mn149  1  0.76134903  0.66567788  0.75393523  1
  Mn3.34+  Mn150  1  0.41631867  0.17039687  0.08085170  1
  Mn3.34+  Mn151  1  0.57326588  0.67115731  0.91748219  1
  Mn3.34+  Mn152  1  0.75345642  0.17081033  0.08929285  1
  Mn3.34+  Mn153  1  0.07073779  0.16633301  0.76127372  1
  Mn3.34+  Mn154  1  0.25084290  0.17044522  0.24316572  1
  Mn3.34+  Mn155  1  0.92052138  0.16471829  0.24111453  1
  Mn3.34+  Mn156  1  0.08422741  0.17269528  0.75942789  1
  Mn3.34+  Mn157  1  0.42368255  0.16885083  0.41765827  1
  Mn3.34+  Mn158  1  0.41804262  0.66609833  0.75390411  1
  Mn3.34+  Mn159  1  0.59308339  0.66443941  0.57930410  1
  Mn3.34+  Mn160  1  0.24785112  0.66613970  0.24289070  1
  Mn3.34+  Mn161  1  0.92105713  0.66702096  0.91996921  1
  Mn3.34+  Mn162  1  0.08220280  0.17152335  0.41039984  1
  Mn3.34+  Mn163  1  0.91497738  0.66187693  0.24644273  1
  Mn3.34+  Mn164  1  0.24477022  0.66468153  0.58066026  1
  Mn3.34+  Mn165  1  0.58200723  0.66806214  0.24656459  1
  Mn3.34+  Mn166  1  0.57842561  0.16629064  0.91473824  1
  Mn3.34+  Mn167  1  0.08099739  0.66684186  0.08661291  1
  Mn3.34+  Mn168  1  0.75230852  0.66007714  0.75663787  1
  Mn3.34+  Mn169  1  0.24970932  0.16255194  0.57741273  1
  Mn3.34+  Mn170  1  0.41542990  0.66535987  0.41545773  1
  Mn3.34+  Mn171  1  0.58716190  0.66517588  0.91393672  1
  Mn3.34+  Mn172  1  0.74897919  0.16659292  0.75489302  1
  Mn3.34+  Mn173  1  0.40933233  0.67176085  0.75128261  1
  Mn3.34+  Mn174  1  0.24732879  0.66549351  0.92131470  1
  Mn3.34+  Mn175  1  0.91855126  0.66054633  0.57780263  1
  Mn3.34+  Mn176  1  0.08238031  0.66746970  0.75302821  1
  Mn3.34+  Mn177  1  0.58533104  0.16675540  0.24513378  1
  Mn3.34+  Mn178  1  0.25256774  0.16036130  0.93834644  1
  Mn3.34+  Mn179  1  0.90992363  0.65478560  0.57417902  1
  Mn3.34+  Mn180  1  0.91697858  0.00253438  0.90496913  1
  Mn3.34+  Mn181  1  0.07955537  -0.00178832  0.74832032  1
  Mn3.34+  Mn182  1  0.76308943  0.00340638  0.73917189  1
  Mn3.34+  Mn183  1  0.59657835  0.49191280  0.25632246  1
  Mn3.34+  Mn184  1  0.07956045  0.00358207  0.08673191  1
  Mn3.34+  Mn185  1  0.07943665  0.50269681  0.08326908  1
  Mn3.34+  Mn186  1  0.57884091  0.00255008  0.25027981  1
  Mn3.34+  Mn187  1  0.91815991  -0.00396566  0.58458545  1
  Mn3.34+  Mn188  1  0.09337012  0.50873718  0.08145393  1
  Mn3.34+  Mn189  1  0.91452066  0.50170265  0.91191631  1
  Mn3.34+  Mn190  1  0.42463377  -0.00052390  0.75570206  1
  Mn3.34+  Mn191  1  0.58817062  0.49182205  0.57510399  1
  Mn3.34+  Mn192  1  0.25243153  0.00282380  0.24944182  1
  Mn3.34+  Mn193  1  0.06614172  0.00398287  0.74918582  1
  Mn3.34+  Mn194  1  0.59177697  0.50203209  0.92016809  1
  Mn3.34+  Mn195  1  0.43178952  -0.00345167  0.42121918  1
  Mn3.34+  Mn196  1  0.58248617  0.00085628  0.58751977  1
  Mn3.34+  Mn197  1  0.74778704  -0.00218037  0.40508686  1
  Mn3.34+  Mn198  1  0.74794764  0.49764670  0.75099137  1
  Mn3.34+  Mn199  1  0.41941862  0.00334281  0.42336360  1
  Mn3.34+  Mn200  1  0.07388288  0.49888431  0.40611908  1
  Mn3.34+  Mn201  1  0.07295069  -0.00303796  0.42417420  1
  Mn3.34+  Mn202  1  0.25769561  0.00505206  0.58808057  1
  Mn3.34+  Mn203  1  0.42228858  0.49729063  0.41314949  1
  Mn3.34+  Mn204  1  0.57994531  0.49799146  0.91846110  1
  Mn3.34+  Mn205  1  0.60106939  0.49711377  0.57673408  1
  Mn3.34+  Mn206  1  0.24457371  -0.00196617  0.58894021  1
  Mn3.34+  Mn207  1  0.25052709  0.49675700  0.58655840  1
  Mn3.34+  Mn208  1  0.08703509  0.00294340  0.42078503  1
  Mn3.34+  Mn209  1  0.42379047  0.50066498  0.74963524  1
  Mn3.34+  Mn210  1  0.41810750  -0.00061408  0.08128499  1
  Mn3.34+  Mn211  1  0.40967829  0.00501972  0.07635939  1
  Mn3.34+  Mn212  1  0.09069283  0.00822938  0.08505873  1
  Mn3.34+  Mn213  1  0.93209969  -0.00156343  0.90212460  1
  Mn3.34+  Mn214  1  0.24849810  0.50053027  0.24703318  1
  Mn3.34+  Mn215  1  0.40586722  0.50135051  0.07438892  1
  O2-  O216  1  0.00174627  0.19144430  0.01434470  1
  O2-  O217  1  -0.00100511  0.17472247  0.32680062  1
  O2-  O218  1  0.00596043  0.17538370  0.66801275  1
  O2-  O219  1  -0.00166909  0.64410811  0.00436896  1
  O2-  O220  1  -0.00331285  0.68118703  0.31637145  1
  O2-  O221  1  -0.00315850  0.65397563  0.66687100  1
  O2-  O222  1  0.34034471  0.20061471  0.00043936  1
  O2-  O223  1  0.34050348  0.15515945  0.33347999  1
  O2-  O224  1  0.32719499  0.14294256  0.65970822  1
  O2-  O225  1  0.33660961  0.65824727  -0.00271444  1
  O2-  O226  1  0.32972478  0.64868601  0.33623035  1
  O2-  O227  1  0.32768641  0.64847763  0.66916466  1
  O2-  O228  1  0.67284209  0.16028283  -0.00145843  1
  O2-  O229  1  0.66659749  0.16286555  0.32055594  1
  O2-  O230  1  0.66513155  0.14685142  0.66847187  1
  O2-  O231  1  0.66849806  0.64766717  -0.00841691  1
  O2-  O232  1  0.66981126  0.65673088  0.31674558  1
  O2-  O233  1  0.66214200  0.65553281  0.67598338  1
  O2-  O234  1  0.16900702  0.19077808  0.00762029  1
  O2-  O235  1  0.17380407  0.17242117  0.33855528  1
  O2-  O236  1  0.16482502  0.14670335  0.67871652  1
  O2-  O237  1  0.16217441  0.65052070  -0.00269297  1
  O2-  O238  1  0.16733308  0.65307043  0.32541801  1
  O2-  O239  1  0.16512750  0.64365300  0.66610682  1
  O2-  O240  1  0.50992124  0.15337613  0.00951904  1
  O2-  O241  1  0.50582397  0.14989941  0.33485372  1
  O2-  O242  1  0.50568513  0.17303086  0.66273161  1
  O2-  O243  1  0.50123805  0.63959422  0.00003051  1
  O2-  O244  1  0.50807958  0.64661324  0.34109531  1
  O2-  O245  1  0.50073374  0.64681601  0.66639801  1
  O2-  O246  1  0.83238208  0.16307315  0.00725176  1
  O2-  O247  1  0.84555348  0.17830980  0.32440094  1
  O2-  O248  1  0.82977127  0.15453424  0.67641272  1
  O2-  O249  1  0.83714218  0.65901168  -0.00650247  1
  O2-  O250  1  0.83963672  0.67331484  0.32103005  1
  O2-  O251  1  0.83253254  0.65138536  0.66231886  1
  O2-  O252  1  0.00501515  0.34113746  -0.00596944  1
  O2-  O253  1  0.00604838  0.33167763  0.32448982  1
  O2-  O254  1  0.00244626  0.33715307  0.66490630  1
  O2-  O255  1  -0.00383063  0.85439715  0.00225135  1
  O2-  O256  1  -0.00374160  0.83879866  0.33169822  1
  O2-  O257  1  -0.00075462  0.83488588  0.66603161  1
  O2-  O258  1  0.32697194  0.33544719  0.00361094  1
  O2-  O259  1  0.33254150  0.35302436  0.32991718  1
  O2-  O260  1  0.33128091  0.34995894  0.67053512  1
  O2-  O261  1  0.33655541  0.84290247  -0.00401667  1
  O2-  O262  1  0.33166088  0.84699523  0.32880830  1
  O2-  O263  1  0.33479797  0.82493750  0.66932192  1
  O2-  O264  1  0.66616132  0.34115283  -0.00359219  1
  O2-  O265  1  0.66387465  0.33306290  0.33320565  1
  O2-  O266  1  0.66083464  0.33366225  0.67273276  1
  O2-  O267  1  0.66400908  0.85038614  0.00258779  1
  O2-  O268  1  0.67219206  0.85504184  0.32724521  1
  O2-  O269  1  0.66916549  0.84800415  0.67835032  1
  O2-  O270  1  0.16325821  0.33556106  -0.00146819  1
  O2-  O271  1  0.16501393  0.34858444  0.33346911  1
  O2-  O272  1  0.16562877  0.34154205  0.66889228  1
  O2-  O273  1  0.16777219  0.84530518  0.00138005  1
  O2-  O274  1  0.16545177  0.84983417  0.32994604  1
  O2-  O275  1  0.17312800  0.84851138  0.67476496  1
  O2-  O276  1  0.48968512  0.33122499  -0.00944405  1
  O2-  O277  1  0.49538922  0.34455708  0.32868228  1
  O2-  O278  1  0.49842048  0.33538018  0.66467706  1
  O2-  O279  1  0.49766430  0.85528058  -0.00336181  1
  O2-  O280  1  0.50151741  0.83737515  0.33094977  1
  O2-  O281  1  0.50285219  0.83251580  0.67072381  1
  O2-  O282  1  0.83945514  0.33457376  -0.00346280  1
  O2-  O283  1  0.83735874  0.33037710  0.33590145  1
  O2-  O284  1  0.83935379  0.34908894  0.67450259  1
  O2-  O285  1  0.82525200  0.85343682  -0.01037481  1
  O2-  O286  1  0.83062538  0.84801471  0.32873078  1
  O2-  O287  1  0.82613432  0.83812259  0.66200141  1
  O2-  O288  1  -0.00266392  0.19325669  0.16786703  1
  O2-  O289  1  -0.00414570  0.17827147  0.48236093  1
  O2-  O290  1  -0.00659954  0.19782767  0.82885752  1
  O2-  O291  1  -0.00161681  0.68391784  0.16318425  1
  O2-  O292  1  0.00283565  0.67518599  0.50567158  1
  O2-  O293  1  0.00604509  0.68055472  0.83672988  1
  O2-  O294  1  0.33704076  0.18732236  0.16713032  1
  O2-  O295  1  0.32871676  0.18016665  0.49363162  1
  O2-  O296  1  0.31767664  0.17859988  0.84232271  1
  O2-  O297  1  0.33859945  0.68291066  0.17275168  1
  O2-  O298  1  0.32852941  0.67738836  0.49831037  1
  O2-  O299  1  0.33196755  0.69109679  0.83469762  1
  O2-  O300  1  0.65452589  0.17411432  0.15299086  1
  O2-  O301  1  0.67243419  0.17430920  0.51158967  1
  O2-  O302  1  0.66166978  0.17995502  0.83322034  1
  O2-  O303  1  0.65670486  0.67567799  0.16151313  1
  O2-  O304  1  0.65466998  0.67767014  0.48447993  1
  O2-  O305  1  0.66750906  0.69274672  0.83193150  1
  O2-  O306  1  0.16686788  0.18823235  0.16870804  1
  O2-  O307  1  0.15514458  0.18709450  0.50547008  1
  O2-  O308  1  0.16210970  0.18601314  0.83837497  1
  O2-  O309  1  0.16440417  0.68518510  0.16739000  1
  O2-  O310  1  0.17176206  0.66991129  0.49799199  1
  O2-  O311  1  0.17146642  0.67736871  0.82862525  1
  O2-  O312  1  0.49368901  0.18414365  0.16639477  1
  O2-  O313  1  0.50330730  0.18646480  0.50001701  1
  O2-  O314  1  0.50498123  0.17437882  0.83523204  1
  O2-  O315  1  0.49815786  0.67574680  0.16651029  1
  O2-  O316  1  0.48802411  0.67699621  0.50841892  1
  O2-  O317  1  0.50567397  0.69365582  0.82715305  1
  O2-  O318  1  0.83622531  0.18452148  0.16735302  1
  O2-  O319  1  0.83476475  0.16670213  0.49471998  1
  O2-  O320  1  0.81488610  0.18014589  0.84313774  1
  O2-  O321  1  0.84138053  0.68292493  0.17059264  1
  O2-  O322  1  0.83635583  0.67504587  0.49456150  1
  O2-  O323  1  0.84004540  0.68902753  0.83358770  1
  O2-  O324  1  -0.00043967  0.31414465  0.16725390  1
  O2-  O325  1  -0.00718808  0.31977358  0.49378981  1
  O2-  O326  1  0.00530088  0.31465502  0.83587908  1
  O2-  O327  1  -0.00091052  0.81280696  0.17216534  1
  O2-  O328  1  -0.00748862  0.81852426  0.49342269  1
  O2-  O329  1  0.00941035  0.81771225  0.84059803  1
  O2-  O330  1  0.33614798  0.32416213  0.16862528  1
  O2-  O331  1  0.33240018  0.32362399  0.49999508  1
  O2-  O332  1  0.33784340  0.32208019  0.83969388  1
  O2-  O333  1  0.32700885  0.81987175  0.15494337  1
  O2-  O334  1  0.32393936  0.82036605  0.48788776  1
  O2-  O335  1  0.33174506  0.81551375  0.83008376  1
  O2-  O336  1  0.66674796  0.31639876  0.16940510  1
  O2-  O337  1  0.66677670  0.31292477  0.50289889  1
  O2-  O338  1  0.66717460  0.32484380  0.83470354  1
  O2-  O339  1  0.67405528  0.82581844  0.17135193  1
  O2-  O340  1  0.67197667  0.82829794  0.50507615  1
  O2-  O341  1  0.67205634  0.81550201  0.84060728  1
  O2-  O342  1  0.16150201  0.31707375  0.16930937  1
  O2-  O343  1  0.16420531  0.31062966  0.49613304  1
  O2-  O344  1  0.16775794  0.30654231  0.83331889  1
  O2-  O345  1  0.16719628  0.82563784  0.16072941  1
  O2-  O346  1  0.17099567  0.82620732  0.49254355  1
  O2-  O347  1  0.16579069  0.81979405  0.83537990  1
  O2-  O348  1  0.49481418  0.31909495  0.16669770  1
  O2-  O349  1  0.49778008  0.31105470  0.50751874  1
  O2-  O350  1  0.50494168  0.31942843  0.82775872  1
  O2-  O351  1  0.50825589  0.82312879  0.16074456  1
  O2-  O352  1  0.49969790  0.81281068  0.49508698  1
  O2-  O353  1  0.49798559  0.81463126  0.83553162  1
  O2-  O354  1  0.83399263  0.32193638  0.16416743  1
  O2-  O355  1  0.83235886  0.33408007  0.49793753  1
  O2-  O356  1  0.83318547  0.31509350  0.83361023  1
  O2-  O357  1  0.83466779  0.81599260  0.16546413  1
  O2-  O358  1  0.82880704  0.82625404  0.49926699  1
  O2-  O359  1  0.83905163  0.81192415  0.83330312  1
  O2-  O360  1  0.05976120  0.08820427  0.10521291  1
  O2-  O361  1  0.08950791  0.08282530  0.44151519  1
  O2-  O362  1  0.08244345  0.08116768  0.79330485  1
  O2-  O363  1  0.08303220  0.58389273  0.13016088  1
  O2-  O364  1  0.09881424  0.56784737  0.45321006  1
  O2-  O365  1  0.08938094  0.58207467  0.78183634  1
  O2-  O366  1  0.40780640  0.08393543  0.10848036  1
  O2-  O367  1  0.41868930  0.08129877  0.46344141  1
  O2-  O368  1  0.41894127  0.07897882  0.78156859  1
  O2-  O369  1  0.41312101  0.57809677  0.11466459  1
  O2-  O370  1  0.40855820  0.57868105  0.44451092  1
  O2-  O371  1  0.42501339  0.58260629  0.79697821  1
  O2-  O372  1  0.74992914  0.08599283  0.09268410  1
  O2-  O373  1  0.75298443  0.07448345  0.44350794  1
  O2-  O374  1  0.74273759  0.08209473  0.78519963  1
  O2-  O375  1  0.75258376  0.56795739  0.13693700  1
  O2-  O376  1  0.74235010  0.56625722  0.43267747  1
  O2-  O377  1  0.73187410  0.57654591  0.79705206  1
  O2-  O378  1  0.26014480  0.08686757  0.23499610  1
  O2-  O379  1  0.23225698  0.08010299  0.53599491  1
  O2-  O380  1  0.23874164  0.08230354  0.90224749  1
  O2-  O381  1  0.25681181  0.58112424  0.22938454  1
  O2-  O382  1  0.25850903  0.57769859  0.54900282  1
  O2-  O383  1  0.25271098  0.58289969  0.88294437  1
  O2-  O384  1  0.57000080  0.08062787  0.20471064  1
  O2-  O385  1  0.57999259  0.07768200  0.54682946  1
  O2-  O386  1  0.60355706  0.08624171  0.90410675  1
  O2-  O387  1  0.57540896  0.57570314  0.22355237  1
  O2-  O388  1  0.58951459  0.57854659  0.54328842  1
  O2-  O389  1  0.57645542  0.58209104  0.87130052  1
  O2-  O390  1  0.91784428  0.08750218  0.23376138  1
  O2-  O391  1  0.91439869  0.07063825  0.53429564  1
  O2-  O392  1  0.90013667  0.08253993  0.90503915  1
  O2-  O393  1  0.92071863  0.58431403  0.23041341  1
  O2-  O394  1  0.93091918  0.57510037  0.57204014  1
  O2-  O395  1  0.91291404  0.58224105  0.88202330  1
  O2-  O396  1  0.09188696  0.42204418  0.12208196  1
  O2-  O397  1  0.08156583  0.42418477  0.44941478  1
  O2-  O398  1  0.07322092  0.41595065  0.77937319  1
  O2-  O399  1  0.06188681  0.92351070  0.12517339  1
  O2-  O400  1  0.08733740  0.91665378  0.44258774  1
  O2-  O401  1  0.08941777  0.91988359  0.78050879  1
  O2-  O402  1  0.40279219  0.42448972  0.11934550  1
  O2-  O403  1  0.41511781  0.41759981  0.44756990  1
  O2-  O404  1  0.42199818  0.41755528  0.77678236  1
  O2-  O405  1  0.41205662  0.91841647  0.11652147  1
  O2-  O406  1  0.40426234  0.91657752  0.44472846  1
  O2-  O407  1  0.41781020  0.91873453  0.77771177  1
  O2-  O408  1  0.75375226  0.41465594  0.08483415  1
  O2-  O409  1  0.74651776  0.42006730  0.43374313  1
  O2-  O410  1  0.75293889  0.41844398  0.78409746  1
  O2-  O411  1  0.75349975  0.91986305  0.10760193  1
  O2-  O412  1  0.75602861  0.92214897  0.44808569  1
  O2-  O413  1  0.74633667  0.92638050  0.79611726  1
  O2-  O414  1  0.23684544  0.41971295  0.21397943  1
  O2-  O415  1  0.23929085  0.41629408  0.55682718  1
  O2-  O416  1  0.22849505  0.41403329  0.87868543  1
  O2-  O417  1  0.24239660  0.92105268  0.21081643  1
  O2-  O418  1  0.25758103  0.91925711  0.55442670  1
  O2-  O419  1  0.25460019  0.91131855  0.88864937  1
  O2-  O420  1  0.56484196  0.41775516  0.21897056  1
  O2-  O421  1  0.57328500  0.41334458  0.55947867  1
  O2-  O422  1  0.57306829  0.41678455  0.89068016  1
  O2-  O423  1  0.60213358  0.92377630  0.21481670  1
  O2-  O424  1  0.59729187  0.91946538  0.56696750  1
  O2-  O425  1  0.58927067  0.91598946  0.88570063  1
  O2-  O426  1  0.93555812  0.41867431  0.21455264  1
  O2-  O427  1  0.92850620  0.41950607  0.57268288  1
  O2-  O428  1  0.93278163  0.42207579  0.87848911  1
  O2-  O429  1  0.89830178  0.91956190  0.22000110  1
  O2-  O430  1  0.90125622  0.91664204  0.55767880  1
  O2-  O431  1  0.93377802  0.91885098  0.87687591  1
  O2-  O432  1  0.00457087  -0.00058918  -0.00595789  1
  O2-  O433  1  -0.00452810  -0.01145176  0.34453966  1
  O2-  O434  1  0.00971847  0.01631143  0.64915352  1
  O2-  O435  1  0.00184897  0.50302383  -0.00616662  1
  O2-  O436  1  0.01570335  0.49135504  0.31555237  1
  O2-  O437  1  0.00783945  0.49233515  0.67119941  1
  O2-  O438  1  0.33131500  -0.02241968  0.00286153  1
  O2-  O439  1  0.32633101  -0.00059616  0.34923662  1
  O2-  O440  1  0.32913639  0.00839550  0.68192399  1
  O2-  O441  1  0.33923161  0.48096013  -0.00964863  1
  O2-  O442  1  0.34013670  0.48775269  0.32253399  1
  O2-  O443  1  0.31927536  0.51410438  0.68765749  1
  O2-  O444  1  0.68419261  0.01113216  -0.02022332  1
  O2-  O445  1  0.68134501  -0.00201108  0.31275531  1
  O2-  O446  1  0.66159292  -0.00666501  0.67069153  1
  O2-  O447  1  0.66827281  0.52466000  -0.00077411  1
  O2-  O448  1  0.67414723  0.51511880  0.32531867  1
  O2-  O449  1  0.64868806  0.49610092  0.68800189  1
  O2-  O450  1  0.16904758  -0.02749081  0.01562707  1
  O2-  O451  1  0.16673258  -0.00645274  0.33792197  1
  O2-  O452  1  0.17349716  0.00717074  0.68059860  1
  O2-  O453  1  0.15876643  0.48444306  -0.00928133  1
  O2-  O454  1  0.17617529  0.50011895  0.34721462  1
  O2-  O455  1  0.16513784  0.50499023  0.66276950  1
  O2-  O456  1  0.52912911  0.00161306  0.04308648  1
  O2-  O457  1  0.50247374  0.01704109  0.33434014  1
  O2-  O458  1  0.50333772  0.01274411  0.67387759  1
  O2-  O459  1  0.49680445  0.50794232  -0.00062693  1
  O2-  O460  1  0.50090562  0.50047170  0.32345924  1
  O2-  O461  1  0.49065258  0.51483590  0.64519770  1
  O2-  O462  1  0.83887689  -0.01678565  -0.01543255  1
  O2-  O463  1  0.83966975  -0.00237472  0.35183932  1
  O2-  O464  1  0.80637580  0.00331185  0.61888722  1
  O2-  O465  1  0.83382015  0.49411111  -0.01334088  1
  O2-  O466  1  0.83231260  0.50208047  0.35400681  1
  O2-  O467  1  0.85464001  0.50479175  0.72192055  1
  O2-  O468  1  0.74249963  0.75689894  0.39620463  1
  O2-  O469  1  0.23786841  0.74514120  0.60526104  1
  O2-  O470  1  0.58708883  0.24941949  0.93743276  1
  O2-  O471  1  0.90942225  0.74314413  0.60242146  1
  O2-  O472  1  0.74577944  0.25198516  0.06314493  1
  O2-  O473  1  0.59895541  0.75213806  0.60590329  1
  O2-  O474  1  0.75045487  0.25628960  0.41006708  1
  O2-  O475  1  0.25860316  0.25408761  0.27240069  1
  O2-  O476  1  0.08504923  0.74800836  0.05403454  1
  O2-  O477  1  0.57683567  0.24910135  0.27040708  1
  O2-  O478  1  0.41045804  0.74688272  0.38879723  1
  O2-  O479  1  0.58295427  0.75043407  0.26706735  1
  O2-  O480  1  0.26494992  0.24850216  0.61556221  1
  O2-  O481  1  0.08740446  0.74807467  0.72117554  1
  O2-  O482  1  0.74541542  0.75471284  0.06354795  1
  O2-  O483  1  0.58124758  0.75073159  0.95519879  1
  O2-  O484  1  0.24442377  0.74870345  0.94540468  1
  O2-  O485  1  0.90447217  0.25637434  0.59366839  1
  O2-  O486  1  0.09095123  0.75262828  0.40251303  1
  O2-  O487  1  0.41113064  0.25105662  0.38970207  1
  O2-  O488  1  0.42609180  0.74850520  0.06090148  1
  O2-  O489  1  0.24935354  0.75054655  0.27362258  1
  O2-  O490  1  0.40818117  0.25289475  0.73629130  1
  O2-  O491  1  0.74734158  0.24874314  0.72240513  1
  O2-  O492  1  0.92493779  0.75182058  0.94724061  1
