# generated using pymatgen
data_Ca108Mn108O277
_symmetry_space_group_name_H-M   'P 1'
_cell_length_a   16.02391997
_cell_length_b   22.30319442
_cell_length_c   16.38794202
_cell_angle_alpha   90.00064727
_cell_angle_beta   89.99726497
_cell_angle_gamma   90.00613310
_symmetry_Int_Tables_number   1
_chemical_formula_structural   Ca108Mn108O277
_chemical_formula_sum   'Ca108 Mn108 O277'
_cell_volume   5856.79810567
_cell_formula_units_Z   1
loop_
 _symmetry_equiv_pos_site_id
 _symmetry_equiv_pos_as_xyz
  1  'x, y, z'
loop_
 _atom_type_symbol
 _atom_type_oxidation_number
  Ca2+  2.0
  Mn3.34+  3.34
  O2-  -2.0
loop_
 _atom_site_type_symbol
 _atom_site_label
 _atom_site_symmetry_multiplicity
 _atom_site_fract_x
 _atom_site_fract_y
 _atom_site_fract_z
 _atom_site_occupancy
  Ca2+  Ca0  1  0.07288561  0.26025380  0.25585233  1
  Ca2+  Ca1  1  0.06669293  0.25733189  0.57801731  1
  Ca2+  Ca2  1  0.07729669  0.25645489  0.91628715  1
  Ca2+  Ca3  1  0.05890047  0.74552493  0.25507140  1
  Ca2+  Ca4  1  0.08508197  0.75778869  0.58700349  1
  Ca2+  Ca5  1  0.06579638  0.74988810  0.91213866  1
  Ca2+  Ca6  1  0.43262517  0.24958265  0.25122283  1
  Ca2+  Ca7  1  0.42753514  0.24421617  0.55697747  1
  Ca2+  Ca8  1  0.43445421  0.24831097  0.93653614  1
  Ca2+  Ca9  1  0.42301302  0.75542451  0.27113903  1
  Ca2+  Ca10  1  0.41921366  0.74823389  0.56715699  1
  Ca2+  Ca11  1  0.41407613  0.75710285  0.91313230  1
  Ca2+  Ca12  1  0.73934757  0.25339984  0.24827601  1
  Ca2+  Ca13  1  0.75277975  0.25505942  0.58739530  1
  Ca2+  Ca14  1  0.74260852  0.25434256  0.91209774  1
  Ca2+  Ca15  1  0.76309039  0.72734883  0.24304428  1
  Ca2+  Ca16  1  0.74175404  0.73871623  0.59179476  1
  Ca2+  Ca17  1  0.76225623  0.73598597  0.92199566  1
  Ca2+  Ca18  1  0.27540549  0.24988031  0.08342939  1
  Ca2+  Ca19  1  0.25832142  0.25985603  0.41927054  1
  Ca2+  Ca20  1  0.24755462  0.27830655  0.74307356  1
  Ca2+  Ca21  1  0.25295324  0.76157405  0.07410763  1
  Ca2+  Ca22  1  0.26275065  0.73922195  0.42123239  1
  Ca2+  Ca23  1  0.25001426  0.74861677  0.74819210  1
  Ca2+  Ca24  1  0.57027979  0.24720986  0.08804813  1
  Ca2+  Ca25  1  0.57384932  0.23620012  0.41732031  1
  Ca2+  Ca26  1  0.59885054  0.25480515  0.75477733  1
  Ca2+  Ca27  1  0.60616620  0.74902088  0.08730483  1
  Ca2+  Ca28  1  0.57428287  0.75058445  0.41902844  1
  Ca2+  Ca29  1  0.60806748  0.74179422  0.74655068  1
  Ca2+  Ca30  1  0.90606287  0.25616010  0.08186574  1
  Ca2+  Ca31  1  0.90951872  0.25020344  0.42458014  1
  Ca2+  Ca32  1  0.90290389  0.25491390  0.74339887  1
  Ca2+  Ca33  1  0.89838781  0.73844274  0.07764757  1
  Ca2+  Ca34  1  0.90353563  0.74731684  0.39682087  1
  Ca2+  Ca35  1  0.89285534  0.74373043  0.76728745  1
  Ca2+  Ca36  1  0.44263625  0.10227718  0.55516189  1
  Ca2+  Ca37  1  0.62615734  0.59866717  0.08736883  1
  Ca2+  Ca38  1  0.89765314  0.59385279  0.76438580  1
  Ca2+  Ca39  1  0.73884435  0.10825116  0.58105426  1
  Ca2+  Ca40  1  0.61466871  0.59929292  0.08290498  1
  Ca2+  Ca41  1  0.40405264  0.58331598  0.91359108  1
  Ca2+  Ca42  1  0.75710729  0.10112550  0.90487124  1
  Ca2+  Ca43  1  0.60551858  0.08842749  0.73245609  1
  Ca2+  Ca44  1  0.10786726  0.59460398  0.58136235  1
  Ca2+  Ca45  1  0.56452094  0.10585038  0.09131615  1
  Ca2+  Ca46  1  0.09751389  0.59223178  0.58341892  1
  Ca2+  Ca47  1  0.07900228  0.08482749  0.92998255  1
  Ca2+  Ca48  1  0.25801482  0.07032449  0.75196668  1
  Ca2+  Ca49  1  0.39113150  0.59576682  0.28475526  1
  Ca2+  Ca50  1  0.92111194  0.09179877  0.07296174  1
  Ca2+  Ca51  1  0.08303878  0.07757203  0.25558662  1
  Ca2+  Ca52  1  0.56154700  0.60967221  0.42313562  1
  Ca2+  Ca53  1  0.56907049  0.10083053  0.42606164  1
  Ca2+  Ca54  1  0.07003639  0.07605950  0.25455427  1
  Ca2+  Ca55  1  0.38566271  0.58930040  0.28447361  1
  Ca2+  Ca56  1  0.43258672  0.09350249  0.27359161  1
  Ca2+  Ca57  1  0.41555089  0.09509507  0.93788455  1
  Ca2+  Ca58  1  0.41624977  0.58567759  0.91394895  1
  Ca2+  Ca59  1  0.90793562  0.58993661  0.35837775  1
  Ca2+  Ca60  1  0.62337638  0.60236234  0.74927327  1
  Ca2+  Ca61  1  0.42699541  0.08717244  0.27348959  1
  Ca2+  Ca62  1  0.06588208  0.59039029  0.25682757  1
  Ca2+  Ca63  1  0.74936110  0.10770474  0.58094309  1
  Ca2+  Ca64  1  0.28504886  0.08108285  0.41419743  1
  Ca2+  Ca65  1  0.89489811  0.09262484  0.73984698  1
  Ca2+  Ca66  1  0.38314338  0.61266511  0.55626292  1
  Ca2+  Ca67  1  0.24515986  0.07104488  0.75139304  1
  Ca2+  Ca68  1  0.91564081  0.10241635  0.43377452  1
  Ca2+  Ca69  1  0.24688840  0.58895619  0.74365179  1
  Ca2+  Ca70  1  0.77004475  0.60418748  0.91845303  1
  Ca2+  Ca71  1  0.89438916  0.59973141  0.09768319  1
  Ca2+  Ca72  1  0.10404658  0.90666114  0.91511433  1
  Ca2+  Ca73  1  0.75601228  0.90795240  0.58397888  1
  Ca2+  Ca74  1  0.58955683  0.40025941  0.41769971  1
  Ca2+  Ca75  1  0.75842950  0.91047815  0.26489839  1
  Ca2+  Ca76  1  0.56898951  0.90025157  0.09359652  1
  Ca2+  Ca77  1  0.92330366  0.90821184  0.08820056  1
  Ca2+  Ca78  1  0.24086613  0.90093935  0.74756284  1
  Ca2+  Ca79  1  0.10594334  0.42449708  0.90120060  1
  Ca2+  Ca80  1  0.08017447  0.90803406  0.26205365  1
  Ca2+  Ca81  1  0.59390032  0.90890194  0.74497674  1
  Ca2+  Ca82  1  0.92375624  0.40856143  0.08488396  1
  Ca2+  Ca83  1  0.40829713  0.90430377  0.57295798  1
  Ca2+  Ca84  1  0.93450710  0.90670748  0.08730541  1
  Ca2+  Ca85  1  0.06947482  0.90859296  0.26302989  1
  Ca2+  Ca86  1  0.08263658  0.41507525  0.25118189  1
  Ca2+  Ca87  1  0.39198103  0.40900179  0.24710438  1
  Ca2+  Ca88  1  0.09351368  0.42343542  0.90266108  1
  Ca2+  Ca89  1  0.38623838  0.90980557  0.91322189  1
  Ca2+  Ca90  1  0.58152576  0.89921886  0.09181813  1
  Ca2+  Ca91  1  0.93395672  0.42450442  0.72169665  1
  Ca2+  Ca92  1  0.40153536  0.39946105  0.57753476  1
  Ca2+  Ca93  1  0.75442877  0.90224178  0.90775029  1
  Ca2+  Ca94  1  0.58668168  0.40594277  0.07738871  1
  Ca2+  Ca95  1  0.24725132  0.41399691  0.07655034  1
  Ca2+  Ca96  1  0.57667192  0.40079935  0.41712752  1
  Ca2+  Ca97  1  0.92149708  0.90114991  0.75356338  1
  Ca2+  Ca98  1  0.75673330  0.40418117  0.91433774  1
  Ca2+  Ca99  1  0.41424937  0.39989067  0.57918762  1
  Ca2+  Ca100  1  0.58128538  0.90960727  0.74476651  1
  Ca2+  Ca101  1  0.41286736  0.40649430  0.92216213  1
  Ca2+  Ca102  1  0.92641372  0.41004241  0.41473383  1
  Ca2+  Ca103  1  0.40125831  0.40739709  0.92206724  1
  Ca2+  Ca104  1  0.77609589  0.41262207  0.25328823  1
  Ca2+  Ca105  1  0.55889238  0.91677522  0.40937777  1
  Ca2+  Ca106  1  0.74466666  0.90854808  0.58305711  1
  Ca2+  Ca107  1  0.25907700  0.90212813  0.41474075  1
  Mn3.34+  Mn108  1  0.08586588  0.32955999  0.08718906  1
  Mn3.34+  Mn109  1  0.08430741  0.32983579  0.41791680  1
  Mn3.34+  Mn110  1  0.07928344  0.33828027  0.74373604  1
  Mn3.34+  Mn111  1  0.09068080  0.83243582  0.08600555  1
  Mn3.34+  Mn112  1  0.08312736  0.83059719  0.42279957  1
  Mn3.34+  Mn113  1  0.08052624  0.83188985  0.74794301  1
  Mn3.34+  Mn114  1  0.41637489  0.33261593  0.09076703  1
  Mn3.34+  Mn115  1  0.41115493  0.33003887  0.40990250  1
  Mn3.34+  Mn116  1  0.41755204  0.33223373  0.75161323  1
  Mn3.34+  Mn117  1  0.40968024  0.83213777  0.08750558  1
  Mn3.34+  Mn118  1  0.41350515  0.83375677  0.41516277  1
  Mn3.34+  Mn119  1  0.41626632  0.83048526  0.74744239  1
  Mn3.34+  Mn120  1  0.75020816  0.33350202  0.08381838  1
  Mn3.34+  Mn121  1  0.75324644  0.33007447  0.41940199  1
  Mn3.34+  Mn122  1  0.75159929  0.33755934  0.74719288  1
  Mn3.34+  Mn123  1  0.75124435  0.83289146  0.08505963  1
  Mn3.34+  Mn124  1  0.75049870  0.83425154  0.41691419  1
  Mn3.34+  Mn125  1  0.75126517  0.83419885  0.75212611  1
  Mn3.34+  Mn126  1  0.24473593  0.33835968  0.24569063  1
  Mn3.34+  Mn127  1  0.23801520  0.33815354  0.58070072  1
  Mn3.34+  Mn128  1  0.24748307  0.33167197  0.91696615  1
  Mn3.34+  Mn129  1  0.25062696  0.83139188  0.24703977  1
  Mn3.34+  Mn130  1  0.24800588  0.83069434  0.57867377  1
  Mn3.34+  Mn131  1  0.24811844  0.83043088  0.91295475  1
  Mn3.34+  Mn132  1  0.58589112  0.33370996  0.24533393  1
  Mn3.34+  Mn133  1  0.58730887  0.32976760  0.58336254  1
  Mn3.34+  Mn134  1  0.58486088  0.33681482  0.91326261  1
  Mn3.34+  Mn135  1  0.58445450  0.83351259  0.25672186  1
  Mn3.34+  Mn136  1  0.57996010  0.83279665  0.57729991  1
  Mn3.34+  Mn137  1  0.57977093  0.82822290  0.91504182  1
  Mn3.34+  Mn138  1  0.91824279  0.33672675  0.24896284  1
  Mn3.34+  Mn139  1  0.91371295  0.34530629  0.57819759  1
  Mn3.34+  Mn140  1  0.92050756  0.33679776  0.91249390  1
  Mn3.34+  Mn141  1  0.91267634  0.83193158  0.25159033  1
  Mn3.34+  Mn142  1  0.92215209  0.82935569  0.57751146  1
  Mn3.34+  Mn143  1  0.91777407  0.83368145  0.91656237  1
  Mn3.34+  Mn144  1  0.07297844  0.16468355  0.74869524  1
  Mn3.34+  Mn145  1  0.41894376  0.67204854  0.74695765  1
  Mn3.34+  Mn146  1  0.91342589  0.16689268  0.24897133  1
  Mn3.34+  Mn147  1  0.24067171  0.16099141  0.57761439  1
  Mn3.34+  Mn148  1  0.41309188  0.16931254  0.74867380  1
  Mn3.34+  Mn149  1  0.90343689  0.16101702  0.24723126  1
  Mn3.34+  Mn150  1  0.24131624  0.66979911  0.24887931  1
  Mn3.34+  Mn151  1  0.41859451  0.66783463  0.08895529  1
  Mn3.34+  Mn152  1  0.07383218  0.66386984  0.75906420  1
  Mn3.34+  Mn153  1  0.58552416  0.66921057  0.25100641  1
  Mn3.34+  Mn154  1  0.40488264  0.66199420  0.09090288  1
  Mn3.34+  Mn155  1  0.58248513  0.66928309  0.58333259  1
  Mn3.34+  Mn156  1  0.24172518  0.16672184  0.24520361  1
  Mn3.34+  Mn157  1  0.74960278  0.16999434  0.75240011  1
  Mn3.34+  Mn158  1  0.91492298  0.66328783  0.57781584  1
  Mn3.34+  Mn159  1  0.90589877  0.65724980  0.57733440  1
  Mn3.34+  Mn160  1  0.42567562  0.16199493  0.75186872  1
  Mn3.34+  Mn161  1  0.08413322  0.65973873  0.75967761  1
  Mn3.34+  Mn162  1  0.58566419  0.16884580  0.91813792  1
  Mn3.34+  Mn163  1  0.08573798  0.67205039  0.41979554  1
  Mn3.34+  Mn164  1  0.25345894  0.66563919  0.91190013  1
  Mn3.34+  Mn165  1  0.08433777  0.66465711  0.08141480  1
  Mn3.34+  Mn166  1  0.58278204  0.66782570  0.91058794  1
  Mn3.34+  Mn167  1  0.74269699  0.66878799  0.41523119  1
  Mn3.34+  Mn168  1  0.74572363  0.17099215  0.08052544  1
  Mn3.34+  Mn169  1  0.91565739  0.16926093  0.91687077  1
  Mn3.34+  Mn170  1  0.08328412  0.16911591  0.08652843  1
  Mn3.34+  Mn171  1  0.08329068  0.17006209  0.74667458  1
  Mn3.34+  Mn172  1  0.58988072  0.16744077  0.24976356  1
  Mn3.34+  Mn173  1  0.25169817  0.16325847  0.91889737  1
  Mn3.34+  Mn174  1  0.25004254  0.17286027  0.24803716  1
  Mn3.34+  Mn175  1  0.09442821  0.65993272  0.08256954  1
  Mn3.34+  Mn176  1  0.24430633  0.17035272  0.91811116  1
  Mn3.34+  Mn177  1  0.25145442  0.16546686  0.57941375  1
  Mn3.34+  Mn178  1  0.07572053  0.16713267  0.42293510  1
  Mn3.34+  Mn179  1  0.74646171  0.16887115  0.41669933  1
  Mn3.34+  Mn180  1  0.40013085  0.49515939  0.41214605  1
  Mn3.34+  Mn181  1  0.24043565  0.49674855  0.58487079  1
  Mn3.34+  Mn182  1  0.57201231  -0.00123165  0.91838326  1
  Mn3.34+  Mn183  1  0.60335442  0.49915731  0.58636404  1
  Mn3.34+  Mn184  1  0.10187657  -0.00068734  0.06807810  1
  Mn3.34+  Mn185  1  0.58676206  0.00444475  0.91732908  1
  Mn3.34+  Mn186  1  0.07538854  -0.00219459  0.75735228  1
  Mn3.34+  Mn187  1  0.58912470  0.50284046  0.91782961  1
  Mn3.34+  Mn188  1  0.76050943  0.49681072  0.73931731  1
  Mn3.34+  Mn189  1  0.09570331  0.49983758  0.41224709  1
  Mn3.34+  Mn190  1  0.75694402  0.49515788  0.08314315  1
  Mn3.34+  Mn191  1  0.75445405  0.50326776  0.43249960  1
  Mn3.34+  Mn192  1  0.59090448  0.50600433  0.58490278  1
  Mn3.34+  Mn193  1  0.41124242  0.50129659  0.74221989  1
  Mn3.34+  Mn194  1  0.23619480  -0.00471807  0.58696109  1
  Mn3.34+  Mn195  1  0.75912044  0.00275027  0.40175278  1
  Mn3.34+  Mn196  1  0.93593994  -0.00512351  0.58270515  1
  Mn3.34+  Mn197  1  0.59386609  0.49769852  0.25332257  1
  Mn3.34+  Mn198  1  0.41941374  0.00037145  0.75151043  1
  Mn3.34+  Mn199  1  0.38446091  -0.00423680  0.08477179  1
  Mn3.34+  Mn200  1  0.91893335  0.00035264  0.91980298  1
  Mn3.34+  Mn201  1  0.75314326  0.00720158  0.09487699  1
  Mn3.34+  Mn202  1  0.39085180  0.00128161  0.07800817  1
  Mn3.34+  Mn203  1  0.92283029  0.00088377  0.57900251  1
  Mn3.34+  Mn204  1  0.08291744  0.00014364  0.41701172  1
  Mn3.34+  Mn205  1  0.09479214  0.49966650  0.07854792  1
  Mn3.34+  Mn206  1  0.10512276  0.49410569  0.40909553  1
  Mn3.34+  Mn207  1  0.42494893  0.49549699  0.74431671  1
  Mn3.34+  Mn208  1  0.58451232  -0.00031137  0.58552448  1
  Mn3.34+  Mn209  1  0.57964743  0.50358400  0.25581563  1
  Mn3.34+  Mn210  1  0.58847696  0.00211170  0.25803890  1
  Mn3.34+  Mn211  1  0.40801361  0.50393690  0.07807442  1
  Mn3.34+  Mn212  1  0.74175979  0.00329666  0.09738301  1
  Mn3.34+  Mn213  1  0.25144084  -0.00000925  0.24867311  1
  Mn3.34+  Mn214  1  0.92120211  0.49983420  0.92717592  1
  Mn3.34+  Mn215  1  0.76391896  0.49695345  0.43364163  1
  O2-  O216  1  -0.00351626  0.17206006  0.00269541  1
  O2-  O217  1  0.00121911  0.14888497  0.32685768  1
  O2-  O218  1  -0.01209260  0.17030198  0.67263871  1
  O2-  O219  1  0.00645440  0.67579205  0.00433355  1
  O2-  O220  1  0.00453318  0.66755226  0.34026352  1
  O2-  O221  1  0.00746806  0.65440175  0.65632134  1
  O2-  O222  1  0.33650811  0.17004616  -0.00462775  1
  O2-  O223  1  0.32783508  0.15803012  0.32979044  1
  O2-  O224  1  0.33420455  0.13911399  0.66637164  1
  O2-  O225  1  0.34007364  0.65038447  -0.00465542  1
  O2-  O226  1  0.32488332  0.67749777  0.32265475  1
  O2-  O227  1  0.33631445  0.67722919  0.67183926  1
  O2-  O228  1  0.66755698  0.14810781  -0.00324095  1
  O2-  O229  1  0.66255106  0.15659307  0.33962359  1
  O2-  O230  1  0.66889364  0.16592805  0.67155738  1
  O2-  O231  1  0.66504256  0.65753591  -0.01062651  1
  O2-  O232  1  0.65535781  0.65897463  0.33892720  1
  O2-  O233  1  0.66689975  0.66554044  0.65895063  1
  O2-  O234  1  0.16189825  0.18351826  -0.00141764  1
  O2-  O235  1  0.16060974  0.15260586  0.32668520  1
  O2-  O236  1  0.17571756  0.14216744  0.67213083  1
  O2-  O237  1  0.17131376  0.66791759  0.00103535  1
  O2-  O238  1  0.16217287  0.68508036  0.32840366  1
  O2-  O239  1  0.16599581  0.65824876  0.67587894  1
  O2-  O240  1  0.50458023  0.15892195  -0.00522514  1
  O2-  O241  1  0.50616946  0.16012687  0.32809245  1
  O2-  O242  1  0.50337234  0.15514747  0.67075667  1
  O2-  O243  1  0.50073846  0.64036162  0.00558851  1
  O2-  O244  1  0.49322041  0.65298877  0.31718325  1
  O2-  O245  1  0.50644455  0.65966017  0.67257564  1
  O2-  O246  1  0.83340458  0.16029914  -0.00124084  1
  O2-  O247  1  0.83498958  0.15008001  0.33967362  1
  O2-  O248  1  0.82582185  0.16425639  0.66848391  1
  O2-  O249  1  0.83400730  0.66431436  0.00597397  1
  O2-  O250  1  0.82320735  0.66534218  0.33946714  1
  O2-  O251  1  0.83910213  0.65129627  0.66578234  1
  O2-  O252  1  0.00183909  0.32347151  0.00085482  1
  O2-  O253  1  0.00447541  0.34622114  0.32846692  1
  O2-  O254  1  -0.00846240  0.32937822  0.66297451  1
  O2-  O255  1  0.00351512  0.84718682  0.00171268  1
  O2-  O256  1  0.00390360  0.83303448  0.32834740  1
  O2-  O257  1  -0.00223987  0.83910361  0.66833976  1
  O2-  O258  1  0.33046658  0.33977481  0.00353883  1
  O2-  O259  1  0.32988950  0.33321177  0.32771226  1
  O2-  O260  1  0.33146569  0.34839019  0.66826376  1
  O2-  O261  1  0.33119943  0.84072347  -0.00203352  1
  O2-  O262  1  0.32565584  0.82918120  0.33733497  1
  O2-  O263  1  0.33500324  0.82403528  0.66314133  1
  O2-  O264  1  0.66939477  0.35071475  -0.00282737  1
  O2-  O265  1  0.67032148  0.35060593  0.32737650  1
  O2-  O266  1  0.66459018  0.32015727  0.66323232  1
  O2-  O267  1  0.66448007  0.85078220  0.00224095  1
  O2-  O268  1  0.66447100  0.85424470  0.33978010  1
  O2-  O269  1  0.66594963  0.84786027  0.66445112  1
  O2-  O270  1  0.16903999  0.32231564  0.00261055  1
  O2-  O271  1  0.16551276  0.32998449  0.32723800  1
  O2-  O272  1  0.16229243  0.34234819  0.66434941  1
  O2-  O273  1  0.16174342  0.82889728  -0.00475526  1
  O2-  O274  1  0.16163775  0.82549032  0.32879339  1
  O2-  O275  1  0.17202199  0.82712245  0.66840525  1
  O2-  O276  1  0.49475010  0.34867224  0.00162347  1
  O2-  O277  1  0.49828680  0.35034028  0.32824362  1
  O2-  O278  1  0.49556049  0.33898570  0.65576848  1
  O2-  O279  1  0.49580445  0.85449226  -0.00392735  1
  O2-  O280  1  0.49931430  0.84247397  0.33520734  1
  O2-  O281  1  0.50153840  0.84917458  0.66535546  1
  O2-  O282  1  0.83984345  0.34353366  0.00234535  1
  O2-  O283  1  0.83853436  0.34906416  0.33962918  1
  O2-  O284  1  0.83785792  0.33142977  0.66334731  1
  O2-  O285  1  0.83645060  0.85455415  0.00452871  1
  O2-  O286  1  0.83337064  0.84402119  0.33448558  1
  O2-  O287  1  0.83217505  0.85393387  0.66913074  1
  O2-  O288  1  -0.00116435  0.18663376  0.16886102  1
  O2-  O289  1  -0.00570220  0.18344918  0.49261008  1
  O2-  O290  1  0.00137031  0.18638969  0.84052757  1
  O2-  O291  1  0.00722444  0.67903975  0.16085702  1
  O2-  O292  1  -0.00621287  0.68068339  0.50010795  1
  O2-  O293  1  -0.01097240  0.67435425  0.82856143  1
  O2-  O294  1  0.33543998  0.18754956  0.17795587  1
  O2-  O295  1  0.33378514  0.17500026  0.50141120  1
  O2-  O296  1  0.33220830  0.18197797  0.83009447  1
  O2-  O297  1  0.32839049  0.68919691  0.16941151  1
  O2-  O298  1  0.32480041  0.69025286  0.51325204  1
  O2-  O299  1  0.33670565  0.68558569  0.83251113  1
  O2-  O300  1  0.66342892  0.18285004  0.15954537  1
  O2-  O301  1  0.67204672  0.17829721  0.50086965  1
  O2-  O302  1  0.66765702  0.17935448  0.83639590  1
  O2-  O303  1  0.66129702  0.67610636  0.16510135  1
  O2-  O304  1  0.65558971  0.68370225  0.49465911  1
  O2-  O305  1  0.66362228  0.67744862  0.83704511  1
  O2-  O306  1  0.16569606  0.19394171  0.16808198  1
  O2-  O307  1  0.16812722  0.18406551  0.49054826  1
  O2-  O308  1  0.16709077  0.18487848  0.83033226  1
  O2-  O309  1  0.16607157  0.68936988  0.16265558  1
  O2-  O310  1  0.15091727  0.68235672  0.51181275  1
  O2-  O311  1  0.16837283  0.68026859  0.83562515  1
  O2-  O312  1  0.50402193  0.17477265  0.17720247  1
  O2-  O313  1  0.50919325  0.17835593  0.50405905  1
  O2-  O314  1  0.49922353  0.18250914  0.83725292  1
  O2-  O315  1  0.50604246  0.67812143  0.16141275  1
  O2-  O316  1  0.49693853  0.67464622  0.50722789  1
  O2-  O317  1  0.49233508  0.68177614  0.84005894  1
  O2-  O318  1  0.83314236  0.18338428  0.15987440  1
  O2-  O319  1  0.82396259  0.17674881  0.50164610  1
  O2-  O320  1  0.83419030  0.18115402  0.83641814  1
  O2-  O321  1  0.84160918  0.67297455  0.16446622  1
  O2-  O322  1  0.82570622  0.67987841  0.49933261  1
  O2-  O323  1  0.82718729  0.67219448  0.83559304  1
  O2-  O324  1  -0.00207465  0.31556573  0.16264385  1
  O2-  O325  1  -0.00900481  0.31987729  0.49634803  1
  O2-  O326  1  -0.00111236  0.31465148  0.83141480  1
  O2-  O327  1  -0.00103915  0.82232311  0.16074487  1
  O2-  O328  1  -0.00241591  0.80454641  0.49259891  1
  O2-  O329  1  -0.00110233  0.82398027  0.83406998  1
  O2-  O330  1  0.33420060  0.31797256  0.17216521  1
  O2-  O331  1  0.33828333  0.32247357  0.50481882  1
  O2-  O332  1  0.33531474  0.31458566  0.84720764  1
  O2-  O333  1  0.33558047  0.81005697  0.17239391  1
  O2-  O334  1  0.33314778  0.81943530  0.50131156  1
  O2-  O335  1  0.33267710  0.81929925  0.82792487  1
  O2-  O336  1  0.66372257  0.32026871  0.16124875  1
  O2-  O337  1  0.65660850  0.31485751  0.48912844  1
  O2-  O338  1  0.66856971  0.32913478  0.83652238  1
  O2-  O339  1  0.66594023  0.82578956  0.16533890  1
  O2-  O340  1  0.66816926  0.82993403  0.50467260  1
  O2-  O341  1  0.66251682  0.82240672  0.82970539  1
  O2-  O342  1  0.16907972  0.31028471  0.16605564  1
  O2-  O343  1  0.16375850  0.31214004  0.49822300  1
  O2-  O344  1  0.16027217  0.32396430  0.84173106  1
  O2-  O345  1  0.16436411  0.80949277  0.16925284  1
  O2-  O346  1  0.16972501  0.81014938  0.49623930  1
  O2-  O347  1  0.16503390  0.81757941  0.83181933  1
  O2-  O348  1  0.50194780  0.32594488  0.16680935  1
  O2-  O349  1  0.50022875  0.32663053  0.49778493  1
  O2-  O350  1  0.49422376  0.32013724  0.84102772  1
  O2-  O351  1  0.50996228  0.82293828  0.15652754  1
  O2-  O352  1  0.49797441  0.82737584  0.50045406  1
  O2-  O353  1  0.50200034  0.81541557  0.82463450  1
  O2-  O354  1  0.83023290  0.31994348  0.17033252  1
  O2-  O355  1  0.83270198  0.31622663  0.50370224  1
  O2-  O356  1  0.83287656  0.32163530  0.84204090  1
  O2-  O357  1  0.83845652  0.83768173  0.16090003  1
  O2-  O358  1  0.82265187  0.82683020  0.51241064  1
  O2-  O359  1  0.83153925  0.83017627  0.83466286  1
  O2-  O360  1  0.07946103  0.07855717  0.11771479  1
  O2-  O361  1  0.06338134  0.08166635  0.43773345  1
  O2-  O362  1  0.09497179  0.08264373  0.78955620  1
  O2-  O363  1  0.08535803  0.57779772  0.11847382  1
  O2-  O364  1  0.09281353  0.58116324  0.44492169  1
  O2-  O365  1  0.08677764  0.57851996  0.77009894  1
  O2-  O366  1  0.41936924  0.07304949  0.13436531  1
  O2-  O367  1  0.42481884  0.07527624  0.42924626  1
  O2-  O368  1  0.39567946  0.08063205  0.79381768  1
  O2-  O369  1  0.41063424  0.58279837  0.13476170  1
  O2-  O370  1  0.41141392  0.57713414  0.42421453  1
  O2-  O371  1  0.41120663  0.58109248  0.77778373  1
  O2-  O372  1  0.75733707  0.08910799  0.10679511  1
  O2-  O373  1  0.75131694  0.07844072  0.44773359  1
  O2-  O374  1  0.75081550  0.08517106  0.76796319  1
  O2-  O375  1  0.75473801  0.57456038  0.10615463  1
  O2-  O376  1  0.74485409  0.58451062  0.44107954  1
  O2-  O377  1  0.74908726  0.56304195  0.79541530  1
  O2-  O378  1  0.23359399  0.08194427  0.21156116  1
  O2-  O379  1  0.24525471  0.07867055  0.54724468  1
  O2-  O380  1  0.24142500  0.08127365  0.88352226  1
  O2-  O381  1  0.25349013  0.59233425  0.23485812  1
  O2-  O382  1  0.24290527  0.57410039  0.55208349  1
  O2-  O383  1  0.27129797  0.58513006  0.87875518  1
  O2-  O384  1  0.58113438  0.08115056  0.22414653  1
  O2-  O385  1  0.60247053  0.07799303  0.56256101  1
  O2-  O386  1  0.57993630  0.08301299  0.87811756  1
  O2-  O387  1  0.58652772  0.58248971  0.21732034  1
  O2-  O388  1  0.58270281  0.58393533  0.55605580  1
  O2-  O389  1  0.56804370  0.58241748  0.87857069  1
  O2-  O390  1  0.93245645  0.08175432  0.21215716  1
  O2-  O391  1  0.89977926  0.07965710  0.56433735  1
  O2-  O392  1  0.92247379  0.08044121  0.88657803  1
  O2-  O393  1  0.93157973  0.57713077  0.22541949  1
  O2-  O394  1  0.93661668  0.57983810  0.54875498  1
  O2-  O395  1  0.90551030  0.57217449  0.89710484  1
  O2-  O396  1  0.08742757  0.41960688  0.11392448  1
  O2-  O397  1  0.07865190  0.41541935  0.43864796  1
  O2-  O398  1  0.07189532  0.41902309  0.77124702  1
  O2-  O399  1  0.07387392  0.92428782  0.12370506  1
  O2-  O400  1  0.10548564  0.91834671  0.41328965  1
  O2-  O401  1  0.08343809  0.91442312  0.77642333  1
  O2-  O402  1  0.40436407  0.41948410  0.10804122  1
  O2-  O403  1  0.42954843  0.41733673  0.44668642  1
  O2-  O404  1  0.41022452  0.41829781  0.78716529  1
  O2-  O405  1  0.43194657  0.92095231  0.11521225  1
  O2-  O406  1  0.40877040  0.91642145  0.43885908  1
  O2-  O407  1  0.42830279  0.91892024  0.77931632  1
  O2-  O408  1  0.75211234  0.41615775  0.11512193  1
  O2-  O409  1  0.73067020  0.41599876  0.45091197  1
  O2-  O410  1  0.76933664  0.42046026  0.77511496  1
  O2-  O411  1  0.73770267  0.92091693  0.11800859  1
  O2-  O412  1  0.75150827  0.92804087  0.44937539  1
  O2-  O413  1  0.72882083  0.92030201  0.77673550  1
  O2-  O414  1  0.24305441  0.41461477  0.21477727  1
  O2-  O415  1  0.26910501  0.42203733  0.54919387  1
  O2-  O416  1  0.24758052  0.41194593  0.89922252  1
  O2-  O417  1  0.21971037  0.91990181  0.24131440  1
  O2-  O418  1  0.26196560  0.91626999  0.55633829  1
  O2-  O419  1  0.24678576  0.91122132  0.88487198  1
  O2-  O420  1  0.58412789  0.41926100  0.21606965  1
  O2-  O421  1  0.57721052  0.42071481  0.54989468  1
  O2-  O422  1  0.56265740  0.42103729  0.90046285  1
  O2-  O423  1  0.59213758  0.92253550  0.22259023  1
  O2-  O424  1  0.58048634  0.91926356  0.55586408  1
  O2-  O425  1  0.58152714  0.91836281  0.88160546  1
  O2-  O426  1  0.92273979  0.41541575  0.22050800  1
  O2-  O427  1  0.91257933  0.42148980  0.56053428  1
  O2-  O428  1  0.94591048  0.42544647  0.88240856  1
  O2-  O429  1  0.93375885  0.91874326  0.22123982  1
  O2-  O430  1  0.92586867  0.91557456  0.55528747  1
  O2-  O431  1  0.91571865  0.92056115  0.89144427  1
  O2-  O432  1  -0.01240716  0.00124029  0.02022604  1
  O2-  O433  1  0.02428441  -0.00400794  0.30858900  1
  O2-  O434  1  -0.02009115  0.00951679  0.68904433  1
  O2-  O435  1  0.00117157  0.48669809  0.00547458  1
  O2-  O436  1  -0.00141476  0.50515340  0.34879136  1
  O2-  O437  1  0.00305437  0.51925373  0.66242182  1
  O2-  O438  1  0.35520685  0.00372197  -0.03237129  1
  O2-  O439  1  0.34028462  0.02053799  0.30964564  1
  O2-  O440  1  0.33386988  0.00729297  0.66929768  1
  O2-  O441  1  0.35451177  0.49395173  -0.03425876  1
  O2-  O442  1  0.35849766  0.49733616  0.30298085  1
  O2-  O443  1  0.33634843  0.50141326  0.65348621  1
  O2-  O444  1  0.66615842  -0.00788747  0.00392824  1
  O2-  O445  1  0.66403050  -0.00800877  0.34418600  1
  O2-  O446  1  0.66791952  -0.01141376  0.65494297  1
  O2-  O447  1  0.65764831  0.50301214  0.01928047  1
  O2-  O448  1  0.67296299  0.49252197  0.33986847  1
  O2-  O449  1  0.66129617  0.50696346  0.68515707  1
  O2-  O450  1  0.14358399  0.00021695  -0.03358134  1
  O2-  O451  1  0.17503845  0.01925746  0.34032746  1
  O2-  O452  1  0.17950452  -0.00316714  0.69729469  1
  O2-  O453  1  0.16619597  0.47932120  -0.00399857  1
  O2-  O454  1  0.15351838  0.50177281  0.30680333  1
  O2-  O455  1  0.16075783  0.51503914  0.65526009  1
  O2-  O456  1  0.50825654  0.01070767  0.02018375  1
  O2-  O457  1  0.50260217  0.00713633  0.32256127  1
  O2-  O458  1  0.51564306  0.00239727  0.68266859  1
  O2-  O459  1  0.50033840  0.51519179  -0.00297174  1
  O2-  O460  1  0.51660675  0.49108332  0.35423736  1
  O2-  O461  1  0.49652113  0.49208975  0.65389938  1
  O2-  O462  1  0.83044391  -0.00116957  0.00554421  1
  O2-  O463  1  0.83778527  0.00027405  0.33536232  1
  O2-  O464  1  0.82178759  -0.00858262  0.63744521  1
  O2-  O465  1  0.83067356  0.48430224  -0.00754515  1
  O2-  O466  1  0.83910015  0.48680584  0.34882283  1
  O2-  O467  1  0.85898894  0.50668596  0.69872441  1
  O2-  O468  1  0.58190904  0.75346435  0.60394400  1
  O2-  O469  1  0.75626195  0.24985029  0.38657923  1
  O2-  O470  1  0.90672565  0.75286611  0.25685514  1
  O2-  O471  1  0.91050703  0.24829321  0.27844337  1
  O2-  O472  1  0.42474847  0.75237916  0.40873643  1
  O2-  O473  1  0.57759184  0.75036742  0.27272328  1
  O2-  O474  1  0.42038401  0.74596609  0.05243882  1
  O2-  O475  1  0.91079210  0.75623390  0.93169115  1
  O2-  O476  1  0.75421279  0.75601853  0.73037469  1
  O2-  O477  1  0.26058236  0.74783135  0.93624907  1
  O2-  O478  1  0.57441703  0.74866554  0.94866945  1
  O2-  O479  1  0.40963381  0.24961842  0.71949513  1
  O2-  O480  1  0.09797493  0.25180893  0.72428068  1
  O2-  O481  1  0.75256638  0.75562313  0.06655142  1
  O2-  O482  1  0.42481656  0.25519262  0.07073520  1
  O2-  O483  1  0.07703974  0.74571375  0.73484494  1
  O2-  O484  1  0.90705001  0.74478911  0.61047626  1
  O2-  O485  1  0.41935744  0.25239780  0.39908121  1
  O2-  O486  1  0.74596392  0.75349754  0.39666952  1
  O2-  O487  1  0.58673037  0.25231194  0.27289997  1
  O2-  O488  1  0.58839757  0.25240733  0.94109660  1
  O2-  O489  1  0.25401612  0.24604857  0.61014767  1
  O2-  O490  1  0.75165543  0.25286314  0.74278782  1
  O2-  O491  1  0.07481618  0.24750189  0.39063400  1
  O2-  O492  1  0.74897673  0.25192516  0.05471323  1
