# generated using pymatgen
data_Ca108Mn108O277
_symmetry_space_group_name_H-M   'P 1'
_cell_length_a   16.03658475
_cell_length_b   22.31766341
_cell_length_c   16.39702005
_cell_angle_alpha   89.99806190
_cell_angle_beta   89.99627344
_cell_angle_gamma   90.00282339
_symmetry_Int_Tables_number   1
_chemical_formula_structural   Ca108Mn108O277
_chemical_formula_sum   'Ca108 Mn108 O277'
_cell_volume   5868.47870513
_cell_formula_units_Z   1
loop_
 _symmetry_equiv_pos_site_id
 _symmetry_equiv_pos_as_xyz
  1  'x, y, z'
loop_
 _atom_type_symbol
 _atom_type_oxidation_number
  Ca2+  2.0
  Mn3.34+  3.34
  O2-  -2.0
loop_
 _atom_site_type_symbol
 _atom_site_label
 _atom_site_symmetry_multiplicity
 _atom_site_fract_x
 _atom_site_fract_y
 _atom_site_fract_z
 _atom_site_occupancy
  Ca2+  Ca0  1  0.05404110  0.24893750  0.24927644  1
  Ca2+  Ca1  1  0.08743505  0.24912221  0.59127003  1
  Ca2+  Ca2  1  0.06312751  0.24639985  0.90790212  1
  Ca2+  Ca3  1  0.08978945  0.73763489  0.24722217  1
  Ca2+  Ca4  1  0.08075995  0.75638093  0.57861986  1
  Ca2+  Ca5  1  0.08390488  0.76007611  0.91723537  1
  Ca2+  Ca6  1  0.41346607  0.26274568  0.26059766  1
  Ca2+  Ca7  1  0.42007039  0.25014156  0.57687579  1
  Ca2+  Ca8  1  0.42069981  0.26069513  0.91428112  1
  Ca2+  Ca9  1  0.39575592  0.74873682  0.24316295  1
  Ca2+  Ca10  1  0.42288556  0.75139417  0.58708443  1
  Ca2+  Ca11  1  0.43005056  0.75599661  0.92122882  1
  Ca2+  Ca12  1  0.77030056  0.26228066  0.24640087  1
  Ca2+  Ca13  1  0.75326909  0.23379963  0.60620035  1
  Ca2+  Ca14  1  0.76465074  0.24715041  0.89997998  1
  Ca2+  Ca15  1  0.77248728  0.73651295  0.24091017  1
  Ca2+  Ca16  1  0.76033457  0.74800030  0.57519433  1
  Ca2+  Ca17  1  0.72316526  0.74691963  0.92766525  1
  Ca2+  Ca18  1  0.25233714  0.26130651  0.07833451  1
  Ca2+  Ca19  1  0.25404480  0.23570428  0.45497511  1
  Ca2+  Ca20  1  0.22987013  0.24282022  0.73642507  1
  Ca2+  Ca21  1  0.24859968  0.76014437  0.09728908  1
  Ca2+  Ca22  1  0.23983546  0.73701574  0.38970067  1
  Ca2+  Ca23  1  0.23696392  0.76175582  0.74836965  1
  Ca2+  Ca24  1  0.59406267  0.25855918  0.07688450  1
  Ca2+  Ca25  1  0.57554831  0.25337712  0.45484997  1
  Ca2+  Ca26  1  0.60766829  0.24752373  0.74605229  1
  Ca2+  Ca27  1  0.57716580  0.74434916  0.07408262  1
  Ca2+  Ca28  1  0.58495361  0.74689745  0.42009305  1
  Ca2+  Ca29  1  0.57183455  0.74917388  0.76140445  1
  Ca2+  Ca30  1  0.91195598  0.25245393  0.07466927  1
  Ca2+  Ca31  1  0.91678801  0.25173877  0.40516039  1
  Ca2+  Ca32  1  0.90887552  0.25279186  0.75077610  1
  Ca2+  Ca33  1  0.91785421  0.74055514  0.10683343  1
  Ca2+  Ca34  1  0.93088135  0.73870513  0.40351160  1
  Ca2+  Ca35  1  0.93811167  0.75570068  0.74026376  1
  Ca2+  Ca36  1  0.41435898  0.09057187  0.57247074  1
  Ca2+  Ca37  1  0.93766284  0.11137260  0.75251262  1
  Ca2+  Ca38  1  0.19983691  0.08968936  0.74832845  1
  Ca2+  Ca39  1  0.92896690  0.10989193  0.07918641  1
  Ca2+  Ca40  1  0.76966571  0.10322283  0.24377653  1
  Ca2+  Ca41  1  0.78099321  0.57989995  0.23778588  1
  Ca2+  Ca42  1  0.08711567  0.09862987  0.57435473  1
  Ca2+  Ca43  1  0.78195950  0.11286060  0.89943217  1
  Ca2+  Ca44  1  0.74624307  0.58534571  0.58207411  1
  Ca2+  Ca45  1  0.45477294  0.60462855  0.91249894  1
  Ca2+  Ca46  1  0.39539773  0.60509675  0.25764870  1
  Ca2+  Ca47  1  0.57715224  0.60625207  0.74510974  1
  Ca2+  Ca48  1  0.78123285  0.10541239  0.24489213  1
  Ca2+  Ca49  1  0.40426628  0.08502417  0.91301392  1
  Ca2+  Ca50  1  0.92561214  0.58260896  0.73389738  1
  Ca2+  Ca51  1  0.21012883  0.08963506  0.74688655  1
  Ca2+  Ca52  1  0.09766236  0.09939332  0.57408212  1
  Ca2+  Ca53  1  0.90516163  0.57846546  0.08520915  1
  Ca2+  Ca54  1  0.40378122  0.09088395  0.57236674  1
  Ca2+  Ca55  1  0.41042208  0.06106394  0.30626499  1
  Ca2+  Ca56  1  0.72504160  0.58318378  0.93968898  1
  Ca2+  Ca57  1  0.58148255  0.59727121  0.42706885  1
  Ca2+  Ca58  1  0.24083300  0.60037134  0.10366179  1
  Ca2+  Ca59  1  0.25010271  0.60324469  0.10663419  1
  Ca2+  Ca60  1  0.07722996  0.57677385  0.91720206  1
  Ca2+  Ca61  1  0.06114436  0.09058676  0.27766102  1
  Ca2+  Ca62  1  0.05386240  0.09525442  0.27284453  1
  Ca2+  Ca63  1  0.58600678  0.59346680  0.08418192  1
  Ca2+  Ca64  1  0.58736650  0.08805721  0.07832175  1
  Ca2+  Ca65  1  0.56781823  0.09510672  0.43193632  1
  Ca2+  Ca66  1  0.03638422  0.59387112  0.25354606  1
  Ca2+  Ca67  1  0.61246167  0.10326695  0.72320265  1
  Ca2+  Ca68  1  0.05220414  0.11039525  0.89868700  1
  Ca2+  Ca69  1  0.73074049  0.57682459  0.93834372  1
  Ca2+  Ca70  1  0.41706463  0.08394153  0.91330322  1
  Ca2+  Ca71  1  0.44691897  0.61040154  0.57858014  1
  Ca2+  Ca72  1  0.59157252  0.41328948  0.74992387  1
  Ca2+  Ca73  1  0.55017454  0.91130807  0.40487308  1
  Ca2+  Ca74  1  0.73748299  0.88800855  0.24786530  1
  Ca2+  Ca75  1  0.94652510  0.90844148  0.42381292  1
  Ca2+  Ca76  1  0.09466164  0.90757899  0.25373335  1
  Ca2+  Ca77  1  0.25836347  0.91199891  0.41145706  1
  Ca2+  Ca78  1  0.24180483  0.39865641  0.41463612  1
  Ca2+  Ca79  1  0.23760277  0.40954462  0.75316017  1
  Ca2+  Ca80  1  0.06788799  0.41039616  0.24909287  1
  Ca2+  Ca81  1  0.05142063  0.41802198  0.92490812  1
  Ca2+  Ca82  1  0.57735587  0.89252192  0.74725853  1
  Ca2+  Ca83  1  0.09733455  0.90720549  0.90209549  1
  Ca2+  Ca84  1  0.60849163  0.41789463  0.40981177  1
  Ca2+  Ca85  1  0.60700650  0.42299246  0.07545254  1
  Ca2+  Ca86  1  0.93587251  0.90789436  0.41779382  1
  Ca2+  Ca87  1  0.40062332  0.91245177  0.60170041  1
  Ca2+  Ca88  1  0.78726186  0.41867867  0.93138844  1
  Ca2+  Ca89  1  0.25019641  0.40866135  0.75234766  1
  Ca2+  Ca90  1  0.42047489  0.41044902  0.25635789  1
  Ca2+  Ca91  1  0.75102589  0.89659289  0.58607644  1
  Ca2+  Ca92  1  0.75431691  0.89191591  0.90969721  1
  Ca2+  Ca93  1  0.77856523  0.42206562  0.93494041  1
  Ca2+  Ca94  1  0.93734620  0.91423149  0.73906576  1
  Ca2+  Ca95  1  0.77472517  0.40600990  0.57483931  1
  Ca2+  Ca96  1  0.05640460  0.41341531  0.24748473  1
  Ca2+  Ca97  1  0.56124945  0.90760633  0.40076520  1
  Ca2+  Ca98  1  0.24671492  0.41084982  0.07451725  1
  Ca2+  Ca99  1  0.59893166  0.41567331  0.40664899  1
  Ca2+  Ca100  1  0.41552721  0.41202587  0.58027312  1
  Ca2+  Ca101  1  0.92436245  0.89579515  0.07951210  1
  Ca2+  Ca102  1  0.09322242  0.92007192  0.60042260  1
  Ca2+  Ca103  1  0.41235667  0.41200972  0.92909542  1
  Ca2+  Ca104  1  0.40395191  0.41203502  0.58012414  1
  Ca2+  Ca105  1  0.59746180  0.42023585  0.07307193  1
  Ca2+  Ca106  1  0.40948618  0.91548826  0.60526929  1
  Ca2+  Ca107  1  0.76429629  0.40823550  0.57806335  1
  Mn3.34+  Mn108  1  0.08153595  0.33320036  0.08271779  1
  Mn3.34+  Mn109  1  0.07869739  0.33209820  0.42223098  1
  Mn3.34+  Mn110  1  0.07214648  0.34251673  0.75057781  1
  Mn3.34+  Mn111  1  0.08660619  0.83259384  0.08175601  1
  Mn3.34+  Mn112  1  0.09367179  0.83403197  0.41860673  1
  Mn3.34+  Mn113  1  0.08832499  0.83664636  0.75019791  1
  Mn3.34+  Mn114  1  0.41812724  0.33365963  0.08755404  1
  Mn3.34+  Mn115  1  0.41416649  0.33607884  0.41695017  1
  Mn3.34+  Mn116  1  0.41649225  0.33533683  0.75371935  1
  Mn3.34+  Mn117  1  0.41763747  0.83258410  0.08467577  1
  Mn3.34+  Mn118  1  0.40977364  0.82895275  0.42102627  1
  Mn3.34+  Mn119  1  0.40291584  0.84578647  0.76993226  1
  Mn3.34+  Mn120  1  0.75715642  0.33698981  0.08482709  1
  Mn3.34+  Mn121  1  0.75879809  0.33854461  0.41250641  1
  Mn3.34+  Mn122  1  0.75521303  0.34027479  0.75555150  1
  Mn3.34+  Mn123  1  0.74838101  0.82717296  0.08434615  1
  Mn3.34+  Mn124  1  0.75063362  0.83076091  0.41768596  1
  Mn3.34+  Mn125  1  0.75316020  0.82474960  0.75233657  1
  Mn3.34+  Mn126  1  0.24395147  0.33199555  0.24699831  1
  Mn3.34+  Mn127  1  0.24386948  0.33289826  0.58128713  1
  Mn3.34+  Mn128  1  0.24345291  0.32959149  0.91216316  1
  Mn3.34+  Mn129  1  0.25192638  0.83621615  0.24676412  1
  Mn3.34+  Mn130  1  0.24844456  0.83219397  0.58512634  1
  Mn3.34+  Mn131  1  0.25575005  0.83497097  0.92259871  1
  Mn3.34+  Mn132  1  0.58853174  0.33830521  0.24682461  1
  Mn3.34+  Mn133  1  0.58403984  0.33813643  0.58805306  1
  Mn3.34+  Mn134  1  0.58398122  0.33339716  0.91151943  1
  Mn3.34+  Mn135  1  0.57494342  0.82855273  0.24127319  1
  Mn3.34+  Mn136  1  0.58531868  0.82604884  0.57966493  1
  Mn3.34+  Mn137  1  0.57932284  0.83166793  0.92192555  1
  Mn3.34+  Mn138  1  0.91123032  0.33721771  0.24529432  1
  Mn3.34+  Mn139  1  0.92598548  0.33042609  0.58221596  1
  Mn3.34+  Mn140  1  0.92009158  0.33026228  0.91574149  1
  Mn3.34+  Mn141  1  0.91987174  0.82953644  0.24804769  1
  Mn3.34+  Mn142  1  0.91831558  0.83052896  0.58254354  1
  Mn3.34+  Mn143  1  0.91766488  0.83203807  0.91459197  1
  Mn3.34+  Mn144  1  0.75552024  0.66500613  0.74945880  1
  Mn3.34+  Mn145  1  0.58160947  0.66618734  0.24673505  1
  Mn3.34+  Mn146  1  0.40548282  0.16172214  0.09081625  1
  Mn3.34+  Mn147  1  0.24104283  0.16482549  0.91887409  1
  Mn3.34+  Mn148  1  0.74504015  0.17066589  0.42545591  1
  Mn3.34+  Mn149  1  0.41718949  0.16602680  0.08865246  1
  Mn3.34+  Mn150  1  0.42025671  0.16276301  0.75222741  1
  Mn3.34+  Mn151  1  0.41784738  0.66671850  0.08561295  1
  Mn3.34+  Mn152  1  0.75557927  0.16657864  0.42797722  1
  Mn3.34+  Mn153  1  0.08261369  0.66496034  0.41488896  1
  Mn3.34+  Mn154  1  0.57828573  0.16785514  0.25139382  1
  Mn3.34+  Mn155  1  0.75102933  0.66359279  0.41360637  1
  Mn3.34+  Mn156  1  0.92913577  0.66243660  0.57679144  1
  Mn3.34+  Mn157  1  0.41896829  0.67094321  0.41816447  1
  Mn3.34+  Mn158  1  0.76267220  0.65522255  0.41507845  1
  Mn3.34+  Mn159  1  0.92461713  0.66356254  0.91448037  1
  Mn3.34+  Mn160  1  0.91419799  0.66831561  0.91597640  1
  Mn3.34+  Mn161  1  0.24438251  0.66647214  0.91119804  1
  Mn3.34+  Mn162  1  0.25480591  0.16237843  0.25441292  1
  Mn3.34+  Mn163  1  0.25366992  0.66543472  0.58056685  1
  Mn3.34+  Mn164  1  0.07824818  0.16787558  0.42245511  1
  Mn3.34+  Mn165  1  0.08491305  0.66401298  0.74474946  1
  Mn3.34+  Mn166  1  0.74761003  0.66364615  0.08774902  1
  Mn3.34+  Mn167  1  0.75041663  0.17244921  0.07887172  1
  Mn3.34+  Mn168  1  0.25509479  0.66182041  0.90850942  1
  Mn3.34+  Mn169  1  0.40779242  0.16828980  0.74987293  1
  Mn3.34+  Mn170  1  0.41329796  0.66837153  0.75028948  1
  Mn3.34+  Mn171  1  0.91865546  0.16850651  0.58414489  1
  Mn3.34+  Mn172  1  0.41616228  0.16887032  0.42242965  1
  Mn3.34+  Mn173  1  0.58789234  0.17304582  0.25414890  1
  Mn3.34+  Mn174  1  0.24288504  0.65890309  0.57782389  1
  Mn3.34+  Mn175  1  0.24503571  0.16406520  0.24707768  1
  Mn3.34+  Mn176  1  0.07931587  0.66498825  0.08419314  1
  Mn3.34+  Mn177  1  0.58731636  0.16805931  0.91602437  1
  Mn3.34+  Mn178  1  0.09418607  0.16929588  0.08600780  1
  Mn3.34+  Mn179  1  0.75223934  0.67691225  0.74966289  1
  Mn3.34+  Mn180  1  0.58549984  0.00016739  0.91128786  1
  Mn3.34+  Mn181  1  0.76423147  0.49876680  0.74181660  1
  Mn3.34+  Mn182  1  0.25415235  0.50190955  0.91885609  1
  Mn3.34+  Mn183  1  0.08015311  0.50099547  0.73645211  1
  Mn3.34+  Mn184  1  0.07499641  0.50074688  0.07494299  1
  Mn3.34+  Mn185  1  0.58345884  0.00019316  0.25039665  1
  Mn3.34+  Mn186  1  0.74562204  -0.00445204  0.75445817  1
  Mn3.34+  Mn187  1  0.25386013  -0.00611329  0.90783501  1
  Mn3.34+  Mn188  1  0.06874536  0.50097123  0.42225786  1
  Mn3.34+  Mn189  1  0.24812042  -0.00144766  0.25678752  1
  Mn3.34+  Mn190  1  0.92033919  -0.00382672  0.91676110  1
  Mn3.34+  Mn191  1  0.58303870  0.50284370  0.59246983  1
  Mn3.34+  Mn192  1  0.92734240  0.49811151  0.58392662  1
  Mn3.34+  Mn193  1  0.41351811  0.49965070  0.08913254  1
  Mn3.34+  Mn194  1  0.39872454  -0.00429791  0.09008815  1
  Mn3.34+  Mn195  1  0.74042905  0.00684792  0.41801281  1
  Mn3.34+  Mn196  1  0.41106991  -0.01022510  0.08847766  1
  Mn3.34+  Mn197  1  0.23359344  0.50216215  0.58787664  1
  Mn3.34+  Mn198  1  0.24635798  0.00266064  0.57799869  1
  Mn3.34+  Mn199  1  0.09324239  0.00383385  0.07682723  1
  Mn3.34+  Mn200  1  0.40883538  0.50274075  0.74373417  1
  Mn3.34+  Mn201  1  0.58656686  -0.00302499  0.58172503  1
  Mn3.34+  Mn202  1  0.57224080  0.49743930  0.90967389  1
  Mn3.34+  Mn203  1  0.92059227  -0.00320426  0.23953470  1
  Mn3.34+  Mn204  1  0.75985255  0.00151640  0.75401809  1
  Mn3.34+  Mn205  1  0.90543834  -0.00859757  0.24020370  1
  Mn3.34+  Mn206  1  0.91579825  0.00690143  0.58709800  1
  Mn3.34+  Mn207  1  0.75740901  -0.00127617  0.07695158  1
  Mn3.34+  Mn208  1  0.75437759  0.00058993  0.41907872  1
  Mn3.34+  Mn209  1  0.07928485  0.50546975  0.42472707  1
  Mn3.34+  Mn210  1  0.57277399  -0.00706660  0.91312761  1
  Mn3.34+  Mn211  1  0.58749387  0.50382957  0.26413600  1
  Mn3.34+  Mn212  1  0.24689222  0.49764319  0.26376556  1
  Mn3.34+  Mn213  1  0.74400475  -0.00805552  0.07729607  1
  Mn3.34+  Mn214  1  0.40550202  0.50581365  0.40746915  1
  Mn3.34+  Mn215  1  0.10256138  -0.00300374  0.07381262  1
  O2-  O216  1  0.01319933  0.16784720  0.00726344  1
  O2-  O217  1  0.00473630  0.17345326  0.33713225  1
  O2-  O218  1  0.00926781  0.16357584  0.65056498  1
  O2-  O219  1  -0.00106124  0.63827811  0.00205021  1
  O2-  O220  1  -0.00044234  0.66248402  0.34326854  1
  O2-  O221  1  -0.00650363  0.65795275  0.67277738  1
  O2-  O222  1  0.33038539  0.14933097  -0.00451767  1
  O2-  O223  1  0.33434044  0.16438295  0.33434897  1
  O2-  O224  1  0.32429558  0.13813741  0.67955808  1
  O2-  O225  1  0.33492096  0.64096376  -0.00539400  1
  O2-  O226  1  0.34452290  0.67896243  0.33603070  1
  O2-  O227  1  0.33958170  0.66104118  0.65722995  1
  O2-  O228  1  0.66426112  0.14999406  0.00302603  1
  O2-  O229  1  0.67002868  0.14274258  0.33514734  1
  O2-  O230  1  0.66280854  0.17765873  0.66674469  1
  O2-  O231  1  0.66840723  0.65775692  0.00242873  1
  O2-  O232  1  0.66696937  0.65732897  0.33386397  1
  O2-  O233  1  0.67052742  0.67659799  0.66817609  1
  O2-  O234  1  0.17079656  0.19722612  -0.00009976  1
  O2-  O235  1  0.16155338  0.16823869  0.33417151  1
  O2-  O236  1  0.16040422  0.15825254  0.66646947  1
  O2-  O237  1  0.16665879  0.63975650  -0.00426573  1
  O2-  O238  1  0.15365845  0.65635773  0.33128059  1
  O2-  O239  1  0.17098408  0.64762927  0.66365623  1
  O2-  O240  1  0.49591027  0.13968071  -0.00217253  1
  O2-  O241  1  0.49728568  0.15586382  0.33343542  1
  O2-  O242  1  0.48974480  0.14439964  0.66602344  1
  O2-  O243  1  0.50344024  0.65500948  0.01486405  1
  O2-  O244  1  0.50767839  0.67570863  0.33610820  1
  O2-  O245  1  0.49690773  0.68113407  0.67351984  1
  O2-  O246  1  0.83210599  0.15721750  0.00904540  1
  O2-  O247  1  0.83040472  0.15653804  0.34258261  1
  O2-  O248  1  0.84487580  0.15245019  0.66099722  1
  O2-  O249  1  0.82863599  0.64616749  -0.00831923  1
  O2-  O250  1  0.83152561  0.64946143  0.32948814  1
  O2-  O251  1  0.82937736  0.65390282  0.66285282  1
  O2-  O252  1  0.00780704  0.32802728  -0.00577048  1
  O2-  O253  1  0.00527064  0.33969741  0.32736159  1
  O2-  O254  1  0.00646515  0.31694622  0.66615446  1
  O2-  O255  1  0.00780979  0.85280186  -0.01096544  1
  O2-  O256  1  0.00465455  0.84919751  0.33026626  1
  O2-  O257  1  0.00454714  0.84501436  0.65967159  1
  O2-  O258  1  0.33217681  0.34000131  -0.00558656  1
  O2-  O259  1  0.33340508  0.34202839  0.32846754  1
  O2-  O260  1  0.33276138  0.35403010  0.66791157  1
  O2-  O261  1  0.33720995  0.84123739  -0.00011942  1
  O2-  O262  1  0.32793777  0.83461610  0.34274332  1
  O2-  O263  1  0.33567780  0.83670328  0.67094113  1
  O2-  O264  1  0.66836602  0.35189366  -0.00810573  1
  O2-  O265  1  0.66690782  0.34550234  0.33261991  1
  O2-  O266  1  0.67387542  0.35816358  0.66371919  1
  O2-  O267  1  0.67172476  0.83983645  -0.00348010  1
  O2-  O268  1  0.65633269  0.83774592  0.34509826  1
  O2-  O269  1  0.66813716  0.82434603  0.66625592  1
  O2-  O270  1  0.17054118  0.33414824  0.00466278  1
  O2-  O271  1  0.16147932  0.32973707  0.33123757  1
  O2-  O272  1  0.16808939  0.34234225  0.67334076  1
  O2-  O273  1  0.16674267  0.84628818  -0.00118331  1
  O2-  O274  1  0.17200996  0.85212152  0.33825023  1
  O2-  O275  1  0.16834918  0.84795675  0.66576842  1
  O2-  O276  1  0.50896324  0.35558334  0.01085177  1
  O2-  O277  1  0.50744102  0.35201590  0.33894165  1
  O2-  O278  1  0.49880195  0.35900906  0.66881494  1
  O2-  O279  1  0.50223645  0.84173457  0.00355692  1
  O2-  O280  1  0.49731925  0.82911640  0.33745930  1
  O2-  O281  1  0.49957721  0.82659568  0.65970466  1
  O2-  O282  1  0.83769445  0.34083956  0.00264404  1
  O2-  O283  1  0.83516729  0.34120609  0.33171111  1
  O2-  O284  1  0.83758632  0.35421183  0.67275832  1
  O2-  O285  1  0.83520455  0.84756173  0.00201529  1
  O2-  O286  1  0.83931812  0.85958927  0.33791647  1
  O2-  O287  1  0.83756706  0.84098628  0.67056607  1
  O2-  O288  1  0.01297595  0.17113613  0.16714240  1
  O2-  O289  1  -0.00093022  0.18953781  0.49567549  1
  O2-  O290  1  -0.00073504  0.18586225  0.82020878  1
  O2-  O291  1  0.00365517  0.67030670  0.16282071  1
  O2-  O292  1  0.00589981  0.68808836  0.50430389  1
  O2-  O293  1  0.00227119  0.68840806  0.83493483  1
  O2-  O294  1  0.33443149  0.19838591  0.17657955  1
  O2-  O295  1  0.34607481  0.17378607  0.50995196  1
  O2-  O296  1  0.33521517  0.18740929  0.83795893  1
  O2-  O297  1  0.32789846  0.67477393  0.15657735  1
  O2-  O298  1  0.33348720  0.68823188  0.50101188  1
  O2-  O299  1  0.32757278  0.68915775  0.82672036  1
  O2-  O300  1  0.67515985  0.18515723  0.17533692  1
  O2-  O301  1  0.66014897  0.17844558  0.49578059  1
  O2-  O302  1  0.66668899  0.17728685  0.84156274  1
  O2-  O303  1  0.66327923  0.68211121  0.16614494  1
  O2-  O304  1  0.67449848  0.68039882  0.49372977  1
  O2-  O305  1  0.66903057  0.68363049  0.82716758  1
  O2-  O306  1  0.17277977  0.19310641  0.17006913  1
  O2-  O307  1  0.15293532  0.17944514  0.50374118  1
  O2-  O308  1  0.16752833  0.17402266  0.83575848  1
  O2-  O309  1  0.16820414  0.67903242  0.14972155  1
  O2-  O310  1  0.16931355  0.68200832  0.49821800  1
  O2-  O311  1  0.15985573  0.68350821  0.83537806  1
  O2-  O312  1  0.50907955  0.19137889  0.16265894  1
  O2-  O313  1  0.49678257  0.17501965  0.49901995  1
  O2-  O314  1  0.49318785  0.18271979  0.83852294  1
  O2-  O315  1  0.49199611  0.68001398  0.17333881  1
  O2-  O316  1  0.49759169  0.68811847  0.49794960  1
  O2-  O317  1  0.48841118  0.68354485  0.83147061  1
  O2-  O318  1  0.82857025  0.17341776  0.16396232  1
  O2-  O319  1  0.83664008  0.18579118  0.50133246  1
  O2-  O320  1  0.84996124  0.18006340  0.82765941  1
  O2-  O321  1  0.83266888  0.66542826  0.16014727  1
  O2-  O322  1  0.83645905  0.67562171  0.49897754  1
  O2-  O323  1  0.83791776  0.69387952  0.82522764  1
  O2-  O324  1  0.00195263  0.31925733  0.16410679  1
  O2-  O325  1  -0.00055459  0.30733027  0.49794594  1
  O2-  O326  1  -0.00331172  0.31967064  0.82994405  1
  O2-  O327  1  -0.00404950  0.81853923  0.15925337  1
  O2-  O328  1  -0.00424479  0.82328655  0.49067039  1
  O2-  O329  1  -0.00069937  0.82037744  0.82864260  1
  O2-  O330  1  0.33105696  0.32018589  0.16801665  1
  O2-  O331  1  0.33727404  0.32338977  0.50458233  1
  O2-  O332  1  0.32448148  0.31502843  0.82737852  1
  O2-  O333  1  0.33415674  0.82194883  0.16689582  1
  O2-  O334  1  0.34133521  0.81946681  0.51310786  1
  O2-  O335  1  0.33001511  0.80715885  0.83963870  1
  O2-  O336  1  0.66591329  0.32303181  0.15999579  1
  O2-  O337  1  0.66166815  0.33103254  0.50009228  1
  O2-  O338  1  0.66043048  0.32113671  0.82845842  1
  O2-  O339  1  0.66962652  0.81074170  0.17528605  1
  O2-  O340  1  0.67210388  0.80828746  0.50526745  1
  O2-  O341  1  0.66609071  0.81469347  0.82960763  1
  O2-  O342  1  0.16268636  0.31141427  0.16580757  1
  O2-  O343  1  0.16956589  0.31403207  0.49513137  1
  O2-  O344  1  0.16333516  0.30980920  0.82921064  1
  O2-  O345  1  0.15731371  0.82390278  0.17285217  1
  O2-  O346  1  0.16938915  0.82420839  0.50154880  1
  O2-  O347  1  0.16238267  0.82006110  0.83718946  1
  O2-  O348  1  0.50258572  0.31306853  0.17624675  1
  O2-  O349  1  0.49384611  0.33234780  0.50782191  1
  O2-  O350  1  0.49625195  0.32105960  0.83543600  1
  O2-  O351  1  0.49852360  0.80359225  0.16553544  1
  O2-  O352  1  0.50614393  0.81372428  0.49369281  1
  O2-  O353  1  0.49997150  0.82413318  0.83044255  1
  O2-  O354  1  0.83664280  0.32027010  0.15964224  1
  O2-  O355  1  0.82659214  0.32529616  0.50548594  1
  O2-  O356  1  0.82396227  0.33212601  0.84713491  1
  O2-  O357  1  0.83099119  0.81910577  0.17071599  1
  O2-  O358  1  0.83385709  0.82809674  0.49940549  1
  O2-  O359  1  0.82957483  0.81047287  0.83912058  1
  O2-  O360  1  0.09527958  0.07661860  0.13722073  1
  O2-  O361  1  0.07832252  0.08687928  0.42946917  1
  O2-  O362  1  0.08484498  0.06613127  0.78651726  1
  O2-  O363  1  0.10173527  0.57641262  0.11924892  1
  O2-  O364  1  0.07634046  0.58480856  0.45357275  1
  O2-  O365  1  0.06995007  0.57980261  0.77836179  1
  O2-  O366  1  0.42291506  0.07388429  0.14013254  1
  O2-  O367  1  0.42101382  0.08402519  0.43661712  1
  O2-  O368  1  0.41611010  0.08006350  0.78080495  1
  O2-  O369  1  0.40307634  0.58077548  0.11747493  1
  O2-  O370  1  0.43793759  0.58359317  0.44055889  1
  O2-  O371  1  0.43743423  0.57994306  0.77104101  1
  O2-  O372  1  0.73747951  0.07722499  0.12029129  1
  O2-  O373  1  0.74761684  0.08311683  0.46464935  1
  O2-  O374  1  0.74582783  0.07988859  0.77585442  1
  O2-  O375  1  0.73896311  0.58010282  0.09629976  1
  O2-  O376  1  0.73439477  0.57923344  0.44620931  1
  O2-  O377  1  0.75640980  0.58261790  0.78699792  1
  O2-  O378  1  0.26890469  0.07738907  0.22078944  1
  O2-  O379  1  0.24665911  0.07623664  0.54124800  1
  O2-  O380  1  0.27105469  0.07829623  0.87177192  1
  O2-  O381  1  0.25955599  0.57382050  0.23149499  1
  O2-  O382  1  0.27434782  0.58125955  0.55064117  1
  O2-  O383  1  0.24856572  0.58101950  0.87461391  1
  O2-  O384  1  0.58483975  0.08188440  0.21479644  1
  O2-  O385  1  0.55897653  0.07369910  0.55985242  1
  O2-  O386  1  0.55774608  0.07664375  0.86900551  1
  O2-  O387  1  0.57487332  0.57723116  0.22011348  1
  O2-  O388  1  0.58693051  0.58061968  0.56800564  1
  O2-  O389  1  0.59330304  0.57607006  0.87931510  1
  O2-  O390  1  0.91653676  0.07995043  0.22029310  1
  O2-  O391  1  0.94646020  0.08403461  0.55699916  1
  O2-  O392  1  0.91854114  0.07326158  0.88470343  1
  O2-  O393  1  0.91226377  0.55712522  0.21297175  1
  O2-  O394  1  0.91130931  0.57959807  0.56606998  1
  O2-  O395  1  0.91886554  0.58818088  0.87084843  1
  O2-  O396  1  0.09408693  0.42382124  0.11583346  1
  O2-  O397  1  0.08757772  0.41873126  0.44424088  1
  O2-  O398  1  0.09980222  0.42439377  0.79186367  1
  O2-  O399  1  0.07402819  0.92083696  0.11675112  1
  O2-  O400  1  0.07845313  0.91884039  0.44903703  1
  O2-  O401  1  0.07499391  0.91595800  0.76843076  1
  O2-  O402  1  0.41426670  0.41818761  0.11899989  1
  O2-  O403  1  0.40114391  0.42210050  0.44338240  1
  O2-  O404  1  0.39379514  0.42642102  0.79274040  1
  O2-  O405  1  0.42840087  0.91424405  0.11953225  1
  O2-  O406  1  0.43019750  0.91907020  0.46440429  1
  O2-  O407  1  0.43872247  0.92067965  0.74333212  1
  O2-  O408  1  0.74249595  0.41945049  0.08656419  1
  O2-  O409  1  0.73720555  0.42266284  0.44712138  1
  O2-  O410  1  0.73641294  0.42490405  0.79917893  1
  O2-  O411  1  0.75111557  0.91494381  0.11682627  1
  O2-  O412  1  0.73579428  0.92100686  0.44737290  1
  O2-  O413  1  0.74592207  0.91509862  0.77317424  1
  O2-  O414  1  0.22520327  0.42096089  0.22227034  1
  O2-  O415  1  0.25776475  0.41944533  0.54681483  1
  O2-  O416  1  0.25014881  0.42041515  0.88698139  1
  O2-  O417  1  0.24084105  0.92249037  0.22573042  1
  O2-  O418  1  0.26444690  0.92046609  0.55510589  1
  O2-  O419  1  0.24439618  0.91376714  0.88547259  1
  O2-  O420  1  0.57356779  0.43014709  0.20847945  1
  O2-  O421  1  0.57435312  0.42726540  0.54385412  1
  O2-  O422  1  0.56631643  0.41676884  0.88639344  1
  O2-  O423  1  0.59350705  0.91782146  0.25125166  1
  O2-  O424  1  0.59883618  0.91708282  0.54411263  1
  O2-  O425  1  0.60210351  0.91513857  0.88305725  1
  O2-  O426  1  0.93050731  0.41597879  0.22270314  1
  O2-  O427  1  0.91506359  0.41688831  0.55452780  1
  O2-  O428  1  0.91934837  0.41423771  0.90414692  1
  O2-  O429  1  0.91524210  0.91230919  0.21378054  1
  O2-  O430  1  0.90495909  0.92599571  0.54884439  1
  O2-  O431  1  0.90653807  0.91851403  0.87807928  1
  O2-  O432  1  -0.01435896  0.00497438  0.01937013  1
  O2-  O433  1  -0.00594541  -0.00906877  0.32985309  1
  O2-  O434  1  0.00218432  -0.00650347  0.64589496  1
  O2-  O435  1  0.00067575  0.50959699  -0.00203269  1
  O2-  O436  1  0.02911752  0.49494662  0.31245894  1
  O2-  O437  1  -0.02436734  0.49499324  0.69131848  1
  O2-  O438  1  0.34005291  0.01279486  -0.00917968  1
  O2-  O439  1  0.31783146  -0.00838394  0.34022486  1
  O2-  O440  1  0.34413333  0.00779886  0.63231834  1
  O2-  O441  1  0.33326139  0.48566374  0.00425729  1
  O2-  O442  1  0.35707382  0.49447627  0.29806694  1
  O2-  O443  1  0.33622290  0.47881502  0.65938683  1
  O2-  O444  1  0.65567774  0.01137826  0.00509035  1
  O2-  O445  1  0.68565930  0.01536377  0.31424472  1
  O2-  O446  1  0.65719298  0.00127389  0.67757414  1
  O2-  O447  1  0.66290363  0.49254430  -0.01193161  1
  O2-  O448  1  0.66720521  0.49705590  0.33558751  1
  O2-  O449  1  0.65646310  0.49963256  0.67898263  1
  O2-  O450  1  0.15159234  0.00877712  -0.03098442  1
  O2-  O451  1  0.13943552  0.00991957  0.27987875  1
  O2-  O452  1  0.15997082  0.01692814  0.64763881  1
  O2-  O453  1  0.16659568  0.50203438  0.00171381  1
  O2-  O454  1  0.18548627  0.49311968  0.36250714  1
  O2-  O455  1  0.18895904  0.49488505  0.70200513  1
  O2-  O456  1  0.49639338  0.01619071  0.00416740  1
  O2-  O457  1  0.52189058  0.00079174  0.35268149  1
  O2-  O458  1  0.49115698  -0.00991965  0.63246896  1
  O2-  O459  1  0.50583183  0.49895981  0.01148758  1
  O2-  O460  1  0.51333786  0.48488934  0.35038432  1
  O2-  O461  1  0.49217053  0.48528542  0.66025529  1
  O2-  O462  1  0.81897228  -0.00159011  -0.02108366  1
  O2-  O463  1  0.83582362  0.01281467  0.33417451  1
  O2-  O464  1  0.83262143  -0.01305794  0.66652464  1
  O2-  O465  1  0.81824391  0.51243190  -0.04721244  1
  O2-  O466  1  0.84624019  0.51232510  0.32110967  1
  O2-  O467  1  0.80973688  0.49738480  0.62520403  1
  O2-  O468  1  0.90999721  0.25039813  0.93069939  1
  O2-  O469  1  0.74309872  0.25198769  0.38952197  1
  O2-  O470  1  0.25919607  0.25539875  0.60318609  1
  O2-  O471  1  0.07736778  0.74676971  0.05440716  1
  O2-  O472  1  0.57566743  0.26045130  0.60623488  1
  O2-  O473  1  0.91024297  0.25586623  0.26463938  1
  O2-  O474  1  0.57772180  0.75354197  0.93540075  1
  O2-  O475  1  0.24229763  0.75687875  0.25707873  1
  O2-  O476  1  0.23836507  0.74646241  0.60971285  1
  O2-  O477  1  0.76402861  0.74693820  0.06076567  1
  O2-  O478  1  0.08781502  0.74913082  0.71969542  1
  O2-  O479  1  0.40771732  0.74750156  0.05712436  1
  O2-  O480  1  0.08985178  0.75251621  0.39209052  1
  O2-  O481  1  0.75712156  0.26112175  0.73875341  1
  O2-  O482  1  0.91223968  0.74753644  0.60361059  1
  O2-  O483  1  0.57339532  0.25265545  0.94371730  1
  O2-  O484  1  0.76853929  0.74402133  0.38699708  1
  O2-  O485  1  0.42594907  0.25332776  0.39901551  1
  O2-  O486  1  0.41994881  0.25018130  0.05062133  1
  O2-  O487  1  0.92576337  0.74539225  0.95658831  1
  O2-  O488  1  0.74463622  0.25266589  0.05317099  1
  O2-  O489  1  0.24099378  0.74496250  0.95251165  1
  O2-  O490  1  0.91587520  0.75266717  0.26844399  1
  O2-  O491  1  0.89914282  0.25105124  0.60815032  1
  O2-  O492  1  0.41800619  0.24705567  0.71506244  1
