# generated using pymatgen
data_Ca108Mn108O277
_symmetry_space_group_name_H-M   'P 1'
_cell_length_a   16.02745825
_cell_length_b   22.30595732
_cell_length_c   16.39003254
_cell_angle_alpha   89.99431906
_cell_angle_beta   89.99751100
_cell_angle_gamma   89.99537348
_symmetry_Int_Tables_number   1
_chemical_formula_structural   Ca108Mn108O277
_chemical_formula_sum   'Ca108 Mn108 O277'
_cell_volume   5859.56441557
_cell_formula_units_Z   1
loop_
 _symmetry_equiv_pos_site_id
 _symmetry_equiv_pos_as_xyz
  1  'x, y, z'
loop_
 _atom_type_symbol
 _atom_type_oxidation_number
  Ca2+  2.0
  Mn3.34+  3.34
  O2-  -2.0
loop_
 _atom_site_type_symbol
 _atom_site_label
 _atom_site_symmetry_multiplicity
 _atom_site_fract_x
 _atom_site_fract_y
 _atom_site_fract_z
 _atom_site_occupancy
  Ca2+  Ca0  1  0.07087529  0.24436718  0.25352283  1
  Ca2+  Ca1  1  0.07284702  0.25120305  0.59874938  1
  Ca2+  Ca2  1  0.07505789  0.24252659  0.89379663  1
  Ca2+  Ca3  1  0.09710920  0.75337810  0.24925498  1
  Ca2+  Ca4  1  0.10192022  0.74087282  0.58215757  1
  Ca2+  Ca5  1  0.06387380  0.74210723  0.91312279  1
  Ca2+  Ca6  1  0.42482770  0.25298363  0.23066275  1
  Ca2+  Ca7  1  0.42627310  0.26551799  0.58784734  1
  Ca2+  Ca8  1  0.41091528  0.25130851  0.92072141  1
  Ca2+  Ca9  1  0.40420854  0.75683895  0.22826355  1
  Ca2+  Ca10  1  0.42199286  0.74699094  0.60733352  1
  Ca2+  Ca11  1  0.43453703  0.74548533  0.90569050  1
  Ca2+  Ca12  1  0.75405292  0.24111553  0.26123934  1
  Ca2+  Ca13  1  0.75656411  0.26168157  0.58141971  1
  Ca2+  Ca14  1  0.78050000  0.24328500  0.90739612  1
  Ca2+  Ca15  1  0.75493009  0.76613289  0.25303934  1
  Ca2+  Ca16  1  0.72995845  0.74373226  0.61401665  1
  Ca2+  Ca17  1  0.73718243  0.74888210  0.89568635  1
  Ca2+  Ca18  1  0.25248353  0.24255114  0.06075004  1
  Ca2+  Ca19  1  0.23307455  0.26236769  0.41595379  1
  Ca2+  Ca20  1  0.22889377  0.26089646  0.75399088  1
  Ca2+  Ca21  1  0.25678094  0.75257239  0.08494427  1
  Ca2+  Ca22  1  0.22965949  0.75024296  0.41659078  1
  Ca2+  Ca23  1  0.26563000  0.73612797  0.74029456  1
  Ca2+  Ca24  1  0.57975183  0.24963647  0.09246213  1
  Ca2+  Ca25  1  0.60581237  0.24874335  0.41572288  1
  Ca2+  Ca26  1  0.57807264  0.27259285  0.74863711  1
  Ca2+  Ca27  1  0.56027288  0.74693041  0.05654338  1
  Ca2+  Ca28  1  0.58940932  0.75927244  0.43413379  1
  Ca2+  Ca29  1  0.57933758  0.75079220  0.76830634  1
  Ca2+  Ca30  1  0.92118347  0.24008688  0.07025961  1
  Ca2+  Ca31  1  0.91373710  0.23856732  0.41778849  1
  Ca2+  Ca32  1  0.93497732  0.25158972  0.75239118  1
  Ca2+  Ca33  1  0.92388617  0.74056329  0.05820553  1
  Ca2+  Ca34  1  0.94607051  0.74972608  0.41655577  1
  Ca2+  Ca35  1  0.90098485  0.74219969  0.77131498  1
  Ca2+  Ca36  1  0.56499080  0.59321936  0.06461988  1
  Ca2+  Ca37  1  0.07130594  0.10515177  0.91024027  1
  Ca2+  Ca38  1  0.91989330  0.11447274  0.76375840  1
  Ca2+  Ca39  1  0.59989459  0.09076964  0.40389012  1
  Ca2+  Ca40  1  0.55736272  0.59761746  0.06092023  1
  Ca2+  Ca41  1  0.75001253  0.58190625  0.59410432  1
  Ca2+  Ca42  1  0.58614463  0.08596530  0.08526446  1
  Ca2+  Ca43  1  0.77107609  0.60777933  0.90668371  1
  Ca2+  Ca44  1  0.09237990  0.60678772  0.25877080  1
  Ca2+  Ca45  1  0.58791002  0.60798751  0.76569356  1
  Ca2+  Ca46  1  0.24037778  0.08541482  0.41884623  1
  Ca2+  Ca47  1  0.41395274  0.60632370  0.23409326  1
  Ca2+  Ca48  1  0.59823120  0.08359985  0.08859654  1
  Ca2+  Ca49  1  0.42737615  0.07925310  0.58984566  1
  Ca2+  Ca50  1  0.93715757  0.59561012  0.77294474  1
  Ca2+  Ca51  1  0.76210833  0.61114231  0.90507456  1
  Ca2+  Ca52  1  0.75779639  0.10930188  0.55841327  1
  Ca2+  Ca53  1  0.10512306  0.59351323  0.59631242  1
  Ca2+  Ca54  1  0.57945412  0.61171587  0.76846451  1
  Ca2+  Ca55  1  0.25326800  0.08614180  0.41897951  1
  Ca2+  Ca56  1  0.22970245  0.60563707  0.42997254  1
  Ca2+  Ca57  1  0.38606803  0.09308588  0.93015998  1
  Ca2+  Ca58  1  0.39725354  0.58887867  0.60267648  1
  Ca2+  Ca59  1  0.03196383  0.06445360  0.24972897  1
  Ca2+  Ca60  1  0.42766241  0.61123105  0.90393631  1
  Ca2+  Ca61  1  0.22935611  0.11726191  0.76550790  1
  Ca2+  Ca62  1  0.59414554  0.07480500  0.74372257  1
  Ca2+  Ca63  1  0.21742752  0.11640900  0.76876534  1
  Ca2+  Ca64  1  0.27313185  0.60689469  0.08772904  1
  Ca2+  Ca65  1  0.72411640  0.57000518  0.27166325  1
  Ca2+  Ca66  1  0.74721194  0.10954760  0.55867187  1
  Ca2+  Ca67  1  0.76813330  0.08657910  0.27716147  1
  Ca2+  Ca68  1  0.08331727  0.10671652  0.59053106  1
  Ca2+  Ca69  1  0.60574585  0.07876309  0.74602596  1
  Ca2+  Ca70  1  0.43337341  0.08346284  0.26220407  1
  Ca2+  Ca71  1  0.71192626  0.56880792  0.26874312  1
  Ca2+  Ca72  1  0.73422252  0.41108916  0.26453071  1
  Ca2+  Ca73  1  0.57936652  0.41598307  0.41646765  1
  Ca2+  Ca74  1  0.42380005  0.41161242  0.25580763  1
  Ca2+  Ca75  1  0.58392220  0.41491180  0.08041506  1
  Ca2+  Ca76  1  0.39598271  0.41696578  0.59186663  1
  Ca2+  Ca77  1  0.74346767  0.90548150  0.91436941  1
  Ca2+  Ca78  1  0.74419090  0.91541966  0.25116190  1
  Ca2+  Ca79  1  0.08587650  0.40890529  0.58980238  1
  Ca2+  Ca80  1  0.75235334  0.40742157  0.90728637  1
  Ca2+  Ca81  1  0.58859766  0.90740336  0.07152599  1
  Ca2+  Ca82  1  0.08882771  0.39546417  0.25634678  1
  Ca2+  Ca83  1  0.91222982  0.89235498  0.75412498  1
  Ca2+  Ca84  1  0.90243180  0.40954017  0.06200720  1
  Ca2+  Ca85  1  0.93795094  0.91558135  0.08057216  1
  Ca2+  Ca86  1  0.09229461  0.89146778  0.58244467  1
  Ca2+  Ca87  1  0.08079996  0.39711116  0.24711936  1
  Ca2+  Ca88  1  0.91669538  0.41888676  0.72786411  1
  Ca2+  Ca89  1  0.40475280  0.40468807  0.91165073  1
  Ca2+  Ca90  1  0.08216715  0.90678165  0.24565042  1
  Ca2+  Ca91  1  0.57689096  0.90357514  0.76230802  1
  Ca2+  Ca92  1  0.56608002  0.90629880  0.41760455  1
  Ca2+  Ca93  1  0.91323678  0.41047746  0.06397868  1
  Ca2+  Ca94  1  0.74557581  0.41148532  0.26544510  1
  Ca2+  Ca95  1  0.25877515  0.88997878  0.75689131  1
  Ca2+  Ca96  1  0.91190931  0.91498690  0.39356722  1
  Ca2+  Ca97  1  0.25215033  0.40392028  0.06579427  1
  Ca2+  Ca98  1  0.91822215  0.92102121  0.39334397  1
  Ca2+  Ca99  1  0.23435587  0.90420097  0.07950017  1
  Ca2+  Ca100  1  0.59538080  0.41461398  0.08041888  1
  Ca2+  Ca101  1  0.07941884  0.89120217  0.58326190  1
  Ca2+  Ca102  1  0.73844584  0.90350633  0.58983450  1
  Ca2+  Ca103  1  0.43551208  0.41157863  0.25542019  1
  Ca2+  Ca104  1  0.92814477  0.91632604  0.08408854  1
  Ca2+  Ca105  1  0.76301016  0.40759811  0.90799298  1
  Ca2+  Ca106  1  0.59118673  0.41921976  0.41558464  1
  Ca2+  Ca107  1  0.08201965  0.40925968  0.90677893  1
  Mn3.34+  Mn108  1  0.08500472  0.33066776  0.07890676  1
  Mn3.34+  Mn109  1  0.07827735  0.32937732  0.42507580  1
  Mn3.34+  Mn110  1  0.08508192  0.33695443  0.74727610  1
  Mn3.34+  Mn111  1  0.08615787  0.83310939  0.08092297  1
  Mn3.34+  Mn112  1  0.08801611  0.83353217  0.41233780  1
  Mn3.34+  Mn113  1  0.08438339  0.82217073  0.75524721  1
  Mn3.34+  Mn114  1  0.41585324  0.33379213  0.07999490  1
  Mn3.34+  Mn115  1  0.41378675  0.33480813  0.42409118  1
  Mn3.34+  Mn116  1  0.41133519  0.33867598  0.74838754  1
  Mn3.34+  Mn117  1  0.41472476  0.83212104  0.07843144  1
  Mn3.34+  Mn118  1  0.41207673  0.83966982  0.41632094  1
  Mn3.34+  Mn119  1  0.41761270  0.83155971  0.75320274  1
  Mn3.34+  Mn120  1  0.75194457  0.32412147  0.08429504  1
  Mn3.34+  Mn121  1  0.76358222  0.34680148  0.43116067  1
  Mn3.34+  Mn122  1  0.75199180  0.33603748  0.74491544  1
  Mn3.34+  Mn123  1  0.74950816  0.83261747  0.08429425  1
  Mn3.34+  Mn124  1  0.74856393  0.83274276  0.42024997  1
  Mn3.34+  Mn125  1  0.74667544  0.83237069  0.75121329  1
  Mn3.34+  Mn126  1  0.25226258  0.33089923  0.25106722  1
  Mn3.34+  Mn127  1  0.24757538  0.34012817  0.57936194  1
  Mn3.34+  Mn128  1  0.24735454  0.33275559  0.90860055  1
  Mn3.34+  Mn129  1  0.25462745  0.83454230  0.25197955  1
  Mn3.34+  Mn130  1  0.26339086  0.82779272  0.57829514  1
  Mn3.34+  Mn131  1  0.24937476  0.83333406  0.91678666  1
  Mn3.34+  Mn132  1  0.58458327  0.32916848  0.24849116  1
  Mn3.34+  Mn133  1  0.58578955  0.33653113  0.58542590  1
  Mn3.34+  Mn134  1  0.58386663  0.33250434  0.91213140  1
  Mn3.34+  Mn135  1  0.57691032  0.83530962  0.24539130  1
  Mn3.34+  Mn136  1  0.57592171  0.83357296  0.58607946  1
  Mn3.34+  Mn137  1  0.58091021  0.83812815  0.91699704  1
  Mn3.34+  Mn138  1  0.91440426  0.32813451  0.24997736  1
  Mn3.34+  Mn139  1  0.91752777  0.33814477  0.57977250  1
  Mn3.34+  Mn140  1  0.92154425  0.33230853  0.90637481  1
  Mn3.34+  Mn141  1  0.91525964  0.83519204  0.24216397  1
  Mn3.34+  Mn142  1  0.91270432  0.82402081  0.58020481  1
  Mn3.34+  Mn143  1  0.91749681  0.83400402  0.91560175  1
  Mn3.34+  Mn144  1  0.42224254  0.66702318  0.42202822  1
  Mn3.34+  Mn145  1  0.90905803  0.67237087  0.24741064  1
  Mn3.34+  Mn146  1  0.76208846  0.15933924  0.09059601  1
  Mn3.34+  Mn147  1  0.41342027  0.16332792  0.74985290  1
  Mn3.34+  Mn148  1  0.91970293  0.66773364  0.24655615  1
  Mn3.34+  Mn149  1  0.07322946  0.15991494  0.08397978  1
  Mn3.34+  Mn150  1  0.58823375  0.68238123  0.24743076  1
  Mn3.34+  Mn151  1  0.91682482  0.65757073  0.58351206  1
  Mn3.34+  Mn152  1  0.24945867  0.66446294  0.58809544  1
  Mn3.34+  Mn153  1  0.58129515  0.66278594  0.58406219  1
  Mn3.34+  Mn154  1  0.24824400  0.66745019  0.91155391  1
  Mn3.34+  Mn155  1  0.58734237  0.16704875  0.91694154  1
  Mn3.34+  Mn156  1  0.74611756  0.65907453  0.42486122  1
  Mn3.34+  Mn157  1  0.91170290  0.16259949  0.25340273  1
  Mn3.34+  Mn158  1  0.24309233  0.15962087  0.24045993  1
  Mn3.34+  Mn159  1  0.08690395  0.15298988  0.08393873  1
  Mn3.34+  Mn160  1  0.91728546  0.17312783  0.58159112  1
  Mn3.34+  Mn161  1  0.25371566  0.16493799  0.24177514  1
  Mn3.34+  Mn162  1  0.58982983  0.16670717  0.24797802  1
  Mn3.34+  Mn163  1  0.07768922  0.16446259  0.41771887  1
  Mn3.34+  Mn164  1  0.25143663  0.17675459  0.57802537  1
  Mn3.34+  Mn165  1  0.92601678  0.66304560  0.58465887  1
  Mn3.34+  Mn166  1  0.23798128  0.66377000  0.90831534  1
  Mn3.34+  Mn167  1  0.08269788  0.66879967  0.07895439  1
  Mn3.34+  Mn168  1  0.59916095  0.16297796  0.91514746  1
  Mn3.34+  Mn169  1  0.42414903  0.16852162  0.74844585  1
  Mn3.34+  Mn170  1  0.41299179  0.67275292  0.41984442  1
  Mn3.34+  Mn171  1  0.42402390  0.17102148  0.42017257  1
  Mn3.34+  Mn172  1  0.41276927  0.16847738  0.42273113  1
  Mn3.34+  Mn173  1  0.58017507  0.67563858  0.24577530  1
  Mn3.34+  Mn174  1  0.24987492  0.67226106  0.24790876  1
  Mn3.34+  Mn175  1  0.75156800  0.66604612  0.08939227  1
  Mn3.34+  Mn176  1  0.58461406  0.17057072  0.58199410  1
  Mn3.34+  Mn177  1  0.75923745  0.66503425  0.42206728  1
  Mn3.34+  Mn178  1  0.41636805  0.16621085  0.08195505  1
  Mn3.34+  Mn179  1  0.75138624  0.16972677  0.74759732  1
  Mn3.34+  Mn180  1  0.07451800  0.51530986  0.06576148  1
  Mn3.34+  Mn181  1  0.57927450  0.49530223  0.91527884  1
  Mn3.34+  Mn182  1  0.92575853  0.00747539  0.57595035  1
  Mn3.34+  Mn183  1  0.74984665  -0.00352244  0.41132472  1
  Mn3.34+  Mn184  1  0.08597553  -0.00748106  0.76180675  1
  Mn3.34+  Mn185  1  0.41799705  -0.00580526  0.08082166  1
  Mn3.34+  Mn186  1  0.41367149  -0.00196513  0.76101642  1
  Mn3.34+  Mn187  1  0.57177300  -0.00604135  0.26548771  1
  Mn3.34+  Mn188  1  0.08686169  0.50813097  0.06873497  1
  Mn3.34+  Mn189  1  0.58017724  0.50399778  0.58515474  1
  Mn3.34+  Mn190  1  0.26657122  -0.00489230  0.25418130  1
  Mn3.34+  Mn191  1  0.25213813  0.50438882  0.24728538  1
  Mn3.34+  Mn192  1  0.91219172  0.00063283  0.57760760  1
  Mn3.34+  Mn193  1  0.92254465  -0.00180153  0.93068396  1
  Mn3.34+  Mn194  1  0.75949470  0.00068396  0.75446692  1
  Mn3.34+  Mn195  1  0.40678077  0.50018650  0.08036129  1
  Mn3.34+  Mn196  1  0.75338588  0.00082065  0.08139946  1
  Mn3.34+  Mn197  1  0.75107930  0.49961637  0.73263916  1
  Mn3.34+  Mn198  1  0.24051424  0.50030363  0.24644781  1
  Mn3.34+  Mn199  1  0.25391459  -0.00203820  0.58432577  1
  Mn3.34+  Mn200  1  0.07324455  0.50184487  0.43116286  1
  Mn3.34+  Mn201  1  0.91812508  0.50543546  0.24490751  1
  Mn3.34+  Mn202  1  0.92929309  0.50058602  0.24235505  1
  Mn3.34+  Mn203  1  0.07279400  -0.00059510  0.76277160  1
  Mn3.34+  Mn204  1  0.07796667  0.00159530  0.41541694  1
  Mn3.34+  Mn205  1  0.08581758  0.49551828  0.43173987  1
  Mn3.34+  Mn206  1  0.40720710  -0.00136970  0.08214868  1
  Mn3.34+  Mn207  1  0.26542809  -0.00711121  0.58658972  1
  Mn3.34+  Mn208  1  0.23814800  -0.00635467  0.92953900  1
  Mn3.34+  Mn209  1  0.76100156  0.50995393  0.07789521  1
  Mn3.34+  Mn210  1  0.41043281  0.49780393  0.73448246  1
  Mn3.34+  Mn211  1  0.25157255  0.49976996  0.90642164  1
  Mn3.34+  Mn212  1  0.41925318  0.50160164  0.41505054  1
  Mn3.34+  Mn213  1  0.08629023  0.50061069  0.72692930  1
  Mn3.34+  Mn214  1  0.25521082  -0.00017458  0.25058722  1
  Mn3.34+  Mn215  1  0.57826930  -0.00277177  0.58499236  1
  O2-  O216  1  -0.00401573  0.15075270  0.00624299  1
  O2-  O217  1  0.00722846  0.15155495  0.32707199  1
  O2-  O218  1  -0.00671584  0.15547460  0.66146685  1
  O2-  O219  1  0.00595934  0.66267807  0.00276858  1
  O2-  O220  1  -0.00642692  0.65827351  0.32962626  1
  O2-  O221  1  -0.00274639  0.67554693  0.66914989  1
  O2-  O222  1  0.34036669  0.17400328  -0.00072822  1
  O2-  O223  1  0.33554973  0.15405382  0.33257314  1
  O2-  O224  1  0.33573414  0.15383550  0.65803094  1
  O2-  O225  1  0.32852957  0.65526708  -0.01300354  1
  O2-  O226  1  0.33682377  0.65940127  0.33262661  1
  O2-  O227  1  0.33769329  0.66692279  0.65780718  1
  O2-  O228  1  0.66589586  0.15396227  0.01254664  1
  O2-  O229  1  0.66735930  0.16610330  0.32862175  1
  O2-  O230  1  0.66667113  0.14961531  0.66368363  1
  O2-  O231  1  0.66848420  0.64820051  0.01590659  1
  O2-  O232  1  0.66496925  0.65604009  0.32963712  1
  O2-  O233  1  0.66257849  0.64914533  0.66094538  1
  O2-  O234  1  0.16081463  0.16344032  0.00122443  1
  O2-  O235  1  0.17270520  0.14727181  0.33814465  1
  O2-  O236  1  0.17321445  0.16885785  0.65952108  1
  O2-  O237  1  0.17308515  0.65111010  0.00180374  1
  O2-  O238  1  0.17282219  0.66123826  0.32924617  1
  O2-  O239  1  0.16780409  0.66780820  0.66247181  1
  O2-  O240  1  0.50270452  0.14357415  0.00154258  1
  O2-  O241  1  0.50192781  0.15600616  0.33339257  1
  O2-  O242  1  0.50524850  0.14310215  0.66993723  1
  O2-  O243  1  0.49876594  0.66105715  -0.00081178  1
  O2-  O244  1  0.49794435  0.67351364  0.33085417  1
  O2-  O245  1  0.50136717  0.64890708  0.65828973  1
  O2-  O246  1  0.82132358  0.18976929  0.00973271  1
  O2-  O247  1  0.83354972  0.17204392  0.33072536  1
  O2-  O248  1  0.82581504  0.15813482  0.65825631  1
  O2-  O249  1  0.81778500  0.68010281  0.00195101  1
  O2-  O250  1  0.82175564  0.64333761  0.32334550  1
  O2-  O251  1  0.83265263  0.66035845  0.65806300  1
  O2-  O252  1  0.00100389  0.35225616  -0.00323540  1
  O2-  O253  1  0.00171879  0.34332683  0.32918629  1
  O2-  O254  1  0.00420284  0.34774544  0.66623532  1
  O2-  O255  1  -0.00489576  0.84437182  0.00417993  1
  O2-  O256  1  -0.00410204  0.84914969  0.33336351  1
  O2-  O257  1  0.00109404  0.82320971  0.66128216  1
  O2-  O258  1  0.33280618  0.32964063  -0.00568679  1
  O2-  O259  1  0.34660103  0.33874907  0.32628331  1
  O2-  O260  1  0.32951335  0.32838949  0.65877388  1
  O2-  O261  1  0.32575345  0.84926974  0.00433595  1
  O2-  O262  1  0.33797473  0.82192015  0.33544947  1
  O2-  O263  1  0.33423324  0.83698767  0.66741900  1
  O2-  O264  1  0.66923856  0.34682585  0.00521093  1
  O2-  O265  1  0.66583162  0.33289018  0.33211310  1
  O2-  O266  1  0.67138566  0.32325181  0.66774604  1
  O2-  O267  1  0.67131667  0.83492223  -0.00078582  1
  O2-  O268  1  0.66136158  0.84192353  0.33513058  1
  O2-  O269  1  0.66324394  0.84547312  0.67099233  1
  O2-  O270  1  0.17263180  0.33254132  0.00180216  1
  O2-  O271  1  0.16746442  0.34470590  0.33761971  1
  O2-  O272  1  0.16707346  0.33394375  0.66338737  1
  O2-  O273  1  0.16574367  0.84303787  0.00025407  1
  O2-  O274  1  0.16378980  0.84827004  0.32823606  1
  O2-  O275  1  0.16457168  0.83493176  0.66626309  1
  O2-  O276  1  0.50325693  0.35670664  0.00149150  1
  O2-  O277  1  0.50250357  0.34820873  0.33705180  1
  O2-  O278  1  0.49218373  0.35017687  0.65917821  1
  O2-  O279  1  0.50550362  0.84202261  0.00418279  1
  O2-  O280  1  0.50129058  0.81489074  0.33734168  1
  O2-  O281  1  0.50215598  0.84188897  0.67200052  1
  O2-  O282  1  0.83041965  0.33785107  -0.00467764  1
  O2-  O283  1  0.82263393  0.33629755  0.32513002  1
  O2-  O284  1  0.83844942  0.33192844  0.66975264  1
  O2-  O285  1  0.83863732  0.85072807  0.00380238  1
  O2-  O286  1  0.82892406  0.85163783  0.32746637  1
  O2-  O287  1  0.82963473  0.83768456  0.66227058  1
  O2-  O288  1  0.00209258  0.17019419  0.17012736  1
  O2-  O289  1  0.00291183  0.17801140  0.50392061  1
  O2-  O290  1  -0.00087837  0.17422056  0.83425635  1
  O2-  O291  1  0.00557599  0.68434079  0.16937930  1
  O2-  O292  1  0.00162815  0.68830282  0.51179538  1
  O2-  O293  1  -0.00616507  0.67925907  0.82885047  1
  O2-  O294  1  0.33958924  0.18749175  0.16593767  1
  O2-  O295  1  0.32942977  0.19859468  0.49604744  1
  O2-  O296  1  0.33099766  0.17930329  0.82895793  1
  O2-  O297  1  0.33216082  0.67805934  0.17015585  1
  O2-  O298  1  0.33062353  0.68426649  0.49716480  1
  O2-  O299  1  0.33049322  0.67754662  0.83675253  1
  O2-  O300  1  0.66807342  0.18510546  0.16471270  1
  O2-  O301  1  0.66732014  0.18388051  0.50666087  1
  O2-  O302  1  0.66254838  0.19255074  0.82062946  1
  O2-  O303  1  0.67066234  0.69710624  0.16879078  1
  O2-  O304  1  0.67159986  0.68166156  0.50604586  1
  O2-  O305  1  0.67521656  0.66691893  0.83852567  1
  O2-  O306  1  0.16302586  0.18548003  0.15910551  1
  O2-  O307  1  0.17077170  0.18043319  0.49576418  1
  O2-  O308  1  0.17282281  0.18395280  0.83898125  1
  O2-  O309  1  0.16939440  0.67969456  0.16614369  1
  O2-  O310  1  0.17326856  0.67883032  0.50280819  1
  O2-  O311  1  0.16166683  0.68513393  0.83531568  1
  O2-  O312  1  0.50780066  0.16792486  0.16060308  1
  O2-  O313  1  0.49999251  0.18414277  0.50544607  1
  O2-  O314  1  0.49809568  0.18172740  0.84144937  1
  O2-  O315  1  0.50111003  0.68159231  0.16424077  1
  O2-  O316  1  0.50142446  0.69062689  0.49985859  1
  O2-  O317  1  0.50424522  0.67279416  0.82405427  1
  O2-  O318  1  0.83424735  0.18736190  0.16916139  1
  O2-  O319  1  0.82776676  0.18599331  0.50738824  1
  O2-  O320  1  0.83630032  0.18918230  0.81205792  1
  O2-  O321  1  0.83503788  0.69082168  0.16597434  1
  O2-  O322  1  0.84100430  0.68770019  0.50442852  1
  O2-  O323  1  0.84298598  0.66740271  0.82950799  1
  O2-  O324  1  0.00188902  0.33505452  0.16366794  1
  O2-  O325  1  0.00123127  0.31509561  0.50443646  1
  O2-  O326  1  -0.00031950  0.33755717  0.82582115  1
  O2-  O327  1  0.00013698  0.82170159  0.16769295  1
  O2-  O328  1  0.00486534  0.82052723  0.50350725  1
  O2-  O329  1  -0.00676285  0.81874948  0.82662567  1
  O2-  O330  1  0.33483017  0.32673627  0.16576893  1
  O2-  O331  1  0.33025487  0.31414348  0.50033895  1
  O2-  O332  1  0.32968889  0.31145901  0.83303336  1
  O2-  O333  1  0.32682238  0.82448243  0.16098319  1
  O2-  O334  1  0.33738928  0.81156772  0.49392711  1
  O2-  O335  1  0.33146377  0.82014374  0.83365759  1
  O2-  O336  1  0.66797452  0.31810127  0.16449157  1
  O2-  O337  1  0.67056314  0.32143042  0.49544931  1
  O2-  O338  1  0.67600241  0.31874617  0.83842790  1
  O2-  O339  1  0.66759194  0.81539735  0.16726302  1
  O2-  O340  1  0.67148623  0.82231451  0.50740008  1
  O2-  O341  1  0.66538271  0.82905367  0.83177908  1
  O2-  O342  1  0.16057618  0.32615191  0.17187967  1
  O2-  O343  1  0.16173786  0.31337712  0.50986073  1
  O2-  O344  1  0.15639108  0.32430857  0.83973321  1
  O2-  O345  1  0.16523078  0.82343087  0.16479362  1
  O2-  O346  1  0.16292384  0.82308921  0.50342914  1
  O2-  O347  1  0.17240929  0.81454174  0.82719166  1
  O2-  O348  1  0.49956141  0.33046901  0.16814091  1
  O2-  O349  1  0.50614722  0.31430113  0.48926932  1
  O2-  O350  1  0.49181735  0.32759219  0.84015588  1
  O2-  O351  1  0.50218342  0.81246172  0.16318541  1
  O2-  O352  1  0.50040295  0.82148919  0.49670613  1
  O2-  O353  1  0.50352715  0.82890202  0.83232625  1
  O2-  O354  1  0.84244358  0.32051883  0.15640223  1
  O2-  O355  1  0.84182381  0.31210802  0.49609159  1
  O2-  O356  1  0.83145576  0.32141488  0.83278900  1
  O2-  O357  1  0.83526011  0.81666031  0.16175013  1
  O2-  O358  1  0.84404269  0.82017684  0.48896498  1
  O2-  O359  1  0.82922080  0.82812254  0.83687123  1
  O2-  O360  1  0.08552550  0.07667405  0.11708934  1
  O2-  O361  1  0.10410692  0.08024170  0.45806961  1
  O2-  O362  1  0.09365510  0.07981424  0.77877428  1
  O2-  O363  1  0.09230745  0.58621098  0.12143288  1
  O2-  O364  1  0.08935777  0.58053401  0.45644220  1
  O2-  O365  1  0.08152735  0.56424444  0.77850241  1
  O2-  O366  1  0.41065340  0.07939003  0.12226483  1
  O2-  O367  1  0.38976507  0.08638313  0.46216249  1
  O2-  O368  1  0.42154044  0.08082805  0.79504791  1
  O2-  O369  1  0.42246537  0.57856196  0.10739768  1
  O2-  O370  1  0.40438613  0.58248648  0.44809628  1
  O2-  O371  1  0.43945745  0.56127918  0.78737300  1
  O2-  O372  1  0.73467276  0.07680567  0.12863561  1
  O2-  O373  1  0.73825502  0.07584752  0.43356333  1
  O2-  O374  1  0.74311439  0.08196796  0.77941840  1
  O2-  O375  1  0.74546300  0.58110360  0.13977475  1
  O2-  O376  1  0.74886152  0.57762613  0.43683460  1
  O2-  O377  1  0.71798935  0.56334407  0.78776420  1
  O2-  O378  1  0.25860903  0.07723451  0.20211663  1
  O2-  O379  1  0.25301754  0.08047884  0.55350340  1
  O2-  O380  1  0.25591023  0.06132401  0.87275143  1
  O2-  O381  1  0.25663641  0.58617005  0.22547807  1
  O2-  O382  1  0.25103866  0.58540985  0.56222992  1
  O2-  O383  1  0.25237102  0.58283211  0.88683232  1
  O2-  O384  1  0.58261850  0.07707846  0.22294065  1
  O2-  O385  1  0.58859528  0.08318319  0.54741188  1
  O2-  O386  1  0.59211816  0.08148323  0.87989430  1
  O2-  O387  1  0.58849699  0.58661493  0.21035169  1
  O2-  O388  1  0.58189002  0.58076239  0.54725236  1
  O2-  O389  1  0.57850584  0.57519428  0.90354224  1
  O2-  O390  1  0.89988634  0.08395298  0.23455188  1
  O2-  O391  1  0.89764465  0.08653586  0.55067479  1
  O2-  O392  1  0.94630533  0.05832710  0.86944161  1
  O2-  O393  1  0.91773824  0.58518996  0.21216386  1
  O2-  O394  1  0.91629454  0.57920583  0.55738384  1
  O2-  O395  1  0.87965921  0.56279872  0.88420741  1
  O2-  O396  1  0.09480152  0.43146475  0.12277709  1
  O2-  O397  1  0.07988490  0.41399430  0.44586800  1
  O2-  O398  1  0.08672225  0.42931172  0.77337153  1
  O2-  O399  1  0.07522265  0.91587595  0.11042336  1
  O2-  O400  1  0.07035397  0.91960346  0.45404790  1
  O2-  O401  1  0.06856736  0.91233203  0.74819229  1
  O2-  O402  1  0.41695444  0.42218621  0.12040206  1
  O2-  O403  1  0.43018396  0.42197441  0.45854068  1
  O2-  O404  1  0.40344763  0.42599719  0.77911550  1
  O2-  O405  1  0.42514731  0.91544266  0.11247697  1
  O2-  O406  1  0.42514181  0.91591082  0.42419483  1
  O2-  O407  1  0.41132370  0.91804659  0.76801728  1
  O2-  O408  1  0.75180490  0.42415282  0.12881600  1
  O2-  O409  1  0.72531541  0.42380576  0.40864455  1
  O2-  O410  1  0.76160442  0.42529054  0.77414811  1
  O2-  O411  1  0.75505026  0.92215448  0.11419134  1
  O2-  O412  1  0.76771591  0.92186145  0.45508064  1
  O2-  O413  1  0.75885358  0.91929956  0.77097337  1
  O2-  O414  1  0.23957962  0.41808865  0.22326997  1
  O2-  O415  1  0.24883945  0.41514557  0.55797890  1
  O2-  O416  1  0.25375831  0.41792532  0.89956954  1
  O2-  O417  1  0.24150277  0.91672083  0.21971442  1
  O2-  O418  1  0.23267249  0.91259824  0.56739817  1
  O2-  O419  1  0.24039812  0.92110981  0.88641107  1
  O2-  O420  1  0.58406373  0.41464200  0.21440514  1
  O2-  O421  1  0.58253214  0.42272065  0.55075182  1
  O2-  O422  1  0.61225793  0.41665963  0.89578221  1
  O2-  O423  1  0.59514128  0.92302629  0.21359374  1
  O2-  O424  1  0.59170793  0.91661090  0.55219015  1
  O2-  O425  1  0.60188170  0.92052056  0.89988584  1
  O2-  O426  1  0.92030128  0.41726977  0.22331571  1
  O2-  O427  1  0.92645086  0.41633862  0.57273360  1
  O2-  O428  1  0.89778250  0.41401156  0.89468896  1
  O2-  O429  1  0.91257820  0.91717600  0.21800912  1
  O2-  O430  1  0.93307488  0.91878165  0.55959153  1
  O2-  O431  1  0.91415949  0.92587426  0.88388258  1
  O2-  O432  1  -0.00523317  -0.00894535  0.00607235  1
  O2-  O433  1  -0.00030352  -0.01686370  0.33047073  1
  O2-  O434  1  0.00276102  0.00776645  0.66559151  1
  O2-  O435  1  -0.00939862  0.47943659  0.00506468  1
  O2-  O436  1  0.00972290  0.49717131  0.32753936  1
  O2-  O437  1  -0.00372813  0.49841430  0.67521320  1
  O2-  O438  1  0.33244576  0.00321290  -0.00854937  1
  O2-  O439  1  0.33159723  0.02793558  0.33828115  1
  O2-  O440  1  0.33738155  0.01682079  0.67163701  1
  O2-  O441  1  0.33334045  0.49130632  -0.00637277  1
  O2-  O442  1  0.35049749  0.49282534  0.31003043  1
  O2-  O443  1  0.33985484  0.50162841  0.65745312  1
  O2-  O444  1  0.64980377  0.00020659  0.04071429  1
  O2-  O445  1  0.67174699  -0.00002882  0.32506002  1
  O2-  O446  1  0.66638764  0.00433170  0.67600517  1
  O2-  O447  1  0.65795182  0.49650442  0.01517141  1
  O2-  O448  1  0.66257043  0.48770665  0.30003575  1
  O2-  O449  1  0.67272548  0.50856714  0.65613355  1
  O2-  O450  1  0.15982330  0.00262627  -0.00664067  1
  O2-  O451  1  0.16534819  0.01259504  0.32843311  1
  O2-  O452  1  0.16611781  0.00757930  0.66875113  1
  O2-  O453  1  0.16227098  0.49386831  -0.01590039  1
  O2-  O454  1  0.16991747  0.50756726  0.34219734  1
  O2-  O455  1  0.15053833  0.49915553  0.64539315  1
  O2-  O456  1  0.50235303  0.02384963  0.01269838  1
  O2-  O457  1  0.50962765  0.01982990  0.34799237  1
  O2-  O458  1  0.50390009  0.01510472  0.68275125  1
  O2-  O459  1  0.50957222  0.49233991  0.01803364  1
  O2-  O460  1  0.50367589  0.47429846  0.33713507  1
  O2-  O461  1  0.49672900  0.49914055  0.66441439  1
  O2-  O462  1  0.83578818  -0.01334664  0.00126760  1
  O2-  O463  1  0.83055911  -0.01180160  0.33659367  1
  O2-  O464  1  0.83356676  0.00106166  0.66255010  1
  O2-  O465  1  0.81972970  0.47034203  -0.00373468  1
  O2-  O466  1  0.81711180  0.49764500  0.30060217  1
  O2-  O467  1  0.83878379  0.51456577  0.68156818  1
  O2-  O468  1  0.06815081  0.24269847  0.07008196  1
  O2-  O469  1  0.24228234  0.24735155  0.27508935  1
  O2-  O470  1  0.08220506  0.24792877  0.39022911  1
  O2-  O471  1  0.07844942  0.25726470  0.73924983  1
  O2-  O472  1  0.93182458  0.25447960  0.92713999  1
  O2-  O473  1  0.42248299  0.75308194  0.74384221  1
  O2-  O474  1  0.58474767  0.75571551  0.92115289  1
  O2-  O475  1  0.57446170  0.24838976  0.94826249  1
  O2-  O476  1  0.58436745  0.74884546  0.60917487  1
  O2-  O477  1  0.40855182  0.75525762  0.05845286  1
  O2-  O478  1  0.08524539  0.75064246  0.05844191  1
  O2-  O479  1  0.57328687  0.24858778  0.61293237  1
  O2-  O480  1  0.24503498  0.75254864  0.26838073  1
  O2-  O481  1  0.25102904  0.75096424  0.60061696  1
  O2-  O482  1  0.56603709  0.24874122  0.26662290  1
  O2-  O483  1  0.74657479  0.75329259  0.74650630  1
  O2-  O484  1  0.08526308  0.75615199  0.39019626  1
  O2-  O485  1  0.91485114  0.75544532  0.92554870  1
  O2-  O486  1  0.90742608  0.75381003  0.28274064  1
  O2-  O487  1  0.92981937  0.24942274  0.26724005  1
  O2-  O488  1  0.43794168  0.24919114  0.07022555  1
  O2-  O489  1  0.74938171  0.74411294  0.39064905  1
  O2-  O490  1  0.43216526  0.25079195  0.72570941  1
  O2-  O491  1  0.24773220  0.74727139  0.94381405  1
  O2-  O492  1  0.92429549  0.25115479  0.60973139  1
