# generated using pymatgen
data_Ca108Mn108O277
_symmetry_space_group_name_H-M   'P 1'
_cell_length_a   16.02052904
_cell_length_b   22.29519081
_cell_length_c   16.38303323
_cell_angle_alpha   89.99666273
_cell_angle_beta   89.99842976
_cell_angle_gamma   89.99809486
_symmetry_Int_Tables_number   1
_chemical_formula_structural   Ca108Mn108O277
_chemical_formula_sum   'Ca108 Mn108 O277'
_cell_volume   5851.70411384
_cell_formula_units_Z   1
loop_
 _symmetry_equiv_pos_site_id
 _symmetry_equiv_pos_as_xyz
  1  'x, y, z'
loop_
 _atom_type_symbol
 _atom_type_oxidation_number
  Ca2+  2.0
  Mn3.34+  3.34
  O2-  -2.0
loop_
 _atom_site_type_symbol
 _atom_site_label
 _atom_site_symmetry_multiplicity
 _atom_site_fract_x
 _atom_site_fract_y
 _atom_site_fract_z
 _atom_site_occupancy
  Ca2+  Ca0  1  0.07254926  0.25241672  0.26629912  1
  Ca2+  Ca1  1  0.09587311  0.24947102  0.58054216  1
  Ca2+  Ca2  1  0.09447205  0.25333121  0.91162900  1
  Ca2+  Ca3  1  0.08742491  0.74749491  0.26931179  1
  Ca2+  Ca4  1  0.08277118  0.73597596  0.57662139  1
  Ca2+  Ca5  1  0.06755658  0.75215455  0.90915724  1
  Ca2+  Ca6  1  0.41882362  0.25548544  0.26835191  1
  Ca2+  Ca7  1  0.40666570  0.25585068  0.57689628  1
  Ca2+  Ca8  1  0.41197887  0.26090649  0.90349025  1
  Ca2+  Ca9  1  0.40537823  0.75399647  0.26375889  1
  Ca2+  Ca10  1  0.41158487  0.74744639  0.57806761  1
  Ca2+  Ca11  1  0.44098223  0.75159002  0.90956151  1
  Ca2+  Ca12  1  0.75816648  0.24922478  0.25676683  1
  Ca2+  Ca13  1  0.74928872  0.26235301  0.57570625  1
  Ca2+  Ca14  1  0.74212503  0.26281031  0.91992240  1
  Ca2+  Ca15  1  0.76140030  0.75385878  0.24418680  1
  Ca2+  Ca16  1  0.74959018  0.74297051  0.59142916  1
  Ca2+  Ca17  1  0.72932387  0.74123097  0.90488467  1
  Ca2+  Ca18  1  0.23958118  0.25643006  0.07791443  1
  Ca2+  Ca19  1  0.24710192  0.24593160  0.44502929  1
  Ca2+  Ca20  1  0.23882978  0.24524507  0.72647258  1
  Ca2+  Ca21  1  0.25694672  0.74747897  0.08860676  1
  Ca2+  Ca22  1  0.25293456  0.73333742  0.42422699  1
  Ca2+  Ca23  1  0.24952449  0.75311720  0.73110075  1
  Ca2+  Ca24  1  0.59736757  0.26216716  0.08604990  1
  Ca2+  Ca25  1  0.57841415  0.25057901  0.43361168  1
  Ca2+  Ca26  1  0.57771360  0.26271204  0.73759789  1
  Ca2+  Ca27  1  0.58076419  0.75035786  0.06481906  1
  Ca2+  Ca28  1  0.56584228  0.73949736  0.43360911  1
  Ca2+  Ca29  1  0.57875479  0.74349949  0.75087761  1
  Ca2+  Ca30  1  0.90917934  0.25801338  0.10142384  1
  Ca2+  Ca31  1  0.92020539  0.25091477  0.42601214  1
  Ca2+  Ca32  1  0.92640801  0.25011475  0.73178254  1
  Ca2+  Ca33  1  0.91616334  0.74610689  0.07304113  1
  Ca2+  Ca34  1  0.93004281  0.73163411  0.43535353  1
  Ca2+  Ca35  1  0.91964457  0.74205818  0.73501492  1
  Ca2+  Ca36  1  0.59422800  0.07792582  0.08491635  1
  Ca2+  Ca37  1  0.75387780  0.09204430  0.58161851  1
  Ca2+  Ca38  1  0.75852456  0.08205325  0.25989650  1
  Ca2+  Ca39  1  0.59934576  0.60197861  0.75021550  1
  Ca2+  Ca40  1  0.39878973  0.60785449  0.29035904  1
  Ca2+  Ca41  1  0.59281788  0.08177304  0.73406342  1
  Ca2+  Ca42  1  0.07759347  0.08806573  0.89031321  1
  Ca2+  Ca43  1  0.60613084  0.58872831  0.05772729  1
  Ca2+  Ca44  1  0.74288979  0.60750266  0.90153010  1
  Ca2+  Ca45  1  0.25011140  0.07936273  0.07404830  1
  Ca2+  Ca46  1  0.07772831  0.59972718  0.93573375  1
  Ca2+  Ca47  1  0.08748313  0.09055893  0.89487215  1
  Ca2+  Ca48  1  0.74207731  0.09239538  0.58132534  1
  Ca2+  Ca49  1  0.75984865  0.61379236  0.57127033  1
  Ca2+  Ca50  1  0.10183053  0.10288170  0.59986879  1
  Ca2+  Ca51  1  0.77081968  0.07032308  0.92433886  1
  Ca2+  Ca52  1  0.06857745  0.60218202  0.93087824  1
  Ca2+  Ca53  1  0.59391912  0.58880229  0.05588464  1
  Ca2+  Ca54  1  0.40634788  0.07960742  0.92597652  1
  Ca2+  Ca55  1  0.59096968  0.59836083  0.74632821  1
  Ca2+  Ca56  1  0.42278476  0.59762086  0.57050866  1
  Ca2+  Ca57  1  0.24661783  0.09898194  0.42070969  1
  Ca2+  Ca58  1  0.88720055  0.60558991  0.72985893  1
  Ca2+  Ca59  1  0.27460793  0.58569904  0.72899389  1
  Ca2+  Ca60  1  0.58156371  0.07823726  0.08407585  1
  Ca2+  Ca61  1  0.22624927  0.09393469  0.73961593  1
  Ca2+  Ca62  1  0.38919985  0.09897440  0.57578429  1
  Ca2+  Ca63  1  0.91789640  0.08972081  0.41519115  1
  Ca2+  Ca64  1  0.09930509  0.09628809  0.59574903  1
  Ca2+  Ca65  1  0.92635670  0.59709918  0.07734181  1
  Ca2+  Ca66  1  0.94050286  0.08399832  0.73844331  1
  Ca2+  Ca67  1  0.40739309  0.08142258  0.26369810  1
  Ca2+  Ca68  1  0.91113855  0.08352453  0.08045457  1
  Ca2+  Ca69  1  0.08252689  0.08528137  0.26977213  1
  Ca2+  Ca70  1  0.75668994  0.59565377  0.25695977  1
  Ca2+  Ca71  1  0.44000983  0.60063478  0.90552312  1
  Ca2+  Ca72  1  0.73800360  0.90774924  0.25243159  1
  Ca2+  Ca73  1  0.91881104  0.91328139  0.06948424  1
  Ca2+  Ca74  1  0.75144878  0.41872083  0.92813816  1
  Ca2+  Ca75  1  0.58335328  0.90107779  0.75288327  1
  Ca2+  Ca76  1  0.91373263  0.90648041  0.41725220  1
  Ca2+  Ca77  1  0.76477103  0.40755478  0.24166595  1
  Ca2+  Ca78  1  0.25011341  0.40854369  0.07207454  1
  Ca2+  Ca79  1  0.41357284  0.40481619  0.26024343  1
  Ca2+  Ca80  1  0.08428355  0.40383305  0.58251496  1
  Ca2+  Ca81  1  0.42047681  0.90213123  0.25117703  1
  Ca2+  Ca82  1  0.75222533  0.40823998  0.24183964  1
  Ca2+  Ca83  1  0.57697406  0.90248899  0.08140072  1
  Ca2+  Ca84  1  0.92984285  0.91259245  0.06695365  1
  Ca2+  Ca85  1  0.90487809  0.41572667  0.06940639  1
  Ca2+  Ca86  1  0.25345374  0.89555840  0.08247364  1
  Ca2+  Ca87  1  0.23722720  0.40831583  0.07275658  1
  Ca2+  Ca88  1  0.92634506  0.90662900  0.41822416  1
  Ca2+  Ca89  1  0.74100828  0.89981515  0.58015204  1
  Ca2+  Ca90  1  0.41219004  0.41069203  0.89927538  1
  Ca2+  Ca91  1  0.42450069  0.42190030  0.60111719  1
  Ca2+  Ca92  1  0.09128314  0.90965830  0.59590829  1
  Ca2+  Ca93  1  0.08861531  0.90811312  0.90553486  1
  Ca2+  Ca94  1  0.07646159  0.40739364  0.92170982  1
  Ca2+  Ca95  1  0.57203110  0.90114377  0.75396218  1
  Ca2+  Ca96  1  0.24908480  0.40425484  0.42200718  1
  Ca2+  Ca97  1  0.75111390  0.90187781  0.58321712  1
  Ca2+  Ca98  1  0.90749940  0.40740607  0.74301906  1
  Ca2+  Ca99  1  0.72861522  0.91021592  0.24911272  1
  Ca2+  Ca100  1  0.92554725  0.40469994  0.42302337  1
  Ca2+  Ca101  1  0.57669483  0.40651315  0.43466457  1
  Ca2+  Ca102  1  0.07855095  0.40718969  0.25829114  1
  Ca2+  Ca103  1  0.92473493  0.90634194  0.75735215  1
  Ca2+  Ca104  1  0.07636326  0.90705948  0.90802889  1
  Ca2+  Ca105  1  0.59735438  0.41241249  0.06996660  1
  Ca2+  Ca106  1  0.25008528  0.89420500  0.41863285  1
  Ca2+  Ca107  1  0.56957680  0.42246863  0.73034780  1
  Mn3.34+  Mn108  1  0.07782170  0.33510383  0.08453110  1
  Mn3.34+  Mn109  1  0.08504289  0.33636918  0.42059738  1
  Mn3.34+  Mn110  1  0.08280159  0.33488009  0.75118257  1
  Mn3.34+  Mn111  1  0.08733442  0.82562394  0.08618711  1
  Mn3.34+  Mn112  1  0.08568425  0.82852003  0.42027911  1
  Mn3.34+  Mn113  1  0.08711838  0.83378981  0.74703167  1
  Mn3.34+  Mn114  1  0.41771994  0.32993492  0.08672604  1
  Mn3.34+  Mn115  1  0.41587783  0.33616246  0.42308540  1
  Mn3.34+  Mn116  1  0.41391837  0.34063482  0.74738233  1
  Mn3.34+  Mn117  1  0.41684037  0.82937850  0.08183802  1
  Mn3.34+  Mn118  1  0.41614897  0.82774644  0.41952551  1
  Mn3.34+  Mn119  1  0.40896220  0.83117789  0.74943686  1
  Mn3.34+  Mn120  1  0.75102068  0.33504883  0.08184685  1
  Mn3.34+  Mn121  1  0.74885258  0.33476665  0.41984642  1
  Mn3.34+  Mn122  1  0.74855849  0.33753963  0.75150349  1
  Mn3.34+  Mn123  1  0.74872412  0.83021938  0.07991522  1
  Mn3.34+  Mn124  1  0.74521047  0.82614644  0.41737287  1
  Mn3.34+  Mn125  1  0.75228900  0.82996354  0.75373127  1
  Mn3.34+  Mn126  1  0.24993159  0.32922210  0.24923558  1
  Mn3.34+  Mn127  1  0.25157154  0.33624726  0.58655800  1
  Mn3.34+  Mn128  1  0.24856484  0.33111987  0.90623725  1
  Mn3.34+  Mn129  1  0.24614915  0.83497319  0.24905859  1
  Mn3.34+  Mn130  1  0.25204863  0.83273636  0.58333199  1
  Mn3.34+  Mn131  1  0.25581687  0.83081135  0.91228503  1
  Mn3.34+  Mn132  1  0.58117769  0.33306267  0.25189650  1
  Mn3.34+  Mn133  1  0.58369300  0.33789189  0.58440206  1
  Mn3.34+  Mn134  1  0.58182473  0.33480374  0.91155952  1
  Mn3.34+  Mn135  1  0.57901659  0.83407095  0.24870433  1
  Mn3.34+  Mn136  1  0.57512195  0.82930798  0.58024139  1
  Mn3.34+  Mn137  1  0.58468199  0.83139208  0.91719178  1
  Mn3.34+  Mn138  1  0.91910596  0.33531083  0.25171914  1
  Mn3.34+  Mn139  1  0.91429307  0.33642708  0.58255755  1
  Mn3.34+  Mn140  1  0.91582310  0.33100681  0.90927862  1
  Mn3.34+  Mn141  1  0.92238923  0.83631697  0.24442583  1
  Mn3.34+  Mn142  1  0.92090692  0.82778933  0.58333125  1
  Mn3.34+  Mn143  1  0.91006492  0.83245381  0.91096088  1
  Mn3.34+  Mn144  1  0.58823824  0.66275421  0.57452910  1
  Mn3.34+  Mn145  1  0.41516916  0.17000628  0.08743786  1
  Mn3.34+  Mn146  1  0.58462794  0.16198582  0.90981378  1
  Mn3.34+  Mn147  1  0.09284601  0.16191005  0.09306331  1
  Mn3.34+  Mn148  1  0.25563756  0.66878608  0.91496841  1
  Mn3.34+  Mn149  1  0.57792469  0.16220602  0.25844443  1
  Mn3.34+  Mn150  1  0.41520641  0.66844492  0.09002555  1
  Mn3.34+  Mn151  1  0.75304449  0.16625067  0.08693577  1
  Mn3.34+  Mn152  1  0.41952037  0.16481622  0.74750337  1
  Mn3.34+  Mn153  1  0.91074003  0.67008650  0.91181480  1
  Mn3.34+  Mn154  1  0.58799489  0.15700066  0.25661822  1
  Mn3.34+  Mn155  1  0.91367085  0.17106505  0.90375993  1
  Mn3.34+  Mn156  1  0.24570582  0.66335531  0.57511241  1
  Mn3.34+  Mn157  1  0.08342895  0.66685146  0.74442911  1
  Mn3.34+  Mn158  1  0.59125163  0.67425527  0.25309062  1
  Mn3.34+  Mn159  1  0.59541827  0.16696141  0.91203762  1
  Mn3.34+  Mn160  1  0.58135674  0.16679373  0.57778099  1
  Mn3.34+  Mn161  1  0.75176928  0.16688240  0.41926552  1
  Mn3.34+  Mn162  1  0.24749801  0.16660989  0.91192234  1
  Mn3.34+  Mn163  1  0.41399492  0.16806436  0.42218931  1
  Mn3.34+  Mn164  1  0.91510354  0.16533667  0.25324574  1
  Mn3.34+  Mn165  1  0.93009611  0.66358112  0.25127678  1
  Mn3.34+  Mn166  1  0.75372144  0.66570034  0.08366186  1
  Mn3.34+  Mn167  1  0.08221199  0.16720748  0.41996108  1
  Mn3.34+  Mn168  1  0.25060557  0.16642655  0.25266197  1
  Mn3.34+  Mn169  1  0.24871398  0.67575896  0.91565696  1
  Mn3.34+  Mn170  1  0.40727598  0.17629595  0.08514205  1
  Mn3.34+  Mn171  1  0.23848490  0.66771988  0.24612163  1
  Mn3.34+  Mn172  1  0.91749352  0.16855406  0.58127782  1
  Mn3.34+  Mn173  1  0.58175858  0.67982532  0.25244265  1
  Mn3.34+  Mn174  1  0.91718234  0.66749271  0.25537282  1
  Mn3.34+  Mn175  1  0.91353684  0.17551739  0.91433313  1
  Mn3.34+  Mn176  1  0.41895751  0.66539581  0.74713119  1
  Mn3.34+  Mn177  1  0.75227881  0.16790549  0.74928084  1
  Mn3.34+  Mn178  1  0.07784828  0.16600804  0.08752710  1
  Mn3.34+  Mn179  1  0.40974235  0.15940418  0.74944983  1
  Mn3.34+  Mn180  1  0.74718860  0.50801028  0.42497700  1
  Mn3.34+  Mn181  1  0.75152719  -0.00188353  0.08233641  1
  Mn3.34+  Mn182  1  0.24585685  -0.00040600  0.25314855  1
  Mn3.34+  Mn183  1  0.57850152  -0.00372066  0.91955865  1
  Mn3.34+  Mn184  1  0.24657987  0.49877515  0.91105073  1
  Mn3.34+  Mn185  1  0.09178760  0.49902880  0.74575601  1
  Mn3.34+  Mn186  1  0.91963097  0.00130791  0.58484959  1
  Mn3.34+  Mn187  1  0.07721237  0.50478823  0.41082298  1
  Mn3.34+  Mn188  1  0.41806043  0.50144515  0.08705752  1
  Mn3.34+  Mn189  1  0.73015844  0.00076836  0.40434550  1
  Mn3.34+  Mn190  1  0.41492081  0.50160116  0.41675026  1
  Mn3.34+  Mn191  1  0.25801296  0.50198711  0.58777261  1
  Mn3.34+  Mn192  1  0.25312001  -0.00476162  0.59502753  1
  Mn3.34+  Mn193  1  0.23718985  0.50319741  0.25063577  1
  Mn3.34+  Mn194  1  0.75935130  0.50154721  0.42437852  1
  Mn3.34+  Mn195  1  0.08001053  0.50647288  0.74459010  1
  Mn3.34+  Mn196  1  0.08392521  0.50443963  0.08366570  1
  Mn3.34+  Mn197  1  0.24922677  0.50840543  0.25395603  1
  Mn3.34+  Mn198  1  0.25346281  -0.00108858  0.91315616  1
  Mn3.34+  Mn199  1  0.58622845  0.50066147  0.24794689  1
  Mn3.34+  Mn200  1  0.58828220  0.49785379  0.91453998  1
  Mn3.34+  Mn201  1  0.74743070  0.49569940  0.73260820  1
  Mn3.34+  Mn202  1  0.42753204  -0.00126545  0.41577290  1
  Mn3.34+  Mn203  1  0.08924995  -0.00038329  0.08297458  1
  Mn3.34+  Mn204  1  0.41041511  -0.00522891  0.74376157  1
  Mn3.34+  Mn205  1  0.91425897  0.50377319  0.58469435  1
  Mn3.34+  Mn206  1  0.92641906  0.50221371  0.25443598  1
  Mn3.34+  Mn207  1  0.40416962  0.50821465  0.08564972  1
  Mn3.34+  Mn208  1  0.91147043  0.49976613  0.91903333  1
  Mn3.34+  Mn209  1  0.43703458  -0.00664557  0.41284507  1
  Mn3.34+  Mn210  1  0.75339187  0.00147248  0.75043484  1
  Mn3.34+  Mn211  1  0.09006074  -0.00035989  0.41809917  1
  Mn3.34+  Mn212  1  0.57483992  -0.00056938  0.58352555  1
  Mn3.34+  Mn213  1  0.41042778  -0.00301854  0.08840437  1
  Mn3.34+  Mn214  1  0.57230438  0.50725146  0.24942333  1
  Mn3.34+  Mn215  1  0.92190873  -0.00009217  0.25683995  1
  O2-  O216  1  -0.00217546  0.15406733  -0.00324631  1
  O2-  O217  1  0.00070601  0.15355585  0.33343765  1
  O2-  O218  1  -0.00175976  0.15938919  0.65913639  1
  O2-  O219  1  -0.00523618  0.66806742  -0.00411140  1
  O2-  O220  1  0.00571868  0.66554093  0.33142592  1
  O2-  O221  1  -0.00040959  0.65833702  0.67722553  1
  O2-  O222  1  0.32948913  0.15346631  0.00013205  1
  O2-  O223  1  0.33266429  0.16218810  0.33389241  1
  O2-  O224  1  0.32759364  0.15695935  0.67105136  1
  O2-  O225  1  0.33540169  0.66258831  -0.00308099  1
  O2-  O226  1  0.32185090  0.68433314  0.31882051  1
  O2-  O227  1  0.33617773  0.66139999  0.66658773  1
  O2-  O228  1  0.66657143  0.14525003  0.00603264  1
  O2-  O229  1  0.67588166  0.15275314  0.33369068  1
  O2-  O230  1  0.67067333  0.15760655  0.66515951  1
  O2-  O231  1  0.67113633  0.66148787  0.00495420  1
  O2-  O232  1  0.67152779  0.68831122  0.32981471  1
  O2-  O233  1  0.66490175  0.66614926  0.66611629  1
  O2-  O234  1  0.16607770  0.14843381  -0.00084168  1
  O2-  O235  1  0.16472008  0.16132048  0.33433514  1
  O2-  O236  1  0.15953820  0.16675783  0.66796932  1
  O2-  O237  1  0.16403895  0.67895493  -0.00636289  1
  O2-  O238  1  0.17231752  0.67721982  0.32665608  1
  O2-  O239  1  0.17533657  0.65891196  0.67846398  1
  O2-  O240  1  0.49982088  0.14836360  0.00252592  1
  O2-  O241  1  0.48951895  0.15581617  0.33023332  1
  O2-  O242  1  0.50075338  0.14702932  0.66616244  1
  O2-  O243  1  0.49994523  0.64968881  0.01301473  1
  O2-  O244  1  0.50044106  0.67357214  0.33013358  1
  O2-  O245  1  0.50321636  0.65494637  0.67153305  1
  O2-  O246  1  0.83222846  0.15324337  -0.00700708  1
  O2-  O247  1  0.83457021  0.15228624  0.33555661  1
  O2-  O248  1  0.83328557  0.15590615  0.66541534  1
  O2-  O249  1  0.83367092  0.65089203  0.00001128  1
  O2-  O250  1  0.83157712  0.66794310  0.32420243  1
  O2-  O251  1  0.82312336  0.67857911  0.66894075  1
  O2-  O252  1  -0.00435068  0.33995638  -0.00356240  1
  O2-  O253  1  0.00066934  0.34420238  0.33659438  1
  O2-  O254  1  -0.00101537  0.33718158  0.66994949  1
  O2-  O255  1  0.00437691  0.83807804  -0.00438780  1
  O2-  O256  1  -0.00473597  0.84329754  0.33723475  1
  O2-  O257  1  -0.00386119  0.84683223  0.66870479  1
  O2-  O258  1  0.32992318  0.33656888  0.00654422  1
  O2-  O259  1  0.33377214  0.33855908  0.33184749  1
  O2-  O260  1  0.33957939  0.34154937  0.65974969  1
  O2-  O261  1  0.32684096  0.82903037  0.00584143  1
  O2-  O262  1  0.33314027  0.83684881  0.32824464  1
  O2-  O263  1  0.33320499  0.83231299  0.66448482  1
  O2-  O264  1  0.66850362  0.34576410  -0.00438368  1
  O2-  O265  1  0.67056824  0.35138088  0.32773499  1
  O2-  O266  1  0.66728889  0.32919270  0.66830841  1
  O2-  O267  1  0.66264211  0.83840521  0.00514136  1
  O2-  O268  1  0.67075657  0.82558061  0.32538623  1
  O2-  O269  1  0.66836308  0.83706609  0.66934775  1
  O2-  O270  1  0.16339640  0.34316009  -0.00156522  1
  O2-  O271  1  0.16469977  0.33910680  0.32907477  1
  O2-  O272  1  0.16030700  0.33047363  0.66300042  1
  O2-  O273  1  0.16472877  0.82127387  -0.00162466  1
  O2-  O274  1  0.16930784  0.82711252  0.33826277  1
  O2-  O275  1  0.16569609  0.83943183  0.66571415  1
  O2-  O276  1  0.49835724  0.34156917  0.00205725  1
  O2-  O277  1  0.49999272  0.34571563  0.33766308  1
  O2-  O278  1  0.50202856  0.34081638  0.66878519  1
  O2-  O279  1  0.50183179  0.84054855  0.00101462  1
  O2-  O280  1  0.49642024  0.82690279  0.32712697  1
  O2-  O281  1  0.50413027  0.84307620  0.67079623  1
  O2-  O282  1  0.83522545  0.33632899  -0.00231449  1
  O2-  O283  1  0.83174822  0.34997073  0.33123537  1
  O2-  O284  1  0.83436007  0.32985533  0.67246567  1
  O2-  O285  1  0.84012805  0.84641558  0.00648502  1
  O2-  O286  1  0.82761643  0.85130366  0.33054288  1
  O2-  O287  1  0.82920109  0.83674391  0.66029294  1
  O2-  O288  1  -0.00191296  0.17949163  0.17138286  1
  O2-  O289  1  -0.00420261  0.17196488  0.49760252  1
  O2-  O290  1  0.00444605  0.18499778  0.83423298  1
  O2-  O291  1  -0.00435397  0.68000635  0.16509415  1
  O2-  O292  1  0.00006385  0.66193985  0.51034170  1
  O2-  O293  1  0.00495457  0.67248617  0.84062646  1
  O2-  O294  1  0.33258235  0.19433219  0.17349412  1
  O2-  O295  1  0.33325659  0.17387666  0.49626996  1
  O2-  O296  1  0.33555906  0.17937540  0.83635521  1
  O2-  O297  1  0.33735760  0.68597028  0.16946343  1
  O2-  O298  1  0.33179334  0.67484858  0.51081809  1
  O2-  O299  1  0.33419702  0.67684373  0.83257145  1
  O2-  O300  1  0.66143525  0.17400491  0.16839365  1
  O2-  O301  1  0.67415440  0.17920268  0.50584790  1
  O2-  O302  1  0.66853959  0.19140817  0.82247902  1
  O2-  O303  1  0.66753930  0.68812329  0.16765865  1
  O2-  O304  1  0.66720505  0.68322260  0.50635714  1
  O2-  O305  1  0.66402577  0.67163995  0.82254910  1
  O2-  O306  1  0.16965690  0.19119241  0.17523663  1
  O2-  O307  1  0.15853295  0.17211143  0.50143587  1
  O2-  O308  1  0.16259808  0.17425883  0.84103137  1
  O2-  O309  1  0.17282362  0.69931898  0.17413571  1
  O2-  O310  1  0.16556750  0.67294580  0.50590460  1
  O2-  O311  1  0.16431815  0.68456908  0.83860920  1
  O2-  O312  1  0.50564752  0.18570572  0.16209377  1
  O2-  O313  1  0.49402165  0.17706529  0.50499895  1
  O2-  O314  1  0.49480258  0.17883800  0.83260254  1
  O2-  O315  1  0.50579290  0.68418457  0.16877359  1
  O2-  O316  1  0.49840134  0.67439373  0.51332240  1
  O2-  O317  1  0.49914882  0.67195612  0.82739209  1
  O2-  O318  1  0.83470149  0.17860385  0.16765900  1
  O2-  O319  1  0.83046274  0.17465575  0.50294357  1
  O2-  O320  1  0.83339192  0.19452283  0.82560581  1
  O2-  O321  1  0.83522616  0.67291905  0.16768055  1
  O2-  O322  1  0.82833387  0.68866569  0.50447803  1
  O2-  O323  1  0.83365136  0.67628747  0.83340034  1
  O2-  O324  1  0.00075092  0.32587639  0.16929618  1
  O2-  O325  1  0.00278017  0.32648233  0.50261187  1
  O2-  O326  1  0.00042384  0.30906619  0.83193071  1
  O2-  O327  1  -0.01005207  0.82227155  0.15026156  1
  O2-  O328  1  -0.00457852  0.83516030  0.49806550  1
  O2-  O329  1  -0.00077757  0.82496130  0.83423222  1
  O2-  O330  1  0.33334084  0.31216855  0.16777943  1
  O2-  O331  1  0.32878155  0.32712967  0.49590148  1
  O2-  O332  1  0.33846651  0.32779979  0.83476603  1
  O2-  O333  1  0.33388905  0.81777387  0.16784165  1
  O2-  O334  1  0.32383044  0.82440989  0.49334398  1
  O2-  O335  1  0.33370137  0.80791322  0.83488897  1
  O2-  O336  1  0.66877864  0.32825849  0.16888081  1
  O2-  O337  1  0.65965752  0.32376931  0.49472728  1
  O2-  O338  1  0.66580648  0.31864964  0.83098170  1
  O2-  O339  1  0.66851328  0.81767359  0.16797491  1
  O2-  O340  1  0.67482437  0.82068055  0.51034743  1
  O2-  O341  1  0.66306384  0.81858961  0.82623795  1
  O2-  O342  1  0.17208711  0.32245235  0.16227565  1
  O2-  O343  1  0.16823842  0.32772019  0.49981235  1
  O2-  O344  1  0.16458738  0.31492705  0.82857840  1
  O2-  O345  1  0.16981279  0.81588006  0.16513111  1
  O2-  O346  1  0.16239770  0.83142789  0.50400515  1
  O2-  O347  1  0.16120581  0.82099521  0.83966819  1
  O2-  O348  1  0.49812814  0.31600569  0.16945833  1
  O2-  O349  1  0.49866978  0.32428081  0.50231992  1
  O2-  O350  1  0.49738705  0.32334729  0.83341461  1
  O2-  O351  1  0.50149860  0.82066539  0.16548456  1
  O2-  O352  1  0.49936429  0.82152951  0.49921358  1
  O2-  O353  1  0.50719861  0.82447789  0.82808799  1
  O2-  O354  1  0.82899491  0.32364797  0.17172048  1
  O2-  O355  1  0.83798761  0.32471236  0.49324270  1
  O2-  O356  1  0.83221537  0.31259237  0.83206106  1
  O2-  O357  1  0.82726579  0.83216847  0.17082831  1
  O2-  O358  1  0.83594882  0.82719249  0.49557841  1
  O2-  O359  1  0.83844880  0.81636516  0.82477695  1
  O2-  O360  1  0.08901322  0.07898015  0.12724707  1
  O2-  O361  1  0.08219397  0.08064273  0.45104426  1
  O2-  O362  1  0.08186710  0.07115662  0.76883899  1
  O2-  O363  1  0.07206505  0.58325741  0.07024212  1
  O2-  O364  1  0.07787176  0.57379544  0.44645725  1
  O2-  O365  1  0.09274440  0.58113656  0.79436740  1
  O2-  O366  1  0.42184492  0.08277593  0.12423283  1
  O2-  O367  1  0.41401275  0.08079053  0.44118952  1
  O2-  O368  1  0.41861350  0.07618049  0.78919051  1
  O2-  O369  1  0.42338573  0.58473205  0.12799218  1
  O2-  O370  1  0.41340921  0.57905487  0.42651826  1
  O2-  O371  1  0.41490142  0.58308341  0.77344639  1
  O2-  O372  1  0.74246504  0.07885274  0.11703475  1
  O2-  O373  1  0.75688329  0.08068887  0.44727588  1
  O2-  O374  1  0.75333119  0.08103449  0.78791561  1
  O2-  O375  1  0.73024067  0.58551280  0.11707542  1
  O2-  O376  1  0.75124542  0.58700045  0.43526809  1
  O2-  O377  1  0.74809824  0.56787761  0.77876459  1
  O2-  O378  1  0.25697350  0.07933513  0.21283380  1
  O2-  O379  1  0.24468976  0.06927762  0.54810243  1
  O2-  O380  1  0.24786285  0.08109474  0.87883281  1
  O2-  O381  1  0.25924244  0.58704826  0.22341051  1
  O2-  O382  1  0.26132450  0.57999124  0.56803217  1
  O2-  O383  1  0.23696335  0.58233979  0.88993049  1
  O2-  O384  1  0.57689988  0.07838315  0.21700431  1
  O2-  O385  1  0.59861762  0.08269518  0.56060686  1
  O2-  O386  1  0.58770869  0.07837511  0.87403580  1
  O2-  O387  1  0.59112726  0.58827972  0.22355777  1
  O2-  O388  1  0.59043866  0.58361541  0.58034614  1
  O2-  O389  1  0.58763732  0.57818269  0.89427863  1
  O2-  O390  1  0.91494463  0.08115405  0.22117642  1
  O2-  O391  1  0.90538556  0.08159886  0.55711660  1
  O2-  O392  1  0.92840087  0.08192041  0.88170982  1
  O2-  O393  1  0.91119701  0.58205882  0.21651043  1
  O2-  O394  1  0.89301473  0.57816463  0.56888243  1
  O2-  O395  1  0.92886345  0.58162494  0.89657255  1
  O2-  O396  1  0.10162448  0.42362420  0.11808806  1
  O2-  O397  1  0.08517514  0.42606602  0.45050258  1
  O2-  O398  1  0.06550250  0.42194282  0.78638317  1
  O2-  O399  1  0.08262216  0.91700216  0.08865041  1
  O2-  O400  1  0.07074961  0.92002908  0.44248905  1
  O2-  O401  1  0.07421228  0.91814097  0.77404181  1
  O2-  O402  1  0.39556166  0.41996513  0.11521932  1
  O2-  O403  1  0.41714915  0.42087060  0.45032093  1
  O2-  O404  1  0.42773091  0.41994845  0.76568461  1
  O2-  O405  1  0.41376557  0.91353825  0.10880044  1
  O2-  O406  1  0.40965406  0.91322517  0.42433847  1
  O2-  O407  1  0.43023495  0.91588326  0.77296537  1
  O2-  O408  1  0.75273091  0.41883134  0.10755623  1
  O2-  O409  1  0.74613850  0.42084351  0.43971184  1
  O2-  O410  1  0.75866361  0.42465206  0.78696894  1
  O2-  O411  1  0.74591635  0.91787248  0.11050771  1
  O2-  O412  1  0.75879672  0.92186620  0.44942487  1
  O2-  O413  1  0.74262694  0.91938504  0.75524373  1
  O2-  O414  1  0.25485508  0.42266127  0.20870390  1
  O2-  O415  1  0.24495000  0.42296044  0.55683045  1
  O2-  O416  1  0.25432340  0.41538789  0.90697447  1
  O2-  O417  1  0.26116534  0.92158127  0.21865072  1
  O2-  O418  1  0.24250129  0.92039104  0.55684891  1
  O2-  O419  1  0.22702777  0.91773736  0.91819017  1
  O2-  O420  1  0.57935081  0.42198811  0.21117022  1
  O2-  O421  1  0.57338215  0.41801041  0.57173791  1
  O2-  O422  1  0.58276690  0.41764364  0.88958447  1
  O2-  O423  1  0.59735181  0.91647537  0.21765866  1
  O2-  O424  1  0.60333088  0.91635836  0.57572325  1
  O2-  O425  1  0.59038393  0.91575511  0.88711332  1
  O2-  O426  1  0.90211473  0.42273442  0.21100960  1
  O2-  O427  1  0.92679921  0.42181085  0.55943889  1
  O2-  O428  1  0.91343522  0.42031547  0.88503487  1
  O2-  O429  1  0.91318539  0.92124730  0.21306230  1
  O2-  O430  1  0.90316718  0.92062296  0.55732275  1
  O2-  O431  1  0.93426247  0.91713571  0.90450992  1
  O2-  O432  1  -0.00254525  0.00230364  0.01723548  1
  O2-  O433  1  -0.00474873  0.00551012  0.34994660  1
  O2-  O434  1  0.00170665  0.00748196  0.65178534  1
  O2-  O435  1  0.00233212  0.49061401  -0.00556516  1
  O2-  O436  1  -0.00126911  0.47781503  0.33966276  1
  O2-  O437  1  0.00415566  0.49615873  0.65957516  1
  O2-  O438  1  0.32826135  0.01483154  0.00291548  1
  O2-  O439  1  0.33009961  0.00644616  0.34049354  1
  O2-  O440  1  0.32911478  0.02330086  0.66910878  1
  O2-  O441  1  0.33618147  0.49420040  -0.00817685  1
  O2-  O442  1  0.33599167  0.48737649  0.32950337  1
  O2-  O443  1  0.34968283  0.50327108  0.64502577  1
  O2-  O444  1  0.66561732  0.01329564  0.00474140  1
  O2-  O445  1  0.69009847  -0.00209273  0.29372086  1
  O2-  O446  1  0.67711929  0.01282675  0.65782739  1
  O2-  O447  1  0.65762024  0.50040490  0.00575400  1
  O2-  O448  1  0.66465578  0.50157046  0.33532177  1
  O2-  O449  1  0.64511984  0.50313118  0.69810943  1
  O2-  O450  1  0.15583908  0.01806276  -0.01763927  1
  O2-  O451  1  0.16662322  0.01740611  0.33464061  1
  O2-  O452  1  0.15816315  0.00929558  0.64602662  1
  O2-  O453  1  0.16897849  0.48855292  0.00156126  1
  O2-  O454  1  0.16512620  0.48581188  0.33946467  1
  O2-  O455  1  0.17502675  0.50187879  0.66612232  1
  O2-  O456  1  0.50487514  0.01470356  0.01387094  1
  O2-  O457  1  0.48801681  0.00177991  0.31224688  1
  O2-  O458  1  0.51652248  -0.00015713  0.69143466  1
  O2-  O459  1  0.49792565  0.50676791  -0.00206728  1
  O2-  O460  1  0.49983575  0.48847237  0.33539014  1
  O2-  O461  1  0.50385127  0.50976625  0.67681992  1
  O2-  O462  1  0.84780783  0.00304219  0.02395246  1
  O2-  O463  1  0.84073260  -0.00429769  0.34419689  1
  O2-  O464  1  0.83110789  0.00807208  0.65972500  1
  O2-  O465  1  0.83392097  0.49404773  -0.00686374  1
  O2-  O466  1  0.82023539  0.49801457  0.31905846  1
  O2-  O467  1  0.84555523  0.49763166  0.68078322  1
  O2-  O468  1  0.91500339  0.24995222  0.59077946  1
  O2-  O469  1  0.25395497  0.25550884  0.58983768  1
  O2-  O470  1  0.42794293  0.74806559  0.05823341  1
  O2-  O471  1  0.42478307  0.74994902  0.73091344  1
  O2-  O472  1  0.74417177  0.24987091  0.06486170  1
  O2-  O473  1  0.75257277  0.25030799  0.39600419  1
  O2-  O474  1  0.58362240  0.75198204  0.92930224  1
  O2-  O475  1  0.91526690  0.24853850  0.27157911  1
  O2-  O476  1  0.08485314  0.24796197  0.05833240  1
  O2-  O477  1  0.91415744  0.75148633  0.93489459  1
  O2-  O478  1  0.92890554  0.74973469  0.58839126  1
  O2-  O479  1  0.07634431  0.75028395  0.73460520  1
  O2-  O480  1  0.76607648  0.74889608  0.06521838  1
  O2-  O481  1  0.42264477  0.25156066  0.40497936  1
  O2-  O482  1  0.25043517  0.24839271  0.93860194  1
  O2-  O483  1  0.07350086  0.75047848  0.42097517  1
  O2-  O484  1  0.41807109  0.25036842  0.73320595  1
  O2-  O485  1  0.41280685  0.75027959  0.41378725  1
  O2-  O486  1  0.57565576  0.75077864  0.60364173  1
  O2-  O487  1  0.91220801  0.75291343  0.26399639  1
  O2-  O488  1  0.57842617  0.24857581  0.59715438  1
  O2-  O489  1  0.58271438  0.25017110  0.94355718  1
  O2-  O490  1  0.24317443  0.75011847  0.59452837  1
  O2-  O491  1  0.07698001  0.24978042  0.40464959  1
  O2-  O492  1  0.58947568  0.24479783  0.27675765  1
