# generated using pymatgen
data_Ca108Mn108O277
_symmetry_space_group_name_H-M   'P 1'
_cell_length_a   16.03242785
_cell_length_b   22.31545028
_cell_length_c   16.39384567
_cell_angle_alpha   89.99690145
_cell_angle_beta   90.00004133
_cell_angle_gamma   90.00725155
_symmetry_Int_Tables_number   1
_chemical_formula_structural   Ca108Mn108O277
_chemical_formula_sum   'Ca108 Mn108 O277'
_cell_volume   5865.23998733
_cell_formula_units_Z   1
loop_
 _symmetry_equiv_pos_site_id
 _symmetry_equiv_pos_as_xyz
  1  'x, y, z'
loop_
 _atom_type_symbol
 _atom_type_oxidation_number
  Ca2+  2.0
  Mn3.34+  3.34
  O2-  -2.0
loop_
 _atom_site_type_symbol
 _atom_site_label
 _atom_site_symmetry_multiplicity
 _atom_site_fract_x
 _atom_site_fract_y
 _atom_site_fract_z
 _atom_site_occupancy
  Ca2+  Ca0  1  0.09318617  0.25876279  0.25748612  1
  Ca2+  Ca1  1  0.08711051  0.24559655  0.57274373  1
  Ca2+  Ca2  1  0.09352539  0.25314047  0.91516512  1
  Ca2+  Ca3  1  0.08923721  0.75624129  0.24994409  1
  Ca2+  Ca4  1  0.07886448  0.75008912  0.59335163  1
  Ca2+  Ca5  1  0.10356705  0.76601168  0.91929236  1
  Ca2+  Ca6  1  0.43476080  0.24099139  0.22846004  1
  Ca2+  Ca7  1  0.40774988  0.24759886  0.58548642  1
  Ca2+  Ca8  1  0.43109255  0.25296294  0.93008831  1
  Ca2+  Ca9  1  0.41105201  0.74779671  0.22120563  1
  Ca2+  Ca10  1  0.42488333  0.75999464  0.59218400  1
  Ca2+  Ca11  1  0.39103896  0.74454642  0.92808367  1
  Ca2+  Ca12  1  0.72255999  0.23331827  0.24195791  1
  Ca2+  Ca13  1  0.74766357  0.25976282  0.57551439  1
  Ca2+  Ca14  1  0.72038523  0.24208374  0.93439951  1
  Ca2+  Ca15  1  0.74959329  0.75701380  0.25391329  1
  Ca2+  Ca16  1  0.73374926  0.74337285  0.58683551  1
  Ca2+  Ca17  1  0.73723892  0.76268569  0.91174205  1
  Ca2+  Ca18  1  0.27622393  0.24466969  0.08655892  1
  Ca2+  Ca19  1  0.23945051  0.24475413  0.42689468  1
  Ca2+  Ca20  1  0.27192624  0.24303174  0.73678905  1
  Ca2+  Ca21  1  0.25967102  0.75224900  0.06881518  1
  Ca2+  Ca22  1  0.23826874  0.75414298  0.42192038  1
  Ca2+  Ca23  1  0.24327376  0.75337855  0.76594064  1
  Ca2+  Ca24  1  0.58174180  0.24317496  0.08213481  1
  Ca2+  Ca25  1  0.58729039  0.24098852  0.40634434  1
  Ca2+  Ca26  1  0.56833467  0.23476001  0.75505495  1
  Ca2+  Ca27  1  0.56107307  0.75380218  0.07869172  1
  Ca2+  Ca28  1  0.58954298  0.75270131  0.43438895  1
  Ca2+  Ca29  1  0.58153277  0.75646469  0.73754118  1
  Ca2+  Ca30  1  0.88865773  0.25313512  0.08964616  1
  Ca2+  Ca31  1  0.91932000  0.23500810  0.44510684  1
  Ca2+  Ca32  1  0.91008934  0.24324606  0.72419793  1
  Ca2+  Ca33  1  0.92584986  0.75982427  0.08293405  1
  Ca2+  Ca34  1  0.91684616  0.74916051  0.42823803  1
  Ca2+  Ca35  1  0.91823011  0.75389604  0.73767987  1
  Ca2+  Ca36  1  0.59168973  0.09788267  0.09642342  1
  Ca2+  Ca37  1  0.26074867  0.09294332  0.74230998  1
  Ca2+  Ca38  1  0.27123803  0.09154223  0.08792827  1
  Ca2+  Ca39  1  0.29675336  0.60162154  0.06047566  1
  Ca2+  Ca40  1  0.84421345  0.08831327  0.08419663  1
  Ca2+  Ca41  1  0.57460595  0.57310670  0.68687495  1
  Ca2+  Ca42  1  0.71032924  0.09706797  0.91938399  1
  Ca2+  Ca43  1  0.93326646  0.61092119  0.72554571  1
  Ca2+  Ca44  1  0.28653093  0.60077535  0.05824269  1
  Ca2+  Ca45  1  0.44929641  0.11456782  0.90196500  1
  Ca2+  Ca46  1  0.08823423  0.09423936  0.57160654  1
  Ca2+  Ca47  1  0.09191459  0.56670794  0.29037511  1
  Ca2+  Ca48  1  0.44237523  0.11188318  0.89549963  1
  Ca2+  Ca49  1  0.09747386  0.09276720  0.56708122  1
  Ca2+  Ca50  1  0.12066863  0.62463143  0.89205165  1
  Ca2+  Ca51  1  0.56836875  0.56273787  0.43769739  1
  Ca2+  Ca52  1  0.10003275  0.07247128  0.28948585  1
  Ca2+  Ca53  1  0.55397638  0.58452281  0.09020876  1
  Ca2+  Ca54  1  0.76066170  0.11479325  0.58321697  1
  Ca2+  Ca55  1  0.75111075  0.58651300  0.93428259  1
  Ca2+  Ca56  1  0.73823460  0.58657319  0.93366095  1
  Ca2+  Ca57  1  0.91655721  0.60983946  0.43368086  1
  Ca2+  Ca58  1  0.25476415  0.55666532  0.41070724  1
  Ca2+  Ca59  1  0.06315752  0.60919621  0.57296558  1
  Ca2+  Ca60  1  0.28146794  0.09431083  0.08615837  1
  Ca2+  Ca61  1  0.57467130  0.56437661  0.42918660  1
  Ca2+  Ca62  1  0.60157631  0.09741880  0.09470069  1
  Ca2+  Ca63  1  0.74529909  0.60680381  0.57481142  1
  Ca2+  Ca64  1  0.92052227  0.61098749  0.72349375  1
  Ca2+  Ca65  1  0.27015898  0.09501899  0.74591441  1
  Ca2+  Ca66  1  0.58469309  0.57259893  0.69168464  1
  Ca2+  Ca67  1  0.44630723  0.10563250  0.25241667  1
  Ca2+  Ca68  1  0.12865000  0.62080187  0.89624960  1
  Ca2+  Ca69  1  0.77123145  0.11542548  0.58275364  1
  Ca2+  Ca70  1  0.25289823  0.10173394  0.42233144  1
  Ca2+  Ca71  1  0.40340999  0.11042702  0.58989775  1
  Ca2+  Ca72  1  0.72278809  0.91087553  0.23671041  1
  Ca2+  Ca73  1  0.44019519  0.90405504  0.24915785  1
  Ca2+  Ca74  1  0.57559072  0.40898222  0.42538977  1
  Ca2+  Ca75  1  0.43587518  0.40714802  0.91486204  1
  Ca2+  Ca76  1  0.43875534  0.43617935  0.28000077  1
  Ca2+  Ca77  1  0.26377777  0.40700929  0.72786525  1
  Ca2+  Ca78  1  0.24743132  0.91125710  0.42414968  1
  Ca2+  Ca79  1  0.92575391  0.90098073  0.41704030  1
  Ca2+  Ca80  1  0.08687765  0.40194458  0.91673903  1
  Ca2+  Ca81  1  0.90636214  0.39249827  0.74964095  1
  Ca2+  Ca82  1  0.71583991  0.41432780  0.59274896  1
  Ca2+  Ca83  1  0.57632087  0.90520672  0.75170034  1
  Ca2+  Ca84  1  0.92097387  0.40586576  0.41021086  1
  Ca2+  Ca85  1  0.23476779  0.91102795  0.42570443  1
  Ca2+  Ca86  1  0.42952217  0.43349868  0.28353796  1
  Ca2+  Ca87  1  0.26090237  0.41719586  0.40820523  1
  Ca2+  Ca88  1  0.90823326  0.40157401  0.08450419  1
  Ca2+  Ca89  1  0.26296875  0.40315730  0.09342353  1
  Ca2+  Ca90  1  0.09691915  0.40569422  0.56918501  1
  Ca2+  Ca91  1  0.27088398  0.41024928  0.73401906  1
  Ca2+  Ca92  1  0.25586451  0.91256736  0.07392260  1
  Ca2+  Ca93  1  0.10626746  0.42416558  0.28106763  1
  Ca2+  Ca94  1  0.09778230  0.40491930  0.91182354  1
  Ca2+  Ca95  1  0.10643406  0.40622006  0.56304531  1
  Ca2+  Ca96  1  0.59293768  0.91575946  0.07838779  1
  Ca2+  Ca97  1  0.74917408  0.89823388  0.58443953  1
  Ca2+  Ca98  1  0.72266444  0.41220518  0.25051337  1
  Ca2+  Ca99  1  0.90177393  0.90859611  0.07267180  1
  Ca2+  Ca100  1  0.74400105  0.91312162  0.92983585  1
  Ca2+  Ca101  1  0.91440423  0.90063847  0.74937182  1
  Ca2+  Ca102  1  0.08967441  0.90988801  0.91204351  1
  Ca2+  Ca103  1  0.73196787  0.41511132  0.25328433  1
  Ca2+  Ca104  1  0.09860203  0.91146994  0.26057218  1
  Ca2+  Ca105  1  0.25358170  0.40660593  0.09764962  1
  Ca2+  Ca106  1  0.73337041  0.40246405  0.91346746  1
  Ca2+  Ca107  1  0.08733174  0.91136844  0.26190377  1
  Mn3.34+  Mn108  1  0.08039132  0.33172919  0.08991020  1
  Mn3.34+  Mn109  1  0.08298370  0.33390753  0.41162402  1
  Mn3.34+  Mn110  1  0.08166770  0.33018143  0.74652808  1
  Mn3.34+  Mn111  1  0.08267680  0.83657945  0.08603741  1
  Mn3.34+  Mn112  1  0.08299014  0.83027353  0.42318027  1
  Mn3.34+  Mn113  1  0.08651622  0.84655495  0.74849710  1
  Mn3.34+  Mn114  1  0.42693083  0.33522213  0.08705232  1
  Mn3.34+  Mn115  1  0.41835862  0.33543612  0.42202400  1
  Mn3.34+  Mn116  1  0.43127741  0.33966516  0.74777992  1
  Mn3.34+  Mn117  1  0.41801124  0.83595287  0.07812584  1
  Mn3.34+  Mn118  1  0.41974708  0.83412026  0.41823941  1
  Mn3.34+  Mn119  1  0.41291203  0.83556404  0.75317113  1
  Mn3.34+  Mn120  1  0.74192538  0.33422309  0.08413858  1
  Mn3.34+  Mn121  1  0.75109705  0.33413439  0.41873889  1
  Mn3.34+  Mn122  1  0.74190064  0.33143084  0.75194898  1
  Mn3.34+  Mn123  1  0.74718680  0.83183220  0.08556763  1
  Mn3.34+  Mn124  1  0.74946337  0.83347312  0.42006557  1
  Mn3.34+  Mn125  1  0.74810345  0.83477142  0.75362986  1
  Mn3.34+  Mn126  1  0.25647550  0.33292433  0.25261724  1
  Mn3.34+  Mn127  1  0.25897725  0.32988184  0.57434758  1
  Mn3.34+  Mn128  1  0.25867200  0.32963435  0.91209946  1
  Mn3.34+  Mn129  1  0.25707535  0.83437686  0.24584815  1
  Mn3.34+  Mn130  1  0.24978665  0.83316551  0.59433361  1
  Mn3.34+  Mn131  1  0.25609889  0.84096454  0.91143317  1
  Mn3.34+  Mn132  1  0.57833940  0.33396375  0.25160089  1
  Mn3.34+  Mn133  1  0.57669113  0.33101931  0.58290360  1
  Mn3.34+  Mn134  1  0.58254813  0.33089371  0.91740087  1
  Mn3.34+  Mn135  1  0.58125677  0.83161328  0.25005931  1
  Mn3.34+  Mn136  1  0.57979633  0.83401364  0.58123120  1
  Mn3.34+  Mn137  1  0.57315428  0.83689101  0.91435491  1
  Mn3.34+  Mn138  1  0.91494669  0.33599185  0.24951401  1
  Mn3.34+  Mn139  1  0.91599524  0.33059379  0.57947375  1
  Mn3.34+  Mn140  1  0.91093727  0.32913772  0.91482621  1
  Mn3.34+  Mn141  1  0.91243958  0.83069231  0.24776100  1
  Mn3.34+  Mn142  1  0.91800325  0.82946473  0.58321353  1
  Mn3.34+  Mn143  1  0.91767863  0.82789839  0.91258971  1
  Mn3.34+  Mn144  1  0.90898203  0.16493944  0.25467158  1
  Mn3.34+  Mn145  1  0.74420457  0.67016155  0.75354687  1
  Mn3.34+  Mn146  1  0.07375782  0.15776621  0.08679013  1
  Mn3.34+  Mn147  1  0.40605469  0.65685157  0.75362687  1
  Mn3.34+  Mn148  1  0.90725997  0.17014794  0.91368989  1
  Mn3.34+  Mn149  1  0.41994642  0.16544351  0.41954916  1
  Mn3.34+  Mn150  1  0.74245474  0.16169409  0.75618415  1
  Mn3.34+  Mn151  1  0.08186141  0.67075917  0.09060258  1
  Mn3.34+  Mn152  1  0.91865034  0.17047235  0.25617901  1
  Mn3.34+  Mn153  1  0.58165403  0.66890670  0.91797597  1
  Mn3.34+  Mn154  1  0.91207057  0.67662320  0.91745445  1
  Mn3.34+  Mn155  1  0.25355084  0.16812976  0.25279204  1
  Mn3.34+  Mn156  1  0.08665151  0.16400349  0.08325976  1
  Mn3.34+  Mn157  1  0.41501518  0.66272427  0.75151980  1
  Mn3.34+  Mn158  1  0.59178186  0.66489789  0.24759710  1
  Mn3.34+  Mn159  1  0.25208213  0.65899369  0.58265739  1
  Mn3.34+  Mn160  1  0.25391695  0.65633871  0.24843384  1
  Mn3.34+  Mn161  1  0.57589916  0.16983569  0.58314818  1
  Mn3.34+  Mn162  1  0.25031558  0.16602949  0.91620467  1
  Mn3.34+  Mn163  1  0.91918483  0.16273058  0.91132407  1
  Mn3.34+  Mn164  1  0.42672652  0.65975640  0.41753897  1
  Mn3.34+  Mn165  1  0.24089771  0.65533320  0.58215349  1
  Mn3.34+  Mn166  1  0.07283326  0.15465777  0.75686325  1
  Mn3.34+  Mn167  1  0.92181850  0.68222540  0.91808475  1
  Mn3.34+  Mn168  1  0.74768326  0.66939206  0.09365560  1
  Mn3.34+  Mn169  1  0.08531639  0.16222588  0.75406769  1
  Mn3.34+  Mn170  1  0.24376670  0.66157677  0.25053079  1
  Mn3.34+  Mn171  1  0.74986851  0.66857202  0.41725117  1
  Mn3.34+  Mn172  1  0.91868429  0.66389397  0.24242453  1
  Mn3.34+  Mn173  1  0.57983288  0.65920508  0.25074282  1
  Mn3.34+  Mn174  1  0.90814718  0.65888187  0.24315358  1
  Mn3.34+  Mn175  1  0.08164701  0.66565831  0.41687342  1
  Mn3.34+  Mn176  1  0.74410191  0.16875579  0.41347347  1
  Mn3.34+  Mn177  1  0.41298301  0.66526323  0.41890034  1
  Mn3.34+  Mn178  1  0.56950215  0.66128350  0.91619062  1
  Mn3.34+  Mn179  1  0.08294230  0.16378338  0.41669429  1
  Mn3.34+  Mn180  1  0.40823947  -0.01156978  0.73976187  1
  Mn3.34+  Mn181  1  0.91469246  0.00481818  0.90995719  1
  Mn3.34+  Mn182  1  0.42761095  0.00224133  0.41377287  1
  Mn3.34+  Mn183  1  0.41086529  0.50081486  0.73168066  1
  Mn3.34+  Mn184  1  0.42227792  -0.00341456  0.08196114  1
  Mn3.34+  Mn185  1  0.91256665  0.00206495  0.58387525  1
  Mn3.34+  Mn186  1  0.44323897  -0.00033202  0.40940604  1
  Mn3.34+  Mn187  1  0.72559413  -0.00158777  0.40530112  1
  Mn3.34+  Mn188  1  0.73615516  0.00673759  0.40590381  1
  Mn3.34+  Mn189  1  0.10974912  0.51037377  0.73767367  1
  Mn3.34+  Mn190  1  0.26767481  -0.00007400  0.25643988  1
  Mn3.34+  Mn191  1  0.24443261  -0.00376645  0.60217362  1
  Mn3.34+  Mn192  1  0.24948433  0.00411967  0.92449381  1
  Mn3.34+  Mn193  1  0.08543911  0.51057518  0.08524866  1
  Mn3.34+  Mn194  1  0.74897171  -0.00088915  0.75124069  1
  Mn3.34+  Mn195  1  0.26760978  0.49805171  0.91427019  1
  Mn3.34+  Mn196  1  0.90947359  0.50423198  0.90766194  1
  Mn3.34+  Mn197  1  0.75924843  0.49807453  0.41920338  1
  Mn3.34+  Mn198  1  0.91647990  0.49813184  0.25210231  1
  Mn3.34+  Mn199  1  0.09666237  0.50848555  0.74022083  1
  Mn3.34+  Mn200  1  0.57844218  0.49619823  0.90814179  1
  Mn3.34+  Mn201  1  0.75339050  0.50091540  0.75647918  1
  Mn3.34+  Mn202  1  0.89843818  -0.00007171  0.24674100  1
  Mn3.34+  Mn203  1  0.42373056  0.49412757  0.07897514  1
  Mn3.34+  Mn204  1  0.57319717  -0.00292774  0.58366806  1
  Mn3.34+  Mn205  1  0.58548811  0.00389186  0.58367252  1
  Mn3.34+  Mn206  1  0.91445548  0.50424498  0.57408624  1
  Mn3.34+  Mn207  1  0.90095833  0.49855539  0.58023616  1
  Mn3.34+  Mn208  1  0.92515401  0.50038921  0.90524084  1
  Mn3.34+  Mn209  1  0.08030694  0.00269211  0.07894265  1
  Mn3.34+  Mn210  1  0.92580146  -0.00398119  0.58449396  1
  Mn3.34+  Mn211  1  0.07164711  0.50445541  0.08852206  1
  Mn3.34+  Mn212  1  0.90998479  0.00379175  0.24679214  1
  Mn3.34+  Mn213  1  0.58021954  -0.00256075  0.92293220  1
  Mn3.34+  Mn214  1  0.92416768  -0.00065430  0.90696817  1
  Mn3.34+  Mn215  1  0.73938239  0.49962728  0.07712774  1
  O2-  O216  1  -0.00874040  0.14196840  0.00434993  1
  O2-  O217  1  0.00211543  0.14827360  0.32742342  1
  O2-  O218  1  0.00171145  0.14242681  0.67130730  1
  O2-  O219  1  0.00828301  0.65904101  -0.00833146  1
  O2-  O220  1  0.00088893  0.65777060  0.32672097  1
  O2-  O221  1  -0.00718911  0.67880202  0.66362456  1
  O2-  O222  1  0.33653005  0.15134443  -0.00920923  1
  O2-  O223  1  0.33491562  0.15353717  0.33304790  1
  O2-  O224  1  0.32936265  0.16270432  0.67496607  1
  O2-  O225  1  0.33099810  0.67816076  0.00352564  1
  O2-  O226  1  0.33916415  0.65942846  0.33401295  1
  O2-  O227  1  0.32879644  0.64815534  0.66645722  1
  O2-  O228  1  0.65823898  0.16298313  0.00236920  1
  O2-  O229  1  0.66654733  0.16172567  0.33991931  1
  O2-  O230  1  0.66283206  0.15050430  0.66946929  1
  O2-  O231  1  0.66477174  0.65969709  -0.00025516  1
  O2-  O232  1  0.66625643  0.67909388  0.33004227  1
  O2-  O233  1  0.66437669  0.65258292  0.67898135  1
  O2-  O234  1  0.17097559  0.14118309  0.00536908  1
  O2-  O235  1  0.16807207  0.15783060  0.33210688  1
  O2-  O236  1  0.16281519  0.14735146  0.66999866  1
  O2-  O237  1  0.16675468  0.64839164  0.02069133  1
  O2-  O238  1  0.17625874  0.64115719  0.34092590  1
  O2-  O239  1  0.15687198  0.65642203  0.65779721  1
  O2-  O240  1  0.50759336  0.14326442  0.00588605  1
  O2-  O241  1  0.48637119  0.18624116  0.33736426  1
  O2-  O242  1  0.49333103  0.17265971  0.65662829  1
  O2-  O243  1  0.50256850  0.65458920  0.00379009  1
  O2-  O244  1  0.50189567  0.69222482  0.32829946  1
  O2-  O245  1  0.49204207  0.65284535  0.66898688  1
  O2-  O246  1  0.82239729  0.15471999  -0.01414755  1
  O2-  O247  1  0.83413709  0.15231057  0.33919658  1
  O2-  O248  1  0.81343686  0.18459544  0.66910047  1
  O2-  O249  1  0.82873500  0.67938314  -0.00250371  1
  O2-  O250  1  0.83705132  0.68250097  0.33434205  1
  O2-  O251  1  0.82323466  0.66311117  0.67203123  1
  O2-  O252  1  0.00384818  0.35511050  -0.00037574  1
  O2-  O253  1  0.00528741  0.35084664  0.32543861  1
  O2-  O254  1  0.00626752  0.35792811  0.65997991  1
  O2-  O255  1  -0.00470671  0.84277038  0.00208530  1
  O2-  O256  1  0.00226527  0.84261582  0.32775749  1
  O2-  O257  1  -0.00307754  0.82348349  0.66999635  1
  O2-  O258  1  0.33956859  0.35567445  -0.00176297  1
  O2-  O259  1  0.34493089  0.34757904  0.32508397  1
  O2-  O260  1  0.34036020  0.33833860  0.66331042  1
  O2-  O261  1  0.33256431  0.84776714  0.00155294  1
  O2-  O262  1  0.33462565  0.85427820  0.33313966  1
  O2-  O263  1  0.33645882  0.83424831  0.66657971  1
  O2-  O264  1  0.66558087  0.34525732  -0.00045562  1
  O2-  O265  1  0.66430685  0.35077228  0.33881802  1
  O2-  O266  1  0.66846584  0.33631423  0.66352370  1
  O2-  O267  1  0.66961096  0.83883629  -0.00016348  1
  O2-  O268  1  0.66897130  0.82235018  0.33114096  1
  O2-  O269  1  0.66454196  0.85129264  0.67038692  1
  O2-  O270  1  0.17217328  0.35379450  0.00341348  1
  O2-  O271  1  0.17477581  0.34361261  0.33808080  1
  O2-  O272  1  0.17095116  0.35097782  0.66855260  1
  O2-  O273  1  0.16348491  0.85217496  0.00593485  1
  O2-  O274  1  0.17310569  0.84413774  0.33540320  1
  O2-  O275  1  0.16199462  0.81414160  0.67330818  1
  O2-  O276  1  0.50104089  0.34846927  0.00186371  1
  O2-  O277  1  0.50114832  0.34202555  0.33908253  1
  O2-  O278  1  0.50008635  0.31213479  0.66794951  1
  O2-  O279  1  0.50841732  0.85006574  0.00862644  1
  O2-  O280  1  0.49544817  0.81748080  0.32791910  1
  O2-  O281  1  0.50138547  0.84279527  0.66673322  1
  O2-  O282  1  0.82900862  0.34738604  -0.00218880  1
  O2-  O283  1  0.82582005  0.35888633  0.32711249  1
  O2-  O284  1  0.83181677  0.33028575  0.66327058  1
  O2-  O285  1  0.83153594  0.82087223  -0.00024572  1
  O2-  O286  1  0.83877600  0.82164895  0.33962739  1
  O2-  O287  1  0.83380459  0.83624009  0.66753414  1
  O2-  O288  1  -0.00148516  0.18831418  0.16995825  1
  O2-  O289  1  0.01187171  0.16716878  0.50331830  1
  O2-  O290  1  0.00310969  0.18807197  0.83828432  1
  O2-  O291  1  -0.00280010  0.69464824  0.16508690  1
  O2-  O292  1  0.00270046  0.68384431  0.49238957  1
  O2-  O293  1  -0.00564302  0.67822567  0.82976809  1
  O2-  O294  1  0.33061388  0.17249780  0.16842978  1
  O2-  O295  1  0.33623055  0.18076675  0.49090949  1
  O2-  O296  1  0.32548261  0.17515881  0.83507125  1
  O2-  O297  1  0.32570236  0.67500938  0.16326992  1
  O2-  O298  1  0.33249410  0.67975248  0.50123195  1
  O2-  O299  1  0.33133906  0.67673351  0.83076440  1
  O2-  O300  1  0.65772442  0.17550317  0.15756306  1
  O2-  O301  1  0.67250958  0.17343004  0.50599163  1
  O2-  O302  1  0.67167545  0.18331687  0.83099726  1
  O2-  O303  1  0.65931746  0.69780353  0.17259476  1
  O2-  O304  1  0.66874852  0.67496865  0.49109768  1
  O2-  O305  1  0.67440032  0.67805897  0.84908370  1
  O2-  O306  1  0.16928780  0.18113099  0.16362675  1
  O2-  O307  1  0.16288265  0.17249789  0.49678557  1
  O2-  O308  1  0.16615524  0.18617335  0.83080278  1
  O2-  O309  1  0.15959762  0.68843505  0.17368835  1
  O2-  O310  1  0.16493394  0.68160791  0.49820320  1
  O2-  O311  1  0.15394094  0.69862977  0.83229863  1
  O2-  O312  1  0.51293149  0.16925820  0.16429157  1
  O2-  O313  1  0.49838464  0.18740908  0.50008022  1
  O2-  O314  1  0.48154477  0.19177484  0.83637761  1
  O2-  O315  1  0.50306276  0.67458943  0.17093161  1
  O2-  O316  1  0.50497874  0.67965889  0.49180157  1
  O2-  O317  1  0.50616614  0.68069114  0.82480000  1
  O2-  O318  1  0.83450601  0.17802584  0.17071585  1
  O2-  O319  1  0.82162757  0.18212926  0.50242365  1
  O2-  O320  1  0.83476054  0.18829663  0.82654632  1
  O2-  O321  1  0.83452250  0.69647838  0.16761633  1
  O2-  O322  1  0.82709024  0.68561703  0.49505426  1
  O2-  O323  1  0.83444636  0.68824842  0.83073330  1
  O2-  O324  1  -0.00965245  0.31697931  0.16154195  1
  O2-  O325  1  0.00527259  0.33380096  0.50043169  1
  O2-  O326  1  0.00391590  0.32444331  0.83708757  1
  O2-  O327  1  -0.00079948  0.81877343  0.17113648  1
  O2-  O328  1  -0.00277570  0.81612104  0.49751741  1
  O2-  O329  1  -0.00052936  0.80594014  0.83635125  1
  O2-  O330  1  0.32595170  0.32257835  0.15702298  1
  O2-  O331  1  0.33006452  0.31166240  0.48805968  1
  O2-  O332  1  0.33074199  0.32080937  0.81974337  1
  O2-  O333  1  0.33140151  0.82197275  0.16196269  1
  O2-  O334  1  0.32611525  0.82078333  0.48743765  1
  O2-  O335  1  0.33536516  0.81865338  0.83438887  1
  O2-  O336  1  0.67097698  0.33325710  0.17789162  1
  O2-  O337  1  0.66901889  0.32607602  0.49745724  1
  O2-  O338  1  0.66970153  0.31575188  0.83988968  1
  O2-  O339  1  0.66588936  0.81451588  0.16590390  1
  O2-  O340  1  0.67349195  0.81929928  0.50577843  1
  O2-  O341  1  0.66518447  0.82641137  0.83405448  1
  O2-  O342  1  0.17010928  0.32461592  0.16564066  1
  O2-  O343  1  0.16035185  0.32153082  0.50246291  1
  O2-  O344  1  0.16017313  0.32427359  0.83666590  1
  O2-  O345  1  0.16047511  0.82670947  0.17632121  1
  O2-  O346  1  0.16895549  0.82489657  0.49862723  1
  O2-  O347  1  0.16342063  0.83339385  0.83486728  1
  O2-  O348  1  0.49019598  0.32994155  0.17987308  1
  O2-  O349  1  0.49856976  0.31135775  0.49639660  1
  O2-  O350  1  0.49373972  0.32085895  0.83968261  1
  O2-  O351  1  0.49889206  0.81745301  0.17027675  1
  O2-  O352  1  0.49793139  0.81252241  0.49873821  1
  O2-  O353  1  0.50479138  0.81895877  0.82617547  1
  O2-  O354  1  0.83052605  0.32632507  0.16803131  1
  O2-  O355  1  0.84183618  0.31805153  0.49028026  1
  O2-  O356  1  0.83632832  0.31494315  0.82428019  1
  O2-  O357  1  0.83215882  0.81257032  0.16401252  1
  O2-  O358  1  0.83242103  0.81351115  0.50426824  1
  O2-  O359  1  0.83558305  0.81140793  0.83108271  1
  O2-  O360  1  0.08380160  0.08196943  0.13281720  1
  O2-  O361  1  0.09615742  0.07970537  0.43174333  1
  O2-  O362  1  0.09872586  0.08087262  0.79205488  1
  O2-  O363  1  0.07284191  0.58796550  0.12848550  1
  O2-  O364  1  0.06365152  0.58505593  0.43852675  1
  O2-  O365  1  0.05646056  0.58234226  0.78299744  1
  O2-  O366  1  0.40397163  0.06648179  0.13129040  1
  O2-  O367  1  0.41695049  0.07837007  0.45394427  1
  O2-  O368  1  0.39162677  0.06089131  0.79582238  1
  O2-  O369  1  0.41648188  0.57157600  0.11034652  1
  O2-  O370  1  0.43016091  0.57883427  0.44811918  1
  O2-  O371  1  0.43796158  0.57555850  0.78048567  1
  O2-  O372  1  0.72117883  0.06701720  0.09667540  1
  O2-  O373  1  0.74694431  0.07938657  0.45429730  1
  O2-  O374  1  0.75192040  0.08033967  0.78168924  1
  O2-  O375  1  0.73360459  0.58126750  0.08301317  1
  O2-  O376  1  0.76283167  0.57991793  0.43905364  1
  O2-  O377  1  0.75771111  0.58183495  0.79559132  1
  O2-  O378  1  0.24427540  0.08223165  0.22447919  1
  O2-  O379  1  0.23442991  0.06427266  0.54424420  1
  O2-  O380  1  0.24928073  0.08188659  0.88285939  1
  O2-  O381  1  0.23765076  0.57978297  0.20247528  1
  O2-  O382  1  0.23053162  0.57736201  0.54854092  1
  O2-  O383  1  0.24508594  0.58144318  0.92121609  1
  O2-  O384  1  0.56466981  0.06771818  0.21712035  1
  O2-  O385  1  0.57096562  0.08269056  0.55601372  1
  O2-  O386  1  0.57455261  0.06805940  0.87347486  1
  O2-  O387  1  0.59456519  0.57878142  0.22378700  1
  O2-  O388  1  0.60526466  0.56849497  0.55897095  1
  O2-  O389  1  0.60294588  0.58019008  0.88513315  1
  O2-  O390  1  0.91926072  0.08265964  0.20649518  1
  O2-  O391  1  0.89773470  0.07990714  0.55729236  1
  O2-  O392  1  0.91357986  0.08381467  0.87110017  1
  O2-  O393  1  0.92235033  0.57684607  0.21730373  1
  O2-  O394  1  0.90856909  0.58683656  0.56720219  1
  O2-  O395  1  0.89454934  0.58682304  0.88989673  1
  O2-  O396  1  0.08601789  0.42652648  0.12982421  1
  O2-  O397  1  0.08340418  0.41799399  0.43419287  1
  O2-  O398  1  0.06639012  0.43223022  0.78709139  1
  O2-  O399  1  0.06907526  0.92115837  0.12563038  1
  O2-  O400  1  0.08978233  0.91331065  0.42423131  1
  O2-  O401  1  0.04728118  0.92075078  0.78215928  1
  O2-  O402  1  0.40462393  0.42095286  0.12853821  1
  O2-  O403  1  0.41747859  0.41357490  0.43213989  1
  O2-  O404  1  0.39906638  0.42547869  0.78293209  1
  O2-  O405  1  0.42009212  0.91903159  0.11523004  1
  O2-  O406  1  0.41426523  0.92185520  0.44602003  1
  O2-  O407  1  0.43125084  0.91623737  0.78146676  1
  O2-  O408  1  0.75903929  0.42312486  0.11682518  1
  O2-  O409  1  0.76242918  0.42033934  0.45671766  1
  O2-  O410  1  0.76614885  0.42001983  0.77613290  1
  O2-  O411  1  0.75149524  0.91187090  0.10116266  1
  O2-  O412  1  0.76439414  0.92359528  0.44893039  1
  O2-  O413  1  0.76286575  0.91833235  0.78578043  1
  O2-  O414  1  0.25307925  0.41589901  0.22715362  1
  O2-  O415  1  0.24393720  0.41422036  0.54965639  1
  O2-  O416  1  0.23212333  0.42226280  0.86583541  1
  O2-  O417  1  0.24771876  0.91936777  0.21373190  1
  O2-  O418  1  0.25126984  0.92229126  0.55905536  1
  O2-  O419  1  0.23521312  0.92556872  0.90193715  1
  O2-  O420  1  0.58223246  0.42183394  0.24228103  1
  O2-  O421  1  0.58145480  0.41137186  0.56114392  1
  O2-  O422  1  0.58053641  0.41625986  0.88406237  1
  O2-  O423  1  0.58298055  0.90990194  0.21839269  1
  O2-  O424  1  0.59138450  0.92048098  0.54552400  1
  O2-  O425  1  0.59025013  0.92021467  0.88865152  1
  O2-  O426  1  0.91364382  0.42084822  0.21626203  1
  O2-  O427  1  0.90570164  0.41774694  0.56028258  1
  O2-  O428  1  0.92469819  0.41943811  0.88335045  1
  O2-  O429  1  0.89328425  0.91831924  0.21402356  1
  O2-  O430  1  0.91239979  0.91763758  0.55205798  1
  O2-  O431  1  0.90333107  0.91648706  0.88880646  1
  O2-  O432  1  0.01432118  -0.01396165  -0.01818252  1
  O2-  O433  1  0.00857073  -0.01281841  0.30495655  1
  O2-  O434  1  0.02342279  0.01639820  0.63228911  1
  O2-  O435  1  -0.00656052  0.49639407  0.00078217  1
  O2-  O436  1  0.00175850  0.49264661  0.31590966  1
  O2-  O437  1  0.01153255  0.51562295  0.65023492  1
  O2-  O438  1  0.34102457  0.01293271  0.00325024  1
  O2-  O439  1  0.31395874  0.00069175  0.37365538  1
  O2-  O440  1  0.33756852  0.02320926  0.65793680  1
  O2-  O441  1  0.31062279  0.49224121  0.03349852  1
  O2-  O442  1  0.33208779  0.49064764  0.33959590  1
  O2-  O443  1  0.30268492  0.50408820  0.70666761  1
  O2-  O444  1  0.67429228  -0.00353631  -0.02522848  1
  O2-  O445  1  0.67332922  -0.01296274  0.30973797  1
  O2-  O446  1  0.67187966  -0.01110083  0.66006305  1
  O2-  O447  1  0.68256253  0.49728856  -0.03114745  1
  O2-  O448  1  0.65642558  0.49353580  0.37955950  1
  O2-  O449  1  0.68538219  0.50592203  0.66667385  1
  O2-  O450  1  0.19070975  0.00750260  0.03133350  1
  O2-  O451  1  0.16681955  -0.01550170  0.31780468  1
  O2-  O452  1  0.17609416  0.02453029  0.67550436  1
  O2-  O453  1  0.15132393  0.48245149  -0.00862374  1
  O2-  O454  1  0.17445774  0.49820799  0.34324067  1
  O2-  O455  1  0.16266033  0.46926169  0.65513027  1
  O2-  O456  1  0.52046133  0.00455173  0.02053149  1
  O2-  O457  1  0.46987406  -0.00142774  0.30210649  1
  O2-  O458  1  0.50302577  0.00192972  0.67485702  1
  O2-  O459  1  0.50442519  0.50301919  0.00036017  1
  O2-  O460  1  0.50737978  0.49768821  0.35668858  1
  O2-  O461  1  0.50279347  0.49183154  0.67497399  1
  O2-  O462  1  0.84572925  -0.00548631  0.00236910  1
  O2-  O463  1  0.84053578  -0.00081439  0.34759770  1
  O2-  O464  1  0.83821563  -0.01123733  0.67057323  1
  O2-  O465  1  0.83153800  0.50325692  -0.00491014  1
  O2-  O466  1  0.83113742  0.48728339  0.32995908  1
  O2-  O467  1  0.85573769  0.51414694  0.68907415  1
  O2-  O468  1  0.41917322  0.75737776  0.06686134  1
  O2-  O469  1  0.58404680  0.25492162  0.25891596  1
  O2-  O470  1  0.93856120  0.25400098  0.59148244  1
  O2-  O471  1  0.24615992  0.25030182  0.27507989  1
  O2-  O472  1  0.41860523  0.74629631  0.72965999  1
  O2-  O473  1  0.24283806  0.24602184  0.94970344  1
  O2-  O474  1  0.07637911  0.24990119  0.39625430  1
  O2-  O475  1  0.08905556  0.75175653  0.05827493  1
  O2-  O476  1  0.57675739  0.25466837  0.94381035  1
  O2-  O477  1  0.60476658  0.24778219  0.59613494  1
  O2-  O478  1  0.07394465  0.24180668  0.71844774  1
  O2-  O479  1  0.74426946  0.25578808  0.07277031  1
  O2-  O480  1  0.24510675  0.76298858  0.93351948  1
  O2-  O481  1  0.25701164  0.74093614  0.59873878  1
  O2-  O482  1  0.58628453  0.75577951  0.60239417  1
  O2-  O483  1  0.93222341  0.24627385  0.95504691  1
  O2-  O484  1  0.73197492  0.75126464  0.72970779  1
  O2-  O485  1  0.09346168  0.74850792  0.38688665  1
  O2-  O486  1  0.08198637  0.24299423  0.05150581  1
  O2-  O487  1  0.57846880  0.75168859  0.93884137  1
  O2-  O488  1  0.42498322  0.25603861  0.07170302  1
  O2-  O489  1  0.24103240  0.25444492  0.60192724  1
  O2-  O490  1  0.25246817  0.74579120  0.27728690  1
  O2-  O491  1  0.91742458  0.25307588  0.28494188  1
  O2-  O492  1  0.74746551  0.25267822  0.38857929  1
