# generated using pymatgen
data_Ca108Mn108O277
_symmetry_space_group_name_H-M   'P 1'
_cell_length_a   16.02874190
_cell_length_b   22.30647858
_cell_length_c   16.38910062
_cell_angle_alpha   89.99775219
_cell_angle_beta   90.00002164
_cell_angle_gamma   89.99482843
_symmetry_Int_Tables_number   1
_chemical_formula_structural   Ca108Mn108O277
_chemical_formula_sum   'Ca108 Mn108 O277'
_cell_volume   5859.83747700
_cell_formula_units_Z   1
loop_
 _symmetry_equiv_pos_site_id
 _symmetry_equiv_pos_as_xyz
  1  'x, y, z'
loop_
 _atom_type_symbol
 _atom_type_oxidation_number
  Ca2+  2.0
  Mn3.34+  3.34
  O2-  -2.0
loop_
 _atom_site_type_symbol
 _atom_site_label
 _atom_site_symmetry_multiplicity
 _atom_site_fract_x
 _atom_site_fract_y
 _atom_site_fract_z
 _atom_site_occupancy
  Ca2+  Ca0  1  0.07621892  0.26364298  0.25179143  1
  Ca2+  Ca1  1  0.08959312  0.25716447  0.58256621  1
  Ca2+  Ca2  1  0.10178116  0.25338202  0.91114218  1
  Ca2+  Ca3  1  0.06197127  0.74456110  0.26076861  1
  Ca2+  Ca4  1  0.09505716  0.74253089  0.57160039  1
  Ca2+  Ca5  1  0.09119033  0.74365254  0.91285046  1
  Ca2+  Ca6  1  0.43519700  0.24614007  0.25466824  1
  Ca2+  Ca7  1  0.41261843  0.25781458  0.58139585  1
  Ca2+  Ca8  1  0.41407902  0.26896272  0.92090096  1
  Ca2+  Ca9  1  0.41983352  0.76573608  0.25650893  1
  Ca2+  Ca10  1  0.39784068  0.74213032  0.58647621  1
  Ca2+  Ca11  1  0.41236105  0.75224511  0.90189998  1
  Ca2+  Ca12  1  0.73566112  0.24453482  0.24338045  1
  Ca2+  Ca13  1  0.73942796  0.24766199  0.57229657  1
  Ca2+  Ca14  1  0.73990790  0.25138714  0.93238498  1
  Ca2+  Ca15  1  0.75835851  0.74804544  0.24299877  1
  Ca2+  Ca16  1  0.75555970  0.75424230  0.57540178  1
  Ca2+  Ca17  1  0.74998041  0.74847031  0.93346897  1
  Ca2+  Ca18  1  0.25786302  0.26434551  0.07576764  1
  Ca2+  Ca19  1  0.25130188  0.24620264  0.41371000  1
  Ca2+  Ca20  1  0.24955322  0.26415126  0.75813235  1
  Ca2+  Ca21  1  0.24266443  0.74178340  0.06994235  1
  Ca2+  Ca22  1  0.23376882  0.74566374  0.43730113  1
  Ca2+  Ca23  1  0.25211268  0.73547652  0.73851469  1
  Ca2+  Ca24  1  0.59549510  0.25591002  0.09611216  1
  Ca2+  Ca25  1  0.59204191  0.24892799  0.39595538  1
  Ca2+  Ca26  1  0.58332699  0.27472985  0.74752905  1
  Ca2+  Ca27  1  0.60771030  0.74770683  0.09606688  1
  Ca2+  Ca28  1  0.58741190  0.75526713  0.41732727  1
  Ca2+  Ca29  1  0.57562142  0.74695894  0.74591678  1
  Ca2+  Ca30  1  0.88745488  0.24459990  0.08541632  1
  Ca2+  Ca31  1  0.90366305  0.24702736  0.40984875  1
  Ca2+  Ca32  1  0.91437192  0.25992970  0.75847802  1
  Ca2+  Ca33  1  0.89467996  0.72494461  0.09982981  1
  Ca2+  Ca34  1  0.93754413  0.72902120  0.41457150  1
  Ca2+  Ca35  1  0.91778146  0.74894795  0.74005610  1
  Ca2+  Ca36  1  0.94021219  0.08652160  0.72384736  1
  Ca2+  Ca37  1  0.76044380  0.59288853  0.95128344  1
  Ca2+  Ca38  1  0.03730823  0.60205790  0.24714695  1
  Ca2+  Ca39  1  0.08724953  0.10634676  0.57495567  1
  Ca2+  Ca40  1  0.24108583  0.59375129  0.74398535  1
  Ca2+  Ca41  1  0.40531902  0.59349744  0.90548928  1
  Ca2+  Ca42  1  0.59741544  0.59428843  0.08214781  1
  Ca2+  Ca43  1  0.23665726  0.58966652  0.05999514  1
  Ca2+  Ca44  1  0.23544004  0.09814498  0.74444822  1
  Ca2+  Ca45  1  0.39529886  0.09260054  0.91318141  1
  Ca2+  Ca46  1  0.41040688  0.08892739  0.56565488  1
  Ca2+  Ca47  1  0.93188501  0.08208760  0.72830418  1
  Ca2+  Ca48  1  0.89459008  0.09556384  0.09333550  1
  Ca2+  Ca49  1  0.08750628  0.09324257  0.90517199  1
  Ca2+  Ca50  1  0.76406766  0.07664658  0.96629403  1
  Ca2+  Ca51  1  0.73539983  0.10419362  0.23680797  1
  Ca2+  Ca52  1  0.23215982  0.60325813  0.43128296  1
  Ca2+  Ca53  1  0.58579041  0.09456133  0.37944272  1
  Ca2+  Ca54  1  0.39789230  0.58701622  0.60045508  1
  Ca2+  Ca55  1  0.40820776  0.09190138  0.91527543  1
  Ca2+  Ca56  1  0.10970721  0.11115303  0.26387023  1
  Ca2+  Ca57  1  0.76424644  0.59808676  0.23097677  1
  Ca2+  Ca58  1  0.56061346  0.57503682  0.73487152  1
  Ca2+  Ca59  1  0.42285334  0.09066833  0.56578857  1
  Ca2+  Ca60  1  0.10013715  0.09589959  0.90359604  1
  Ca2+  Ca61  1  0.09686857  0.11177856  0.26550392  1
  Ca2+  Ca62  1  0.11349734  0.59942406  0.91038327  1
  Ca2+  Ca63  1  0.09895674  0.60577842  0.58587090  1
  Ca2+  Ca64  1  0.42594969  0.57553249  0.25445277  1
  Ca2+  Ca65  1  0.39291144  0.59448260  0.90383080  1
  Ca2+  Ca66  1  0.24830311  0.09718034  0.08795560  1
  Ca2+  Ca67  1  0.60853201  0.10214832  0.10821613  1
  Ca2+  Ca68  1  0.77035057  0.58886569  0.95094413  1
  Ca2+  Ca69  1  0.77433500  0.59891602  0.23189566  1
  Ca2+  Ca70  1  0.75495900  0.07689227  0.96070086  1
  Ca2+  Ca71  1  0.57556059  0.07346976  0.72007964  1
  Ca2+  Ca72  1  0.91290920  0.90213310  0.42782616  1
  Ca2+  Ca73  1  0.25371015  0.89818057  0.42149182  1
  Ca2+  Ca74  1  0.25575093  0.39610129  0.41147091  1
  Ca2+  Ca75  1  0.25633458  0.89032792  0.07468669  1
  Ca2+  Ca76  1  0.07634331  0.90750787  0.92074830  1
  Ca2+  Ca77  1  0.90090804  0.40763088  0.41296630  1
  Ca2+  Ca78  1  0.74588510  0.91602385  0.93144412  1
  Ca2+  Ca79  1  0.73906904  0.41101604  0.25470971  1
  Ca2+  Ca80  1  0.08849133  0.40832905  0.90673785  1
  Ca2+  Ca81  1  0.75723663  0.91640454  0.93163305  1
  Ca2+  Ca82  1  0.42635669  0.91415080  0.58288506  1
  Ca2+  Ca83  1  0.57342243  0.91286723  0.74398329  1
  Ca2+  Ca84  1  0.74634705  0.40505052  0.91285759  1
  Ca2+  Ca85  1  0.74215189  0.40245538  0.58301862  1
  Ca2+  Ca86  1  0.76229231  0.90806814  0.58378280  1
  Ca2+  Ca87  1  0.91343928  0.40740216  0.41234410  1
  Ca2+  Ca88  1  0.41365751  0.91400182  0.58213102  1
  Ca2+  Ca89  1  0.72293796  0.91796939  0.23650523  1
  Ca2+  Ca90  1  0.73300404  0.91691583  0.24116579  1
  Ca2+  Ca91  1  0.91443108  0.91935944  0.05951388  1
  Ca2+  Ca92  1  0.91405458  0.40852977  0.08242730  1
  Ca2+  Ca93  1  0.41346545  0.41778194  0.60399568  1
  Ca2+  Ca94  1  0.92463248  0.40810032  0.08154435  1
  Ca2+  Ca95  1  0.42203664  0.40106132  0.24989333  1
  Ca2+  Ca96  1  0.90374737  0.92220106  0.06236569  1
  Ca2+  Ca97  1  0.75348604  0.40192211  0.58444724  1
  Ca2+  Ca98  1  0.24180332  0.89771513  0.75846284  1
  Ca2+  Ca99  1  0.07906350  0.41066450  0.90993834  1
  Ca2+  Ca100  1  0.56441279  0.90952672  0.74760321  1
  Ca2+  Ca101  1  0.59414236  0.91676540  0.41193931  1
  Ca2+  Ca102  1  0.92732938  0.91048100  0.74397923  1
  Ca2+  Ca103  1  0.08560763  0.89666269  0.23861824  1
  Ca2+  Ca104  1  0.24346837  0.89028241  0.07481113  1
  Ca2+  Ca105  1  0.40274177  0.41738899  0.60595777  1
  Ca2+  Ca106  1  0.58318176  0.91718496  0.41106215  1
  Ca2+  Ca107  1  0.07161303  0.90144236  0.58927074  1
  Mn3.34+  Mn108  1  0.08944767  0.33696460  0.08744865  1
  Mn3.34+  Mn109  1  0.08417179  0.32970147  0.41711325  1
  Mn3.34+  Mn110  1  0.07907999  0.34697795  0.74100861  1
  Mn3.34+  Mn111  1  0.07653077  0.82196920  0.08421880  1
  Mn3.34+  Mn112  1  0.08212706  0.83253026  0.41560608  1
  Mn3.34+  Mn113  1  0.08309760  0.82632523  0.75162971  1
  Mn3.34+  Mn114  1  0.41957628  0.34159558  0.08300120  1
  Mn3.34+  Mn115  1  0.42082519  0.33585301  0.41941683  1
  Mn3.34+  Mn116  1  0.41577407  0.34544276  0.75942208  1
  Mn3.34+  Mn117  1  0.42546703  0.82291074  0.07845742  1
  Mn3.34+  Mn118  1  0.41606274  0.83398190  0.41547021  1
  Mn3.34+  Mn119  1  0.41242518  0.83092501  0.75348420  1
  Mn3.34+  Mn120  1  0.74495128  0.33501180  0.08498820  1
  Mn3.34+  Mn121  1  0.74298777  0.33474709  0.41393715  1
  Mn3.34+  Mn122  1  0.75019372  0.33734712  0.75561529  1
  Mn3.34+  Mn123  1  0.74999509  0.83244494  0.08572928  1
  Mn3.34+  Mn124  1  0.75522615  0.83279255  0.41286171  1
  Mn3.34+  Mn125  1  0.74990801  0.82927100  0.75273137  1
  Mn3.34+  Mn126  1  0.25224505  0.33134423  0.24659902  1
  Mn3.34+  Mn127  1  0.24575683  0.33256079  0.58446887  1
  Mn3.34+  Mn128  1  0.25407458  0.33585923  0.91813709  1
  Mn3.34+  Mn129  1  0.25216142  0.82890853  0.25170311  1
  Mn3.34+  Mn130  1  0.24857406  0.83378856  0.58483308  1
  Mn3.34+  Mn131  1  0.24857737  0.82216320  0.91043589  1
  Mn3.34+  Mn132  1  0.58224998  0.33642248  0.24838980  1
  Mn3.34+  Mn133  1  0.58015260  0.32982718  0.58005470  1
  Mn3.34+  Mn134  1  0.58013199  0.33795518  0.92035405  1
  Mn3.34+  Mn135  1  0.57648493  0.83494229  0.24542150  1
  Mn3.34+  Mn136  1  0.58489640  0.83440528  0.57922557  1
  Mn3.34+  Mn137  1  0.57846996  0.83284361  0.91910124  1
  Mn3.34+  Mn138  1  0.91674130  0.33287779  0.24534612  1
  Mn3.34+  Mn139  1  0.92480867  0.33060086  0.58563095  1
  Mn3.34+  Mn140  1  0.91739054  0.33060612  0.91275227  1
  Mn3.34+  Mn141  1  0.91503794  0.83342383  0.24966029  1
  Mn3.34+  Mn142  1  0.91707732  0.83353000  0.58253294  1
  Mn3.34+  Mn143  1  0.91745815  0.82980236  0.90942858  1
  Mn3.34+  Mn144  1  0.75813660  0.65890095  0.75050225  1
  Mn3.34+  Mn145  1  0.58298846  0.16703163  0.91665267  1
  Mn3.34+  Mn146  1  0.91161477  0.15644213  0.56647172  1
  Mn3.34+  Mn147  1  0.07994697  0.66000715  0.75457097  1
  Mn3.34+  Mn148  1  0.75286233  0.65249812  0.42536816  1
  Mn3.34+  Mn149  1  0.74974149  0.16969196  0.74340684  1
  Mn3.34+  Mn150  1  0.07978082  0.17877627  0.42157954  1
  Mn3.34+  Mn151  1  0.58311819  0.16472839  0.57147436  1
  Mn3.34+  Mn152  1  0.41177250  0.16817254  0.75037096  1
  Mn3.34+  Mn153  1  0.41506793  0.67246143  0.08474313  1
  Mn3.34+  Mn154  1  0.42854073  0.65853769  0.41973551  1
  Mn3.34+  Mn155  1  0.42248267  0.17294798  0.74981074  1
  Mn3.34+  Mn156  1  0.74613347  0.66436643  0.74817785  1
  Mn3.34+  Mn157  1  0.07592090  0.17239646  0.08244360  1
  Mn3.34+  Mn158  1  0.90956587  0.17013637  0.25486481  1
  Mn3.34+  Mn159  1  0.08676576  0.16811366  0.08477057  1
  Mn3.34+  Mn160  1  0.58342458  0.66456668  0.25211864  1
  Mn3.34+  Mn161  1  0.07586803  0.66477867  0.08046194  1
  Mn3.34+  Mn162  1  0.92004160  0.16756637  0.91009746  1
  Mn3.34+  Mn163  1  0.41293475  0.16658372  0.40922970  1
  Mn3.34+  Mn164  1  0.42370135  0.66617830  0.08621489  1
  Mn3.34+  Mn165  1  0.58398602  0.66984617  0.58548305  1
  Mn3.34+  Mn166  1  0.58419041  0.66283746  0.90836850  1
  Mn3.34+  Mn167  1  0.74366310  0.65818097  0.42431038  1
  Mn3.34+  Mn168  1  0.41129460  0.17040585  0.09059015  1
  Mn3.34+  Mn169  1  0.75034927  0.16615569  0.41663204  1
  Mn3.34+  Mn170  1  0.25243122  0.65771235  0.24491393  1
  Mn3.34+  Mn171  1  0.42352806  0.16282915  0.09337721  1
  Mn3.34+  Mn172  1  0.24836106  0.17060413  0.57707671  1
  Mn3.34+  Mn173  1  0.92125850  0.66770049  0.58525917  1
  Mn3.34+  Mn174  1  0.23996026  0.66526226  0.24800914  1
  Mn3.34+  Mn175  1  0.92398938  0.66861859  0.91223120  1
  Mn3.34+  Mn176  1  0.41521213  0.66639815  0.74886073  1
  Mn3.34+  Mn177  1  0.41608410  0.66369392  0.41864699  1
  Mn3.34+  Mn178  1  0.08414404  0.17977826  0.74609704  1
  Mn3.34+  Mn179  1  0.73866965  0.16490122  0.74428229  1
  Mn3.34+  Mn180  1  0.75890863  -0.00388117  0.75096017  1
  Mn3.34+  Mn181  1  0.25766259  -0.00157919  0.25612061  1
  Mn3.34+  Mn182  1  0.92098445  0.50763451  0.60184816  1
  Mn3.34+  Mn183  1  0.57308026  0.00151956  0.91050457  1
  Mn3.34+  Mn184  1  0.58657428  0.50285807  0.56529825  1
  Mn3.34+  Mn185  1  0.41815231  0.49881582  0.40741645  1
  Mn3.34+  Mn186  1  0.26728093  0.00444225  0.26085276  1
  Mn3.34+  Mn187  1  0.59025083  0.50009968  0.26371139  1
  Mn3.34+  Mn188  1  0.42124769  -0.00411237  0.09555797  1
  Mn3.34+  Mn189  1  0.08516655  0.50166744  0.07784391  1
  Mn3.34+  Mn190  1  0.25049252  -0.00486962  0.91998150  1
  Mn3.34+  Mn191  1  0.92782611  -0.00125406  0.25311633  1
  Mn3.34+  Mn192  1  0.74793928  0.00010939  0.74806895  1
  Mn3.34+  Mn193  1  0.39751547  -0.00399792  0.74810550  1
  Mn3.34+  Mn194  1  0.24166424  0.00336382  0.57837087  1
  Mn3.34+  Mn195  1  0.08972496  0.49632240  0.42333839  1
  Mn3.34+  Mn196  1  0.75273209  0.50160093  0.74761794  1
  Mn3.34+  Mn197  1  0.25685383  0.49377510  0.91884800  1
  Mn3.34+  Mn198  1  0.08986368  0.00174165  0.08427843  1
  Mn3.34+  Mn199  1  0.91409177  0.00542886  0.25278296  1
  Mn3.34+  Mn200  1  0.57439690  0.49779795  0.91611769  1
  Mn3.34+  Mn201  1  0.43216408  -0.00146909  0.09685787  1
  Mn3.34+  Mn202  1  0.07923822  0.00033455  0.42686904  1
  Mn3.34+  Mn203  1  0.24948405  0.49794810  0.25296364  1
  Mn3.34+  Mn204  1  0.59629696  0.50823330  0.56754031  1
  Mn3.34+  Mn205  1  0.42007440  0.49861024  0.07127965  1
  Mn3.34+  Mn206  1  0.73748962  0.49260201  0.07504070  1
  Mn3.34+  Mn207  1  0.09288200  -0.00490244  0.74983293  1
  Mn3.34+  Mn208  1  0.07833328  0.50401601  0.42348914  1
  Mn3.34+  Mn209  1  0.42021436  0.00138328  0.38949403  1
  Mn3.34+  Mn210  1  0.09282617  0.00615467  0.42352855  1
  Mn3.34+  Mn211  1  0.75251007  0.00662458  0.41422800  1
  Mn3.34+  Mn212  1  0.23835799  0.49468149  0.60352409  1
  Mn3.34+  Mn213  1  0.91867419  0.49929131  0.90730274  1
  Mn3.34+  Mn214  1  0.93222099  0.50064919  0.60153169  1
  Mn3.34+  Mn215  1  0.91504991  0.49584174  0.25775986  1
  O2-  O216  1  0.00567487  0.13978964  0.00120991  1
  O2-  O217  1  0.00380475  0.16901646  0.33132630  1
  O2-  O218  1  -0.00500707  0.17331275  0.67098707  1
  O2-  O219  1  -0.00076342  0.69215779  -0.00282242  1
  O2-  O220  1  -0.00069117  0.67024287  0.32937565  1
  O2-  O221  1  0.00293537  0.67597889  0.67052997  1
  O2-  O222  1  0.33695737  0.14697081  0.00755541  1
  O2-  O223  1  0.34181632  0.19566454  0.33819590  1
  O2-  O224  1  0.33412682  0.14532771  0.66284383  1
  O2-  O225  1  0.33380882  0.66657751  0.00030540  1
  O2-  O226  1  0.33131968  0.64082873  0.32954342  1
  O2-  O227  1  0.33246307  0.65666943  0.67488592  1
  O2-  O228  1  0.66426244  0.14745945  -0.01105343  1
  O2-  O229  1  0.67526786  0.16385055  0.33436235  1
  O2-  O230  1  0.66443656  0.14572888  0.66108590  1
  O2-  O231  1  0.66438908  0.65946958  -0.00993955  1
  O2-  O232  1  0.66820591  0.64781733  0.33557325  1
  O2-  O233  1  0.66143804  0.64442539  0.67710610  1
  O2-  O234  1  0.16480355  0.15093632  0.00160203  1
  O2-  O235  1  0.15742766  0.18465058  0.33604899  1
  O2-  O236  1  0.16395969  0.16301203  0.66234830  1
  O2-  O237  1  0.16183486  0.67005542  0.00130103  1
  O2-  O238  1  0.15934245  0.64427869  0.31988762  1
  O2-  O239  1  0.15921290  0.66813029  0.67646950  1
  O2-  O240  1  0.49469541  0.14194806  0.00485809  1
  O2-  O241  1  0.50146139  0.17497101  0.34695482  1
  O2-  O242  1  0.49733337  0.15091320  0.66706594  1
  O2-  O243  1  0.49934084  0.65905661  -0.00519124  1
  O2-  O244  1  0.49426681  0.65032085  0.32837133  1
  O2-  O245  1  0.49919026  0.65561216  0.66554196  1
  O2-  O246  1  0.84254137  0.15423671  -0.00768112  1
  O2-  O247  1  0.83453486  0.15347904  0.33586934  1
  O2-  O248  1  0.83634950  0.15242154  0.66487421  1
  O2-  O249  1  0.83624505  0.67301248  -0.01420361  1
  O2-  O250  1  0.82882654  0.65078900  0.34125615  1
  O2-  O251  1  0.83387877  0.65334669  0.66721753  1
  O2-  O252  1  0.00250927  0.35214328  -0.00269206  1
  O2-  O253  1  -0.00598107  0.33774681  0.33669514  1
  O2-  O254  1  0.00031731  0.30690426  0.66878263  1
  O2-  O255  1  -0.00324012  0.84296817  -0.00064774  1
  O2-  O256  1  -0.00327923  0.85329697  0.33364868  1
  O2-  O257  1  -0.00054024  0.83478992  0.67061172  1
  O2-  O258  1  0.33331586  0.34150565  0.00322619  1
  O2-  O259  1  0.33346054  0.32755355  0.33804231  1
  O2-  O260  1  0.33137192  0.34460092  0.66391845  1
  O2-  O261  1  0.33026975  0.81505008  -0.00225619  1
  O2-  O262  1  0.33523249  0.84636426  0.33106933  1
  O2-  O263  1  0.33459444  0.85493185  0.66668786  1
  O2-  O264  1  0.67255615  0.34383430  -0.00311003  1
  O2-  O265  1  0.66416190  0.34434846  0.33481899  1
  O2-  O266  1  0.66739382  0.34602387  0.66681573  1
  O2-  O267  1  0.67110042  0.84436278  -0.00471689  1
  O2-  O268  1  0.66781303  0.84969280  0.33432569  1
  O2-  O269  1  0.66338334  0.85876099  0.66580762  1
  O2-  O270  1  0.16095300  0.34841039  -0.00403450  1
  O2-  O271  1  0.16783487  0.31804418  0.33459791  1
  O2-  O272  1  0.16195732  0.32485588  0.66829328  1
  O2-  O273  1  0.16447920  0.81684212  -0.00091349  1
  O2-  O274  1  0.16573487  0.85200281  0.33146262  1
  O2-  O275  1  0.16487101  0.84329156  0.66763611  1
  O2-  O276  1  0.50119981  0.33831438  0.00195680  1
  O2-  O277  1  0.49504628  0.33064063  0.33043419  1
  O2-  O278  1  0.49536796  0.34418031  0.65816042  1
  O2-  O279  1  0.50584846  0.79397706  -0.00157855  1
  O2-  O280  1  0.50667606  0.84515459  0.34106462  1
  O2-  O281  1  0.49748677  0.84839301  0.66435516  1
  O2-  O282  1  0.83808190  0.34881065  0.00080384  1
  O2-  O283  1  0.83283882  0.34796752  0.33091920  1
  O2-  O284  1  0.83407284  0.34100079  0.66083615  1
  O2-  O285  1  0.83372433  0.84354747  -0.00241885  1
  O2-  O286  1  0.82648007  0.86274892  0.31974306  1
  O2-  O287  1  0.83505851  0.84964287  0.67220909  1
  O2-  O288  1  -0.00111646  0.18178011  0.16772627  1
  O2-  O289  1  -0.00062059  0.19000395  0.50440870  1
  O2-  O290  1  0.00470071  0.18644826  0.83265902  1
  O2-  O291  1  0.00801835  0.68375923  0.16332279  1
  O2-  O292  1  0.00368650  0.67753612  0.51511090  1
  O2-  O293  1  0.00126689  0.68799466  0.83181409  1
  O2-  O294  1  0.32685182  0.18349793  0.16020950  1
  O2-  O295  1  0.33684023  0.17657653  0.50410212  1
  O2-  O296  1  0.33527218  0.17661236  0.83345715  1
  O2-  O297  1  0.33320383  0.68694039  0.16924866  1
  O2-  O298  1  0.33561578  0.67276299  0.49557068  1
  O2-  O299  1  0.34134190  0.67688337  0.83531973  1
  O2-  O300  1  0.66821951  0.17761515  0.16535853  1
  O2-  O301  1  0.66003554  0.18287260  0.49180201  1
  O2-  O302  1  0.66260924  0.18199902  0.82832833  1
  O2-  O303  1  0.66320361  0.66960187  0.17606235  1
  O2-  O304  1  0.66979377  0.68355511  0.50365218  1
  O2-  O305  1  0.67069609  0.68752325  0.83331432  1
  O2-  O306  1  0.15928970  0.18417206  0.17094432  1
  O2-  O307  1  0.16280821  0.18850637  0.50329249  1
  O2-  O308  1  0.16159142  0.17456543  0.82883167  1
  O2-  O309  1  0.16991295  0.68598762  0.16097075  1
  O2-  O310  1  0.17127727  0.67478939  0.50463637  1
  O2-  O311  1  0.16055566  0.68294606  0.82722621  1
  O2-  O312  1  0.50657877  0.17952776  0.16165843  1
  O2-  O313  1  0.48762411  0.18174652  0.50861008  1
  O2-  O314  1  0.49000407  0.18081627  0.84610339  1
  O2-  O315  1  0.50269590  0.68615432  0.16639730  1
  O2-  O316  1  0.50333796  0.69078650  0.50523606  1
  O2-  O317  1  0.50042637  0.68445565  0.83453594  1
  O2-  O318  1  0.83505720  0.17144671  0.17348030  1
  O2-  O319  1  0.83059016  0.19011394  0.50251582  1
  O2-  O320  1  0.83292082  0.17876715  0.82202339  1
  O2-  O321  1  0.82162171  0.67557889  0.18050861  1
  O2-  O322  1  0.83415528  0.67688501  0.50015210  1
  O2-  O323  1  0.83416036  0.68601871  0.82830026  1
  O2-  O324  1  -0.00608769  0.32037599  0.15650355  1
  O2-  O325  1  -0.00396197  0.31378631  0.49469335  1
  O2-  O326  1  0.00538114  0.31877002  0.83736250  1
  O2-  O327  1  0.00245222  0.81993406  0.17218960  1
  O2-  O328  1  0.00101915  0.82042853  0.50199302  1
  O2-  O329  1  0.00154497  0.81018390  0.83347293  1
  O2-  O330  1  0.33834375  0.31503649  0.17275827  1
  O2-  O331  1  0.33327729  0.32050183  0.49902164  1
  O2-  O332  1  0.33284204  0.32503218  0.83352937  1
  O2-  O333  1  0.32891045  0.81446768  0.15608109  1
  O2-  O334  1  0.33751937  0.83012076  0.50511800  1
  O2-  O335  1  0.32452629  0.81476572  0.82414634  1
  O2-  O336  1  0.67361239  0.33034228  0.17246607  1
  O2-  O337  1  0.67503115  0.32396151  0.50838508  1
  O2-  O338  1  0.67080544  0.31983332  0.83785585  1
  O2-  O339  1  0.67373740  0.82858406  0.17407615  1
  O2-  O340  1  0.66375401  0.82767389  0.49667347  1
  O2-  O341  1  0.66231519  0.81670330  0.82983385  1
  O2-  O342  1  0.16814333  0.31328905  0.16581888  1
  O2-  O343  1  0.17018714  0.31877355  0.49511792  1
  O2-  O344  1  0.16088439  0.32540651  0.83551462  1
  O2-  O345  1  0.16935000  0.81684294  0.16157701  1
  O2-  O346  1  0.16794173  0.82642497  0.50088475  1
  O2-  O347  1  0.16747471  0.81051652  0.82872966  1
  O2-  O348  1  0.49763784  0.32385812  0.16836162  1
  O2-  O349  1  0.50062905  0.31479346  0.49964380  1
  O2-  O350  1  0.49911627  0.32407184  0.83506483  1
  O2-  O351  1  0.50278953  0.81176834  0.16255398  1
  O2-  O352  1  0.49725173  0.82051985  0.50457913  1
  O2-  O353  1  0.50301425  0.81815961  0.82801689  1
  O2-  O354  1  0.83881627  0.32560949  0.16059751  1
  O2-  O355  1  0.83737505  0.32646779  0.50219287  1
  O2-  O356  1  0.82909470  0.31687008  0.84053135  1
  O2-  O357  1  0.83557827  0.82581300  0.16457613  1
  O2-  O358  1  0.83243851  0.82915078  0.49955940  1
  O2-  O359  1  0.83128635  0.80778493  0.84066328  1
  O2-  O360  1  0.08858929  0.08302773  0.13166460  1
  O2-  O361  1  0.08736814  0.08814097  0.43185880  1
  O2-  O362  1  0.08073763  0.07973955  0.76891248  1
  O2-  O363  1  0.09576180  0.58008317  0.11475157  1
  O2-  O364  1  0.09380151  0.57932758  0.45374861  1
  O2-  O365  1  0.08938653  0.58478104  0.77865955  1
  O2-  O366  1  0.41130289  0.08177514  0.13418884  1
  O2-  O367  1  0.41546824  0.08076913  0.43136104  1
  O2-  O368  1  0.41776291  0.08162410  0.77899470  1
  O2-  O369  1  0.41648457  0.57932313  0.11888675  1
  O2-  O370  1  0.42078997  0.57809163  0.45756135  1
  O2-  O371  1  0.42112726  0.58257676  0.77355020  1
  O2-  O372  1  0.75623402  0.07030683  0.09768756  1
  O2-  O373  1  0.73926816  0.08362323  0.44037903  1
  O2-  O374  1  0.74190592  0.08089426  0.78439083  1
  O2-  O375  1  0.74273473  0.57459042  0.09686502  1
  O2-  O376  1  0.74730150  0.57330813  0.43909790  1
  O2-  O377  1  0.74631613  0.57985713  0.80658257  1
  O2-  O378  1  0.23368724  0.08142662  0.22332112  1
  O2-  O379  1  0.24428412  0.08526003  0.55419182  1
  O2-  O380  1  0.26243720  0.07249623  0.87496040  1
  O2-  O381  1  0.25397689  0.57806699  0.20233733  1
  O2-  O382  1  0.24500331  0.56133428  0.55106839  1
  O2-  O383  1  0.26061677  0.57182934  0.87697748  1
  O2-  O384  1  0.60355002  0.06800548  0.23520710  1
  O2-  O385  1  0.55779415  0.08238991  0.55683681  1
  O2-  O386  1  0.56435294  0.08100631  0.87295512  1
  O2-  O387  1  0.57011385  0.57856736  0.21835673  1
  O2-  O388  1  0.57700053  0.58927141  0.55252617  1
  O2-  O389  1  0.57355091  0.57557857  0.87069789  1
  O2-  O390  1  0.93857291  0.08537401  0.22751908  1
  O2-  O391  1  0.95421228  0.08040971  0.58553904  1
  O2-  O392  1  0.93865673  0.08281156  0.87089645  1
  O2-  O393  1  0.90445111  0.57009936  0.21821747  1
  O2-  O394  1  0.92367175  0.58042086  0.56260999  1
  O2-  O395  1  0.90227762  0.58144267  0.89846551  1
  O2-  O396  1  0.06835128  0.42115476  0.11024721  1
  O2-  O397  1  0.06604317  0.41767495  0.43786372  1
  O2-  O398  1  0.07588394  0.42387411  0.77588308  1
  O2-  O399  1  0.10915736  0.91587937  0.09482736  1
  O2-  O400  1  0.08539657  0.91984642  0.45161391  1
  O2-  O401  1  0.08945269  0.91626027  0.78412562  1
  O2-  O402  1  0.41257122  0.42373177  0.11579848  1
  O2-  O403  1  0.40505111  0.42340416  0.45920621  1
  O2-  O404  1  0.41711333  0.42307844  0.74779421  1
  O2-  O405  1  0.39528022  0.91198437  0.08882694  1
  O2-  O406  1  0.42496132  0.92637307  0.44769082  1
  O2-  O407  1  0.42159368  0.91406936  0.78338170  1
  O2-  O408  1  0.77484677  0.42040137  0.11407750  1
  O2-  O409  1  0.76714489  0.41860819  0.45182700  1
  O2-  O410  1  0.75820903  0.41819323  0.77719700  1
  O2-  O411  1  0.76877748  0.92135030  0.10472905  1
  O2-  O412  1  0.74132543  0.92863854  0.45527982  1
  O2-  O413  1  0.75626071  0.91712161  0.79393910  1
  O2-  O414  1  0.26763714  0.41746708  0.25613189  1
  O2-  O415  1  0.25404771  0.42165341  0.55517315  1
  O2-  O416  1  0.22707372  0.41930649  0.89003053  1
  O2-  O417  1  0.24511712  0.92344242  0.20268074  1
  O2-  O418  1  0.25630381  0.92181703  0.55648843  1
  O2-  O419  1  0.23114121  0.91146692  0.92174797  1
  O2-  O420  1  0.58324202  0.42166577  0.23121079  1
  O2-  O421  1  0.59937962  0.41862023  0.55427405  1
  O2-  O422  1  0.59776544  0.42002667  0.89498563  1
  O2-  O423  1  0.58553655  0.91674601  0.23355139  1
  O2-  O424  1  0.56574995  0.91854036  0.54949942  1
  O2-  O425  1  0.59431343  0.92024468  0.87867997  1
  O2-  O426  1  0.92333052  0.41803377  0.21966743  1
  O2-  O427  1  0.92081281  0.42785082  0.55024024  1
  O2-  O428  1  0.93218232  0.41669821  0.89081763  1
  O2-  O429  1  0.93203216  0.92456256  0.19804765  1
  O2-  O430  1  0.92420142  0.91566139  0.56438715  1
  O2-  O431  1  0.91223821  0.91398717  0.88816179  1
  O2-  O432  1  -0.01145306  -0.00467432  0.02626908  1
  O2-  O433  1  -0.00709663  -0.00027964  0.34773558  1
  O2-  O434  1  -0.00154205  -0.00714277  0.69515433  1
  O2-  O435  1  -0.00361221  0.48914435  0.00042590  1
  O2-  O436  1  -0.00067369  0.50271306  0.33736785  1
  O2-  O437  1  0.02945671  0.51110596  0.64313193  1
  O2-  O438  1  0.32445787  0.01415074  0.01919009  1
  O2-  O439  1  0.30600208  -0.01171097  0.36807056  1
  O2-  O440  1  0.35372598  0.00618781  0.62831094  1
  O2-  O441  1  0.33169236  0.52422291  -0.00114886  1
  O2-  O442  1  0.33126657  0.51596011  0.33303739  1
  O2-  O443  1  0.33608333  0.50058415  0.64862890  1
  O2-  O444  1  0.67667658  -0.00231271  -0.03603090  1
  O2-  O445  1  0.67707772  -0.01793991  0.33467024  1
  O2-  O446  1  0.65104336  -0.01176415  0.68930588  1
  O2-  O447  1  0.66484203  0.51756816  -0.01174400  1
  O2-  O448  1  0.70349382  0.50955683  0.26670955  1
  O2-  O449  1  0.65685371  0.50374215  0.67005847  1
  O2-  O450  1  0.14896792  0.02024507  -0.02218434  1
  O2-  O451  1  0.14801634  -0.00307747  0.31420145  1
  O2-  O452  1  0.18762054  0.00059434  0.68519664  1
  O2-  O453  1  0.15911160  0.51296266  -0.01737091  1
  O2-  O454  1  0.17009197  0.50440630  0.34173758  1
  O2-  O455  1  0.17675124  0.51403310  0.67976813  1
  O2-  O456  1  0.49123446  0.01443267  -0.00528995  1
  O2-  O457  1  0.53065662  0.00291547  0.38163699  1
  O2-  O458  1  0.49858496  -0.01432599  0.68020614  1
  O2-  O459  1  0.49234743  0.52868983  -0.01025691  1
  O2-  O460  1  0.48574884  0.49430153  0.31236644  1
  O2-  O461  1  0.48913410  0.50286150  0.63378674  1
  O2-  O462  1  0.83150669  -0.01047559  -0.01616837  1
  O2-  O463  1  0.83289393  -0.01576520  0.32965187  1
  O2-  O464  1  0.84971090  0.00552827  0.68373947  1
  O2-  O465  1  0.82280288  0.49385604  -0.01474606  1
  O2-  O466  1  0.84224085  0.47634883  0.33324903  1
  O2-  O467  1  0.82075950  0.49087799  0.64226934  1
  O2-  O468  1  0.25411045  0.75536591  0.59802327  1
  O2-  O469  1  0.08871088  0.75473295  0.39816706  1
  O2-  O470  1  0.91613508  0.25004483  0.94416566  1
  O2-  O471  1  0.91216032  0.25226055  0.26870506  1
  O2-  O472  1  0.74542576  0.74246357  0.39620247  1
  O2-  O473  1  0.41795253  0.74559255  0.39143508  1
  O2-  O474  1  0.59759849  0.75306457  0.61043919  1
  O2-  O475  1  0.58820746  0.24786018  0.61042598  1
  O2-  O476  1  0.58602340  0.24858544  0.94360772  1
  O2-  O477  1  0.75290434  0.25231473  0.39433889  1
  O2-  O478  1  0.90751842  0.75780947  0.27774856  1
  O2-  O479  1  0.41646763  0.25494386  0.72645878  1
  O2-  O480  1  0.89944042  0.75084322  0.60165699  1
  O2-  O481  1  0.26262503  0.24877217  0.61050577  1
  O2-  O482  1  0.07883930  0.25359779  0.04905367  1
  O2-  O483  1  0.74678328  0.74742964  0.71319947  1
  O2-  O484  1  0.74641872  0.75388281  0.07169169  1
  O2-  O485  1  0.74813130  0.25255552  0.71966167  1
  O2-  O486  1  0.24952759  0.25673563  0.93481534  1
  O2-  O487  1  0.59004288  0.25607844  0.25600239  1
  O2-  O488  1  0.42116901  0.24790923  0.05656447  1
  O2-  O489  1  0.74611453  0.25527941  0.07016863  1
  O2-  O490  1  0.41767948  0.75105563  0.72233911  1
  O2-  O491  1  0.58656331  0.74886246  0.27722644  1
  O2-  O492  1  0.25631654  0.74243450  0.28859177  1
