# generated using pymatgen
data_Ca108Mn108O277
_symmetry_space_group_name_H-M   'P 1'
_cell_length_a   16.02497873
_cell_length_b   22.30241078
_cell_length_c   16.38581878
_cell_angle_alpha   90.00118355
_cell_angle_beta   90.00253486
_cell_angle_gamma   90.00316024
_symmetry_Int_Tables_number   1
_chemical_formula_structural   Ca108Mn108O277
_chemical_formula_sum   'Ca108 Mn108 O277'
_cell_volume   5856.22047451
_cell_formula_units_Z   1
loop_
 _symmetry_equiv_pos_site_id
 _symmetry_equiv_pos_as_xyz
  1  'x, y, z'
loop_
 _atom_type_symbol
 _atom_type_oxidation_number
  Ca2+  2.0
  Mn3.34+  3.34
  O2-  -2.0
loop_
 _atom_site_type_symbol
 _atom_site_label
 _atom_site_symmetry_multiplicity
 _atom_site_fract_x
 _atom_site_fract_y
 _atom_site_fract_z
 _atom_site_occupancy
  Ca2+  Ca0  1  0.07603458  0.27192380  0.25625760  1
  Ca2+  Ca1  1  0.08887963  0.26091816  0.57603236  1
  Ca2+  Ca2  1  0.09507688  0.26251686  0.91585975  1
  Ca2+  Ca3  1  0.09502423  0.74599580  0.23702009  1
  Ca2+  Ca4  1  0.08628940  0.75205808  0.58190760  1
  Ca2+  Ca5  1  0.09783374  0.74866646  0.93824519  1
  Ca2+  Ca6  1  0.42195640  0.24930125  0.22202138  1
  Ca2+  Ca7  1  0.43457960  0.25352736  0.59280336  1
  Ca2+  Ca8  1  0.42095123  0.23774225  0.92907293  1
  Ca2+  Ca9  1  0.40614811  0.74246639  0.23678351  1
  Ca2+  Ca10  1  0.41556692  0.75108032  0.57503341  1
  Ca2+  Ca11  1  0.41559706  0.73321212  0.93629068  1
  Ca2+  Ca12  1  0.74527948  0.25378003  0.25053745  1
  Ca2+  Ca13  1  0.72296238  0.23111116  0.59850836  1
  Ca2+  Ca14  1  0.73258610  0.25003429  0.89985146  1
  Ca2+  Ca15  1  0.75161197  0.75437556  0.25578740  1
  Ca2+  Ca16  1  0.74817881  0.75197861  0.59178515  1
  Ca2+  Ca17  1  0.73824917  0.74368361  0.89341147  1
  Ca2+  Ca18  1  0.27549274  0.25270291  0.07454529  1
  Ca2+  Ca19  1  0.23835235  0.25717469  0.42477048  1
  Ca2+  Ca20  1  0.25965974  0.25407950  0.75108047  1
  Ca2+  Ca21  1  0.25080270  0.72309646  0.08652873  1
  Ca2+  Ca22  1  0.25822782  0.74236198  0.39452054  1
  Ca2+  Ca23  1  0.24760179  0.75425244  0.76527845  1
  Ca2+  Ca24  1  0.56798313  0.24961318  0.07563906  1
  Ca2+  Ca25  1  0.59623964  0.25400791  0.43174428  1
  Ca2+  Ca26  1  0.59257545  0.24870469  0.74364610  1
  Ca2+  Ca27  1  0.55483696  0.74089857  0.08400523  1
  Ca2+  Ca28  1  0.58310409  0.74503706  0.41109742  1
  Ca2+  Ca29  1  0.59768420  0.74739102  0.75313851  1
  Ca2+  Ca30  1  0.90734830  0.26027055  0.08151823  1
  Ca2+  Ca31  1  0.91821363  0.25775673  0.41987636  1
  Ca2+  Ca32  1  0.88729803  0.25123853  0.74852416  1
  Ca2+  Ca33  1  0.94001204  0.75016018  0.09308620  1
  Ca2+  Ca34  1  0.90809257  0.74934835  0.40803682  1
  Ca2+  Ca35  1  0.89684702  0.75050282  0.75058395  1
  Ca2+  Ca36  1  0.74175120  0.60508531  0.58675469  1
  Ca2+  Ca37  1  0.11660975  0.08707187  0.90483164  1
  Ca2+  Ca38  1  0.72744256  0.09773103  0.91182542  1
  Ca2+  Ca39  1  0.09503700  0.08028842  0.59380534  1
  Ca2+  Ca40  1  0.59057023  0.60780976  0.75452866  1
  Ca2+  Ca41  1  0.25442439  0.08901188  0.74267898  1
  Ca2+  Ca42  1  0.93098442  0.58773807  0.40943511  1
  Ca2+  Ca43  1  0.09974918  0.08398390  0.26178653  1
  Ca2+  Ca44  1  0.57971044  0.58980670  0.41221181  1
  Ca2+  Ca45  1  0.88203864  0.09317509  0.41450299  1
  Ca2+  Ca46  1  0.94578656  0.59426555  0.09941551  1
  Ca2+  Ca47  1  0.62829086  0.11175157  0.44672189  1
  Ca2+  Ca48  1  0.10459480  0.08414250  0.90643988  1
  Ca2+  Ca49  1  0.62204243  0.10816536  0.45300772  1
  Ca2+  Ca50  1  0.60052083  0.10027384  0.74152159  1
  Ca2+  Ca51  1  0.53583339  0.59096645  0.07852014  1
  Ca2+  Ca52  1  0.55257085  0.09799401  0.07489705  1
  Ca2+  Ca53  1  0.41466799  0.59664939  0.58596475  1
  Ca2+  Ca54  1  0.89221934  0.09531789  0.41627276  1
  Ca2+  Ca55  1  0.41454174  0.10559829  0.23805505  1
  Ca2+  Ca56  1  0.44204509  0.08661902  0.58325571  1
  Ca2+  Ca57  1  0.56354576  0.09611904  0.07270929  1
  Ca2+  Ca58  1  0.10743735  0.08289740  0.59199437  1
  Ca2+  Ca59  1  0.25528575  0.07573080  0.41801584  1
  Ca2+  Ca60  1  0.40171882  0.60123057  0.24327595  1
  Ca2+  Ca61  1  0.75306133  0.60385583  0.58640614  1
  Ca2+  Ca62  1  0.89623554  0.59954726  0.73743218  1
  Ca2+  Ca63  1  0.09591289  0.58805368  0.94772341  1
  Ca2+  Ca64  1  0.08752743  0.08575096  0.26390575  1
  Ca2+  Ca65  1  0.59543831  0.10297257  0.73369247  1
  Ca2+  Ca66  1  0.26024034  0.58495953  0.74122134  1
  Ca2+  Ca67  1  0.23587664  0.59182499  0.41353825  1
  Ca2+  Ca68  1  0.09671068  0.61071067  0.24202956  1
  Ca2+  Ca69  1  0.26756394  0.07396292  0.42017705  1
  Ca2+  Ca70  1  0.28867289  0.09498291  0.07154210  1
  Ca2+  Ca71  1  0.26991852  0.58886493  0.74230531  1
  Ca2+  Ca72  1  0.25961424  0.41360071  0.73980462  1
  Ca2+  Ca73  1  0.57515502  0.40433552  0.41382370  1
  Ca2+  Ca74  1  0.57942826  0.41464696  0.08572427  1
  Ca2+  Ca75  1  0.74491853  0.40226041  0.57958551  1
  Ca2+  Ca76  1  0.08854013  0.41341386  0.92145194  1
  Ca2+  Ca77  1  0.09426706  0.41333233  0.58132546  1
  Ca2+  Ca78  1  0.58153182  0.90385228  0.75395302  1
  Ca2+  Ca79  1  0.57366863  0.40570357  0.74917172  1
  Ca2+  Ca80  1  0.58428290  0.90677391  0.07122222  1
  Ca2+  Ca81  1  0.24347666  0.41365733  0.43017573  1
  Ca2+  Ca82  1  0.40898450  0.90746219  0.25621323  1
  Ca2+  Ca83  1  0.09719988  0.90078212  0.91050100  1
  Ca2+  Ca84  1  0.25579352  0.90741285  0.41646467  1
  Ca2+  Ca85  1  0.56404539  0.91160850  0.42532001  1
  Ca2+  Ca86  1  0.92038608  0.89526481  0.74589280  1
  Ca2+  Ca87  1  0.91618696  0.41355941  0.08586737  1
  Ca2+  Ca88  1  0.09493123  0.90891655  0.58548732  1
  Ca2+  Ca89  1  0.74264664  0.89631801  0.91586678  1
  Ca2+  Ca90  1  0.41965637  0.40534059  0.24916971  1
  Ca2+  Ca91  1  0.74234667  0.90258478  0.58631531  1
  Ca2+  Ca92  1  0.93531098  0.41622305  0.41222270  1
  Ca2+  Ca93  1  0.24491932  0.90725547  0.74777642  1
  Ca2+  Ca94  1  0.56891341  0.41507010  0.08552820  1
  Ca2+  Ca95  1  0.92857466  0.41110909  0.08828572  1
  Ca2+  Ca96  1  0.92463613  0.40592875  0.74509013  1
  Ca2+  Ca97  1  0.40884784  0.90227914  0.91412476  1
  Ca2+  Ca98  1  0.25361694  0.90282628  0.08253830  1
  Ca2+  Ca99  1  0.40619677  0.91464647  0.58064735  1
  Ca2+  Ca100  1  0.24822636  0.41355013  0.73883533  1
  Ca2+  Ca101  1  0.91834693  0.90074227  0.40787924  1
  Ca2+  Ca102  1  0.74534839  0.40644868  0.92406340  1
  Ca2+  Ca103  1  0.57308812  0.90758148  0.07233250  1
  Ca2+  Ca104  1  0.08037094  0.89421748  0.25159712  1
  Ca2+  Ca105  1  0.41827258  0.41394607  0.92698479  1
  Ca2+  Ca106  1  0.57511778  0.91263606  0.42454915  1
  Ca2+  Ca107  1  0.92380090  0.41575419  0.41232878  1
  Mn3.34+  Mn108  1  0.09201679  0.33579974  0.08671708  1
  Mn3.34+  Mn109  1  0.08539317  0.33819678  0.41654432  1
  Mn3.34+  Mn110  1  0.08167312  0.33182067  0.75110072  1
  Mn3.34+  Mn111  1  0.08570401  0.83010412  0.08441672  1
  Mn3.34+  Mn112  1  0.08499451  0.82815303  0.41965368  1
  Mn3.34+  Mn113  1  0.08252375  0.83242038  0.75005470  1
  Mn3.34+  Mn114  1  0.41347705  0.33737829  0.08433670  1
  Mn3.34+  Mn115  1  0.41451554  0.33040196  0.41631827  1
  Mn3.34+  Mn116  1  0.41937961  0.33379356  0.75202822  1
  Mn3.34+  Mn117  1  0.41132173  0.83086098  0.08595931  1
  Mn3.34+  Mn118  1  0.41551086  0.83065115  0.41656844  1
  Mn3.34+  Mn119  1  0.41672352  0.82415026  0.74911384  1
  Mn3.34+  Mn120  1  0.74510119  0.33295674  0.08590088  1
  Mn3.34+  Mn121  1  0.74902702  0.33532074  0.41827732  1
  Mn3.34+  Mn122  1  0.74687483  0.33565739  0.75013400  1
  Mn3.34+  Mn123  1  0.75312772  0.83001225  0.08551997  1
  Mn3.34+  Mn124  1  0.74759174  0.83068245  0.41732556  1
  Mn3.34+  Mn125  1  0.75022087  0.83036119  0.74981560  1
  Mn3.34+  Mn126  1  0.25114510  0.33000137  0.24796726  1
  Mn3.34+  Mn127  1  0.25698008  0.33598167  0.58115489  1
  Mn3.34+  Mn128  1  0.25299961  0.33707489  0.91816964  1
  Mn3.34+  Mn129  1  0.25027400  0.83013329  0.24895336  1
  Mn3.34+  Mn130  1  0.25114714  0.83510455  0.57893447  1
  Mn3.34+  Mn131  1  0.25360822  0.83479705  0.91487980  1
  Mn3.34+  Mn132  1  0.58691694  0.33209568  0.25060446  1
  Mn3.34+  Mn133  1  0.57999317  0.33458602  0.58306445  1
  Mn3.34+  Mn134  1  0.57904993  0.33478481  0.91404251  1
  Mn3.34+  Mn135  1  0.58639205  0.83032996  0.24784312  1
  Mn3.34+  Mn136  1  0.58048718  0.83427678  0.58288752  1
  Mn3.34+  Mn137  1  0.57876832  0.83199479  0.91255685  1
  Mn3.34+  Mn138  1  0.91269141  0.33747747  0.24866517  1
  Mn3.34+  Mn139  1  0.91602971  0.33603976  0.58238368  1
  Mn3.34+  Mn140  1  0.91663428  0.33664491  0.91232918  1
  Mn3.34+  Mn141  1  0.91280724  0.83216711  0.24557822  1
  Mn3.34+  Mn142  1  0.91823131  0.83099148  0.57644488  1
  Mn3.34+  Mn143  1  0.91744867  0.83117143  0.92109696  1
  Mn3.34+  Mn144  1  0.58017079  0.66707934  0.91506180  1
  Mn3.34+  Mn145  1  0.41429448  0.16984103  0.41753167  1
  Mn3.34+  Mn146  1  0.91619223  0.16789760  0.58971401  1
  Mn3.34+  Mn147  1  0.08810279  0.66594661  0.74373986  1
  Mn3.34+  Mn148  1  0.08297256  0.66374177  0.42349430  1
  Mn3.34+  Mn149  1  0.73941370  0.66762568  0.08984715  1
  Mn3.34+  Mn150  1  0.08547110  0.16762950  0.42278044  1
  Mn3.34+  Mn151  1  0.42305864  0.17592582  0.41616953  1
  Mn3.34+  Mn152  1  0.90503113  0.16208435  0.58782049  1
  Mn3.34+  Mn153  1  0.91412004  0.16792165  0.24507896  1
  Mn3.34+  Mn154  1  0.07816317  0.66000467  0.74428668  1
  Mn3.34+  Mn155  1  0.41886182  0.67385814  0.75217712  1
  Mn3.34+  Mn156  1  0.25411498  0.17024144  0.58515951  1
  Mn3.34+  Mn157  1  0.92016484  0.17037296  0.91685325  1
  Mn3.34+  Mn158  1  0.90737974  0.16351811  0.91367497  1
  Mn3.34+  Mn159  1  0.25937565  0.16833861  0.91076617  1
  Mn3.34+  Mn160  1  0.07892631  0.16569560  0.08321031  1
  Mn3.34+  Mn161  1  0.57828044  0.66953753  0.57850214  1
  Mn3.34+  Mn162  1  0.74499382  0.17146046  0.08204413  1
  Mn3.34+  Mn163  1  0.41516854  0.16900619  0.75114120  1
  Mn3.34+  Mn164  1  0.91920931  0.67035948  0.57183713  1
  Mn3.34+  Mn165  1  0.08942655  0.17122398  0.08228547  1
  Mn3.34+  Mn166  1  0.74889060  0.66658122  0.41144847  1
  Mn3.34+  Mn167  1  0.75100014  0.66163640  0.08984657  1
  Mn3.34+  Mn168  1  0.24922244  0.17061170  0.24838874  1
  Mn3.34+  Mn169  1  0.57693409  0.16582483  0.90944912  1
  Mn3.34+  Mn170  1  0.90183591  0.16257432  0.24364147  1
  Mn3.34+  Mn171  1  0.08165381  0.17202093  0.75063528  1
  Mn3.34+  Mn172  1  0.58800174  0.17065214  0.24691721  1
  Mn3.34+  Mn173  1  0.91721696  0.66361609  0.91592034  1
  Mn3.34+  Mn174  1  0.90693332  0.65872205  0.91521418  1
  Mn3.34+  Mn175  1  0.58002691  0.66465466  0.25071858  1
  Mn3.34+  Mn176  1  0.25527465  0.66351589  0.91979028  1
  Mn3.34+  Mn177  1  0.41454627  0.66542348  0.41511300  1
  Mn3.34+  Mn178  1  0.91742481  0.66810723  0.25424941  1
  Mn3.34+  Mn179  1  0.25046748  0.66183282  0.57245214  1
  Mn3.34+  Mn180  1  0.75242011  -0.00698416  0.42331352  1
  Mn3.34+  Mn181  1  0.23489342  0.49896687  0.24845286  1
  Mn3.34+  Mn182  1  0.25007181  0.50181679  0.24702884  1
  Mn3.34+  Mn183  1  0.75208888  0.00137791  0.09165602  1
  Mn3.34+  Mn184  1  0.59585884  -0.00182952  0.25748593  1
  Mn3.34+  Mn185  1  0.41640564  0.50141383  0.41247136  1
  Mn3.34+  Mn186  1  0.91489112  -0.00401029  0.57710839  1
  Mn3.34+  Mn187  1  0.58778908  0.50440339  0.26078288  1
  Mn3.34+  Mn188  1  0.75135024  0.50595941  0.75605385  1
  Mn3.34+  Mn189  1  0.90396989  -0.00440569  0.25221648  1
  Mn3.34+  Mn190  1  0.07259308  -0.00506253  0.07841531  1
  Mn3.34+  Mn191  1  0.58037022  0.50461389  0.92711628  1
  Mn3.34+  Mn192  1  0.74633456  0.49732377  0.08913619  1
  Mn3.34+  Mn193  1  0.07259629  -0.00348488  0.41591056  1
  Mn3.34+  Mn194  1  0.25984536  0.50173170  0.93617695  1
  Mn3.34+  Mn195  1  0.90470840  0.00451149  0.90599096  1
  Mn3.34+  Mn196  1  0.74702721  0.50233256  0.40892393  1
  Mn3.34+  Mn197  1  0.92342665  0.50394783  0.26383323  1
  Mn3.34+  Mn198  1  0.40893407  -0.00004262  0.75629522  1
  Mn3.34+  Mn199  1  0.75918958  -0.00011540  0.75387209  1
  Mn3.34+  Mn200  1  0.58120332  0.00350741  0.25738311  1
  Mn3.34+  Mn201  1  0.08060374  -0.00097548  0.74203820  1
  Mn3.34+  Mn202  1  0.09600760  0.49773922  0.08275189  1
  Mn3.34+  Mn203  1  0.92327616  0.50386659  0.58661858  1
  Mn3.34+  Mn204  1  0.08617609  0.00134543  0.07790759  1
  Mn3.34+  Mn205  1  0.41180354  -0.00325570  0.07071066  1
  Mn3.34+  Mn206  1  0.91781219  -0.00208077  0.90680845  1
  Mn3.34+  Mn207  1  0.75635974  0.00204652  0.73783730  1
  Mn3.34+  Mn208  1  0.25735275  -0.00044097  0.24931396  1
  Mn3.34+  Mn209  1  0.57854795  0.49791105  0.58322419  1
  Mn3.34+  Mn210  1  0.74034078  0.50076880  0.75547230  1
  Mn3.34+  Mn211  1  0.07854746  0.49962740  0.74903101  1
  Mn3.34+  Mn212  1  0.76558116  0.00764735  0.09174308  1
  Mn3.34+  Mn213  1  0.42284102  0.00481337  0.76117595  1
  Mn3.34+  Mn214  1  0.91132545  0.49965138  0.92585108  1
  Mn3.34+  Mn215  1  0.42814860  0.50129445  0.74973152  1
  O2-  O216  1  0.00533041  0.14207384  -0.01301579  1
  O2-  O217  1  -0.00281884  0.14250232  0.33963654  1
  O2-  O218  1  0.00302414  0.15213582  0.66349125  1
  O2-  O219  1  -0.00573416  0.65234165  -0.00224564  1
  O2-  O220  1  0.00075752  0.66381374  0.33965830  1
  O2-  O221  1  -0.00528386  0.66889455  0.66488877  1
  O2-  O222  1  0.33254940  0.16526259  -0.00924073  1
  O2-  O223  1  0.33017162  0.16476433  0.33522622  1
  O2-  O224  1  0.33643588  0.15039485  0.66291667  1
  O2-  O225  1  0.33171038  0.66311379  -0.00693664  1
  O2-  O226  1  0.33094568  0.65226598  0.34608586  1
  O2-  O227  1  0.32998984  0.67106793  0.66410141  1
  O2-  O228  1  0.65801855  0.15313756  0.00312102  1
  O2-  O229  1  0.65579676  0.17575723  0.33565848  1
  O2-  O230  1  0.65631818  0.16705014  0.67180775  1
  O2-  O231  1  0.66716588  0.66442928  0.00242303  1
  O2-  O232  1  0.66015933  0.65669308  0.34030894  1
  O2-  O233  1  0.66034762  0.66797169  0.65677941  1
  O2-  O234  1  0.17160155  0.14757313  -0.00162843  1
  O2-  O235  1  0.17461070  0.14686393  0.33955236  1
  O2-  O236  1  0.16639543  0.15544369  0.66755560  1
  O2-  O237  1  0.16792778  0.66287096  -0.01255403  1
  O2-  O238  1  0.15809090  0.67270354  0.34485512  1
  O2-  O239  1  0.16993112  0.65987136  0.66042649  1
  O2-  O240  1  0.49950027  0.16064438  -0.00638406  1
  O2-  O241  1  0.49198389  0.17230629  0.32234864  1
  O2-  O242  1  0.49513952  0.15210231  0.67514068  1
  O2-  O243  1  0.50327347  0.66427505  -0.00276527  1
  O2-  O244  1  0.49780264  0.64991108  0.33439141  1
  O2-  O245  1  0.49819615  0.67897841  0.66518720  1
  O2-  O246  1  0.82979779  0.14857862  -0.00162718  1
  O2-  O247  1  0.83048959  0.16485371  0.33363057  1
  O2-  O248  1  0.83014334  0.16703196  0.66880804  1
  O2-  O249  1  0.83033351  0.66906703  0.00600897  1
  O2-  O250  1  0.83821287  0.65524894  0.34209237  1
  O2-  O251  1  0.83753495  0.67020039  0.65367999  1
  O2-  O252  1  -0.00260010  0.35366964  -0.00245402  1
  O2-  O253  1  -0.00154790  0.34658334  0.33516558  1
  O2-  O254  1  0.00537685  0.34150149  0.66183466  1
  O2-  O255  1  0.00849417  0.83951155  -0.00461203  1
  O2-  O256  1  0.00140687  0.83173813  0.33861461  1
  O2-  O257  1  0.00170414  0.83394497  0.66109605  1
  O2-  O258  1  0.33778571  0.34505013  -0.00407712  1
  O2-  O259  1  0.33456091  0.30770859  0.33214143  1
  O2-  O260  1  0.33187765  0.34526026  0.67022023  1
  O2-  O261  1  0.33376776  0.84517572  -0.00054132  1
  O2-  O262  1  0.33129729  0.84540454  0.33752460  1
  O2-  O263  1  0.33059627  0.82002318  0.66664304  1
  O2-  O264  1  0.65955846  0.35119219  0.00394890  1
  O2-  O265  1  0.66577834  0.31737982  0.33673780  1
  O2-  O266  1  0.66349838  0.35134037  0.66877629  1
  O2-  O267  1  0.66197684  0.84338234  0.00139964  1
  O2-  O268  1  0.65607878  0.84807526  0.34491689  1
  O2-  O269  1  0.66338494  0.84022594  0.66842930  1
  O2-  O270  1  0.16307455  0.34487637  -0.00652133  1
  O2-  O271  1  0.17344025  0.33243191  0.33758896  1
  O2-  O272  1  0.16690935  0.34269961  0.66885051  1
  O2-  O273  1  0.16966817  0.84518229  -0.00155523  1
  O2-  O274  1  0.16838021  0.83430372  0.33579048  1
  O2-  O275  1  0.16899248  0.83825184  0.66436921  1
  O2-  O276  1  0.50202908  0.35000313  0.00338613  1
  O2-  O277  1  0.49936604  0.32590163  0.33029321  1
  O2-  O278  1  0.50019286  0.34306675  0.67012334  1
  O2-  O279  1  0.49513244  0.84348459  -0.00084891  1
  O2-  O280  1  0.49956093  0.85169385  0.33303199  1
  O2-  O281  1  0.49867054  0.82222800  0.66422064  1
  O2-  O282  1  0.83607554  0.35289134  0.00504706  1
  O2-  O283  1  0.83772419  0.33410108  0.34120160  1
  O2-  O284  1  0.83483962  0.34871422  0.66900588  1
  O2-  O285  1  0.82172862  0.82507353  -0.00839742  1
  O2-  O286  1  0.83082897  0.84107737  0.33781896  1
  O2-  O287  1  0.83395402  0.83704233  0.66350963  1
  O2-  O288  1  0.00006067  0.17534699  0.17306930  1
  O2-  O289  1  -0.00209561  0.17109137  0.50711327  1
  O2-  O290  1  -0.00362712  0.18724375  0.83094511  1
  O2-  O291  1  -0.00299768  0.67598419  0.17560918  1
  O2-  O292  1  -0.00010886  0.69228364  0.49585121  1
  O2-  O293  1  0.00081237  0.67682300  0.82920776  1
  O2-  O294  1  0.32737116  0.17961287  0.17040631  1
  O2-  O295  1  0.33172775  0.18845420  0.49648253  1
  O2-  O296  1  0.32782854  0.18425283  0.82496821  1
  O2-  O297  1  0.33727229  0.66985955  0.16659295  1
  O2-  O298  1  0.33449214  0.68435594  0.50128963  1
  O2-  O299  1  0.32751052  0.67692355  0.82182449  1
  O2-  O300  1  0.66458508  0.19060347  0.16204345  1
  O2-  O301  1  0.67639210  0.18932349  0.49066872  1
  O2-  O302  1  0.65993605  0.17641213  0.83509266  1
  O2-  O303  1  0.66435648  0.68900230  0.16959996  1
  O2-  O304  1  0.66989662  0.67989525  0.50434115  1
  O2-  O305  1  0.65659034  0.67677944  0.83313885  1
  O2-  O306  1  0.15521211  0.18407020  0.18374347  1
  O2-  O307  1  0.16457910  0.18261822  0.50626875  1
  O2-  O308  1  0.15906420  0.18217941  0.83736899  1
  O2-  O309  1  0.16570896  0.67857282  0.17094914  1
  O2-  O310  1  0.16804496  0.68708415  0.49883817  1
  O2-  O311  1  0.17309097  0.66662983  0.82230133  1
  O2-  O312  1  0.50685389  0.17505492  0.16429311  1
  O2-  O313  1  0.50463125  0.17991661  0.49632670  1
  O2-  O314  1  0.49992926  0.18349044  0.82729039  1
  O2-  O315  1  0.49926189  0.67213457  0.17399667  1
  O2-  O316  1  0.49866512  0.68263172  0.49853661  1
  O2-  O317  1  0.49971347  0.68626995  0.83076778  1
  O2-  O318  1  0.82931891  0.19059673  0.15822011  1
  O2-  O319  1  0.84428080  0.17795533  0.49198541  1
  O2-  O320  1  0.82722260  0.18265667  0.84187692  1
  O2-  O321  1  0.83420614  0.67978697  0.16562857  1
  O2-  O322  1  0.82642621  0.68386565  0.50184187  1
  O2-  O323  1  0.83733788  0.67542081  0.83010093  1
  O2-  O324  1  -0.00591176  0.32586154  0.16084127  1
  O2-  O325  1  -0.00110733  0.32513739  0.49704161  1
  O2-  O326  1  -0.00224209  0.31459898  0.82929558  1
  O2-  O327  1  0.00681560  0.82037412  0.17267198  1
  O2-  O328  1  0.00002441  0.81007420  0.49802357  1
  O2-  O329  1  -0.00257205  0.82835739  0.82678398  1
  O2-  O330  1  0.33817046  0.32143531  0.17043384  1
  O2-  O331  1  0.33175039  0.31678397  0.49673832  1
  O2-  O332  1  0.32573006  0.33201180  0.82429061  1
  O2-  O333  1  0.33695673  0.83432757  0.17207284  1
  O2-  O334  1  0.33518336  0.81917543  0.50151140  1
  O2-  O335  1  0.33667059  0.81877146  0.83282192  1
  O2-  O336  1  0.66223340  0.31462817  0.16399186  1
  O2-  O337  1  0.67045685  0.32463304  0.50336621  1
  O2-  O338  1  0.66274646  0.32898228  0.83450469  1
  O2-  O339  1  0.66258507  0.81468967  0.15783006  1
  O2-  O340  1  0.66589925  0.81574764  0.50698486  1
  O2-  O341  1  0.66643944  0.82675921  0.83343188  1
  O2-  O342  1  0.17201952  0.30774302  0.16539550  1
  O2-  O343  1  0.16642114  0.32712418  0.50102974  1
  O2-  O344  1  0.16820186  0.32209811  0.82822092  1
  O2-  O345  1  0.16805791  0.82682360  0.16874406  1
  O2-  O346  1  0.16896144  0.81264313  0.50146255  1
  O2-  O347  1  0.16603271  0.82732526  0.83257076  1
  O2-  O348  1  0.50512945  0.32235790  0.16509109  1
  O2-  O349  1  0.50182617  0.31988094  0.49420088  1
  O2-  O350  1  0.49545356  0.32126604  0.83678608  1
  O2-  O351  1  0.50331533  0.82896689  0.15976423  1
  O2-  O352  1  0.50514856  0.81650675  0.49493869  1
  O2-  O353  1  0.50244078  0.81964082  0.82794468  1
  O2-  O354  1  0.83369888  0.32317381  0.16260399  1
  O2-  O355  1  0.83681916  0.32303511  0.49813649  1
  O2-  O356  1  0.82923052  0.32299907  0.83695894  1
  O2-  O357  1  0.83402562  0.80916450  0.16198062  1
  O2-  O358  1  0.83085358  0.81635904  0.50147812  1
  O2-  O359  1  0.83378505  0.82473282  0.82980510  1
  O2-  O360  1  0.07956268  0.07775139  0.12945350  1
  O2-  O361  1  0.09301347  0.07935745  0.45689238  1
  O2-  O362  1  0.08672451  0.08022365  0.77375823  1
  O2-  O363  1  0.08426381  0.57317250  0.11287455  1
  O2-  O364  1  0.08277620  0.58768993  0.44026976  1
  O2-  O365  1  0.07649334  0.57929495  0.78280469  1
  O2-  O366  1  0.42082034  0.07320288  0.11426795  1
  O2-  O367  1  0.39844786  0.08365024  0.44840362  1
  O2-  O368  1  0.40890442  0.08391194  0.78289250  1
  O2-  O369  1  0.40835300  0.57115388  0.11672305  1
  O2-  O370  1  0.42400858  0.58067025  0.45205132  1
  O2-  O371  1  0.41135098  0.58425365  0.75584499  1
  O2-  O372  1  0.74240140  0.08700345  0.11580584  1
  O2-  O373  1  0.75680825  0.07491610  0.44954088  1
  O2-  O374  1  0.73887488  0.07960256  0.77905381  1
  O2-  O375  1  0.75051889  0.57851441  0.10707129  1
  O2-  O376  1  0.74465541  0.58186635  0.45018695  1
  O2-  O377  1  0.74721593  0.58772090  0.74278042  1
  O2-  O378  1  0.23702377  0.07937994  0.21343827  1
  O2-  O379  1  0.23956040  0.08242117  0.55112413  1
  O2-  O380  1  0.24560685  0.08503431  0.88031931  1
  O2-  O381  1  0.23763436  0.58167943  0.23236863  1
  O2-  O382  1  0.26952891  0.58217915  0.56821857  1
  O2-  O383  1  0.24738721  0.57504248  0.88198145  1
  O2-  O384  1  0.57982298  0.08047767  0.21261728  1
  O2-  O385  1  0.57022980  0.06786359  0.55004912  1
  O2-  O386  1  0.58700625  0.08355895  0.88048661  1
  O2-  O387  1  0.58596253  0.58119142  0.21916556  1
  O2-  O388  1  0.59185721  0.57931540  0.55491722  1
  O2-  O389  1  0.57911984  0.58106791  0.88955973  1
  O2-  O390  1  0.91279513  0.08137401  0.21943683  1
  O2-  O391  1  0.91751877  0.07875503  0.54877287  1
  O2-  O392  1  0.92611932  0.08224843  0.87119009  1
  O2-  O393  1  0.92613818  0.58274494  0.23455830  1
  O2-  O394  1  0.89330039  0.58266211  0.55163993  1
  O2-  O395  1  0.91694767  0.57847756  0.87583698  1
  O2-  O396  1  0.07097522  0.41882600  0.10937022  1
  O2-  O397  1  0.07499273  0.41872852  0.44560658  1
  O2-  O398  1  0.08609411  0.42097419  0.77991981  1
  O2-  O399  1  0.09165838  0.91673234  0.11030266  1
  O2-  O400  1  0.08385127  0.91534241  0.44588426  1
  O2-  O401  1  0.08266880  0.91740524  0.76487256  1
  O2-  O402  1  0.43654415  0.41786214  0.11557290  1
  O2-  O403  1  0.40833239  0.41842307  0.41874566  1
  O2-  O404  1  0.42113771  0.42010594  0.77995401  1
  O2-  O405  1  0.42541646  0.91939962  0.10905001  1
  O2-  O406  1  0.42618747  0.91420259  0.44850968  1
  O2-  O407  1  0.41642162  0.91722943  0.76667809  1
  O2-  O408  1  0.73692744  0.41681015  0.11748502  1
  O2-  O409  1  0.75925101  0.42350087  0.44304038  1
  O2-  O410  1  0.74944177  0.42103762  0.78477177  1
  O2-  O411  1  0.74494336  0.92000595  0.10311435  1
  O2-  O412  1  0.73851398  0.91326873  0.45121363  1
  O2-  O413  1  0.75346880  0.91754033  0.77464174  1
  O2-  O414  1  0.26564906  0.41790891  0.23759362  1
  O2-  O415  1  0.24083624  0.41859882  0.56961037  1
  O2-  O416  1  0.24766918  0.42745308  0.88004872  1
  O2-  O417  1  0.24520986  0.91858455  0.23276531  1
  O2-  O418  1  0.25121094  0.91622147  0.55857211  1
  O2-  O419  1  0.25757869  0.91559997  0.88666023  1
  O2-  O420  1  0.57835929  0.42315354  0.22661868  1
  O2-  O421  1  0.58860856  0.41960623  0.54883415  1
  O2-  O422  1  0.57700270  0.42500294  0.88690638  1
  O2-  O423  1  0.59164213  0.92159027  0.20816025  1
  O2-  O424  1  0.58110807  0.91837060  0.55809294  1
  O2-  O425  1  0.57801272  0.91534412  0.89932647  1
  O2-  O426  1  0.90915452  0.42682960  0.22143001  1
  O2-  O427  1  0.91922673  0.42133915  0.54980647  1
  O2-  O428  1  0.92228891  0.41963048  0.87997474  1
  O2-  O429  1  0.93428179  0.91449655  0.24125025  1
  O2-  O430  1  0.92237088  0.91647476  0.54793982  1
  O2-  O431  1  0.90754899  0.91642757  0.89492199  1
  O2-  O432  1  -0.00405401  0.01023875  -0.00745476  1
  O2-  O433  1  0.01098485  0.01613205  0.31389909  1
  O2-  O434  1  0.01613978  0.00288027  0.63875060  1
  O2-  O435  1  -0.00270206  0.50138892  0.01432791  1
  O2-  O436  1  -0.00402668  0.49551129  0.34392439  1
  O2-  O437  1  -0.00876742  0.49153551  0.68193374  1
  O2-  O438  1  0.31096823  -0.00550498  0.02984445  1
  O2-  O439  1  0.32438338  0.00573196  0.34169291  1
  O2-  O440  1  0.32860424  -0.00300461  0.68114837  1
  O2-  O441  1  0.35281742  0.49427614  -0.01858259  1
  O2-  O442  1  0.33613293  0.51038048  0.32286959  1
  O2-  O443  1  0.32412976  0.49799976  0.70487141  1
  O2-  O444  1  0.66747012  0.00512740  0.01458977  1
  O2-  O445  1  0.65071432  0.00242621  0.36269762  1
  O2-  O446  1  0.65216938  -0.00456570  0.69466041  1
  O2-  O447  1  0.66655069  0.48367980  0.00138886  1
  O2-  O448  1  0.64111799  0.49671259  0.36896502  1
  O2-  O449  1  0.67707641  0.49692149  0.65276261  1
  O2-  O450  1  0.15100843  0.00770589  -0.01813346  1
  O2-  O451  1  0.16833671  0.01543453  0.33705150  1
  O2-  O452  1  0.16861589  0.00954654  0.67237231  1
  O2-  O453  1  0.15584100  0.49772128  -0.02042099  1
  O2-  O454  1  0.17714038  0.50224347  0.34322640  1
  O2-  O455  1  0.18247398  0.50391593  0.70627434  1
  O2-  O456  1  0.52139563  -0.00042729  0.04005353  1
  O2-  O457  1  0.49518529  -0.01709973  0.32667870  1
  O2-  O458  1  0.49848523  0.00515572  0.67793017  1
  O2-  O459  1  0.51158531  0.49214980  0.01231848  1
  O2-  O460  1  0.49414381  0.50230369  0.32629055  1
  O2-  O461  1  0.51759587  0.50711943  0.68201463  1
  O2-  O462  1  0.83037305  0.00237167  -0.00492496  1
  O2-  O463  1  0.85867546  -0.00109935  0.37081070  1
  O2-  O464  1  0.83921784  -0.01517610  0.66598682  1
  O2-  O465  1  0.84001147  0.48328574  0.02153554  1
  O2-  O466  1  0.85049337  0.50056599  0.35985175  1
  O2-  O467  1  0.83460448  0.49957889  0.67068023  1
  O2-  O468  1  0.09197076  0.74959739  0.73627591  1
  O2-  O469  1  0.07455533  0.24940425  0.39866021  1
  O2-  O470  1  0.74859432  0.75256302  0.73929861  1
  O2-  O471  1  0.41688814  0.74901511  0.38667366  1
  O2-  O472  1  0.06741471  0.25358820  0.05294030  1
  O2-  O473  1  0.75350765  0.25200985  0.04667749  1
  O2-  O474  1  0.58425213  0.25209214  0.93768093  1
  O2-  O475  1  0.91719112  0.25232907  0.94704762  1
  O2-  O476  1  0.24712590  0.25246198  0.93632480  1
  O2-  O477  1  0.25801558  0.75096192  0.25447355  1
  O2-  O478  1  0.40983554  0.25104126  0.72751259  1
  O2-  O479  1  0.74439146  0.25807311  0.73674485  1
  O2-  O480  1  0.92679588  0.24803158  0.27187991  1
  O2-  O481  1  0.90829463  0.74956973  0.27103920  1
  O2-  O482  1  0.57526423  0.74940239  0.27393058  1
  O2-  O483  1  0.92697760  0.25123503  0.60247652  1
  O2-  O484  1  0.24417503  0.25138930  0.60877102  1
  O2-  O485  1  0.24408443  0.74949647  0.92401542  1
  O2-  O486  1  0.08753736  0.75134979  0.07374440  1
  O2-  O487  1  0.40885375  0.75234600  0.07727079  1
  O2-  O488  1  0.57879284  0.25714193  0.60356199  1
  O2-  O489  1  0.74439028  0.74964451  0.39122080  1
  O2-  O490  1  0.92662776  0.74667943  0.92776853  1
  O2-  O491  1  0.41899483  0.25699188  0.06715855  1
  O2-  O492  1  0.58749034  0.75089381  0.93814468  1
