# generated using pymatgen
data_Ca108Mn108O277
_symmetry_space_group_name_H-M   'P 1'
_cell_length_a   16.02943562
_cell_length_b   22.30966500
_cell_length_c   16.39095460
_cell_angle_alpha   89.99654415
_cell_angle_beta   89.99840992
_cell_angle_gamma   89.99941884
_symmetry_Int_Tables_number   1
_chemical_formula_structural   Ca108Mn108O277
_chemical_formula_sum   'Ca108 Mn108 O277'
_cell_volume   5861.59120612
_cell_formula_units_Z   1
loop_
 _symmetry_equiv_pos_site_id
 _symmetry_equiv_pos_as_xyz
  1  'x, y, z'
loop_
 _atom_type_symbol
 _atom_type_oxidation_number
  Ca2+  2.0
  Mn3.34+  3.34
  O2-  -2.0
loop_
 _atom_site_type_symbol
 _atom_site_label
 _atom_site_symmetry_multiplicity
 _atom_site_fract_x
 _atom_site_fract_y
 _atom_site_fract_z
 _atom_site_occupancy
  Ca2+  Ca0  1  0.08196976  0.26153260  0.25102883  1
  Ca2+  Ca1  1  0.08834218  0.23903820  0.59903088  1
  Ca2+  Ca2  1  0.08716159  0.24788503  0.88956886  1
  Ca2+  Ca3  1  0.09334269  0.73689959  0.26936233  1
  Ca2+  Ca4  1  0.06934248  0.75791014  0.55939076  1
  Ca2+  Ca5  1  0.07823350  0.76433143  0.91328699  1
  Ca2+  Ca6  1  0.41570731  0.24836966  0.25335207  1
  Ca2+  Ca7  1  0.41142427  0.24233141  0.58202908  1
  Ca2+  Ca8  1  0.40994725  0.25045332  0.91310921  1
  Ca2+  Ca9  1  0.40423390  0.74958373  0.23390849  1
  Ca2+  Ca10  1  0.42511673  0.76662362  0.58466595  1
  Ca2+  Ca11  1  0.43580506  0.76004293  0.92473900  1
  Ca2+  Ca12  1  0.75431774  0.26220343  0.25432320  1
  Ca2+  Ca13  1  0.75027631  0.25077566  0.58882294  1
  Ca2+  Ca14  1  0.75091840  0.26087477  0.91332195  1
  Ca2+  Ca15  1  0.75990914  0.74606791  0.26322155  1
  Ca2+  Ca16  1  0.75288369  0.75042874  0.57151596  1
  Ca2+  Ca17  1  0.72758855  0.74715170  0.91854172  1
  Ca2+  Ca18  1  0.25640686  0.25658707  0.07726648  1
  Ca2+  Ca19  1  0.26186115  0.25266104  0.41595925  1
  Ca2+  Ca20  1  0.25679202  0.23399310  0.74503015  1
  Ca2+  Ca21  1  0.27227428  0.75288894  0.10190905  1
  Ca2+  Ca22  1  0.24091499  0.75740154  0.40468698  1
  Ca2+  Ca23  1  0.25896736  0.76571983  0.74511810  1
  Ca2+  Ca24  1  0.58354979  0.25882774  0.08873001  1
  Ca2+  Ca25  1  0.57496447  0.23995782  0.41355892  1
  Ca2+  Ca26  1  0.58131300  0.24148275  0.73954042  1
  Ca2+  Ca27  1  0.56395834  0.74123696  0.07011657  1
  Ca2+  Ca28  1  0.61051989  0.74330857  0.42548914  1
  Ca2+  Ca29  1  0.58393879  0.74745361  0.76776628  1
  Ca2+  Ca30  1  0.91082450  0.26133503  0.08272158  1
  Ca2+  Ca31  1  0.90848497  0.25487016  0.41663690  1
  Ca2+  Ca32  1  0.91649194  0.23425767  0.73995963  1
  Ca2+  Ca33  1  0.89777150  0.75596676  0.08855073  1
  Ca2+  Ca34  1  0.91796449  0.74685889  0.41719813  1
  Ca2+  Ca35  1  0.90447663  0.75319247  0.74439930  1
  Ca2+  Ca36  1  0.29589474  0.10307823  0.42750083  1
  Ca2+  Ca37  1  0.44865603  0.56560161  0.59054156  1
  Ca2+  Ca38  1  0.89526894  0.58603610  0.09151939  1
  Ca2+  Ca39  1  0.72218155  0.58458382  0.59204440  1
  Ca2+  Ca40  1  0.92121548  0.59935022  0.41204284  1
  Ca2+  Ca41  1  0.94208789  0.05979607  0.05700727  1
  Ca2+  Ca42  1  0.74684751  0.58932619  0.25083746  1
  Ca2+  Ca43  1  0.89983006  0.07993579  0.40657105  1
  Ca2+  Ca44  1  0.44933550  0.60027860  0.92523043  1
  Ca2+  Ca45  1  0.28394906  0.10272501  0.42371772  1
  Ca2+  Ca46  1  0.91003546  0.59959542  0.41095930  1
  Ca2+  Ca47  1  0.27830725  0.61152753  0.10167549  1
  Ca2+  Ca48  1  0.41911499  0.60961118  0.23001860  1
  Ca2+  Ca49  1  0.73173002  0.59864161  0.91989088  1
  Ca2+  Ca50  1  0.58418084  0.60046086  0.08257582  1
  Ca2+  Ca51  1  0.27473965  0.08780209  0.08094603  1
  Ca2+  Ca52  1  0.75735874  0.58947081  0.25027976  1
  Ca2+  Ca53  1  0.45341868  0.10725716  0.28589446  1
  Ca2+  Ca54  1  0.89198925  0.59333386  0.75343894  1
  Ca2+  Ca55  1  0.59888923  0.58917125  0.75248210  1
  Ca2+  Ca56  1  0.55217968  0.09054934  0.09819933  1
  Ca2+  Ca57  1  0.45542053  0.60581016  0.92870018  1
  Ca2+  Ca58  1  0.06915312  0.58774921  0.92306640  1
  Ca2+  Ca59  1  0.60306573  0.59181474  0.41091284  1
  Ca2+  Ca60  1  0.72245632  0.08315283  0.26833287  1
  Ca2+  Ca61  1  0.08637661  0.08316028  0.24999343  1
  Ca2+  Ca62  1  0.45916494  0.56612205  0.58991018  1
  Ca2+  Ca63  1  0.05738596  0.59036028  0.92028322  1
  Ca2+  Ca64  1  0.73140421  0.58885178  0.59260699  1
  Ca2+  Ca65  1  0.22675437  0.60268984  0.38225665  1
  Ca2+  Ca66  1  0.56350123  0.09410491  0.09685879  1
  Ca2+  Ca67  1  0.25906750  0.59001630  0.74364938  1
  Ca2+  Ca68  1  0.40781247  0.10959592  0.90225160  1
  Ca2+  Ca69  1  0.71690896  0.10494036  0.62954278  1
  Ca2+  Ca70  1  0.75239176  0.08226870  0.87545071  1
  Ca2+  Ca71  1  0.07095840  0.61034063  0.57496128  1
  Ca2+  Ca72  1  0.90434495  0.41477402  0.38239724  1
  Ca2+  Ca73  1  0.59814878  0.91335424  0.74860274  1
  Ca2+  Ca74  1  0.05979843  0.92737024  0.93524483  1
  Ca2+  Ca75  1  0.74442551  0.90999345  0.25236652  1
  Ca2+  Ca76  1  0.26734833  0.39771217  0.41233916  1
  Ca2+  Ca77  1  0.07474166  0.40339771  0.92946858  1
  Ca2+  Ca78  1  0.41520678  0.90758501  0.24754498  1
  Ca2+  Ca79  1  0.60715022  0.43007210  0.70389454  1
  Ca2+  Ca80  1  0.90293463  0.91074603  0.41315158  1
  Ca2+  Ca81  1  0.61715424  0.43164036  0.70694670  1
  Ca2+  Ca82  1  0.42352864  0.40757760  0.26744925  1
  Ca2+  Ca83  1  0.89292696  0.41548169  0.38119751  1
  Ca2+  Ca84  1  0.42135105  0.39317459  0.91288192  1
  Ca2+  Ca85  1  0.56031334  0.91477407  0.07596004  1
  Ca2+  Ca86  1  0.59548000  0.91267203  0.41652304  1
  Ca2+  Ca87  1  0.87725541  0.40414514  0.75752098  1
  Ca2+  Ca88  1  0.58284389  0.91149273  0.41558284  1
  Ca2+  Ca89  1  0.74779484  0.91905049  0.58847051  1
  Ca2+  Ca90  1  0.91310768  0.92003452  0.75937157  1
  Ca2+  Ca91  1  0.26909769  0.91669744  0.08501621  1
  Ca2+  Ca92  1  0.06323581  0.40288533  0.92938189  1
  Ca2+  Ca93  1  0.40524518  0.91140211  0.58284950  1
  Ca2+  Ca94  1  0.88482940  0.42157270  0.10880655  1
  Ca2+  Ca95  1  0.74886117  0.91329163  0.91947567  1
  Ca2+  Ca96  1  0.07020347  0.92855363  0.93528557  1
  Ca2+  Ca97  1  0.26193347  0.38818338  0.75293164  1
  Ca2+  Ca98  1  0.88820026  0.40265768  0.75235673  1
  Ca2+  Ca99  1  0.91436293  0.91032812  0.41267417  1
  Ca2+  Ca100  1  0.23452486  0.90925031  0.73826789  1
  Ca2+  Ca101  1  0.08256604  0.38903641  0.57606947  1
  Ca2+  Ca102  1  0.75576327  0.91039899  0.25128170  1
  Ca2+  Ca103  1  0.92001303  0.91306633  0.07630819  1
  Ca2+  Ca104  1  0.56632732  0.41080742  0.43295507  1
  Ca2+  Ca105  1  0.60120260  0.41037853  0.09643301  1
  Ca2+  Ca106  1  0.09133129  0.90625898  0.24469117  1
  Ca2+  Ca107  1  0.90375507  0.91711680  0.76210786  1
  Mn3.34+  Mn108  1  0.08530484  0.33657928  0.09187203  1
  Mn3.34+  Mn109  1  0.08582667  0.32946017  0.41726459  1
  Mn3.34+  Mn110  1  0.08106630  0.33344546  0.74967809  1
  Mn3.34+  Mn111  1  0.08814023  0.83863652  0.08679798  1
  Mn3.34+  Mn112  1  0.08461108  0.83336935  0.41577319  1
  Mn3.34+  Mn113  1  0.08115432  0.83987371  0.75181102  1
  Mn3.34+  Mn114  1  0.41894213  0.33746024  0.08971335  1
  Mn3.34+  Mn115  1  0.42130892  0.33278068  0.42142216  1
  Mn3.34+  Mn116  1  0.42289391  0.32948134  0.74825345  1
  Mn3.34+  Mn117  1  0.41625052  0.83736843  0.08060341  1
  Mn3.34+  Mn118  1  0.41360565  0.83572210  0.41701833  1
  Mn3.34+  Mn119  1  0.41757588  0.83732963  0.75427897  1
  Mn3.34+  Mn120  1  0.74767620  0.33876047  0.08351817  1
  Mn3.34+  Mn121  1  0.74094056  0.32964617  0.41968999  1
  Mn3.34+  Mn122  1  0.73957967  0.32448065  0.74900911  1
  Mn3.34+  Mn123  1  0.74358880  0.83335556  0.08265938  1
  Mn3.34+  Mn124  1  0.74924207  0.83401666  0.42129114  1
  Mn3.34+  Mn125  1  0.74973800  0.83575657  0.75120937  1
  Mn3.34+  Mn126  1  0.25010665  0.32584895  0.24572482  1
  Mn3.34+  Mn127  1  0.25400990  0.32584972  0.58270097  1
  Mn3.34+  Mn128  1  0.25149178  0.32913639  0.91966840  1
  Mn3.34+  Mn129  1  0.25069377  0.83467865  0.25192443  1
  Mn3.34+  Mn130  1  0.24443111  0.84057559  0.57769616  1
  Mn3.34+  Mn131  1  0.25339994  0.83774217  0.91588235  1
  Mn3.34+  Mn132  1  0.58448281  0.33306755  0.25195379  1
  Mn3.34+  Mn133  1  0.58045188  0.32916669  0.57926699  1
  Mn3.34+  Mn134  1  0.58559667  0.33096160  0.91313644  1
  Mn3.34+  Mn135  1  0.58031843  0.82899082  0.24451279  1
  Mn3.34+  Mn136  1  0.58283550  0.83737472  0.58769451  1
  Mn3.34+  Mn137  1  0.58211307  0.83798734  0.91556286  1
  Mn3.34+  Mn138  1  0.91614905  0.33148690  0.24597857  1
  Mn3.34+  Mn139  1  0.91401993  0.33024023  0.57721180  1
  Mn3.34+  Mn140  1  0.90998788  0.32960278  0.91951912  1
  Mn3.34+  Mn141  1  0.92310131  0.83153771  0.24261984  1
  Mn3.34+  Mn142  1  0.91828149  0.83831067  0.58472567  1
  Mn3.34+  Mn143  1  0.91165595  0.83041362  0.91788653  1
  Mn3.34+  Mn144  1  0.73562833  0.15798314  0.42333008  1
  Mn3.34+  Mn145  1  0.08845722  0.16886570  0.42206538  1
  Mn3.34+  Mn146  1  0.91563905  0.66654923  0.24880500  1
  Mn3.34+  Mn147  1  0.90930957  0.66902289  0.58229591  1
  Mn3.34+  Mn148  1  0.92249922  0.15341167  0.90559072  1
  Mn3.34+  Mn149  1  0.91630784  0.16558916  0.24497071  1
  Mn3.34+  Mn150  1  0.25785215  0.16289214  0.59317950  1
  Mn3.34+  Mn151  1  0.07994313  0.16359196  0.08050113  1
  Mn3.34+  Mn152  1  0.08959183  0.15831976  0.08330748  1
  Mn3.34+  Mn153  1  0.24341186  0.66510321  0.58321877  1
  Mn3.34+  Mn154  1  0.91677245  0.16608345  0.58651575  1
  Mn3.34+  Mn155  1  0.08486691  0.67300085  0.08879667  1
  Mn3.34+  Mn156  1  0.25750623  0.67070504  0.58484793  1
  Mn3.34+  Mn157  1  0.74288530  0.16579335  0.08195792  1
  Mn3.34+  Mn158  1  0.90727747  0.67086999  0.91688170  1
  Mn3.34+  Mn159  1  0.07595763  0.67584146  0.75112717  1
  Mn3.34+  Mn160  1  0.07611200  0.66722888  0.09168669  1
  Mn3.34+  Mn161  1  0.24779504  0.16917022  0.90851964  1
  Mn3.34+  Mn162  1  0.58270303  0.67136745  0.58664403  1
  Mn3.34+  Mn163  1  0.75580235  0.15937776  0.08479322  1
  Mn3.34+  Mn164  1  0.41206674  0.16841404  0.08750726  1
  Mn3.34+  Mn165  1  0.74781342  0.66898597  0.08330392  1
  Mn3.34+  Mn166  1  0.59124234  0.16582456  0.90811883  1
  Mn3.34+  Mn167  1  0.24399533  0.67108241  0.91029204  1
  Mn3.34+  Mn168  1  0.74642693  0.66952948  0.75436515  1
  Mn3.34+  Mn169  1  0.91349681  0.15901593  0.90873280  1
  Mn3.34+  Mn170  1  0.08896998  0.14619294  0.74538244  1
  Mn3.34+  Mn171  1  0.42410017  0.66540917  0.41672788  1
  Mn3.34+  Mn172  1  0.74955536  0.16396210  0.41989529  1
  Mn3.34+  Mn173  1  0.58846808  0.66948020  0.24681731  1
  Mn3.34+  Mn174  1  0.58026981  0.16160961  0.90649396  1
  Mn3.34+  Mn175  1  0.41487841  0.65938404  0.41775431  1
  Mn3.34+  Mn176  1  0.41811133  0.66774005  0.74754232  1
  Mn3.34+  Mn177  1  0.07748513  0.16818515  0.41636705  1
  Mn3.34+  Mn178  1  0.25507810  0.67611801  0.91062028  1
  Mn3.34+  Mn179  1  0.25195575  0.16626297  0.24323938  1
  Mn3.34+  Mn180  1  0.25406757  0.00260617  0.25274181  1
  Mn3.34+  Mn181  1  0.58679998  0.00640294  0.59493587  1
  Mn3.34+  Mn182  1  0.09630085  0.50313532  0.41844322  1
  Mn3.34+  Mn183  1  0.23306968  0.00299586  0.60171113  1
  Mn3.34+  Mn184  1  0.07755840  0.50478887  0.74335304  1
  Mn3.34+  Mn185  1  0.25114125  0.00511079  0.91681665  1
  Mn3.34+  Mn186  1  0.57472766  -0.00045860  0.92497044  1
  Mn3.34+  Mn187  1  0.90343054  0.49708421  0.58448246  1
  Mn3.34+  Mn188  1  0.42117137  0.00002735  0.41799545  1
  Mn3.34+  Mn189  1  0.24779744  0.50147132  0.91326875  1
  Mn3.34+  Mn190  1  0.89410412  0.49980942  0.93097621  1
  Mn3.34+  Mn191  1  0.26036362  0.50054657  0.57108676  1
  Mn3.34+  Mn192  1  0.08829053  0.00128461  0.42944340  1
  Mn3.34+  Mn193  1  0.57930208  0.50090359  0.25860211  1
  Mn3.34+  Mn194  1  0.26099732  -0.00033102  0.91823732  1
  Mn3.34+  Mn195  1  0.24252718  0.49088574  0.24241580  1
  Mn3.34+  Mn196  1  0.42297820  0.00334572  0.74864427  1
  Mn3.34+  Mn197  1  0.25526898  0.49735678  0.24461730  1
  Mn3.34+  Mn198  1  0.41733097  0.49728551  0.08154393  1
  Mn3.34+  Mn199  1  0.74350294  -0.00053334  0.06904908  1
  Mn3.34+  Mn200  1  0.26361951  0.49796332  0.91123083  1
  Mn3.34+  Mn201  1  0.09200681  0.49871566  0.74496422  1
  Mn3.34+  Mn202  1  0.91978998  0.00164094  0.24914678  1
  Mn3.34+  Mn203  1  0.60846838  0.48998989  0.92462914  1
  Mn3.34+  Mn204  1  0.59924200  0.48352758  0.92548009  1
  Mn3.34+  Mn205  1  0.92429649  0.01054161  0.60193577  1
  Mn3.34+  Mn206  1  0.07782195  0.49934168  0.08700763  1
  Mn3.34+  Mn207  1  0.24689074  0.49435440  0.57456466  1
  Mn3.34+  Mn208  1  0.41539787  0.49775709  0.75931898  1
  Mn3.34+  Mn209  1  0.91560096  0.49304417  0.58230183  1
  Mn3.34+  Mn210  1  0.73794548  0.49491128  0.41942436  1
  Mn3.34+  Mn211  1  0.40779470  0.00567611  0.74716094  1
  Mn3.34+  Mn212  1  0.10099319  -0.00549026  0.42609453  1
  Mn3.34+  Mn213  1  0.08348568  0.49644885  0.42323805  1
  Mn3.34+  Mn214  1  0.93873360  0.01333920  0.60688379  1
  Mn3.34+  Mn215  1  0.57948072  -0.00446757  0.24912744  1
  O2-  O216  1  -0.00059723  0.15040899  -0.00268850  1
  O2-  O217  1  0.00101676  0.15206747  0.33342516  1
  O2-  O218  1  0.00268295  0.16198343  0.66435079  1
  O2-  O219  1  -0.00376356  0.65505360  0.00605748  1
  O2-  O220  1  -0.00772699  0.65615069  0.32920685  1
  O2-  O221  1  -0.01072158  0.66002504  0.67243643  1
  O2-  O222  1  0.33503235  0.16871672  -0.00021889  1
  O2-  O223  1  0.33340963  0.15759119  0.32104730  1
  O2-  O224  1  0.33891833  0.17231426  0.66335799  1
  O2-  O225  1  0.33720855  0.64452412  -0.01765729  1
  O2-  O226  1  0.34139163  0.64823275  0.33416459  1
  O2-  O227  1  0.34174230  0.63837894  0.65239026  1
  O2-  O228  1  0.66126872  0.13622644  -0.00198814  1
  O2-  O229  1  0.66556286  0.16366658  0.33576345  1
  O2-  O230  1  0.66944217  0.19424590  0.66413098  1
  O2-  O231  1  0.66966140  0.65999820  0.00630617  1
  O2-  O232  1  0.67157959  0.65820022  0.32548895  1
  O2-  O233  1  0.66250743  0.65593355  0.67044257  1
  O2-  O234  1  0.17293051  0.15400186  0.00396783  1
  O2-  O235  1  0.16985170  0.15046049  0.33618994  1
  O2-  O236  1  0.16701035  0.15933076  0.66722587  1
  O2-  O237  1  0.15937592  0.64724987  -0.00120612  1
  O2-  O238  1  0.17373305  0.68146455  0.34328366  1
  O2-  O239  1  0.16944144  0.65605530  0.67369817  1
  O2-  O240  1  0.50006902  0.15256710  -0.00316782  1
  O2-  O241  1  0.49062374  0.19280809  0.33356057  1
  O2-  O242  1  0.51364311  0.18820557  0.64224569  1
  O2-  O243  1  0.50891457  0.66208723  0.00359951  1
  O2-  O244  1  0.51140211  0.65586706  0.33793510  1
  O2-  O245  1  0.50079394  0.64287794  0.66863252  1
  O2-  O246  1  0.83198507  0.14936275  0.00070917  1
  O2-  O247  1  0.82583899  0.14613554  0.33492308  1
  O2-  O248  1  0.83286425  0.16552065  0.65783464  1
  O2-  O249  1  0.83062560  0.64855540  -0.00097524  1
  O2-  O250  1  0.83203930  0.65277873  0.32870598  1
  O2-  O251  1  0.82246313  0.64684389  0.65912756  1
  O2-  O252  1  0.00407152  0.32616650  -0.00267388  1
  O2-  O253  1  -0.00694355  0.33491187  0.34205121  1
  O2-  O254  1  -0.01085732  0.35557566  0.67410719  1
  O2-  O255  1  0.00396157  0.84028260  -0.00333066  1
  O2-  O256  1  -0.00311581  0.85428637  0.33168771  1
  O2-  O257  1  -0.00473027  0.83643342  0.67352263  1
  O2-  O258  1  0.34222427  0.32516534  -0.00227397  1
  O2-  O259  1  0.33902966  0.33165938  0.33464551  1
  O2-  O260  1  0.33448127  0.32521923  0.66995307  1
  O2-  O261  1  0.32842061  0.85115063  0.00270167  1
  O2-  O262  1  0.33626114  0.84863483  0.33157281  1
  O2-  O263  1  0.32966995  0.85068560  0.67167967  1
  O2-  O264  1  0.66469166  0.34785283  -0.00018708  1
  O2-  O265  1  0.65847182  0.32437448  0.33896350  1
  O2-  O266  1  0.66175278  0.32701260  0.66440976  1
  O2-  O267  1  0.66314496  0.85283174  0.00178350  1
  O2-  O268  1  0.66561865  0.84430662  0.33291673  1
  O2-  O269  1  0.67100857  0.85292828  0.66606091  1
  O2-  O270  1  0.16345306  0.34414018  0.00062453  1
  O2-  O271  1  0.16977235  0.33012020  0.33647112  1
  O2-  O272  1  0.16591758  0.34697573  0.66732178  1
  O2-  O273  1  0.15945886  0.85432280  -0.00823940  1
  O2-  O274  1  0.16017874  0.84047391  0.32680712  1
  O2-  O275  1  0.16283787  0.83078118  0.66939957  1
  O2-  O276  1  0.50405445  0.34262121  0.00482031  1
  O2-  O277  1  0.49877360  0.32721288  0.33457793  1
  O2-  O278  1  0.50609500  0.32107036  0.66897209  1
  O2-  O279  1  0.49959972  0.84415857  -0.00127194  1
  O2-  O280  1  0.50487048  0.84608549  0.33384365  1
  O2-  O281  1  0.49650692  0.85543226  0.66460930  1
  O2-  O282  1  0.83759925  0.34467121  0.00600166  1
  O2-  O283  1  0.82875235  0.33854318  0.32784091  1
  O2-  O284  1  0.82898439  0.33435595  0.66778196  1
  O2-  O285  1  0.83268869  0.85131296  0.00191789  1
  O2-  O286  1  0.83076598  0.85018183  0.33231254  1
  O2-  O287  1  0.83770608  0.85673716  0.66972814  1
  O2-  O288  1  0.00375667  0.19201680  0.15812750  1
  O2-  O289  1  -0.00294463  0.18875197  0.49489329  1
  O2-  O290  1  0.00414027  0.17323372  0.82766794  1
  O2-  O291  1  -0.00546376  0.68957262  0.16633440  1
  O2-  O292  1  -0.01061206  0.67627608  0.50311050  1
  O2-  O293  1  0.00319007  0.68017613  0.84754035  1
  O2-  O294  1  0.32729243  0.18768762  0.15996822  1
  O2-  O295  1  0.32677192  0.17935960  0.49826502  1
  O2-  O296  1  0.33281523  0.18680135  0.84216489  1
  O2-  O297  1  0.34030676  0.67872107  0.16665377  1
  O2-  O298  1  0.32503897  0.67788144  0.49171652  1
  O2-  O299  1  0.31872827  0.67844172  0.80915275  1
  O2-  O300  1  0.65885054  0.17636699  0.15603590  1
  O2-  O301  1  0.66743653  0.18249610  0.50211008  1
  O2-  O302  1  0.67662612  0.17893032  0.83786564  1
  O2-  O303  1  0.67077391  0.68629554  0.16756335  1
  O2-  O304  1  0.66593116  0.67538870  0.51256458  1
  O2-  O305  1  0.66882096  0.67768675  0.83117006  1
  O2-  O306  1  0.16220421  0.18477968  0.16661213  1
  O2-  O307  1  0.17167061  0.18301001  0.49353827  1
  O2-  O308  1  0.16670239  0.17688816  0.82806425  1
  O2-  O309  1  0.17181681  0.68555850  0.15799636  1
  O2-  O310  1  0.16152263  0.68530515  0.51260892  1
  O2-  O311  1  0.15937632  0.69318608  0.83438106  1
  O2-  O312  1  0.49895560  0.18826916  0.15127015  1
  O2-  O313  1  0.49367478  0.18615998  0.50139247  1
  O2-  O314  1  0.49850988  0.18673217  0.83505300  1
  O2-  O315  1  0.50540537  0.68410473  0.17775108  1
  O2-  O316  1  0.49576594  0.67841499  0.50439730  1
  O2-  O317  1  0.48785136  0.67689133  0.83382430  1
  O2-  O318  1  0.82773510  0.18351081  0.16875531  1
  O2-  O319  1  0.83353368  0.17656641  0.49511154  1
  O2-  O320  1  0.83152361  0.17776863  0.83437359  1
  O2-  O321  1  0.83181450  0.68272043  0.16796377  1
  O2-  O322  1  0.83409729  0.66308046  0.49997650  1
  O2-  O323  1  0.83558291  0.68310169  0.82713871  1
  O2-  O324  1  -0.00005981  0.31613318  0.16663630  1
  O2-  O325  1  0.00908152  0.31526426  0.50507213  1
  O2-  O326  1  0.00025729  0.32925220  0.83878184  1
  O2-  O327  1  0.00400772  0.81228684  0.16031295  1
  O2-  O328  1  -0.01243560  0.82651599  0.49052183  1
  O2-  O329  1  -0.00563288  0.81086443  0.82888678  1
  O2-  O330  1  0.33669503  0.31435322  0.16654771  1
  O2-  O331  1  0.33445309  0.31547170  0.49514866  1
  O2-  O332  1  0.33055695  0.31568419  0.83021488  1
  O2-  O333  1  0.33587269  0.83053250  0.16890138  1
  O2-  O334  1  0.34027629  0.82795149  0.50604540  1
  O2-  O335  1  0.33593977  0.81602865  0.83818120  1
  O2-  O336  1  0.66510281  0.31686629  0.16702903  1
  O2-  O337  1  0.66461903  0.31253401  0.50178799  1
  O2-  O338  1  0.66145575  0.30692487  0.82836444  1
  O2-  O339  1  0.67398540  0.81626261  0.17793452  1
  O2-  O340  1  0.66478519  0.82445451  0.49943250  1
  O2-  O341  1  0.66954176  0.82401759  0.83199791  1
  O2-  O342  1  0.16749375  0.30931737  0.16299608  1
  O2-  O343  1  0.16844866  0.31468343  0.49882168  1
  O2-  O344  1  0.16122861  0.33555867  0.84115956  1
  O2-  O345  1  0.17045265  0.81833014  0.16014373  1
  O2-  O346  1  0.16626190  0.81743165  0.49707150  1
  O2-  O347  1  0.16697663  0.81839713  0.82896592  1
  O2-  O348  1  0.50034789  0.31459630  0.17110437  1
  O2-  O349  1  0.50257263  0.31137896  0.49761882  1
  O2-  O350  1  0.49305928  0.31303051  0.84050666  1
  O2-  O351  1  0.49984740  0.81556391  0.16570806  1
  O2-  O352  1  0.50709238  0.82425950  0.49461673  1
  O2-  O353  1  0.50610140  0.82294288  0.82690475  1
  O2-  O354  1  0.83606716  0.32203941  0.16312134  1
  O2-  O355  1  0.84020974  0.32694221  0.48601133  1
  O2-  O356  1  0.83418001  0.31802729  0.82489907  1
  O2-  O357  1  0.82915091  0.82744578  0.17097696  1
  O2-  O358  1  0.83365341  0.83613961  0.49877853  1
  O2-  O359  1  0.83524925  0.82024903  0.83123323  1
  O2-  O360  1  0.07946871  0.07697688  0.11624087  1
  O2-  O361  1  0.09001560  0.08131301  0.45289562  1
  O2-  O362  1  0.08806530  0.07438948  0.76720483  1
  O2-  O363  1  0.07412783  0.58194062  0.11168979  1
  O2-  O364  1  0.08498466  0.58198611  0.44625414  1
  O2-  O365  1  0.08646481  0.58258997  0.78769290  1
  O2-  O366  1  0.42063243  0.08730447  0.12624503  1
  O2-  O367  1  0.42362807  0.08049755  0.43045327  1
  O2-  O368  1  0.42424502  0.08374650  0.77590776  1
  O2-  O369  1  0.42364238  0.57483682  0.10571543  1
  O2-  O370  1  0.42012572  0.57789970  0.45827521  1
  O2-  O371  1  0.40456295  0.58058118  0.79315525  1
  O2-  O372  1  0.73547718  0.07667301  0.12287204  1
  O2-  O373  1  0.75083934  0.07787629  0.43502468  1
  O2-  O374  1  0.74078529  0.06819482  0.75059233  1
  O2-  O375  1  0.74998291  0.58861445  0.11749509  1
  O2-  O376  1  0.73886159  0.57017955  0.46123703  1
  O2-  O377  1  0.75188746  0.58728713  0.77777855  1
  O2-  O378  1  0.24058881  0.08294256  0.21422310  1
  O2-  O379  1  0.24947334  0.07812819  0.55334681  1
  O2-  O380  1  0.26909266  0.08574020  0.89126320  1
  O2-  O381  1  0.25391775  0.57674817  0.22884921  1
  O2-  O382  1  0.23811184  0.58095046  0.53795850  1
  O2-  O383  1  0.22530854  0.58063592  0.87539263  1
  O2-  O384  1  0.58016893  0.07666422  0.22853774  1
  O2-  O385  1  0.59582578  0.07293232  0.55150825  1
  O2-  O386  1  0.57498637  0.07985346  0.87932730  1
  O2-  O387  1  0.59332666  0.57840219  0.21634908  1
  O2-  O388  1  0.58521085  0.58059756  0.55329522  1
  O2-  O389  1  0.58122384  0.56844308  0.88114112  1
  O2-  O390  1  0.92973157  0.08286316  0.21507316  1
  O2-  O391  1  0.92317719  0.08340841  0.54196123  1
  O2-  O392  1  0.90032735  0.07354087  0.90096121  1
  O2-  O393  1  0.89489018  0.58264914  0.22793697  1
  O2-  O394  1  0.92547018  0.57920942  0.55657514  1
  O2-  O395  1  0.92419910  0.58220993  0.88526618  1
  O2-  O396  1  0.05377768  0.41851478  0.07536572  1
  O2-  O397  1  0.10070839  0.41712009  0.44379972  1
  O2-  O398  1  0.08524848  0.42060356  0.78215198  1
  O2-  O399  1  0.08074985  0.91541621  0.10969848  1
  O2-  O400  1  0.07354874  0.91619054  0.44415788  1
  O2-  O401  1  0.06185920  0.91711274  0.79835064  1
  O2-  O402  1  0.43110627  0.42161817  0.12138492  1
  O2-  O403  1  0.42264020  0.41230516  0.42666396  1
  O2-  O404  1  0.40841121  0.41555649  0.77609398  1
  O2-  O405  1  0.42124477  0.91796576  0.11385653  1
  O2-  O406  1  0.43815148  0.92014251  0.44775399  1
  O2-  O407  1  0.41033481  0.92481764  0.78514975  1
  O2-  O408  1  0.74287191  0.41527529  0.11122721  1
  O2-  O409  1  0.75142012  0.41392015  0.42815233  1
  O2-  O410  1  0.74101540  0.41555574  0.76458436  1
  O2-  O411  1  0.73980912  0.92219391  0.11688999  1
  O2-  O412  1  0.73633096  0.91963725  0.43990614  1
  O2-  O413  1  0.76623770  0.91752156  0.78357035  1
  O2-  O414  1  0.25530150  0.41089509  0.23309805  1
  O2-  O415  1  0.25108237  0.41246664  0.55564533  1
  O2-  O416  1  0.27110270  0.41512672  0.89719310  1
  O2-  O417  1  0.24337622  0.92215534  0.22177564  1
  O2-  O418  1  0.25147451  0.92753154  0.55930898  1
  O2-  O419  1  0.24316570  0.92195529  0.87375214  1
  O2-  O420  1  0.56849690  0.42133402  0.23239435  1
  O2-  O421  1  0.58206400  0.41450672  0.57100622  1
  O2-  O422  1  0.57294990  0.41903640  0.85792057  1
  O2-  O423  1  0.58781383  0.91801371  0.21343688  1
  O2-  O424  1  0.58623548  0.93229405  0.54671763  1
  O2-  O425  1  0.59197748  0.92284146  0.88548066  1
  O2-  O426  1  0.91754376  0.41488388  0.24463543  1
  O2-  O427  1  0.92635283  0.41604785  0.54037144  1
  O2-  O428  1  0.93211680  0.42502228  0.87864359  1
  O2-  O429  1  0.92399602  0.91822081  0.21529239  1
  O2-  O430  1  0.91950737  0.93689032  0.54118276  1
  O2-  O431  1  0.92285674  0.91458474  0.89388095  1
  O2-  O432  1  -0.00727523  -0.01827171  0.01153068  1
  O2-  O433  1  -0.00999601  0.00208950  0.35582744  1
  O2-  O434  1  -0.00851082  -0.01581785  0.69352694  1
  O2-  O435  1  0.01277198  0.50504526  -0.02769607  1
  O2-  O436  1  -0.01536104  0.50188669  0.36470785  1
  O2-  O437  1  0.02430207  0.49965774  0.63750043  1
  O2-  O438  1  0.32249792  0.00567628  0.01619551  1
  O2-  O439  1  0.33138090  0.01159801  0.34033045  1
  O2-  O440  1  0.33663854  -0.00311958  0.66091964  1
  O2-  O441  1  0.33447184  0.51178038  -0.00022197  1
  O2-  O442  1  0.32461741  0.49190655  0.33290087  1
  O2-  O443  1  0.34321708  0.51168492  0.65637744  1
  O2-  O444  1  0.68882341  0.00512670  -0.03173968  1
  O2-  O445  1  0.67387209  -0.01276837  0.30981781  1
  O2-  O446  1  0.66984658  -0.00747862  0.65726230  1
  O2-  O447  1  0.66205680  0.51603992  0.01679394  1
  O2-  O448  1  0.67660162  0.51778100  0.32287612  1
  O2-  O449  1  0.67143996  0.51560969  0.67022604  1
  O2-  O450  1  0.15835027  -0.00593124  -0.01544886  1
  O2-  O451  1  0.15280713  0.00467044  0.31943413  1
  O2-  O452  1  0.16861652  -0.01248402  0.68058440  1
  O2-  O453  1  0.16080594  0.50537251  -0.00898109  1
  O2-  O454  1  0.15667428  0.50419568  0.32068935  1
  O2-  O455  1  0.18024687  0.51771255  0.67046577  1
  O2-  O456  1  0.52969600  0.01071061  0.03139197  1
  O2-  O457  1  0.50498230  -0.01440216  0.33587108  1
  O2-  O458  1  0.50542701  -0.01157928  0.67158232  1
  O2-  O459  1  0.49658437  0.50179881  -0.01154714  1
  O2-  O460  1  0.50861425  0.50677612  0.33596284  1
  O2-  O461  1  0.51158818  0.50547427  0.68539104  1
  O2-  O462  1  0.83918311  -0.00763562  0.02532115  1
  O2-  O463  1  0.83439083  -0.02011680  0.32644220  1
  O2-  O464  1  0.83484502  -0.01303299  0.66136914  1
  O2-  O465  1  0.85099955  0.50372545  0.03195236  1
  O2-  O466  1  0.83997027  0.51033878  0.36818036  1
  O2-  O467  1  0.86396258  0.49530426  0.69546360  1
  O2-  O468  1  0.59494834  0.24311966  0.95246144  1
  O2-  O469  1  0.75223038  0.24800413  0.05307998  1
  O2-  O470  1  0.40992031  0.75690238  0.06035324  1
  O2-  O471  1  0.90953119  0.75172284  0.27715005  1
  O2-  O472  1  0.75550652  0.75487556  0.40603655  1
  O2-  O473  1  0.22800157  0.24953112  0.93665589  1
  O2-  O474  1  0.58417428  0.75852025  0.93044370  1
  O2-  O475  1  0.91066362  0.74991838  0.95007654  1
  O2-  O476  1  0.91682869  0.25036815  0.60294339  1
  O2-  O477  1  0.07049631  0.75582791  0.40362222  1
  O2-  O478  1  0.91125390  0.24631623  0.27513028  1
  O2-  O479  1  0.23675299  0.24718283  0.60599752  1
  O2-  O480  1  0.89863504  0.74933154  0.60035486  1
  O2-  O481  1  0.24497171  0.75485821  0.95570739  1
  O2-  O482  1  0.07933604  0.25400411  0.73785098  1
  O2-  O483  1  0.41127495  0.74877185  0.39661638  1
  O2-  O484  1  0.26843351  0.75182017  0.60823792  1
  O2-  O485  1  0.57717799  0.75055783  0.61202519  1
  O2-  O486  1  0.24757876  0.24522780  0.27578690  1
  O2-  O487  1  0.41692013  0.74835445  0.71938257  1
  O2-  O488  1  0.91978418  0.23963825  0.93494757  1
  O2-  O489  1  0.75256231  0.75298786  0.71851759  1
  O2-  O490  1  0.76125772  0.24498025  0.39667042  1
  O2-  O491  1  0.25901555  0.75643814  0.26641157  1
  O2-  O492  1  0.75629307  0.75288457  0.05440672  1
