# generated using pymatgen
data_Ca108Mn108O277
_symmetry_space_group_name_H-M   'P 1'
_cell_length_a   16.02573596
_cell_length_b   22.30403566
_cell_length_c   16.38845362
_cell_angle_alpha   90.00251110
_cell_angle_beta   89.99697317
_cell_angle_gamma   89.99708763
_symmetry_Int_Tables_number   1
_chemical_formula_structural   Ca108Mn108O277
_chemical_formula_sum   'Ca108 Mn108 O277'
_cell_volume   5857.86566945
_cell_formula_units_Z   1
loop_
 _symmetry_equiv_pos_site_id
 _symmetry_equiv_pos_as_xyz
  1  'x, y, z'
loop_
 _atom_type_symbol
 _atom_type_oxidation_number
  Ca2+  2.0
  Mn3.34+  3.34
  O2-  -2.0
loop_
 _atom_site_type_symbol
 _atom_site_label
 _atom_site_symmetry_multiplicity
 _atom_site_fract_x
 _atom_site_fract_y
 _atom_site_fract_z
 _atom_site_occupancy
  Ca2+  Ca0  1  0.06531842  0.23741981  0.24460846  1
  Ca2+  Ca1  1  0.05605185  0.25110270  0.59252635  1
  Ca2+  Ca2  1  0.07550686  0.25821800  0.90510395  1
  Ca2+  Ca3  1  0.06616194  0.74497346  0.24881080  1
  Ca2+  Ca4  1  0.07719148  0.74370904  0.58841707  1
  Ca2+  Ca5  1  0.07479502  0.74281430  0.91376929  1
  Ca2+  Ca6  1  0.43181342  0.24489939  0.24691706  1
  Ca2+  Ca7  1  0.42216160  0.25250544  0.59156970  1
  Ca2+  Ca8  1  0.44126059  0.25124185  0.90868464  1
  Ca2+  Ca9  1  0.41668655  0.75167705  0.23711341  1
  Ca2+  Ca10  1  0.40534867  0.76978901  0.58206762  1
  Ca2+  Ca11  1  0.42924044  0.74386969  0.92902087  1
  Ca2+  Ca12  1  0.75413876  0.24279059  0.25167257  1
  Ca2+  Ca13  1  0.76742670  0.25168352  0.59337978  1
  Ca2+  Ca14  1  0.72521049  0.24461448  0.89745994  1
  Ca2+  Ca15  1  0.76085858  0.75246925  0.24453832  1
  Ca2+  Ca16  1  0.76100431  0.75158065  0.58923672  1
  Ca2+  Ca17  1  0.75179706  0.74819347  0.91440554  1
  Ca2+  Ca18  1  0.24956652  0.24873576  0.09481050  1
  Ca2+  Ca19  1  0.26128448  0.25279497  0.41225100  1
  Ca2+  Ca20  1  0.24426780  0.25670716  0.74236724  1
  Ca2+  Ca21  1  0.24801912  0.74633226  0.09068430  1
  Ca2+  Ca22  1  0.24279253  0.75615414  0.41487375  1
  Ca2+  Ca23  1  0.23856247  0.75986882  0.74361719  1
  Ca2+  Ca24  1  0.58648499  0.23831109  0.07344434  1
  Ca2+  Ca25  1  0.58952588  0.24073196  0.39673643  1
  Ca2+  Ca26  1  0.59378047  0.25445460  0.75678303  1
  Ca2+  Ca27  1  0.58847934  0.75107632  0.08354607  1
  Ca2+  Ca28  1  0.59370943  0.75888955  0.41056825  1
  Ca2+  Ca29  1  0.59371758  0.75861793  0.75929651  1
  Ca2+  Ca30  1  0.90849610  0.24281335  0.10175564  1
  Ca2+  Ca31  1  0.90768990  0.24080096  0.42117696  1
  Ca2+  Ca32  1  0.90652457  0.24424390  0.73128120  1
  Ca2+  Ca33  1  0.90966120  0.76460884  0.08844810  1
  Ca2+  Ca34  1  0.91659161  0.75375033  0.40631995  1
  Ca2+  Ca35  1  0.91686834  0.75043966  0.74975706  1
  Ca2+  Ca36  1  0.93351598  0.62079191  0.09329065  1
  Ca2+  Ca37  1  0.93168917  0.60887441  0.43183199  1
  Ca2+  Ca38  1  0.08586101  0.60067383  0.91332038  1
  Ca2+  Ca39  1  0.22545957  0.58926526  0.39712094  1
  Ca2+  Ca40  1  0.91568777  0.09680642  0.12802978  1
  Ca2+  Ca41  1  0.78288162  0.10040405  0.58083753  1
  Ca2+  Ca42  1  0.57202728  0.59921716  0.07840546  1
  Ca2+  Ca43  1  0.92235311  0.61103176  0.43550591  1
  Ca2+  Ca44  1  0.07080960  0.07745444  0.93139252  1
  Ca2+  Ca45  1  0.59983709  0.59699516  0.41703502  1
  Ca2+  Ca46  1  0.59270329  0.08801881  0.75029262  1
  Ca2+  Ca47  1  0.43907645  0.09182214  0.24354639  1
  Ca2+  Ca48  1  0.44946236  0.09170680  0.24213796  1
  Ca2+  Ca49  1  0.08447850  0.61407162  0.23810482  1
  Ca2+  Ca50  1  0.72663926  0.09525470  0.91840872  1
  Ca2+  Ca51  1  0.94115828  0.62568455  0.09560414  1
  Ca2+  Ca52  1  0.72724728  0.09578116  0.25091783  1
  Ca2+  Ca53  1  0.77362199  0.59274417  0.60372965  1
  Ca2+  Ca54  1  0.24546013  0.60471038  0.09060734  1
  Ca2+  Ca55  1  0.73754436  0.09443785  0.25129566  1
  Ca2+  Ca56  1  0.59154039  0.10058696  0.07979212  1
  Ca2+  Ca57  1  0.42416634  0.59518534  0.58827039  1
  Ca2+  Ca58  1  0.04233750  0.09770917  0.58073503  1
  Ca2+  Ca59  1  0.61762072  0.58847009  0.75655339  1
  Ca2+  Ca60  1  0.90819194  0.08352590  0.37990052  1
  Ca2+  Ca61  1  0.24816517  0.06953837  0.35018290  1
  Ca2+  Ca62  1  0.58167224  0.08797866  0.75004244  1
  Ca2+  Ca63  1  0.21575884  0.58992804  0.75485804  1
  Ca2+  Ca64  1  0.08327904  0.07832611  0.93084944  1
  Ca2+  Ca65  1  0.44041137  0.09371887  0.91627590  1
  Ca2+  Ca66  1  0.92703034  0.59285455  0.74530644  1
  Ca2+  Ca67  1  0.76279720  0.59277922  0.60509943  1
  Ca2+  Ca68  1  0.23977424  0.10555742  0.13113471  1
  Ca2+  Ca69  1  0.27375900  0.07606173  0.74721509  1
  Ca2+  Ca70  1  0.44777851  0.09900599  0.91939270  1
  Ca2+  Ca71  1  0.76459755  0.61146251  0.24826403  1
  Ca2+  Ca72  1  0.07095120  0.41954770  0.61381372  1
  Ca2+  Ca73  1  0.09437575  0.91599804  0.24798913  1
  Ca2+  Ca74  1  0.41736663  0.89817351  0.90498464  1
  Ca2+  Ca75  1  0.59223264  0.90711041  0.09333792  1
  Ca2+  Ca76  1  0.74385090  0.40658806  0.90079806  1
  Ca2+  Ca77  1  0.08176553  0.91334345  0.24882996  1
  Ca2+  Ca78  1  0.57890944  0.40312880  0.06854687  1
  Ca2+  Ca79  1  0.91605736  0.91440473  0.40326902  1
  Ca2+  Ca80  1  0.75076312  0.39484474  0.25543763  1
  Ca2+  Ca81  1  0.05891713  0.90012239  0.91816676  1
  Ca2+  Ca82  1  0.22924697  0.40965112  0.41033949  1
  Ca2+  Ca83  1  0.78031928  0.91282970  0.91380810  1
  Ca2+  Ca84  1  0.39971975  0.40577028  0.24425854  1
  Ca2+  Ca85  1  0.24977423  0.91004121  0.41227661  1
  Ca2+  Ca86  1  0.58326698  0.91769737  0.41003136  1
  Ca2+  Ca87  1  0.59744160  0.39808694  0.42155465  1
  Ca2+  Ca88  1  0.57154073  0.91496419  0.73265022  1
  Ca2+  Ca89  1  0.42535626  0.91150972  0.25876744  1
  Ca2+  Ca90  1  0.08048074  0.40940633  0.90299877  1
  Ca2+  Ca91  1  0.56785127  0.40394912  0.06615794  1
  Ca2+  Ca92  1  0.38821601  0.40955007  0.24144929  1
  Ca2+  Ca93  1  0.25559038  0.40441884  0.07457942  1
  Ca2+  Ca94  1  0.06988873  0.90229144  0.92037730  1
  Ca2+  Ca95  1  0.92697302  0.91544207  0.40395918  1
  Ca2+  Ca96  1  0.24153444  0.40766004  0.40912949  1
  Ca2+  Ca97  1  0.43372013  0.40315523  0.58911711  1
  Ca2+  Ca98  1  0.74428564  0.91389756  0.25088881  1
  Ca2+  Ca99  1  0.91266694  0.39877717  0.42184768  1
  Ca2+  Ca100  1  0.24536219  0.89867917  0.08652926  1
  Ca2+  Ca101  1  0.40815779  0.89974140  0.90050096  1
  Ca2+  Ca102  1  0.74434465  0.90918873  0.58866138  1
  Ca2+  Ca103  1  0.91201457  0.39927156  0.07256575  1
  Ca2+  Ca104  1  0.23393346  0.40700216  0.75734936  1
  Ca2+  Ca105  1  0.09196554  0.40086943  0.25123920  1
  Ca2+  Ca106  1  0.42125387  0.40366085  0.59000928  1
  Ca2+  Ca107  1  0.92532437  0.39966267  0.07305698  1
  Mn3.34+  Mn108  1  0.08593953  0.32378740  0.08189718  1
  Mn3.34+  Mn109  1  0.07867621  0.32925660  0.42062049  1
  Mn3.34+  Mn110  1  0.07813687  0.33595720  0.74942632  1
  Mn3.34+  Mn111  1  0.08160037  0.82674358  0.08839741  1
  Mn3.34+  Mn112  1  0.08329934  0.83267959  0.42484415  1
  Mn3.34+  Mn113  1  0.08041971  0.83066189  0.74466810  1
  Mn3.34+  Mn114  1  0.41347896  0.32522926  0.07991622  1
  Mn3.34+  Mn115  1  0.42333048  0.33294802  0.41718514  1
  Mn3.34+  Mn116  1  0.41603569  0.32996196  0.75520986  1
  Mn3.34+  Mn117  1  0.41767553  0.83150553  0.08692733  1
  Mn3.34+  Mn118  1  0.41791300  0.83826262  0.41895167  1
  Mn3.34+  Mn119  1  0.41299860  0.83790269  0.74060107  1
  Mn3.34+  Mn120  1  0.74852732  0.32504544  0.08204727  1
  Mn3.34+  Mn121  1  0.75030089  0.33050183  0.42171572  1
  Mn3.34+  Mn122  1  0.75138521  0.34514777  0.74412902  1
  Mn3.34+  Mn123  1  0.75177270  0.83838049  0.08207443  1
  Mn3.34+  Mn124  1  0.74903604  0.83300070  0.42102532  1
  Mn3.34+  Mn125  1  0.75324577  0.83553262  0.74995872  1
  Mn3.34+  Mn126  1  0.24463031  0.32483861  0.24552058  1
  Mn3.34+  Mn127  1  0.24401852  0.33021548  0.58170770  1
  Mn3.34+  Mn128  1  0.25320893  0.33000546  0.91431116  1
  Mn3.34+  Mn129  1  0.25110412  0.83339306  0.25038043  1
  Mn3.34+  Mn130  1  0.24465404  0.84151205  0.58420018  1
  Mn3.34+  Mn131  1  0.24805051  0.82803931  0.91553733  1
  Mn3.34+  Mn132  1  0.58372109  0.32988997  0.24638329  1
  Mn3.34+  Mn133  1  0.59326342  0.33074880  0.58533558  1
  Mn3.34+  Mn134  1  0.58222230  0.33198869  0.90805386  1
  Mn3.34+  Mn135  1  0.58520784  0.83725651  0.25019467  1
  Mn3.34+  Mn136  1  0.58233586  0.84189035  0.57730806  1
  Mn3.34+  Mn137  1  0.58756772  0.83411378  0.91547823  1
  Mn3.34+  Mn138  1  0.91725694  0.32652645  0.25219629  1
  Mn3.34+  Mn139  1  0.91299508  0.33446825  0.58511966  1
  Mn3.34+  Mn140  1  0.91101328  0.33128869  0.90556723  1
  Mn3.34+  Mn141  1  0.91485170  0.83525920  0.24741330  1
  Mn3.34+  Mn142  1  0.92070845  0.83995060  0.58382689  1
  Mn3.34+  Mn143  1  0.91116384  0.82912857  0.91475967  1
  Mn3.34+  Mn144  1  0.25321632  0.17786669  0.91677163  1
  Mn3.34+  Mn145  1  0.08184658  0.16704255  0.41031041  1
  Mn3.34+  Mn146  1  0.42059551  0.67119005  0.75353103  1
  Mn3.34+  Mn147  1  0.41262612  0.66844285  0.41485648  1
  Mn3.34+  Mn148  1  0.41810206  0.16439886  0.75016726  1
  Mn3.34+  Mn149  1  0.58934243  0.16149342  0.57764163  1
  Mn3.34+  Mn150  1  0.74912605  0.16547325  0.08423224  1
  Mn3.34+  Mn151  1  0.24590272  0.66977539  0.58111927  1
  Mn3.34+  Mn152  1  0.75535003  0.67026461  0.75525490  1
  Mn3.34+  Mn153  1  0.58553221  0.67170866  0.24640435  1
  Mn3.34+  Mn154  1  0.08195060  0.16853281  0.08874184  1
  Mn3.34+  Mn155  1  0.57969190  0.15606827  0.57598339  1
  Mn3.34+  Mn156  1  0.91010561  0.16070866  0.91439089  1
  Mn3.34+  Mn157  1  0.24979603  0.66593318  0.91819893  1
  Mn3.34+  Mn158  1  0.24425655  0.17181974  0.91528453  1
  Mn3.34+  Mn159  1  0.74873983  0.67142824  0.07964689  1
  Mn3.34+  Mn160  1  0.41035189  0.66602090  0.75576599  1
  Mn3.34+  Mn161  1  0.08511609  0.67324473  0.41822768  1
  Mn3.34+  Mn162  1  0.09531847  0.16462563  0.41422144  1
  Mn3.34+  Mn163  1  0.08214766  0.16693978  0.74751688  1
  Mn3.34+  Mn164  1  0.25792635  0.15205858  0.58143492  1
  Mn3.34+  Mn165  1  0.41662443  0.66617062  0.08359222  1
  Mn3.34+  Mn166  1  0.41124392  0.16221389  0.41806894  1
  Mn3.34+  Mn167  1  0.42257012  0.67393273  0.41273140  1
  Mn3.34+  Mn168  1  0.24982458  0.66639623  0.24721789  1
  Mn3.34+  Mn169  1  0.74867039  0.16011317  0.41991024  1
  Mn3.34+  Mn170  1  0.58717513  0.66451348  0.91731368  1
  Mn3.34+  Mn171  1  0.42151776  0.15685872  0.41881836  1
  Mn3.34+  Mn172  1  0.41326920  0.17693727  0.08653824  1
  Mn3.34+  Mn173  1  0.58531609  0.66751702  0.58150922  1
  Mn3.34+  Mn174  1  0.75209444  0.16517976  0.74938913  1
  Mn3.34+  Mn175  1  0.24461040  0.15823764  0.58281399  1
  Mn3.34+  Mn176  1  0.07759456  0.66531531  0.74651634  1
  Mn3.34+  Mn177  1  0.91921905  0.16682004  0.91422258  1
  Mn3.34+  Mn178  1  0.91450384  0.66529067  0.91234579  1
  Mn3.34+  Mn179  1  0.75010948  0.67039566  0.42111242  1
  Mn3.34+  Mn180  1  0.08342356  0.50317167  0.08770527  1
  Mn3.34+  Mn181  1  0.91585127  0.50017907  0.91138328  1
  Mn3.34+  Mn182  1  0.41884569  -0.00298231  0.41022699  1
  Mn3.34+  Mn183  1  0.41974713  0.50153749  0.41589284  1
  Mn3.34+  Mn184  1  0.26717350  -0.00328126  0.59523989  1
  Mn3.34+  Mn185  1  0.59312186  -0.00787390  0.92077399  1
  Mn3.34+  Mn186  1  0.09479712  0.49849873  0.08628361  1
  Mn3.34+  Mn187  1  0.08385390  -0.00074569  0.73657479  1
  Mn3.34+  Mn188  1  0.74694394  0.50670421  0.08370824  1
  Mn3.34+  Mn189  1  0.24989181  -0.00008498  0.91125565  1
  Mn3.34+  Mn190  1  0.76016267  0.00002886  0.06648841  1
  Mn3.34+  Mn191  1  0.91033939  0.49696652  0.25291489  1
  Mn3.34+  Mn192  1  0.92547425  0.50229552  0.25272226  1
  Mn3.34+  Mn193  1  0.59047312  0.50090598  0.58841139  1
  Mn3.34+  Mn194  1  0.90717703  0.00107992  0.58244404  1
  Mn3.34+  Mn195  1  0.91398976  0.49198670  0.60679507  1
  Mn3.34+  Mn196  1  0.07977091  -0.00147534  0.07894084  1
  Mn3.34+  Mn197  1  0.40579102  0.00446881  0.08908101  1
  Mn3.34+  Mn198  1  0.07936225  0.49982686  0.42695938  1
  Mn3.34+  Mn199  1  0.76219319  0.50225292  0.08675519  1
  Mn3.34+  Mn200  1  0.07520566  -0.00707514  0.73299916  1
  Mn3.34+  Mn201  1  0.41728007  -0.00073915  0.08937628  1
  Mn3.34+  Mn202  1  0.24192804  0.51012867  0.58815451  1
  Mn3.34+  Mn203  1  0.75046503  0.50074913  0.42600471  1
  Mn3.34+  Mn204  1  0.74154712  -0.00060623  0.41122023  1
  Mn3.34+  Mn205  1  0.58261541  0.50694439  0.24596915  1
  Mn3.34+  Mn206  1  0.41359460  0.50181158  0.76365189  1
  Mn3.34+  Mn207  1  0.59700087  0.50125010  0.24813088  1
  Mn3.34+  Mn208  1  0.08668304  -0.00147464  0.41855738  1
  Mn3.34+  Mn209  1  0.57629199  0.50131961  0.92146080  1
  Mn3.34+  Mn210  1  0.41229374  0.50533110  0.07010330  1
  Mn3.34+  Mn211  1  0.40780967  0.50599084  0.41403257  1
  Mn3.34+  Mn212  1  0.42627078  0.49506451  0.76253795  1
  Mn3.34+  Mn213  1  0.75548618  -0.00104259  0.74082278  1
  Mn3.34+  Mn214  1  0.25698362  0.50054207  0.92545751  1
  Mn3.34+  Mn215  1  0.22744775  0.50833029  0.59268193  1
  O2-  O216  1  0.00716626  0.16047599  -0.00401400  1
  O2-  O217  1  0.00099949  0.16640429  0.33805424  1
  O2-  O218  1  0.00416439  0.16248770  0.67222021  1
  O2-  O219  1  0.00200483  0.66087971  -0.01308908  1
  O2-  O220  1  0.00402961  0.66025619  0.33807191  1
  O2-  O221  1  -0.00297936  0.66769616  0.67294232  1
  O2-  O222  1  0.32693342  0.16814710  0.00541110  1
  O2-  O223  1  0.33565152  0.15584104  0.33209401  1
  O2-  O224  1  0.33253507  0.15133764  0.67279126  1
  O2-  O225  1  0.32871132  0.67052803  0.00523819  1
  O2-  O226  1  0.33068558  0.64538531  0.33910486  1
  O2-  O227  1  0.33111937  0.64609525  0.67141769  1
  O2-  O228  1  0.67331971  0.16862264  0.00005956  1
  O2-  O229  1  0.67588303  0.17203806  0.33281814  1
  O2-  O230  1  0.67105451  0.15186642  0.66437615  1
  O2-  O231  1  0.66141489  0.65707873  0.00535080  1
  O2-  O232  1  0.67053571  0.65603220  0.33276003  1
  O2-  O233  1  0.67045388  0.66211147  0.66189519  1
  O2-  O234  1  0.16079525  0.17178892  -0.00158822  1
  O2-  O235  1  0.17215138  0.18845141  0.33642679  1
  O2-  O236  1  0.16855352  0.14233440  0.67043392  1
  O2-  O237  1  0.17093949  0.67820634  -0.00441105  1
  O2-  O238  1  0.16523897  0.66218259  0.33130340  1
  O2-  O239  1  0.16734971  0.65875689  0.66544420  1
  O2-  O240  1  0.49209424  0.16823125  0.00010274  1
  O2-  O241  1  0.50145708  0.15535556  0.33491429  1
  O2-  O242  1  0.50214480  0.14786468  0.66639015  1
  O2-  O243  1  0.49826563  0.66082640  -0.00189198  1
  O2-  O244  1  0.50496923  0.65243365  0.33588245  1
  O2-  O245  1  0.50292829  0.65534324  0.66917706  1
  O2-  O246  1  0.84150316  0.15824959  0.00928712  1
  O2-  O247  1  0.82552146  0.16211652  0.34037205  1
  O2-  O248  1  0.83234668  0.16472172  0.67204033  1
  O2-  O249  1  0.83693552  0.65096809  0.00269343  1
  O2-  O250  1  0.83500200  0.65155488  0.34861429  1
  O2-  O251  1  0.83373757  0.66932839  0.66873683  1
  O2-  O252  1  0.00474272  0.33835708  -0.00193069  1
  O2-  O253  1  0.00257072  0.34500406  0.33065981  1
  O2-  O254  1  0.00158643  0.34211498  0.66228101  1
  O2-  O255  1  0.00447102  0.82816000  0.00024374  1
  O2-  O256  1  -0.00099555  0.84116388  0.33779399  1
  O2-  O257  1  -0.00465948  0.81792964  0.66480049  1
  O2-  O258  1  0.32920174  0.31179991  0.00307655  1
  O2-  O259  1  0.32791400  0.34330282  0.33440320  1
  O2-  O260  1  0.33058213  0.34793208  0.66417875  1
  O2-  O261  1  0.33538906  0.83782791  -0.00059788  1
  O2-  O262  1  0.33490386  0.85411421  0.33073501  1
  O2-  O263  1  0.32932257  0.84067080  0.66488394  1
  O2-  O264  1  0.66592560  0.33899137  0.00260821  1
  O2-  O265  1  0.66712897  0.33301813  0.33058172  1
  O2-  O266  1  0.66911603  0.32924282  0.66716726  1
  O2-  O267  1  0.66663029  0.85401288  -0.00144949  1
  O2-  O268  1  0.66586416  0.84872302  0.33781012  1
  O2-  O269  1  0.66408219  0.84008893  0.66589089  1
  O2-  O270  1  0.16912657  0.31736660  0.00041299  1
  O2-  O271  1  0.16568503  0.33390903  0.33532070  1
  O2-  O272  1  0.16511949  0.34417822  0.66515469  1
  O2-  O273  1  0.16538841  0.83150870  0.00342967  1
  O2-  O274  1  0.16145449  0.85025897  0.33233971  1
  O2-  O275  1  0.16266735  0.83643629  0.66580721  1
  O2-  O276  1  0.49999114  0.33031230  0.00254910  1
  O2-  O277  1  0.49714677  0.35949694  0.32174045  1
  O2-  O278  1  0.49616846  0.34164671  0.66593000  1
  O2-  O279  1  0.49639280  0.85147536  -0.00045112  1
  O2-  O280  1  0.50328438  0.84741720  0.33595922  1
  O2-  O281  1  0.50552777  0.83199610  0.66454598  1
  O2-  O282  1  0.83515365  0.33469542  0.00440673  1
  O2-  O283  1  0.83219242  0.33500241  0.33352445  1
  O2-  O284  1  0.83394140  0.33511504  0.66723115  1
  O2-  O285  1  0.83250160  0.84211813  -0.00103979  1
  O2-  O286  1  0.83190691  0.85341605  0.33482535  1
  O2-  O287  1  0.83008591  0.83290714  0.65876826  1
  O2-  O288  1  -0.00347202  0.17939167  0.15635362  1
  O2-  O289  1  0.00699196  0.18049876  0.49433078  1
  O2-  O290  1  0.00566475  0.17965432  0.83678658  1
  O2-  O291  1  0.00360568  0.69025478  0.15335483  1
  O2-  O292  1  -0.00039429  0.68477933  0.49268977  1
  O2-  O293  1  -0.00295066  0.68067377  0.83246473  1
  O2-  O294  1  0.33501309  0.18940650  0.16720169  1
  O2-  O295  1  0.33186322  0.18351294  0.49661351  1
  O2-  O296  1  0.34035095  0.18035098  0.83999832  1
  O2-  O297  1  0.33351452  0.67869975  0.16518513  1
  O2-  O298  1  0.34377678  0.68138630  0.50676588  1
  O2-  O299  1  0.33193779  0.68883718  0.83633598  1
  O2-  O300  1  0.66882240  0.17554395  0.16260319  1
  O2-  O301  1  0.66262132  0.18481186  0.49446083  1
  O2-  O302  1  0.65955013  0.16797076  0.81924530  1
  O2-  O303  1  0.67214005  0.68475700  0.16922835  1
  O2-  O304  1  0.66439473  0.68605483  0.49953759  1
  O2-  O305  1  0.66402432  0.67746189  0.83085304  1
  O2-  O306  1  0.16215709  0.18627639  0.16277170  1
  O2-  O307  1  0.16712004  0.18743429  0.49842154  1
  O2-  O308  1  0.16817579  0.18829187  0.83040437  1
  O2-  O309  1  0.17125712  0.68464745  0.17262539  1
  O2-  O310  1  0.17579135  0.67933151  0.49145769  1
  O2-  O311  1  0.16834471  0.67746508  0.83554105  1
  O2-  O312  1  0.49655653  0.18041225  0.16041765  1
  O2-  O313  1  0.49431617  0.18268493  0.50075702  1
  O2-  O314  1  0.49791308  0.17038840  0.82915783  1
  O2-  O315  1  0.50631767  0.68051975  0.16169275  1
  O2-  O316  1  0.50079287  0.68812310  0.49994048  1
  O2-  O317  1  0.50327125  0.68434439  0.83212649  1
  O2-  O318  1  0.82518754  0.17920339  0.16561033  1
  O2-  O319  1  0.82007129  0.18560528  0.49604797  1
  O2-  O320  1  0.81936949  0.17105306  0.84460286  1
  O2-  O321  1  0.83217612  0.67760010  0.15767205  1
  O2-  O322  1  0.83220255  0.67145921  0.50345772  1
  O2-  O323  1  0.83586136  0.68066329  0.83107881  1
  O2-  O324  1  -0.00632222  0.32311696  0.15712321  1
  O2-  O325  1  -0.00420684  0.31959190  0.49644593  1
  O2-  O326  1  0.00119573  0.32562927  0.83493700  1
  O2-  O327  1  0.00357695  0.82210665  0.17279823  1
  O2-  O328  1  -0.00431557  0.81712162  0.49680014  1
  O2-  O329  1  0.00203107  0.82018231  0.84034053  1
  O2-  O330  1  0.34048863  0.31536067  0.17298216  1
  O2-  O331  1  0.33242782  0.33097004  0.50207335  1
  O2-  O332  1  0.33015107  0.30987977  0.83186919  1
  O2-  O333  1  0.33067051  0.82247159  0.16377315  1
  O2-  O334  1  0.32930241  0.82622504  0.49132284  1
  O2-  O335  1  0.33793608  0.82011326  0.84054876  1
  O2-  O336  1  0.66527468  0.31840228  0.16196747  1
  O2-  O337  1  0.66137547  0.31281250  0.49030862  1
  O2-  O338  1  0.66857185  0.32948875  0.83535030  1
  O2-  O339  1  0.66681670  0.82412317  0.16603064  1
  O2-  O340  1  0.66949595  0.81512657  0.50505653  1
  O2-  O341  1  0.66765287  0.82714696  0.83562133  1
  O2-  O342  1  0.15795121  0.30909002  0.17088582  1
  O2-  O343  1  0.17161011  0.31318292  0.48964060  1
  O2-  O344  1  0.16691116  0.32041092  0.83343470  1
  O2-  O345  1  0.16489767  0.81334200  0.16869784  1
  O2-  O346  1  0.16885103  0.82213194  0.49688616  1
  O2-  O347  1  0.15855031  0.82180949  0.84425678  1
  O2-  O348  1  0.50030221  0.33126414  0.16108694  1
  O2-  O349  1  0.49882563  0.32447437  0.50833349  1
  O2-  O350  1  0.50154671  0.32063713  0.82868941  1
  O2-  O351  1  0.50112063  0.82454236  0.16636778  1
  O2-  O352  1  0.50434026  0.81591247  0.49739884  1
  O2-  O353  1  0.49557324  0.82042653  0.83976558  1
  O2-  O354  1  0.83195531  0.32121389  0.16474499  1
  O2-  O355  1  0.83699961  0.32063541  0.49555616  1
  O2-  O356  1  0.82454966  0.32353676  0.83756127  1
  O2-  O357  1  0.82945940  0.83011544  0.17093738  1
  O2-  O358  1  0.83580564  0.81823374  0.49664022  1
  O2-  O359  1  0.83022970  0.82113915  0.83551319  1
  O2-  O360  1  0.08103093  0.08118087  0.09631814  1
  O2-  O361  1  0.10151173  0.08017582  0.44400727  1
  O2-  O362  1  0.08743659  0.07498371  0.79562739  1
  O2-  O363  1  0.07957960  0.58539142  0.10267312  1
  O2-  O364  1  0.06989651  0.58424282  0.43757786  1
  O2-  O365  1  0.07763643  0.58565224  0.77721794  1
  O2-  O366  1  0.41166606  0.08708763  0.09908185  1
  O2-  O367  1  0.40478329  0.07473514  0.44797623  1
  O2-  O368  1  0.41416243  0.08221492  0.78692897  1
  O2-  O369  1  0.41628946  0.58342134  0.10408114  1
  O2-  O370  1  0.43103173  0.58440771  0.45103002  1
  O2-  O371  1  0.42495272  0.58276482  0.78037098  1
  O2-  O372  1  0.74615186  0.07534168  0.11251007  1
  O2-  O373  1  0.75369042  0.07859717  0.44257545  1
  O2-  O374  1  0.74044573  0.07773112  0.77751500  1
  O2-  O375  1  0.74155673  0.58561419  0.11245016  1
  O2-  O376  1  0.74058195  0.58173849  0.46014287  1
  O2-  O377  1  0.75810759  0.58942327  0.75340871  1
  O2-  O378  1  0.31287321  0.06116968  0.22293679  1
  O2-  O379  1  0.24733179  0.07420591  0.54132955  1
  O2-  O380  1  0.23655202  0.08341355  0.88677664  1
  O2-  O381  1  0.22767869  0.58508464  0.22629402  1
  O2-  O382  1  0.26498678  0.58302140  0.54027071  1
  O2-  O383  1  0.24707713  0.57902535  0.88966892  1
  O2-  O384  1  0.56148970  0.06409537  0.19611434  1
  O2-  O385  1  0.60139010  0.07668142  0.56694247  1
  O2-  O386  1  0.57872686  0.07310377  0.88618438  1
  O2-  O387  1  0.59414971  0.58669344  0.21804431  1
  O2-  O388  1  0.56949034  0.57810557  0.54814789  1
  O2-  O389  1  0.57893573  0.58057214  0.88888740  1
  O2-  O390  1  0.85989922  0.06716751  0.23825861  1
  O2-  O391  1  0.91549122  0.07149943  0.52953362  1
  O2-  O392  1  0.93626533  0.08178767  0.89637592  1
  O2-  O393  1  0.91948890  0.58178007  0.21986665  1
  O2-  O394  1  0.89285838  0.55818201  0.54294252  1
  O2-  O395  1  0.92951962  0.58064639  0.88676109  1
  O2-  O396  1  0.08683489  0.41535377  0.11046445  1
  O2-  O397  1  0.09652376  0.41819389  0.45597087  1
  O2-  O398  1  0.09020419  0.41510885  0.77062599  1
  O2-  O399  1  0.09352671  0.91848361  0.11208201  1
  O2-  O400  1  0.06667508  0.91797224  0.44130597  1
  O2-  O401  1  0.08310065  0.91707081  0.78350993  1
  O2-  O402  1  0.41996525  0.42259486  0.10939552  1
  O2-  O403  1  0.42323394  0.42217212  0.45580004  1
  O2-  O404  1  0.40415471  0.41454076  0.77123570  1
  O2-  O405  1  0.41006302  0.91778869  0.11205327  1
  O2-  O406  1  0.43745473  0.92130773  0.44364415  1
  O2-  O407  1  0.42411262  0.91656827  0.77174359  1
  O2-  O408  1  0.76350174  0.42001604  0.11194870  1
  O2-  O409  1  0.74903859  0.41841376  0.42431387  1
  O2-  O410  1  0.74818079  0.42098175  0.76944595  1
  O2-  O411  1  0.74218797  0.92632606  0.11135630  1
  O2-  O412  1  0.74065807  0.91985384  0.44814529  1
  O2-  O413  1  0.75369745  0.91982215  0.77284249  1
  O2-  O414  1  0.25239709  0.41481893  0.21085924  1
  O2-  O415  1  0.25099212  0.42817347  0.54152886  1
  O2-  O416  1  0.24174266  0.41901736  0.89907107  1
  O2-  O417  1  0.23295677  0.91489508  0.21858997  1
  O2-  O418  1  0.24612200  0.92519752  0.54987898  1
  O2-  O419  1  0.26460777  0.91810041  0.90493578  1
  O2-  O420  1  0.59921480  0.42062141  0.20975695  1
  O2-  O421  1  0.56702214  0.42305566  0.55210854  1
  O2-  O422  1  0.58374892  0.41702532  0.92465682  1
  O2-  O423  1  0.58249886  0.91668012  0.22946098  1
  O2-  O424  1  0.59744625  0.91904766  0.55698069  1
  O2-  O425  1  0.56026045  0.91681631  0.88610907  1
  O2-  O426  1  0.91234004  0.41672535  0.21445483  1
  O2-  O427  1  0.92713564  0.42252097  0.55369631  1
  O2-  O428  1  0.91396880  0.41542859  0.91567006  1
  O2-  O429  1  0.94202079  0.91996086  0.24965460  1
  O2-  O430  1  0.90395128  0.92351697  0.54270481  1
  O2-  O431  1  0.92511159  0.91056621  0.90164137  1
  O2-  O432  1  0.02470540  -0.00825157  -0.02936323  1
  O2-  O433  1  -0.00501103  0.00206576  0.36062127  1
  O2-  O434  1  0.00204410  0.01261917  0.64736165  1
  O2-  O435  1  -0.00616725  0.48923241  0.00884500  1
  O2-  O436  1  0.00196761  0.48146554  0.33688866  1
  O2-  O437  1  0.00306503  0.50535726  0.65699068  1
  O2-  O438  1  0.34407579  0.00697919  -0.01591742  1
  O2-  O439  1  0.32612678  -0.01322121  0.35997405  1
  O2-  O440  1  0.34111749  0.01311177  0.66480717  1
  O2-  O441  1  0.30108931  0.49875452  0.03991945  1
  O2-  O442  1  0.33468110  0.47120682  0.33337722  1
  O2-  O443  1  0.33377380  0.50223156  0.66890196  1
  O2-  O444  1  0.66040727  0.00925196  0.01172308  1
  O2-  O445  1  0.68435653  0.00642414  0.31595782  1
  O2-  O446  1  0.65020542  -0.00109435  0.70354618  1
  O2-  O447  1  0.67437813  0.49354770  -0.00353489  1
  O2-  O448  1  0.65559911  0.50616699  0.35070923  1
  O2-  O449  1  0.67227510  0.52517585  0.65397715  1
  O2-  O450  1  0.17252563  0.00823074  0.00062242  1
  O2-  O451  1  0.16139819  -0.01166719  0.33608573  1
  O2-  O452  1  0.17757121  0.01130884  0.66883135  1
  O2-  O453  1  0.14905158  0.50184260  -0.01982157  1
  O2-  O454  1  0.18203250  0.49462715  0.36862028  1
  O2-  O455  1  0.17328153  0.49329947  0.68543530  1
  O2-  O456  1  0.49776066  0.01106229  -0.00236987  1
  O2-  O457  1  0.48407052  0.00520913  0.32259307  1
  O2-  O458  1  0.51743733  0.00617964  0.71107161  1
  O2-  O459  1  0.52530620  0.49918153  0.03964438  1
  O2-  O460  1  0.49463363  0.49178946  0.32352070  1
  O2-  O461  1  0.49288263  0.49922358  0.66053787  1
  O2-  O462  1  0.82007774  0.01006266  -0.01888890  1
  O2-  O463  1  0.83947961  -0.00905249  0.36699222  1
  O2-  O464  1  0.80162249  0.00264877  0.63011660  1
  O2-  O465  1  0.83737412  0.49816948  0.00120535  1
  O2-  O466  1  0.83298114  0.50964781  0.33993368  1
  O2-  O467  1  0.83897447  0.51416712  0.67406765  1
  O2-  O468  1  0.42492535  0.75134614  0.06798175  1
  O2-  O469  1  0.91586495  0.25495046  0.59736728  1
  O2-  O470  1  0.08720467  0.25020829  0.72818719  1
  O2-  O471  1  0.26703398  0.75131185  0.27741945  1
  O2-  O472  1  0.74246592  0.75358949  0.73602480  1
  O2-  O473  1  0.25922929  0.24052957  0.60662967  1
  O2-  O474  1  0.90693777  0.75668247  0.26867370  1
  O2-  O475  1  0.41908850  0.24817664  0.39099834  1
  O2-  O476  1  0.58582608  0.25401959  0.92333050  1
  O2-  O477  1  0.74879061  0.24801094  0.74368831  1
  O2-  O478  1  0.41696931  0.24757540  0.72611840  1
  O2-  O479  1  0.57027576  0.25406638  0.26451065  1
  O2-  O480  1  0.41010377  0.75495482  0.38410171  1
  O2-  O481  1  0.90607854  0.74653105  0.93928737  1
  O2-  O482  1  0.58053791  0.75116186  0.27322085  1
  O2-  O483  1  0.41286817  0.75124238  0.72184241  1
  O2-  O484  1  0.09071703  0.75369945  0.39091180  1
  O2-  O485  1  0.58779972  0.75180845  0.93938521  1
  O2-  O486  1  0.91738557  0.24754430  0.93282443  1
  O2-  O487  1  0.75364993  0.75145847  0.38882401  1
  O2-  O488  1  0.91813616  0.25002663  0.26638708  1
  O2-  O489  1  0.25519957  0.75061624  0.60162862  1
  O2-  O490  1  0.57234812  0.24086665  0.60872676  1
  O2-  O491  1  0.74977643  0.75259012  0.05847020  1
  O2-  O492  1  0.09230673  0.74948594  0.73878142  1
