# generated using pymatgen
data_Ca108Mn108O277
_symmetry_space_group_name_H-M   'P 1'
_cell_length_a   16.02295485
_cell_length_b   22.30116904
_cell_length_c   16.38487209
_cell_angle_alpha   89.99989559
_cell_angle_beta   90.00325884
_cell_angle_gamma   90.00301847
_symmetry_Int_Tables_number   1
_chemical_formula_structural   Ca108Mn108O277
_chemical_formula_sum   'Ca108 Mn108 O277'
_cell_volume   5854.81656104
_cell_formula_units_Z   1
loop_
 _symmetry_equiv_pos_site_id
 _symmetry_equiv_pos_as_xyz
  1  'x, y, z'
loop_
 _atom_type_symbol
 _atom_type_oxidation_number
  Ca2+  2.0
  Mn3.34+  3.34
  O2-  -2.0
loop_
 _atom_site_type_symbol
 _atom_site_label
 _atom_site_symmetry_multiplicity
 _atom_site_fract_x
 _atom_site_fract_y
 _atom_site_fract_z
 _atom_site_occupancy
  Ca2+  Ca0  1  0.07926959  0.25197871  0.25813055  1
  Ca2+  Ca1  1  0.09743341  0.25368343  0.59010718  1
  Ca2+  Ca2  1  0.04863325  0.25043562  0.90276809  1
  Ca2+  Ca3  1  0.08890963  0.74903560  0.26116788  1
  Ca2+  Ca4  1  0.08046845  0.74178315  0.57869302  1
  Ca2+  Ca5  1  0.08089725  0.74905003  0.90251228  1
  Ca2+  Ca6  1  0.42164447  0.26333166  0.27387954  1
  Ca2+  Ca7  1  0.41695669  0.23053696  0.58745001  1
  Ca2+  Ca8  1  0.44403743  0.25527513  0.89847003  1
  Ca2+  Ca9  1  0.42871718  0.73090453  0.25720161  1
  Ca2+  Ca10  1  0.40202370  0.74816611  0.57377979  1
  Ca2+  Ca11  1  0.41602208  0.74767573  0.91456405  1
  Ca2+  Ca12  1  0.74702146  0.25528091  0.26134347  1
  Ca2+  Ca13  1  0.73082220  0.25187434  0.58847354  1
  Ca2+  Ca14  1  0.74773220  0.25250411  0.89725274  1
  Ca2+  Ca15  1  0.73550653  0.74858648  0.24512090  1
  Ca2+  Ca16  1  0.76624131  0.75118243  0.58758653  1
  Ca2+  Ca17  1  0.75582199  0.74730076  0.91292218  1
  Ca2+  Ca18  1  0.24772632  0.26068729  0.09277696  1
  Ca2+  Ca19  1  0.26695756  0.24639911  0.42970517  1
  Ca2+  Ca20  1  0.24806008  0.25727004  0.73867581  1
  Ca2+  Ca21  1  0.25497377  0.74878350  0.09757582  1
  Ca2+  Ca22  1  0.25139734  0.74615318  0.42633608  1
  Ca2+  Ca23  1  0.24456285  0.73562925  0.72276396  1
  Ca2+  Ca24  1  0.59567358  0.26479680  0.06997043  1
  Ca2+  Ca25  1  0.57327848  0.23889548  0.43018675  1
  Ca2+  Ca26  1  0.58324550  0.24502008  0.75007114  1
  Ca2+  Ca27  1  0.58373480  0.74421943  0.10797616  1
  Ca2+  Ca28  1  0.56828806  0.75065993  0.40712335  1
  Ca2+  Ca29  1  0.58376548  0.74821920  0.73847752  1
  Ca2+  Ca30  1  0.90611707  0.26127446  0.06839215  1
  Ca2+  Ca31  1  0.90669265  0.24287027  0.40198701  1
  Ca2+  Ca32  1  0.90539272  0.24978853  0.76736592  1
  Ca2+  Ca33  1  0.90941768  0.74660894  0.08838863  1
  Ca2+  Ca34  1  0.92172675  0.75923183  0.42962657  1
  Ca2+  Ca35  1  0.92606563  0.73359975  0.72279381  1
  Ca2+  Ca36  1  0.79145895  0.10749645  0.30162512  1
  Ca2+  Ca37  1  0.58075467  0.08341361  0.07282546  1
  Ca2+  Ca38  1  0.42226600  0.07849687  0.28088950  1
  Ca2+  Ca39  1  0.56974473  0.59275205  0.39348973  1
  Ca2+  Ca40  1  0.38685413  0.59918495  0.58734487  1
  Ca2+  Ca41  1  0.23290027  0.60686644  0.42134785  1
  Ca2+  Ca42  1  0.06363553  0.08176223  0.29417344  1
  Ca2+  Ca43  1  0.08231226  0.08634996  0.56870074  1
  Ca2+  Ca44  1  0.27200392  0.10825624  0.70196720  1
  Ca2+  Ca45  1  0.09184338  0.60079660  0.25800884  1
  Ca2+  Ca46  1  0.10741244  0.60467044  0.58051364  1
  Ca2+  Ca47  1  0.56968398  0.58754196  0.09843563  1
  Ca2+  Ca48  1  0.58204356  0.10599790  0.74638158  1
  Ca2+  Ca49  1  0.06893283  0.07525183  0.29407936  1
  Ca2+  Ca50  1  0.44606244  0.11388715  0.89018873  1
  Ca2+  Ca51  1  0.28187826  0.10677470  0.70528644  1
  Ca2+  Ca52  1  0.76354998  0.60100254  0.59186230  1
  Ca2+  Ca53  1  0.56526143  0.58275108  0.74654876  1
  Ca2+  Ca54  1  0.92123053  0.09735717  0.08742753  1
  Ca2+  Ca55  1  0.74974665  0.10450973  0.89896719  1
  Ca2+  Ca56  1  0.95610604  0.61812166  0.43028497  1
  Ca2+  Ca57  1  0.93072707  0.10076274  0.08075272  1
  Ca2+  Ca58  1  0.73615865  0.59169498  0.23995672  1
  Ca2+  Ca59  1  0.73934628  0.09397661  0.57515150  1
  Ca2+  Ca60  1  0.39416501  0.59427161  0.58404538  1
  Ca2+  Ca61  1  0.25142467  0.59403294  0.09668013  1
  Ca2+  Ca62  1  0.27345588  0.10152164  0.44244035  1
  Ca2+  Ca63  1  0.23771964  0.08413084  0.07941300  1
  Ca2+  Ca64  1  0.89998209  0.10039030  0.75840924  1
  Ca2+  Ca65  1  0.74000106  0.56527626  0.95708220  1
  Ca2+  Ca66  1  0.58062765  0.58850837  0.09693033  1
  Ca2+  Ca67  1  0.59347929  0.08287548  0.07425273  1
  Ca2+  Ca68  1  0.09118337  0.08882656  0.57299354  1
  Ca2+  Ca69  1  0.94897416  0.61285214  0.42796010  1
  Ca2+  Ca70  1  0.42949059  0.57451427  0.92713877  1
  Ca2+  Ca71  1  0.43527197  0.11350717  0.88904950  1
  Ca2+  Ca72  1  0.24193652  0.92323001  0.39356456  1
  Ca2+  Ca73  1  0.25541828  0.40987800  0.08442297  1
  Ca2+  Ca74  1  0.75084516  0.90648504  0.91144484  1
  Ca2+  Ca75  1  0.74212533  0.91257374  0.25731181  1
  Ca2+  Ca76  1  0.07415942  0.90814020  0.57721935  1
  Ca2+  Ca77  1  0.92469728  0.39635646  0.75204604  1
  Ca2+  Ca78  1  0.57587326  0.40036512  0.75716467  1
  Ca2+  Ca79  1  0.42899580  0.42035197  0.92662338  1
  Ca2+  Ca80  1  0.60443267  0.42966646  0.06524641  1
  Ca2+  Ca81  1  0.77110016  0.92375005  0.59045433  1
  Ca2+  Ca82  1  0.76203929  0.90616452  0.91057129  1
  Ca2+  Ca83  1  0.41435361  0.90251020  0.91143410  1
  Ca2+  Ca84  1  0.59364097  0.42917170  0.06685725  1
  Ca2+  Ca85  1  0.25742858  0.40441512  0.42046072  1
  Ca2+  Ca86  1  0.24253318  0.40931952  0.08303631  1
  Ca2+  Ca87  1  0.23436169  0.89933481  0.09956083  1
  Ca2+  Ca88  1  0.89946600  0.41555691  0.07190602  1
  Ca2+  Ca89  1  0.08342961  0.89096062  0.91738905  1
  Ca2+  Ca90  1  0.08999633  0.40412866  0.59559821  1
  Ca2+  Ca91  1  0.43908351  0.42358550  0.92406765  1
  Ca2+  Ca92  1  0.41652196  0.90108298  0.57694783  1
  Ca2+  Ca93  1  0.58278200  0.90474366  0.09671913  1
  Ca2+  Ca94  1  0.58664904  0.39534043  0.41847516  1
  Ca2+  Ca95  1  0.24984666  0.41172484  0.41799984  1
  Ca2+  Ca96  1  0.60145793  0.91923113  0.74034773  1
  Ca2+  Ca97  1  0.74638965  0.40470026  0.25589550  1
  Ca2+  Ca98  1  0.24927757  0.90114362  0.74276193  1
  Ca2+  Ca99  1  0.42568321  0.90164006  0.91238591  1
  Ca2+  Ca100  1  0.09442207  0.91832190  0.26649006  1
  Ca2+  Ca101  1  0.59449572  0.90403804  0.09725779  1
  Ca2+  Ca102  1  0.78141970  0.92443093  0.59202411  1
  Ca2+  Ca103  1  0.93180501  0.91690474  0.41659191  1
  Ca2+  Ca104  1  0.59165423  0.91533963  0.73872985  1
  Ca2+  Ca105  1  0.92754373  0.89633090  0.08974569  1
  Ca2+  Ca106  1  0.08622182  0.40446107  0.25502388  1
  Ca2+  Ca107  1  0.57503908  0.92014901  0.39804564  1
  Mn3.34+  Mn108  1  0.07820503  0.33432496  0.08361971  1
  Mn3.34+  Mn109  1  0.07792033  0.32974188  0.42455828  1
  Mn3.34+  Mn110  1  0.08717178  0.33329618  0.75444052  1
  Mn3.34+  Mn111  1  0.08180046  0.82666251  0.09085874  1
  Mn3.34+  Mn112  1  0.08647515  0.83970034  0.41943942  1
  Mn3.34+  Mn113  1  0.08075938  0.83010042  0.74570963  1
  Mn3.34+  Mn114  1  0.41907787  0.33471690  0.08678890  1
  Mn3.34+  Mn115  1  0.42101686  0.33279751  0.42316518  1
  Mn3.34+  Mn116  1  0.40725378  0.34578806  0.74406844  1
  Mn3.34+  Mn117  1  0.41358764  0.82882070  0.08931773  1
  Mn3.34+  Mn118  1  0.41174561  0.83474978  0.41258414  1
  Mn3.34+  Mn119  1  0.41607583  0.82945409  0.74494616  1
  Mn3.34+  Mn120  1  0.75058979  0.34063671  0.08580225  1
  Mn3.34+  Mn121  1  0.75487038  0.33231335  0.42478492  1
  Mn3.34+  Mn122  1  0.74969104  0.33207931  0.74455815  1
  Mn3.34+  Mn123  1  0.75376217  0.82978247  0.08648213  1
  Mn3.34+  Mn124  1  0.75138006  0.83816013  0.41735534  1
  Mn3.34+  Mn125  1  0.75535657  0.83353481  0.74780302  1
  Mn3.34+  Mn126  1  0.25276651  0.33416824  0.25221308  1
  Mn3.34+  Mn127  1  0.26002317  0.33854898  0.58846682  1
  Mn3.34+  Mn128  1  0.25150868  0.32257975  0.91224507  1
  Mn3.34+  Mn129  1  0.25293679  0.83403048  0.25290422  1
  Mn3.34+  Mn130  1  0.24685942  0.83191790  0.57678675  1
  Mn3.34+  Mn131  1  0.24699973  0.83113475  0.91660821  1
  Mn3.34+  Mn132  1  0.58105773  0.33383425  0.24819317  1
  Mn3.34+  Mn133  1  0.58021037  0.33089794  0.58565434  1
  Mn3.34+  Mn134  1  0.59090924  0.33387838  0.91140115  1
  Mn3.34+  Mn135  1  0.57980240  0.83464846  0.25608649  1
  Mn3.34+  Mn136  1  0.58387058  0.83499170  0.57314525  1
  Mn3.34+  Mn137  1  0.58540339  0.83113799  0.91521786  1
  Mn3.34+  Mn138  1  0.91602226  0.32812746  0.24996879  1
  Mn3.34+  Mn139  1  0.91538254  0.32719810  0.57862156  1
  Mn3.34+  Mn140  1  0.91102161  0.33636713  0.91565457  1
  Mn3.34+  Mn141  1  0.91543541  0.83011483  0.25476757  1
  Mn3.34+  Mn142  1  0.92112247  0.83462437  0.58200565  1
  Mn3.34+  Mn143  1  0.92030113  0.82842966  0.91419046  1
  Mn3.34+  Mn144  1  0.25070687  0.18477734  0.91305224  1
  Mn3.34+  Mn145  1  0.91635620  0.17064058  0.57485474  1
  Mn3.34+  Mn146  1  0.41511905  0.66178337  0.08699054  1
  Mn3.34+  Mn147  1  0.57886218  0.65961814  0.91073489  1
  Mn3.34+  Mn148  1  0.25217313  0.66918476  0.25365007  1
  Mn3.34+  Mn149  1  0.74488297  0.16443617  0.75049508  1
  Mn3.34+  Mn150  1  0.91775818  0.67116582  0.24416413  1
  Mn3.34+  Mn151  1  0.75627363  0.16652520  0.08737336  1
  Mn3.34+  Mn152  1  0.92454220  0.65551829  0.91513074  1
  Mn3.34+  Mn153  1  0.41513786  0.66525448  0.41622793  1
  Mn3.34+  Mn154  1  0.25219727  0.66664252  0.91533717  1
  Mn3.34+  Mn155  1  0.08277336  0.18167098  0.09175445  1
  Mn3.34+  Mn156  1  0.41757389  0.18569970  0.08311002  1
  Mn3.34+  Mn157  1  0.08538617  0.17768648  0.07852995  1
  Mn3.34+  Mn158  1  0.41422283  0.66143824  0.75248387  1
  Mn3.34+  Mn159  1  0.08274284  0.17400769  0.42143462  1
  Mn3.34+  Mn160  1  0.75160337  0.66692272  0.74878151  1
  Mn3.34+  Mn161  1  0.58133810  0.16241051  0.25814878  1
  Mn3.34+  Mn162  1  0.75308220  0.66257159  0.08757073  1
  Mn3.34+  Mn163  1  0.59258082  0.66585810  0.91337650  1
  Mn3.34+  Mn164  1  0.25016024  0.15863728  0.25051229  1
  Mn3.34+  Mn165  1  0.07603356  0.16836034  0.75173983  1
  Mn3.34+  Mn166  1  0.59062497  0.15617667  0.25840268  1
  Mn3.34+  Mn167  1  0.90658094  0.16351044  0.57398316  1
  Mn3.34+  Mn168  1  0.57626538  0.16442055  0.57820040  1
  Mn3.34+  Mn169  1  0.91384580  0.66041718  0.91500822  1
  Mn3.34+  Mn170  1  0.58162220  0.66807532  0.58326138  1
  Mn3.34+  Mn171  1  0.24139987  0.17883443  0.91245370  1
  Mn3.34+  Mn172  1  0.75416279  0.66708924  0.41426884  1
  Mn3.34+  Mn173  1  0.42363395  0.17829487  0.08516832  1
  Mn3.34+  Mn174  1  0.08014660  0.66307430  0.08899385  1
  Mn3.34+  Mn175  1  0.08406256  0.65876216  0.74464484  1
  Mn3.34+  Mn176  1  0.74600076  0.17150791  0.08523010  1
  Mn3.34+  Mn177  1  0.24090420  0.66283411  0.91451287  1
  Mn3.34+  Mn178  1  0.26049781  0.16370775  0.25204950  1
  Mn3.34+  Mn179  1  0.74422912  0.66197057  0.41624061  1
  Mn3.34+  Mn180  1  0.23284640  0.49232575  0.90311010  1
  Mn3.34+  Mn181  1  0.06679853  0.00215413  0.74880599  1
  Mn3.34+  Mn182  1  0.93077650  -0.00100207  0.91302126  1
  Mn3.34+  Mn183  1  0.24905384  0.00115345  0.91209300  1
  Mn3.34+  Mn184  1  0.75131978  0.49728341  0.41371818  1
  Mn3.34+  Mn185  1  0.24217520  0.49721469  0.89876480  1
  Mn3.34+  Mn186  1  0.41280634  0.00182736  0.09980437  1
  Mn3.34+  Mn187  1  0.08285304  -0.00034668  0.09654570  1
  Mn3.34+  Mn188  1  0.41379809  -0.00284515  0.40296790  1
  Mn3.34+  Mn189  1  0.74967128  0.49796178  0.75864413  1
  Mn3.34+  Mn190  1  0.23477032  0.00743987  0.91340441  1
  Mn3.34+  Mn191  1  0.91395741  0.49623776  0.93079961  1
  Mn3.34+  Mn192  1  0.75987779  0.50305066  0.75876369  1
  Mn3.34+  Mn193  1  0.40246805  -0.00235917  0.10151013  1
  Mn3.34+  Mn194  1  0.57906280  0.00187261  0.58181056  1
  Mn3.34+  Mn195  1  0.41581044  0.00027233  0.74293387  1
  Mn3.34+  Mn196  1  0.59454136  0.00219525  0.91646709  1
  Mn3.34+  Mn197  1  0.07828497  -0.00262645  0.74975654  1
  Mn3.34+  Mn198  1  0.91939934  0.00353671  0.90978081  1
  Mn3.34+  Mn199  1  0.57489856  0.49489858  0.58316057  1
  Mn3.34+  Mn200  1  0.08547534  0.50107871  0.74623713  1
  Mn3.34+  Mn201  1  0.08332104  0.49536506  0.41602923  1
  Mn3.34+  Mn202  1  0.91002208  0.49833760  0.58163563  1
  Mn3.34+  Mn203  1  0.41723625  0.49814160  0.41085079  1
  Mn3.34+  Mn204  1  0.76131720  -0.00202595  0.09104297  1
  Mn3.34+  Mn205  1  0.91504468  -0.00670296  0.24974736  1
  Mn3.34+  Mn206  1  0.91316138  0.50579453  0.24134120  1
  Mn3.34+  Mn207  1  0.25171584  0.49739321  0.60547807  1
  Mn3.34+  Mn208  1  0.92415768  0.49315045  0.58092313  1
  Mn3.34+  Mn209  1  0.74332061  0.00290522  0.40129395  1
  Mn3.34+  Mn210  1  0.08259915  0.50199026  0.07581228  1
  Mn3.34+  Mn211  1  0.25380063  -0.00478998  0.58018780  1
  Mn3.34+  Mn212  1  0.58819567  0.50090208  0.58141234  1
  Mn3.34+  Mn213  1  0.92354484  0.50121840  0.24338779  1
  Mn3.34+  Mn214  1  0.25849271  0.50427836  0.26082095  1
  Mn3.34+  Mn215  1  0.57740929  0.49494316  0.26578858  1
  O2-  O216  1  -0.00024933  0.16480188  0.00470934  1
  O2-  O217  1  0.01285597  0.17226407  0.33125428  1
  O2-  O218  1  -0.00245124  0.15993540  0.65823815  1
  O2-  O219  1  0.00367296  0.67660332  0.00076719  1
  O2-  O220  1  0.00185373  0.66567838  0.32202774  1
  O2-  O221  1  0.00913381  0.65801230  0.66552557  1
  O2-  O222  1  0.34006810  0.16411759  -0.00638085  1
  O2-  O223  1  0.33695691  0.14898020  0.33424944  1
  O2-  O224  1  0.32234133  0.18968038  0.66978108  1
  O2-  O225  1  0.33124364  0.64540126  -0.00398482  1
  O2-  O226  1  0.33157332  0.65612438  0.33633820  1
  O2-  O227  1  0.33629402  0.66175502  0.67156274  1
  O2-  O228  1  0.66808136  0.14846022  0.00775940  1
  O2-  O229  1  0.67396867  0.16329749  0.33313212  1
  O2-  O230  1  0.66939375  0.15767636  0.66353022  1
  O2-  O231  1  0.66559289  0.65069034  0.00037069  1
  O2-  O232  1  0.67024091  0.65343174  0.33274120  1
  O2-  O233  1  0.66116838  0.65050576  0.67094318  1
  O2-  O234  1  0.17672476  0.16931185  0.00995690  1
  O2-  O235  1  0.16730741  0.15970975  0.33703416  1
  O2-  O236  1  0.15464202  0.14703944  0.66506071  1
  O2-  O237  1  0.16984332  0.66834609  0.00792049  1
  O2-  O238  1  0.16834364  0.67041112  0.32866795  1
  O2-  O239  1  0.16614146  0.66215886  0.67168947  1
  O2-  O240  1  0.50473927  0.15411820  0.00543424  1
  O2-  O241  1  0.49744189  0.15563361  0.33141193  1
  O2-  O242  1  0.50687296  0.16768691  0.66799134  1
  O2-  O243  1  0.49798856  0.65393317  -0.00601696  1
  O2-  O244  1  0.50010201  0.66705940  0.34328323  1
  O2-  O245  1  0.49564336  0.64982341  0.66486192  1
  O2-  O246  1  0.83396706  0.14727008  0.00462627  1
  O2-  O247  1  0.83218215  0.19479093  0.31951396  1
  O2-  O248  1  0.83443028  0.16420252  0.66345932  1
  O2-  O249  1  0.83305707  0.64929767  -0.00396020  1
  O2-  O250  1  0.83908792  0.64230363  0.33503070  1
  O2-  O251  1  0.82656789  0.66614372  0.66844304  1
  O2-  O252  1  -0.00333944  0.33333703  0.00292279  1
  O2-  O253  1  0.00328197  0.31807196  0.33152190  1
  O2-  O254  1  0.00434887  0.33672770  0.66178964  1
  O2-  O255  1  0.00080971  0.83177863  0.00338915  1
  O2-  O256  1  0.00250363  0.83350414  0.33601128  1
  O2-  O257  1  0.00446754  0.84218494  0.66111811  1
  O2-  O258  1  0.33606143  0.31006333  0.00049990  1
  O2-  O259  1  0.33134205  0.34329892  0.33727576  1
  O2-  O260  1  0.34012954  0.31164625  0.66197624  1
  O2-  O261  1  0.33528866  0.85313103  -0.00168498  1
  O2-  O262  1  0.32530304  0.84896993  0.34042100  1
  O2-  O263  1  0.33370088  0.84459406  0.66325044  1
  O2-  O264  1  0.66288644  0.35061289  0.00614568  1
  O2-  O265  1  0.66993981  0.33713636  0.32905822  1
  O2-  O266  1  0.66343270  0.34296446  0.66741691  1
  O2-  O267  1  0.66965731  0.85386451  -0.00202462  1
  O2-  O268  1  0.66647582  0.84927391  0.33539535  1
  O2-  O269  1  0.67029834  0.85269003  0.66284343  1
  O2-  O270  1  0.17589808  0.32623799  0.00962607  1
  O2-  O271  1  0.16499047  0.34295057  0.33781988  1
  O2-  O272  1  0.17286533  0.33304186  0.66477754  1
  O2-  O273  1  0.16533551  0.83373615  0.00379029  1
  O2-  O274  1  0.16359455  0.83174607  0.33398027  1
  O2-  O275  1  0.16601160  0.84696383  0.66300679  1
  O2-  O276  1  0.49842201  0.34203904  -0.00144528  1
  O2-  O277  1  0.50070635  0.34064221  0.33438871  1
  O2-  O278  1  0.50120667  0.33631712  0.67406936  1
  O2-  O279  1  0.50335540  0.85089187  -0.00083138  1
  O2-  O280  1  0.50170610  0.84300663  0.33935328  1
  O2-  O281  1  0.50752965  0.85173436  0.67133895  1
  O2-  O282  1  0.83429648  0.34537520  0.00470528  1
  O2-  O283  1  0.83117236  0.32508352  0.33152055  1
  O2-  O284  1  0.84258636  0.32530470  0.67025570  1
  O2-  O285  1  0.83312290  0.85086779  0.00145780  1
  O2-  O286  1  0.83667040  0.85648512  0.33613555  1
  O2-  O287  1  0.83333408  0.84502379  0.66249878  1
  O2-  O288  1  -0.00439846  0.18671460  0.16102630  1
  O2-  O289  1  -0.00457460  0.19086085  0.49917652  1
  O2-  O290  1  -0.00658586  0.18042641  0.82000823  1
  O2-  O291  1  0.00095757  0.69068585  0.16712228  1
  O2-  O292  1  0.00842087  0.68775462  0.48601169  1
  O2-  O293  1  0.00104417  0.67636439  0.83503368  1
  O2-  O294  1  0.32465858  0.18856763  0.15504706  1
  O2-  O295  1  0.32352527  0.17996440  0.50797227  1
  O2-  O296  1  0.33868053  0.18311698  0.83711623  1
  O2-  O297  1  0.32982090  0.67229493  0.16072521  1
  O2-  O298  1  0.33321136  0.66738850  0.49909881  1
  O2-  O299  1  0.33676787  0.68020081  0.83689905  1
  O2-  O300  1  0.66149071  0.17675550  0.16741725  1
  O2-  O301  1  0.66453189  0.18103198  0.50910526  1
  O2-  O302  1  0.66776561  0.17154645  0.82669409  1
  O2-  O303  1  0.66687340  0.67248291  0.15943325  1
  O2-  O304  1  0.66938732  0.68109524  0.50302704  1
  O2-  O305  1  0.66671261  0.68366469  0.83140168  1
  O2-  O306  1  0.16987683  0.18778143  0.17144502  1
  O2-  O307  1  0.15858164  0.18389005  0.50227864  1
  O2-  O308  1  0.16973174  0.17928428  0.82212145  1
  O2-  O309  1  0.16577369  0.68266860  0.16726778  1
  O2-  O310  1  0.16297824  0.67988899  0.49597390  1
  O2-  O311  1  0.16693426  0.68483556  0.83417256  1
  O2-  O312  1  0.50612378  0.17933210  0.16826813  1
  O2-  O313  1  0.50024261  0.17259362  0.50493274  1
  O2-  O314  1  0.49969629  0.18095767  0.82650948  1
  O2-  O315  1  0.50108672  0.67261214  0.15584640  1
  O2-  O316  1  0.49229736  0.67640864  0.50818912  1
  O2-  O317  1  0.50343252  0.68280578  0.83016923  1
  O2-  O318  1  0.84022349  0.17627426  0.15898847  1
  O2-  O319  1  0.82473531  0.18156563  0.50316520  1
  O2-  O320  1  0.82594466  0.17638954  0.82753149  1
  O2-  O321  1  0.82728408  0.68075894  0.17188085  1
  O2-  O322  1  0.83615123  0.67483168  0.49174328  1
  O2-  O323  1  0.83408289  0.68072904  0.83250251  1
  O2-  O324  1  0.00031500  0.30952893  0.16666369  1
  O2-  O325  1  0.00268797  0.30465320  0.50418800  1
  O2-  O326  1  -0.00648085  0.32428380  0.82828612  1
  O2-  O327  1  -0.00560797  0.81359706  0.16716358  1
  O2-  O328  1  0.00333948  0.82635516  0.49818862  1
  O2-  O329  1  0.00600788  0.82060609  0.83772954  1
  O2-  O330  1  0.33373025  0.31890881  0.16372053  1
  O2-  O331  1  0.32498387  0.32961004  0.49361774  1
  O2-  O332  1  0.33628775  0.30902425  0.83132794  1
  O2-  O333  1  0.32516250  0.82794263  0.15996589  1
  O2-  O334  1  0.33609073  0.82698130  0.50138481  1
  O2-  O335  1  0.33869866  0.83199994  0.83859400  1
  O2-  O336  1  0.66666481  0.32233357  0.16527222  1
  O2-  O337  1  0.66327932  0.31571956  0.49263357  1
  O2-  O338  1  0.66578954  0.32536032  0.82765008  1
  O2-  O339  1  0.66473948  0.82196873  0.16159135  1
  O2-  O340  1  0.67358220  0.82843364  0.50447041  1
  O2-  O341  1  0.66626998  0.82732735  0.83318944  1
  O2-  O342  1  0.16469653  0.31987058  0.16964249  1
  O2-  O343  1  0.17048907  0.31668987  0.50037220  1
  O2-  O344  1  0.16451579  0.30500156  0.84180820  1
  O2-  O345  1  0.16573654  0.81396141  0.16830406  1
  O2-  O346  1  0.16336097  0.81753269  0.49811086  1
  O2-  O347  1  0.16862310  0.82315951  0.83183300  1
  O2-  O348  1  0.50083559  0.31153359  0.16038976  1
  O2-  O349  1  0.50466535  0.32198482  0.49797847  1
  O2-  O350  1  0.50490210  0.32469842  0.83136423  1
  O2-  O351  1  0.50850457  0.82549555  0.15788635  1
  O2-  O352  1  0.49541189  0.82155554  0.50173108  1
  O2-  O353  1  0.49499507  0.82640089  0.83778953  1
  O2-  O354  1  0.83141678  0.31881865  0.16743526  1
  O2-  O355  1  0.83232827  0.30160154  0.50174082  1
  O2-  O356  1  0.83276722  0.32508774  0.82999260  1
  O2-  O357  1  0.83363323  0.82380951  0.16625514  1
  O2-  O358  1  0.83401486  0.82680988  0.49939384  1
  O2-  O359  1  0.82381330  0.82912410  0.84423356  1
  O2-  O360  1  0.08580246  0.08610511  0.12614831  1
  O2-  O361  1  0.08548807  0.08297171  0.43628578  1
  O2-  O362  1  0.07286344  0.08281462  0.77965536  1
  O2-  O363  1  0.09646766  0.57773166  0.11978593  1
  O2-  O364  1  0.08213147  0.57535082  0.44534240  1
  O2-  O365  1  0.09250741  0.57818443  0.77690569  1
  O2-  O366  1  0.41449964  0.08556565  0.11858058  1
  O2-  O367  1  0.40842528  0.06135369  0.45553303  1
  O2-  O368  1  0.39679986  0.08056744  0.77021934  1
  O2-  O369  1  0.42942739  0.58045510  0.09221078  1
  O2-  O370  1  0.42590886  0.57813134  0.44849733  1
  O2-  O371  1  0.42389718  0.58444828  0.78326284  1
  O2-  O372  1  0.74341374  0.08160048  0.12270532  1
  O2-  O373  1  0.75760832  0.07330519  0.43751162  1
  O2-  O374  1  0.75544234  0.08160247  0.76769810  1
  O2-  O375  1  0.74067231  0.58297830  0.10518310  1
  O2-  O376  1  0.74788200  0.57780520  0.45320137  1
  O2-  O377  1  0.74466703  0.58277032  0.79042212  1
  O2-  O378  1  0.26547086  0.08127398  0.20902041  1
  O2-  O379  1  0.23404445  0.07789033  0.57125644  1
  O2-  O380  1  0.25599108  0.08866118  0.89787686  1
  O2-  O381  1  0.23699168  0.58446416  0.23210838  1
  O2-  O382  1  0.25240638  0.56590513  0.54712988  1
  O2-  O383  1  0.23779168  0.58062362  0.88661375  1
  O2-  O384  1  0.57091573  0.07774308  0.20792267  1
  O2-  O385  1  0.59514203  0.08056009  0.57253044  1
  O2-  O386  1  0.57261211  0.08181980  0.89346247  1
  O2-  O387  1  0.58738517  0.57088878  0.22872037  1
  O2-  O388  1  0.58752352  0.57932058  0.54368282  1
  O2-  O389  1  0.58430401  0.57815782  0.88716994  1
  O2-  O390  1  0.92936492  0.07363586  0.21720233  1
  O2-  O391  1  0.94227705  0.08558367  0.55183829  1
  O2-  O392  1  0.91265565  0.08361352  0.89476464  1
  O2-  O393  1  0.92566577  0.58696239  0.21587214  1
  O2-  O394  1  0.90844757  0.57725587  0.54802969  1
  O2-  O395  1  0.91156133  0.57342952  0.88837436  1
  O2-  O396  1  0.10083727  0.42188846  0.11506604  1
  O2-  O397  1  0.09645481  0.41732403  0.45168461  1
  O2-  O398  1  0.07897018  0.41871881  0.76341053  1
  O2-  O399  1  0.08064831  0.91579396  0.11032967  1
  O2-  O400  1  0.08793212  0.92030589  0.43479323  1
  O2-  O401  1  0.08682239  0.91738982  0.77967340  1
  O2-  O402  1  0.38790415  0.41624703  0.07556523  1
  O2-  O403  1  0.40647294  0.41936918  0.44159513  1
  O2-  O404  1  0.42299914  0.42197565  0.78962433  1
  O2-  O405  1  0.42591100  0.91543251  0.10440565  1
  O2-  O406  1  0.41782404  0.92536316  0.44481841  1
  O2-  O407  1  0.41665848  0.92068430  0.77850729  1
  O2-  O408  1  0.74459353  0.41990783  0.11520850  1
  O2-  O409  1  0.73830140  0.41799180  0.42711897  1
  O2-  O410  1  0.75945404  0.41574483  0.76358271  1
  O2-  O411  1  0.73889909  0.91517807  0.11375015  1
  O2-  O412  1  0.75181579  0.93260439  0.45361230  1
  O2-  O413  1  0.73467194  0.92355635  0.78245268  1
  O2-  O414  1  0.24754720  0.42341195  0.21649304  1
  O2-  O415  1  0.23985584  0.42517031  0.55327142  1
  O2-  O416  1  0.26142323  0.41001498  0.91117582  1
  O2-  O417  1  0.23385497  0.91375470  0.23390243  1
  O2-  O418  1  0.24915789  0.91751364  0.54832317  1
  O2-  O419  1  0.24023280  0.92007536  0.89304662  1
  O2-  O420  1  0.58582089  0.42081583  0.21325555  1
  O2-  O421  1  0.58439211  0.41517561  0.55680130  1
  O2-  O422  1  0.57446745  0.41923055  0.89748104  1
  O2-  O423  1  0.59374383  0.91989659  0.22448542  1
  O2-  O424  1  0.56576988  0.92245344  0.54596989  1
  O2-  O425  1  0.57573528  0.92225106  0.88109733  1
  O2-  O426  1  0.92504447  0.41811661  0.21712895  1
  O2-  O427  1  0.92669783  0.41356225  0.55798711  1
  O2-  O428  1  0.91938468  0.42261975  0.88831012  1
  O2-  O429  1  0.92274898  0.91429098  0.22314798  1
  O2-  O430  1  0.91388416  0.91923438  0.55392631  1
  O2-  O431  1  0.92637343  0.91626335  0.90057162  1
  O2-  O432  1  -0.01994736  0.01322307  0.02473986  1
  O2-  O433  1  -0.00203437  -0.00788316  0.32138488  1
  O2-  O434  1  0.01173050  0.00925298  0.64793765  1
  O2-  O435  1  -0.01635405  0.48941287  0.02087782  1
  O2-  O436  1  0.00193784  0.50729526  0.33015360  1
  O2-  O437  1  -0.00576688  0.49810381  0.67129362  1
  O2-  O438  1  0.33133195  0.00397867  0.00307775  1
  O2-  O439  1  0.32568595  0.00449437  0.34649631  1
  O2-  O440  1  0.31912546  0.00026625  0.67953123  1
  O2-  O441  1  0.34620941  0.50091167  -0.04430481  1
  O2-  O442  1  0.30902896  0.49962479  0.37113922  1
  O2-  O443  1  0.34732586  0.50897482  0.64800869  1
  O2-  O444  1  0.65054924  0.00011638  0.02880452  1
  O2-  O445  1  0.66318509  -0.00705305  0.33684819  1
  O2-  O446  1  0.66775584  -0.02191698  0.64790849  1
  O2-  O447  1  0.64623483  0.51587598  0.03517714  1
  O2-  O448  1  0.67402152  0.50522293  0.32273732  1
  O2-  O449  1  0.66438884  0.50813306  0.67483485  1
  O2-  O450  1  0.17354320  0.00259989  0.01522672  1
  O2-  O451  1  0.15449211  0.01007656  0.30123384  1
  O2-  O452  1  0.16283117  -0.00403773  0.66035570  1
  O2-  O453  1  0.19482721  0.49752041  0.02410939  1
  O2-  O454  1  0.16140373  0.48552327  0.33039003  1
  O2-  O455  1  0.14906087  0.50226547  0.64436720  1
  O2-  O456  1  0.49723072  0.00623123  0.01181612  1
  O2-  O457  1  0.49311425  0.00016565  0.33524344  1
  O2-  O458  1  0.51904049  -0.00410397  0.68936642  1
  O2-  O459  1  0.50019635  0.48559855  0.00705979  1
  O2-  O460  1  0.52418527  0.49377290  0.36819044  1
  O2-  O461  1  0.50280441  0.51319910  0.66612780  1
  O2-  O462  1  0.81594431  -0.00714474  -0.02190862  1
  O2-  O463  1  0.82182880  -0.00227142  0.32176613  1
  O2-  O464  1  0.81406188  0.01204033  0.63665053  1
  O2-  O465  1  0.82434119  0.49064345  -0.01242391  1
  O2-  O466  1  0.82855158  0.50063464  0.32144066  1
  O2-  O467  1  0.82838830  0.50596071  0.66323885  1
  O2-  O468  1  0.89474321  0.74987379  0.27960687  1
  O2-  O469  1  0.75401624  0.74960159  0.05551330  1
  O2-  O470  1  0.58266941  0.24716999  0.26971966  1
  O2-  O471  1  0.08447292  0.24888766  0.72742002  1
  O2-  O472  1  0.41185160  0.74896281  0.05784314  1
  O2-  O473  1  0.58318828  0.74631615  0.94489306  1
  O2-  O474  1  0.58506392  0.75265498  0.60406510  1
  O2-  O475  1  0.58286831  0.25062278  0.60261314  1
  O2-  O476  1  0.26699853  0.74892178  0.94206362  1
  O2-  O477  1  0.74089068  0.75174481  0.73024751  1
  O2-  O478  1  0.91418188  0.75492948  0.59114407  1
  O2-  O479  1  0.75005683  0.75017720  0.39086058  1
  O2-  O480  1  0.90346145  0.74611310  0.93667148  1
  O2-  O481  1  0.74164965  0.25044748  0.73479279  1
  O2-  O482  1  0.25317594  0.75337246  0.58981557  1
  O2-  O483  1  0.42342103  0.74938699  0.72907629  1
  O2-  O484  1  0.08177553  0.74922222  0.73420698  1
  O2-  O485  1  0.90623309  0.25618757  0.92811645  1
  O2-  O486  1  0.41425099  0.25333101  0.40801269  1
  O2-  O487  1  0.74654847  0.25353103  0.05455217  1
  O2-  O488  1  0.58398771  0.75498802  0.26536652  1
  O2-  O489  1  0.27018269  0.75056137  0.26488684  1
  O2-  O490  1  0.59270102  0.25545562  0.93583906  1
  O2-  O491  1  0.25492835  0.24572673  0.27717921  1
  O2-  O492  1  0.41084211  0.75039256  0.40283512  1
