# generated using pymatgen
data_Ca108Mn108O277
_symmetry_space_group_name_H-M   'P 1'
_cell_length_a   16.02453232
_cell_length_b   22.30330875
_cell_length_c   16.38604970
_cell_angle_alpha   89.99715179
_cell_angle_beta   89.99647377
_cell_angle_gamma   90.00546769
_symmetry_Int_Tables_number   1
_chemical_formula_structural   Ca108Mn108O277
_chemical_formula_sum   'Ca108 Mn108 O277'
_cell_volume   5856.37562494
_cell_formula_units_Z   1
loop_
 _symmetry_equiv_pos_site_id
 _symmetry_equiv_pos_as_xyz
  1  'x, y, z'
loop_
 _atom_type_symbol
 _atom_type_oxidation_number
  Ca2+  2.0
  Mn3.34+  3.34
  O2-  -2.0
loop_
 _atom_site_type_symbol
 _atom_site_label
 _atom_site_symmetry_multiplicity
 _atom_site_fract_x
 _atom_site_fract_y
 _atom_site_fract_z
 _atom_site_occupancy
  Ca2+  Ca0  1  0.07334027  0.23559413  0.25526736  1
  Ca2+  Ca1  1  0.07314672  0.24025522  0.56518746  1
  Ca2+  Ca2  1  0.07579931  0.23513706  0.93430850  1
  Ca2+  Ca3  1  0.08079137  0.75608443  0.24261791  1
  Ca2+  Ca4  1  0.08371477  0.75559596  0.58067903  1
  Ca2+  Ca5  1  0.09747537  0.75847585  0.92784658  1
  Ca2+  Ca6  1  0.41316899  0.22508946  0.26046540  1
  Ca2+  Ca7  1  0.43146913  0.25649684  0.56730170  1
  Ca2+  Ca8  1  0.43776966  0.23972765  0.92702597  1
  Ca2+  Ca9  1  0.41435715  0.75410738  0.22318307  1
  Ca2+  Ca10  1  0.42606303  0.74884129  0.59163972  1
  Ca2+  Ca11  1  0.41877175  0.74532208  0.93109621  1
  Ca2+  Ca12  1  0.76752220  0.24314714  0.25334811  1
  Ca2+  Ca13  1  0.73769666  0.25964580  0.57250860  1
  Ca2+  Ca14  1  0.72937082  0.24498961  0.92422660  1
  Ca2+  Ca15  1  0.75249818  0.76926423  0.25323834  1
  Ca2+  Ca16  1  0.74246052  0.75640515  0.57161576  1
  Ca2+  Ca17  1  0.73767187  0.76298117  0.92502355  1
  Ca2+  Ca18  1  0.23706216  0.23782998  0.08986525  1
  Ca2+  Ca19  1  0.25146988  0.23812702  0.40457010  1
  Ca2+  Ca20  1  0.24272018  0.25654354  0.76235842  1
  Ca2+  Ca21  1  0.27251005  0.74053446  0.07459767  1
  Ca2+  Ca22  1  0.24288430  0.75283614  0.40710849  1
  Ca2+  Ca23  1  0.25857516  0.75174865  0.76409580  1
  Ca2+  Ca24  1  0.57067695  0.24572209  0.08125972  1
  Ca2+  Ca25  1  0.57040266  0.25194425  0.42327685  1
  Ca2+  Ca26  1  0.57829040  0.25534921  0.75789452  1
  Ca2+  Ca27  1  0.56275964  0.75388762  0.07869068  1
  Ca2+  Ca28  1  0.59527833  0.75244731  0.41500590  1
  Ca2+  Ca29  1  0.56977826  0.75402359  0.75442354  1
  Ca2+  Ca30  1  0.93650862  0.24180956  0.09690259  1
  Ca2+  Ca31  1  0.93533387  0.24430024  0.39812732  1
  Ca2+  Ca32  1  0.93130361  0.24928454  0.76082371  1
  Ca2+  Ca33  1  0.92310313  0.76312840  0.09395669  1
  Ca2+  Ca34  1  0.91281294  0.75446474  0.40662334  1
  Ca2+  Ca35  1  0.92537144  0.76109721  0.75028089  1
  Ca2+  Ca36  1  0.40791977  0.60358309  0.23344104  1
  Ca2+  Ca37  1  0.22610448  0.10010874  0.41244365  1
  Ca2+  Ca38  1  0.09388638  0.59569893  0.92824619  1
  Ca2+  Ca39  1  0.94260472  0.09458637  0.40891927  1
  Ca2+  Ca40  1  0.55051238  0.58824513  0.06933160  1
  Ca2+  Ca41  1  0.41745439  0.60191345  0.22976130  1
  Ca2+  Ca42  1  0.76361662  0.58377046  0.27143464  1
  Ca2+  Ca43  1  0.07300474  0.10743865  0.24153166  1
  Ca2+  Ca44  1  0.57439774  0.59232300  0.73632993  1
  Ca2+  Ca45  1  0.73984657  0.58879855  0.57229754  1
  Ca2+  Ca46  1  0.93039547  0.07923361  0.75082058  1
  Ca2+  Ca47  1  0.55566841  0.11025577  0.38941407  1
  Ca2+  Ca48  1  0.07190397  0.59668698  0.26894951  1
  Ca2+  Ca49  1  0.74822593  0.07470710  0.93309517  1
  Ca2+  Ca50  1  0.07446196  0.06516297  0.60898718  1
  Ca2+  Ca51  1  0.06227436  0.08570436  0.91687141  1
  Ca2+  Ca52  1  0.92223098  0.59352794  0.07871558  1
  Ca2+  Ca53  1  0.57136388  0.57958776  0.42047608  1
  Ca2+  Ca54  1  0.75233863  0.58393020  0.27222742  1
  Ca2+  Ca55  1  0.42811336  0.58978226  0.58737288  1
  Ca2+  Ca56  1  0.57470803  0.09044828  0.06646402  1
  Ca2+  Ca57  1  0.41092808  0.10242026  0.58320459  1
  Ca2+  Ca58  1  0.07728677  0.61059227  0.55606809  1
  Ca2+  Ca59  1  0.40093406  0.58577259  0.94953769  1
  Ca2+  Ca60  1  0.42306607  0.10225746  0.58376672  1
  Ca2+  Ca61  1  0.23889633  0.60166152  0.41720010  1
  Ca2+  Ca62  1  0.93672220  0.59863492  0.41938249  1
  Ca2+  Ca63  1  0.58407934  0.57930448  0.42105170  1
  Ca2+  Ca64  1  0.91177430  0.58944499  0.74153958  1
  Ca2+  Ca65  1  0.93630314  0.08915669  0.41197228  1
  Ca2+  Ca66  1  0.23390412  0.07781896  0.73961020  1
  Ca2+  Ca67  1  0.08277777  0.59637485  0.26665423  1
  Ca2+  Ca68  1  0.74830601  0.58459410  0.92130831  1
  Ca2+  Ca69  1  0.78022795  0.07445452  0.58888861  1
  Ca2+  Ca70  1  0.92291113  0.09591181  0.08690089  1
  Ca2+  Ca71  1  0.22656930  0.60156489  0.42106362  1
  Ca2+  Ca72  1  0.59817755  0.92335723  0.05251428  1
  Ca2+  Ca73  1  0.91049214  0.39503542  0.75234998  1
  Ca2+  Ca74  1  0.77027542  0.91093179  0.58692495  1
  Ca2+  Ca75  1  0.41856501  0.39902167  0.24249509  1
  Ca2+  Ca76  1  0.24661499  0.40699118  0.41741846  1
  Ca2+  Ca77  1  0.22064391  0.92000523  0.73693074  1
  Ca2+  Ca78  1  0.39675649  0.91371602  0.59419559  1
  Ca2+  Ca79  1  0.88808075  0.92520141  0.07233549  1
  Ca2+  Ca80  1  0.59951019  0.40575308  0.42822010  1
  Ca2+  Ca81  1  0.23094464  0.91984836  0.73907792  1
  Ca2+  Ca82  1  0.73215148  0.40475386  0.91961531  1
  Ca2+  Ca83  1  0.74906517  0.92365469  0.92955828  1
  Ca2+  Ca84  1  0.26830168  0.40740710  0.07528726  1
  Ca2+  Ca85  1  0.07088723  0.91074932  0.91062326  1
  Ca2+  Ca86  1  0.94447611  0.92969613  0.72673684  1
  Ca2+  Ca87  1  0.09567325  0.39830274  0.91144733  1
  Ca2+  Ca88  1  0.07467709  0.40562862  0.25703329  1
  Ca2+  Ca89  1  0.90805026  0.39991001  0.09058061  1
  Ca2+  Ca90  1  0.44481590  0.41491574  0.57759601  1
  Ca2+  Ca91  1  0.59903654  0.90575129  0.40983985  1
  Ca2+  Ca92  1  0.75177300  0.40270887  0.25999582  1
  Ca2+  Ca93  1  0.42962728  0.39877962  0.24120062  1
  Ca2+  Ca94  1  0.89509123  0.40923936  0.41273876  1
  Ca2+  Ca95  1  0.25926548  0.40553161  0.41877732  1
  Ca2+  Ca96  1  0.08302623  0.39727525  0.91241434  1
  Ca2+  Ca97  1  0.40653138  0.91129773  0.60205149  1
  Ca2+  Ca98  1  0.74403769  0.40701713  0.92236635  1
  Ca2+  Ca99  1  0.25854334  0.90011588  0.08068512  1
  Ca2+  Ca100  1  0.07282271  0.90121151  0.25961968  1
  Ca2+  Ca101  1  0.58916885  0.90558750  0.76629852  1
  Ca2+  Ca102  1  0.42003102  0.90051730  0.24571643  1
  Ca2+  Ca103  1  0.06942205  0.39942690  0.57405301  1
  Ca2+  Ca104  1  0.61028826  0.90945183  0.41291895  1
  Ca2+  Ca105  1  0.08174521  0.39916829  0.57716104  1
  Ca2+  Ca106  1  0.24059572  0.90058056  0.41872805  1
  Ca2+  Ca107  1  0.42772529  0.41426792  0.93486984  1
  Mn3.34+  Mn108  1  0.08535853  0.33016778  0.08737191  1
  Mn3.34+  Mn109  1  0.08362178  0.33157528  0.41418157  1
  Mn3.34+  Mn110  1  0.08611920  0.32683149  0.74847901  1
  Mn3.34+  Mn111  1  0.08318312  0.83622934  0.08303267  1
  Mn3.34+  Mn112  1  0.07639300  0.83185553  0.42142143  1
  Mn3.34+  Mn113  1  0.08017637  0.83456464  0.75106139  1
  Mn3.34+  Mn114  1  0.41922426  0.33060365  0.08220925  1
  Mn3.34+  Mn115  1  0.41777210  0.33461239  0.41945554  1
  Mn3.34+  Mn116  1  0.41503020  0.33146310  0.75183437  1
  Mn3.34+  Mn117  1  0.42028879  0.83966961  0.07781621  1
  Mn3.34+  Mn118  1  0.41655926  0.82801376  0.41934078  1
  Mn3.34+  Mn119  1  0.41726068  0.83530685  0.76011102  1
  Mn3.34+  Mn120  1  0.74494997  0.33113191  0.09151101  1
  Mn3.34+  Mn121  1  0.74952046  0.33428269  0.41789478  1
  Mn3.34+  Mn122  1  0.74853649  0.32805547  0.75029937  1
  Mn3.34+  Mn123  1  0.74752590  0.83891542  0.08453025  1
  Mn3.34+  Mn124  1  0.76132581  0.83799502  0.41843866  1
  Mn3.34+  Mn125  1  0.75502304  0.83357582  0.75264063  1
  Mn3.34+  Mn126  1  0.24769225  0.32943933  0.24455039  1
  Mn3.34+  Mn127  1  0.25471811  0.32465911  0.58558498  1
  Mn3.34+  Mn128  1  0.25846263  0.33224065  0.91428756  1
  Mn3.34+  Mn129  1  0.24932557  0.83261070  0.24747288  1
  Mn3.34+  Mn130  1  0.24541356  0.83262078  0.57684272  1
  Mn3.34+  Mn131  1  0.25169048  0.83878589  0.91420515  1
  Mn3.34+  Mn132  1  0.58578643  0.32195566  0.25064265  1
  Mn3.34+  Mn133  1  0.58856706  0.34033796  0.58886100  1
  Mn3.34+  Mn134  1  0.57813696  0.33018288  0.91801992  1
  Mn3.34+  Mn135  1  0.58750401  0.83408904  0.24371896  1
  Mn3.34+  Mn136  1  0.58575913  0.83147613  0.58540006  1
  Mn3.34+  Mn137  1  0.58367248  0.83641315  0.91607978  1
  Mn3.34+  Mn138  1  0.91755779  0.33039173  0.25039293  1
  Mn3.34+  Mn139  1  0.90714306  0.33053773  0.58132467  1
  Mn3.34+  Mn140  1  0.91458273  0.32902773  0.91979485  1
  Mn3.34+  Mn141  1  0.91241430  0.84158695  0.24917935  1
  Mn3.34+  Mn142  1  0.92137269  0.83795385  0.57929191  1
  Mn3.34+  Mn143  1  0.91358788  0.84060369  0.91132501  1
  Mn3.34+  Mn144  1  0.41824215  0.66464503  0.42056762  1
  Mn3.34+  Mn145  1  0.91628289  0.16176591  0.58179631  1
  Mn3.34+  Mn146  1  0.24761940  0.16653662  0.24635915  1
  Mn3.34+  Mn147  1  0.41262971  0.66864637  0.75407760  1
  Mn3.34+  Mn148  1  0.75284570  0.16387124  0.75285507  1
  Mn3.34+  Mn149  1  0.74113559  0.66752485  0.08515866  1
  Mn3.34+  Mn150  1  0.75615783  0.67279858  0.75273115  1
  Mn3.34+  Mn151  1  0.24918141  0.16320272  0.91760007  1
  Mn3.34+  Mn152  1  0.75204759  0.66237421  0.08592154  1
  Mn3.34+  Mn153  1  0.41797764  0.16360007  0.09178956  1
  Mn3.34+  Mn154  1  0.91842300  0.66771288  0.91498840  1
  Mn3.34+  Mn155  1  0.74302009  0.15861957  0.41834675  1
  Mn3.34+  Mn156  1  0.58057697  0.66880252  0.58080940  1
  Mn3.34+  Mn157  1  0.25573475  0.67753109  0.58095489  1
  Mn3.34+  Mn158  1  0.74362309  0.16933844  0.75060030  1
  Mn3.34+  Mn159  1  0.91666728  0.67153059  0.25051432  1
  Mn3.34+  Mn160  1  0.09367804  0.66433309  0.75005122  1
  Mn3.34+  Mn161  1  0.74664161  0.67830704  0.75124549  1
  Mn3.34+  Mn162  1  0.74353896  0.16608019  0.08735140  1
  Mn3.34+  Mn163  1  0.25559584  0.66663532  0.91998054  1
  Mn3.34+  Mn164  1  0.58160046  0.17156207  0.58416721  1
  Mn3.34+  Mn165  1  0.91360494  0.16231279  0.91592971  1
  Mn3.34+  Mn166  1  0.58275745  0.67081928  0.24973908  1
  Mn3.34+  Mn167  1  0.42281363  0.16271433  0.76091156  1
  Mn3.34+  Mn168  1  0.75327998  0.16196544  0.09080319  1
  Mn3.34+  Mn169  1  0.25948628  0.15853803  0.91636813  1
  Mn3.34+  Mn170  1  0.24954634  0.67169689  0.24400621  1
  Mn3.34+  Mn171  1  0.57758989  0.66610878  0.91209847  1
  Mn3.34+  Mn172  1  0.07914808  0.16322488  0.75348617  1
  Mn3.34+  Mn173  1  0.24510793  0.17396600  0.59055713  1
  Mn3.34+  Mn174  1  0.74909035  0.66796069  0.42131936  1
  Mn3.34+  Mn175  1  0.08286858  0.66949074  0.75008788  1
  Mn3.34+  Mn176  1  0.08693186  0.67022979  0.08368926  1
  Mn3.34+  Mn177  1  0.24647253  0.16877190  0.58101262  1
  Mn3.34+  Mn178  1  0.91559696  0.67226679  0.57842439  1
  Mn3.34+  Mn179  1  0.75239233  0.16421053  0.41909950  1
  Mn3.34+  Mn180  1  0.24738208  0.49910482  0.23607718  1
  Mn3.34+  Mn181  1  0.24632693  0.49966040  0.57697827  1
  Mn3.34+  Mn182  1  0.59681571  0.00769121  0.24680388  1
  Mn3.34+  Mn183  1  0.09484043  0.50358619  0.08524860  1
  Mn3.34+  Mn184  1  0.41940475  0.00280828  0.41162070  1
  Mn3.34+  Mn185  1  0.25230669  0.50036713  0.91526396  1
  Mn3.34+  Mn186  1  0.91811064  0.49910632  0.25228114  1
  Mn3.34+  Mn187  1  0.75744728  -0.00143491  0.75166007  1
  Mn3.34+  Mn188  1  0.58527274  0.50238890  0.23361151  1
  Mn3.34+  Mn189  1  0.58556321  0.00386031  0.58116688  1
  Mn3.34+  Mn190  1  0.72989835  0.49941583  0.73984113  1
  Mn3.34+  Mn191  1  0.24061049  0.00132156  0.24096239  1
  Mn3.34+  Mn192  1  0.91042716  -0.00242604  0.27152413  1
  Mn3.34+  Mn193  1  0.42477701  0.50099765  0.75460098  1
  Mn3.34+  Mn194  1  0.08691705  -0.00482386  0.42073162  1
  Mn3.34+  Mn195  1  0.74054308  0.49432188  0.73634377  1
  Mn3.34+  Mn196  1  0.25841814  0.50314422  0.23791942  1
  Mn3.34+  Mn197  1  0.07869492  0.00398284  0.07891892  1
  Mn3.34+  Mn198  1  0.57438977  0.49779971  0.23511061  1
  Mn3.34+  Mn199  1  0.41359668  0.00100610  0.75404559  1
  Mn3.34+  Mn200  1  0.08036264  0.49742666  0.08645580  1
  Mn3.34+  Mn201  1  0.26464952  0.00032884  0.92741917  1
  Mn3.34+  Mn202  1  0.58105941  0.50148290  0.91343523  1
  Mn3.34+  Mn203  1  0.40441745  -0.00199877  0.41461745  1
  Mn3.34+  Mn204  1  0.25321402  0.00743004  0.24003334  1
  Mn3.34+  Mn205  1  0.08340587  0.50234309  0.75173556  1
  Mn3.34+  Mn206  1  0.26077692  0.50477491  0.57987095  1
  Mn3.34+  Mn207  1  0.09388082  0.00005032  0.08241917  1
  Mn3.34+  Mn208  1  0.09501392  0.49869432  0.75314859  1
  Mn3.34+  Mn209  1  0.59655009  -0.00062170  0.57746457  1
  Mn3.34+  Mn210  1  0.41407326  0.49643511  0.75456532  1
  Mn3.34+  Mn211  1  0.60582118  0.00148919  0.24915742  1
  Mn3.34+  Mn212  1  0.91327387  0.50107348  0.57987938  1
  Mn3.34+  Mn213  1  0.74099946  0.49630626  0.08014316  1
  Mn3.34+  Mn214  1  0.41860741  0.00333730  0.07173620  1
  Mn3.34+  Mn215  1  0.91621768  0.50163919  0.91561817  1
  O2-  O216  1  -0.00824541  0.15455829  -0.00661936  1
  O2-  O217  1  -0.00108937  0.15514554  0.33687352  1
  O2-  O218  1  -0.00198883  0.16236951  0.66408674  1
  O2-  O219  1  -0.00115716  0.65825189  -0.00020198  1
  O2-  O220  1  -0.00167980  0.66420229  0.33159680  1
  O2-  O221  1  -0.00194967  0.65628053  0.66721038  1
  O2-  O222  1  0.33230759  0.15759857  0.00141206  1
  O2-  O223  1  0.32072152  0.15666806  0.33472165  1
  O2-  O224  1  0.32888078  0.17542513  0.66972005  1
  O2-  O225  1  0.33256915  0.66541827  -0.00311148  1
  O2-  O226  1  0.33259257  0.65520352  0.33544114  1
  O2-  O227  1  0.33800045  0.67095373  0.66072192  1
  O2-  O228  1  0.66899893  0.15869925  0.00630108  1
  O2-  O229  1  0.66602281  0.16698797  0.33765868  1
  O2-  O230  1  0.67306700  0.16567103  0.66097787  1
  O2-  O231  1  0.66378669  0.64738089  0.00000970  1
  O2-  O232  1  0.66295855  0.64867976  0.33561446  1
  O2-  O233  1  0.67156705  0.65841188  0.66467195  1
  O2-  O234  1  0.16207073  0.15111255  -0.01373974  1
  O2-  O235  1  0.16574606  0.15924812  0.32577701  1
  O2-  O236  1  0.16229514  0.15429175  0.66505538  1
  O2-  O237  1  0.16598760  0.66211565  -0.00132983  1
  O2-  O238  1  0.16910211  0.66021220  0.33057703  1
  O2-  O239  1  0.16358693  0.66476387  0.65373955  1
  O2-  O240  1  0.49574676  0.16246255  0.01065926  1
  O2-  O241  1  0.51243293  0.18969200  0.33567915  1
  O2-  O242  1  0.49177571  0.16876193  0.66410727  1
  O2-  O243  1  0.49786438  0.65635413  -0.01140863  1
  O2-  O244  1  0.49923502  0.65019580  0.33214801  1
  O2-  O245  1  0.49770397  0.65649464  0.66440408  1
  O2-  O246  1  0.82473339  0.15240148  0.00000577  1
  O2-  O247  1  0.83722983  0.15672776  0.34444149  1
  O2-  O248  1  0.83589720  0.16278755  0.67112198  1
  O2-  O249  1  0.83216338  0.65512340  -0.00422190  1
  O2-  O250  1  0.83565926  0.65111084  0.33880974  1
  O2-  O251  1  0.83855221  0.67346792  0.66893418  1
  O2-  O252  1  0.00144605  0.35074083  0.00136009  1
  O2-  O253  1  -0.00548317  0.35082865  0.34132248  1
  O2-  O254  1  -0.00577630  0.34126253  0.66469539  1
  O2-  O255  1  -0.00441114  0.83664332  -0.00294784  1
  O2-  O256  1  0.00388145  0.82755363  0.33215681  1
  O2-  O257  1  -0.00287462  0.83050326  0.66685868  1
  O2-  O258  1  0.33868120  0.34757542  -0.00424877  1
  O2-  O259  1  0.33340271  0.35168479  0.33008978  1
  O2-  O260  1  0.33319767  0.30406511  0.66660104  1
  O2-  O261  1  0.33265881  0.84022572  -0.00078689  1
  O2-  O262  1  0.33470854  0.83744679  0.33514510  1
  O2-  O263  1  0.33146039  0.84000418  0.66368584  1
  O2-  O264  1  0.67013821  0.34245298  -0.00021309  1
  O2-  O265  1  0.66443803  0.33269066  0.33493738  1
  O2-  O266  1  0.66742268  0.32005768  0.67149527  1
  O2-  O267  1  0.67131287  0.83951898  -0.00565022  1
  O2-  O268  1  0.67016041  0.84327407  0.33161901  1
  O2-  O269  1  0.67284857  0.84321453  0.66559104  1
  O2-  O270  1  0.16852851  0.34895862  0.00271342  1
  O2-  O271  1  0.17085946  0.35142917  0.33357590  1
  O2-  O272  1  0.16185654  0.33752903  0.65680976  1
  O2-  O273  1  0.16306161  0.85106321  -0.00599990  1
  O2-  O274  1  0.16434334  0.83126427  0.33460252  1
  O2-  O275  1  0.16962153  0.83887223  0.66711052  1
  O2-  O276  1  0.50070759  0.34358755  0.00165280  1
  O2-  O277  1  0.50165953  0.34839736  0.33717127  1
  O2-  O278  1  0.49236630  0.33327067  0.66184073  1
  O2-  O279  1  0.50952987  0.84512719  0.00617869  1
  O2-  O280  1  0.50623662  0.84739714  0.34107119  1
  O2-  O281  1  0.49882659  0.84990073  0.66570020  1
  O2-  O282  1  0.82904548  0.35077456  -0.00240808  1
  O2-  O283  1  0.83202877  0.33781604  0.32994114  1
  O2-  O284  1  0.83623387  0.31047802  0.67253808  1
  O2-  O285  1  0.83476471  0.83700909  -0.00332210  1
  O2-  O286  1  0.83722154  0.83808188  0.33573500  1
  O2-  O287  1  0.83364543  0.81398249  0.66478662  1
  O2-  O288  1  -0.00220324  0.17291303  0.16956374  1
  O2-  O289  1  -0.01716321  0.18244220  0.50028154  1
  O2-  O290  1  0.00050441  0.17779306  0.83559000  1
  O2-  O291  1  -0.00023926  0.67410407  0.17031668  1
  O2-  O292  1  -0.00364584  0.68432283  0.50350712  1
  O2-  O293  1  0.00083693  0.68661953  0.83580639  1
  O2-  O294  1  0.32861602  0.18248288  0.16500092  1
  O2-  O295  1  0.33458505  0.18685680  0.51254326  1
  O2-  O296  1  0.33306232  0.18316826  0.83456879  1
  O2-  O297  1  0.33616162  0.67707345  0.17277233  1
  O2-  O298  1  0.33277255  0.68753186  0.49140452  1
  O2-  O299  1  0.33633611  0.68355545  0.83734067  1
  O2-  O300  1  0.67060751  0.18656370  0.16571184  1
  O2-  O301  1  0.66197252  0.17407906  0.49703936  1
  O2-  O302  1  0.66707441  0.18455013  0.82903849  1
  O2-  O303  1  0.67523745  0.67930450  0.18179248  1
  O2-  O304  1  0.66400488  0.68058926  0.49790485  1
  O2-  O305  1  0.66756294  0.68364295  0.83499156  1
  O2-  O306  1  0.16120980  0.18308083  0.17511666  1
  O2-  O307  1  0.16963417  0.18093959  0.49940772  1
  O2-  O308  1  0.17237695  0.17547105  0.82982642  1
  O2-  O309  1  0.15585692  0.67278133  0.17971083  1
  O2-  O310  1  0.17601445  0.68217325  0.49675693  1
  O2-  O311  1  0.16759674  0.67636172  0.83774522  1
  O2-  O312  1  0.49691247  0.18162121  0.16308719  1
  O2-  O313  1  0.49820356  0.17069046  0.50967076  1
  O2-  O314  1  0.49863078  0.18990716  0.82511511  1
  O2-  O315  1  0.50072372  0.67641905  0.17256100  1
  O2-  O316  1  0.50122701  0.68983451  0.49282070  1
  O2-  O317  1  0.50491141  0.67961904  0.82539725  1
  O2-  O318  1  0.83691993  0.17439064  0.15996540  1
  O2-  O319  1  0.82189000  0.18214943  0.51248132  1
  O2-  O320  1  0.83144236  0.19056715  0.83011980  1
  O2-  O321  1  0.83472106  0.67523132  0.16718077  1
  O2-  O322  1  0.82888133  0.68448283  0.50204635  1
  O2-  O323  1  0.83607735  0.69098477  0.83520751  1
  O2-  O324  1  0.00095218  0.32948821  0.16817219  1
  O2-  O325  1  0.00611195  0.32176036  0.50692344  1
  O2-  O326  1  0.00065541  0.32608625  0.83658153  1
  O2-  O327  1  0.00256036  0.82699368  0.17094650  1
  O2-  O328  1  -0.00407645  0.80764419  0.49978563  1
  O2-  O329  1  0.00225406  0.81837062  0.83851628  1
  O2-  O330  1  0.33485773  0.32703427  0.16972416  1
  O2-  O331  1  0.32616611  0.31874979  0.49323670  1
  O2-  O332  1  0.33610327  0.31101341  0.83419413  1
  O2-  O333  1  0.33325215  0.82827888  0.16397733  1
  O2-  O334  1  0.33388701  0.80856627  0.50136671  1
  O2-  O335  1  0.32648255  0.82641159  0.82641581  1
  O2-  O336  1  0.67001923  0.30820214  0.17393880  1
  O2-  O337  1  0.66478062  0.32657099  0.49581635  1
  O2-  O338  1  0.67341011  0.32224765  0.84073427  1
  O2-  O339  1  0.66194074  0.81851188  0.16048959  1
  O2-  O340  1  0.66250243  0.82123851  0.49455276  1
  O2-  O341  1  0.66409432  0.81505201  0.82664553  1
  O2-  O342  1  0.16645224  0.32153993  0.16818392  1
  O2-  O343  1  0.16853931  0.32209914  0.50033651  1
  O2-  O344  1  0.16147963  0.32286910  0.84289581  1
  O2-  O345  1  0.16599526  0.82696102  0.16964124  1
  O2-  O346  1  0.16650464  0.81088012  0.49612577  1
  O2-  O347  1  0.16597041  0.82516184  0.82967834  1
  O2-  O348  1  0.49239372  0.31617976  0.17867265  1
  O2-  O349  1  0.50001483  0.33238162  0.49821842  1
  O2-  O350  1  0.49863867  0.31815622  0.83502187  1
  O2-  O351  1  0.49622605  0.82625935  0.17250999  1
  O2-  O352  1  0.49927294  0.82014119  0.50074664  1
  O2-  O353  1  0.50432373  0.82535680  0.83207336  1
  O2-  O354  1  0.83693045  0.32229986  0.16502285  1
  O2-  O355  1  0.83705041  0.31909011  0.49329636  1
  O2-  O356  1  0.83413406  0.32150995  0.83507232  1
  O2-  O357  1  0.83441539  0.82890597  0.16109541  1
  O2-  O358  1  0.83315269  0.82027682  0.50592191  1
  O2-  O359  1  0.83296244  0.80942206  0.83555645  1
  O2-  O360  1  0.07073118  0.08104308  0.10596628  1
  O2-  O361  1  0.07440348  0.06977115  0.46508590  1
  O2-  O362  1  0.07952263  0.08405565  0.77367815  1
  O2-  O363  1  0.07762424  0.58310410  0.11695480  1
  O2-  O364  1  0.09949145  0.57664243  0.43492253  1
  O2-  O365  1  0.06974666  0.58216937  0.78792447  1
  O2-  O366  1  0.42393599  0.07669753  0.11318840  1
  O2-  O367  1  0.42423620  0.08066748  0.45045126  1
  O2-  O368  1  0.39314471  0.08199680  0.73584189  1
  O2-  O369  1  0.43624080  0.55423621  0.12594305  1
  O2-  O370  1  0.43208851  0.58051248  0.45287535  1
  O2-  O371  1  0.42087737  0.58279999  0.78564146  1
  O2-  O372  1  0.74701297  0.08205710  0.10368873  1
  O2-  O373  1  0.75613450  0.08090631  0.45380610  1
  O2-  O374  1  0.75847830  0.08025827  0.78195605  1
  O2-  O375  1  0.75412937  0.57836261  0.12640821  1
  O2-  O376  1  0.73418167  0.58307225  0.43825194  1
  O2-  O377  1  0.76234670  0.58148806  0.78403474  1
  O2-  O378  1  0.23878386  0.08551947  0.21327808  1
  O2-  O379  1  0.27599030  0.08330722  0.55946095  1
  O2-  O380  1  0.25259670  0.07830013  0.87653168  1
  O2-  O381  1  0.26156541  0.58635964  0.22593727  1
  O2-  O382  1  0.26084967  0.58566192  0.55136768  1
  O2-  O383  1  0.24896554  0.58167201  0.89645055  1
  O2-  O384  1  0.58435248  0.08538316  0.22705341  1
  O2-  O385  1  0.57592574  0.08590994  0.56888819  1
  O2-  O386  1  0.59740741  0.06763675  0.92083081  1
  O2-  O387  1  0.58408750  0.58534652  0.21139053  1
  O2-  O388  1  0.57827290  0.58775434  0.55241421  1
  O2-  O389  1  0.59317083  0.58069948  0.87770984  1
  O2-  O390  1  0.93019624  0.05826633  0.21201046  1
  O2-  O391  1  0.91331087  0.08077018  0.54942175  1
  O2-  O392  1  0.91231038  0.08370426  0.88775914  1
  O2-  O393  1  0.91413812  0.58125039  0.22260981  1
  O2-  O394  1  0.91306831  0.58245479  0.55330037  1
  O2-  O395  1  0.91309398  0.58162991  0.88063546  1
  O2-  O396  1  0.08923063  0.41765412  0.11357354  1
  O2-  O397  1  0.10782181  0.42169197  0.44978102  1
  O2-  O398  1  0.08014195  0.41485705  0.77051947  1
  O2-  O399  1  0.09104057  0.92172700  0.11436771  1
  O2-  O400  1  0.09997123  0.91549930  0.42751787  1
  O2-  O401  1  0.08348314  0.91533782  0.77201800  1
  O2-  O402  1  0.41075080  0.41536846  0.11184808  1
  O2-  O403  1  0.39262077  0.41997369  0.44932739  1
  O2-  O404  1  0.41173028  0.41664198  0.78578991  1
  O2-  O405  1  0.41827601  0.92598778  0.11478015  1
  O2-  O406  1  0.41379754  0.91824302  0.45198119  1
  O2-  O407  1  0.42320968  0.91894387  0.77056823  1
  O2-  O408  1  0.75183064  0.41531193  0.11869086  1
  O2-  O409  1  0.74937457  0.41474181  0.41856812  1
  O2-  O410  1  0.76538613  0.42035289  0.78687352  1
  O2-  O411  1  0.74536810  0.91835477  0.08753822  1
  O2-  O412  1  0.73904979  0.91737159  0.45402289  1
  O2-  O413  1  0.74776465  0.92027932  0.78270298  1
  O2-  O414  1  0.24841489  0.41641082  0.21909873  1
  O2-  O415  1  0.24857594  0.41681422  0.56186730  1
  O2-  O416  1  0.23117072  0.42004227  0.88829552  1
  O2-  O417  1  0.25281880  0.91843779  0.22880196  1
  O2-  O418  1  0.26911855  0.91770939  0.54724814  1
  O2-  O419  1  0.24192003  0.92331012  0.87733165  1
  O2-  O420  1  0.57694842  0.41431865  0.22943870  1
  O2-  O421  1  0.58183945  0.41922144  0.56452302  1
  O2-  O422  1  0.59529265  0.41908919  0.89296798  1
  O2-  O423  1  0.58226618  0.92028606  0.22654387  1
  O2-  O424  1  0.58180115  0.91796189  0.54787009  1
  O2-  O425  1  0.60011373  0.91530581  0.89887624  1
  O2-  O426  1  0.91585236  0.41903317  0.23044634  1
  O2-  O427  1  0.93417540  0.42064409  0.55105520  1
  O2-  O428  1  0.92762033  0.41948653  0.88789939  1
  O2-  O429  1  0.92690755  0.92825207  0.21823096  1
  O2-  O430  1  0.90839053  0.91594742  0.58663261  1
  O2-  O431  1  0.91734065  0.91792712  0.88417637  1
  O2-  O432  1  -0.01509174  0.00038060  0.01983419  1
  O2-  O433  1  0.00610563  0.00354993  0.33336512  1
  O2-  O434  1  -0.00387691  0.01119258  0.68104840  1
  O2-  O435  1  -0.00307501  0.51097115  0.00531739  1
  O2-  O436  1  0.01079178  0.51037552  0.31115271  1
  O2-  O437  1  0.00285039  0.49981310  0.66337117  1
  O2-  O438  1  0.31834644  -0.01126003  0.02919360  1
  O2-  O439  1  0.33312914  -0.00363125  0.32509985  1
  O2-  O440  1  0.33349886  -0.02009498  0.67333928  1
  O2-  O441  1  0.33786173  0.48967379  -0.02113390  1
  O2-  O442  1  0.33735605  0.49841191  0.32257229  1
  O2-  O443  1  0.33158688  0.50316837  0.66932704  1
  O2-  O444  1  0.67365185  0.00207577  -0.01093901  1
  O2-  O445  1  0.64611527  -0.00501296  0.35885268  1
  O2-  O446  1  0.68253555  -0.00463496  0.65745116  1
  O2-  O447  1  0.68037270  0.50151386  -0.02733333  1
  O2-  O448  1  0.66384011  0.51566423  0.32345051  1
  O2-  O449  1  0.66387403  0.53083590  0.66010133  1
  O2-  O450  1  0.15056864  -0.00015768  -0.01963825  1
  O2-  O451  1  0.17421149  0.01014292  0.34099517  1
  O2-  O452  1  0.17598667  0.00043899  0.68928897  1
  O2-  O453  1  0.15306251  0.49663015  -0.01811533  1
  O2-  O454  1  0.16622077  0.50712903  0.31784401  1
  O2-  O455  1  0.16439819  0.50633665  0.65945021  1
  O2-  O456  1  0.51566247  0.00129591  0.02705840  1
  O2-  O457  1  0.49227921  -0.00213738  0.31734506  1
  O2-  O458  1  0.49450294  -0.00582967  0.65614038  1
  O2-  O459  1  0.49420904  0.50868763  -0.02436286  1
  O2-  O460  1  0.50208835  0.51106262  0.32607933  1
  O2-  O461  1  0.48970259  0.51005764  0.66031594  1
  O2-  O462  1  0.82112812  -0.00214533  -0.00601548  1
  O2-  O463  1  0.84815589  0.01915965  0.35011557  1
  O2-  O464  1  0.84161504  0.00423392  0.68170240  1
  O2-  O465  1  0.83365271  0.50048101  -0.00176584  1
  O2-  O466  1  0.82663641  0.50309539  0.31678886  1
  O2-  O467  1  0.83960949  0.50651950  0.67323639  1
  O2-  O468  1  0.40950937  0.25026778  0.06215289  1
  O2-  O469  1  0.90872004  0.75138307  0.25905769  1
  O2-  O470  1  0.41953598  0.75813483  0.07089059  1
  O2-  O471  1  0.25154503  0.75051852  0.26504106  1
  O2-  O472  1  0.92251180  0.24960206  0.94332442  1
  O2-  O473  1  0.08319161  0.75208426  0.07096591  1
  O2-  O474  1  0.92219346  0.25207123  0.26146799  1
  O2-  O475  1  0.75970377  0.24670332  0.05963173  1
  O2-  O476  1  0.58021232  0.74841558  0.93972401  1
  O2-  O477  1  0.24517847  0.75315811  0.93166483  1
  O2-  O478  1  0.58438492  0.25318247  0.93965919  1
  O2-  O479  1  0.75124262  0.75035709  0.06528869  1
  O2-  O480  1  0.08470350  0.24722168  0.73142828  1
  O2-  O481  1  0.24048488  0.24730452  0.94106700  1
  O2-  O482  1  0.58320040  0.75067351  0.27587515  1
  O2-  O483  1  0.42125386  0.75329193  0.73280764  1
  O2-  O484  1  0.08324023  0.25469943  0.39390607  1
  O2-  O485  1  0.08821520  0.75166682  0.72885885  1
  O2-  O486  1  0.58228970  0.25201581  0.58194785  1
  O2-  O487  1  0.41924641  0.25567759  0.40242962  1
  O2-  O488  1  0.75223750  0.24695425  0.40245885  1
  O2-  O489  1  0.25391485  0.25194950  0.27116948  1
  O2-  O490  1  0.58243988  0.75019484  0.61154540  1
  O2-  O491  1  0.74843325  0.74950987  0.39333355  1
  O2-  O492  1  0.08129771  0.25300957  0.06708305  1
