# generated using pymatgen
data_Ca108Mn108O277
_symmetry_space_group_name_H-M   'P 1'
_cell_length_a   16.02950146
_cell_length_b   22.30903151
_cell_length_c   16.39097768
_cell_angle_alpha   89.99612188
_cell_angle_beta   89.99879593
_cell_angle_gamma   89.99894525
_symmetry_Int_Tables_number   1
_chemical_formula_structural   Ca108Mn108O277
_chemical_formula_sum   'Ca108 Mn108 O277'
_cell_volume   5861.45708971
_cell_formula_units_Z   1
loop_
 _symmetry_equiv_pos_site_id
 _symmetry_equiv_pos_as_xyz
  1  'x, y, z'
loop_
 _atom_type_symbol
 _atom_type_oxidation_number
  Ca2+  2.0
  Mn3.34+  3.34
  O2-  -2.0
loop_
 _atom_site_type_symbol
 _atom_site_label
 _atom_site_symmetry_multiplicity
 _atom_site_fract_x
 _atom_site_fract_y
 _atom_site_fract_z
 _atom_site_occupancy
  Ca2+  Ca0  1  0.09770420  0.21965156  0.27537829  1
  Ca2+  Ca1  1  0.07141645  0.25080973  0.56279998  1
  Ca2+  Ca2  1  0.09194162  0.26328945  0.91287164  1
  Ca2+  Ca3  1  0.08144497  0.76077741  0.24140282  1
  Ca2+  Ca4  1  0.08347144  0.75416908  0.59326493  1
  Ca2+  Ca5  1  0.09160163  0.74209321  0.91683719  1
  Ca2+  Ca6  1  0.39756735  0.24079297  0.25365747  1
  Ca2+  Ca7  1  0.43180862  0.25242214  0.59218673  1
  Ca2+  Ca8  1  0.42597373  0.25427439  0.90277380  1
  Ca2+  Ca9  1  0.41939942  0.76576788  0.24193142  1
  Ca2+  Ca10  1  0.41607703  0.75331665  0.59914151  1
  Ca2+  Ca11  1  0.41480552  0.74878172  0.90762654  1
  Ca2+  Ca12  1  0.75284134  0.24801470  0.26132383  1
  Ca2+  Ca13  1  0.74569946  0.25022414  0.59504565  1
  Ca2+  Ca14  1  0.73434131  0.25741508  0.88740872  1
  Ca2+  Ca15  1  0.74979105  0.75010847  0.24521913  1
  Ca2+  Ca16  1  0.74890132  0.75781050  0.58038409  1
  Ca2+  Ca17  1  0.73943218  0.73508948  0.93181630  1
  Ca2+  Ca18  1  0.24931496  0.25348757  0.09960526  1
  Ca2+  Ca19  1  0.22737456  0.24280917  0.41073404  1
  Ca2+  Ca20  1  0.25788425  0.25479306  0.76368324  1
  Ca2+  Ca21  1  0.23730612  0.74751831  0.07004697  1
  Ca2+  Ca22  1  0.23314894  0.75980235  0.41249382  1
  Ca2+  Ca23  1  0.24122733  0.75082318  0.75126590  1
  Ca2+  Ca24  1  0.57284841  0.24730243  0.06201775  1
  Ca2+  Ca25  1  0.58532671  0.24804650  0.42262349  1
  Ca2+  Ca26  1  0.59517218  0.23552064  0.74708095  1
  Ca2+  Ca27  1  0.60245458  0.73268820  0.07915221  1
  Ca2+  Ca28  1  0.61005808  0.75531907  0.41365309  1
  Ca2+  Ca29  1  0.58857773  0.75081045  0.76146937  1
  Ca2+  Ca30  1  0.93055942  0.26195600  0.09599476  1
  Ca2+  Ca31  1  0.93720784  0.24301944  0.41577358  1
  Ca2+  Ca32  1  0.88767768  0.25114736  0.73599010  1
  Ca2+  Ca33  1  0.92456348  0.74783977  0.08901057  1
  Ca2+  Ca34  1  0.90102526  0.74324112  0.42192176  1
  Ca2+  Ca35  1  0.93414175  0.74785491  0.74473123  1
  Ca2+  Ca36  1  0.72926803  0.10275387  0.61428036  1
  Ca2+  Ca37  1  0.39184037  0.62216103  0.90120325  1
  Ca2+  Ca38  1  0.77048197  0.59431896  0.58386804  1
  Ca2+  Ca39  1  0.58579744  0.59582581  0.75989968  1
  Ca2+  Ca40  1  0.71260646  0.10850105  0.88268243  1
  Ca2+  Ca41  1  0.71854750  0.10447556  0.87634037  1
  Ca2+  Ca42  1  0.58552418  0.08107070  0.09217656  1
  Ca2+  Ca43  1  0.23033342  0.58786441  0.41843233  1
  Ca2+  Ca44  1  0.91600102  0.59521814  0.08301620  1
  Ca2+  Ca45  1  0.42297117  0.10103780  0.90800193  1
  Ca2+  Ca46  1  0.21193397  0.61308867  0.77361264  1
  Ca2+  Ca47  1  0.94985164  0.58003455  0.75343297  1
  Ca2+  Ca48  1  0.09145502  0.07427829  0.92498835  1
  Ca2+  Ca49  1  0.39977895  0.59639194  0.61692526  1
  Ca2+  Ca50  1  0.58733385  0.08653150  0.40598008  1
  Ca2+  Ca51  1  0.08698034  0.59276668  0.60909882  1
  Ca2+  Ca52  1  0.43523147  0.09687874  0.59498428  1
  Ca2+  Ca53  1  0.25128053  0.08351984  0.74094834  1
  Ca2+  Ca54  1  0.57420504  0.59603671  0.75963170  1
  Ca2+  Ca55  1  0.93770602  0.57786882  0.75098216  1
  Ca2+  Ca56  1  0.41983117  0.60813369  0.23670699  1
  Ca2+  Ca57  1  0.61912638  0.59293099  0.41249270  1
  Ca2+  Ca58  1  0.22940764  0.08392049  0.37516776  1
  Ca2+  Ca59  1  0.09010403  0.58986561  0.60027435  1
  Ca2+  Ca60  1  0.23533182  0.07780742  0.37417590  1
  Ca2+  Ca61  1  0.26408862  0.08441083  0.74232867  1
  Ca2+  Ca62  1  0.08495264  0.09998223  0.56425778  1
  Ca2+  Ca63  1  0.43302001  0.10027243  0.90456452  1
  Ca2+  Ca64  1  0.88269433  0.08152926  0.73269665  1
  Ca2+  Ca65  1  0.42198301  0.06593657  0.27399639  1
  Ca2+  Ca66  1  0.74997058  0.60635293  0.24340490  1
  Ca2+  Ca67  1  0.91656090  0.07941081  0.09020873  1
  Ca2+  Ca68  1  0.74521443  0.08759125  0.26209116  1
  Ca2+  Ca69  1  0.94962534  0.09752092  0.41655675  1
  Ca2+  Ca70  1  0.60690071  0.59151190  0.40947359  1
  Ca2+  Ca71  1  0.24467067  0.08480522  0.12724244  1
  Ca2+  Ca72  1  0.76837882  0.90322392  0.90638553  1
  Ca2+  Ca73  1  0.91492867  0.40050113  0.42205488  1
  Ca2+  Ca74  1  0.56366173  0.92337251  0.39147285  1
  Ca2+  Ca75  1  0.08127877  0.41218485  0.25830580  1
  Ca2+  Ca76  1  0.41078971  0.40317302  0.25585462  1
  Ca2+  Ca77  1  0.92800377  0.90140957  0.42024808  1
  Ca2+  Ca78  1  0.75010789  0.40382267  0.25459286  1
  Ca2+  Ca79  1  0.91995860  0.41841430  0.06536079  1
  Ca2+  Ca80  1  0.59342986  0.40316393  0.06491226  1
  Ca2+  Ca81  1  0.40797599  0.90215817  0.58777468  1
  Ca2+  Ca82  1  0.58554345  0.90202512  0.09661806  1
  Ca2+  Ca83  1  0.90896529  0.41877028  0.06268507  1
  Ca2+  Ca84  1  0.07578210  0.41607006  0.59322339  1
  Ca2+  Ca85  1  0.09201277  0.89534000  0.91808753  1
  Ca2+  Ca86  1  0.05900177  0.42336064  0.90110051  1
  Ca2+  Ca87  1  0.39888631  0.40341517  0.25455321  1
  Ca2+  Ca88  1  0.09228283  0.41184251  0.25883184  1
  Ca2+  Ca89  1  0.57274225  0.90150122  0.09711786  1
  Ca2+  Ca90  1  0.92832780  0.90027430  0.08418142  1
  Ca2+  Ca91  1  0.76290038  0.40423605  0.25379992  1
  Ca2+  Ca92  1  0.07115311  0.42394459  0.90437522  1
  Ca2+  Ca93  1  0.24792828  0.41178664  0.73782892  1
  Ca2+  Ca94  1  0.24195433  0.40428257  0.42523315  1
  Ca2+  Ca95  1  0.55321954  0.92250946  0.39142796  1
  Ca2+  Ca96  1  0.76340098  0.91161961  0.60545773  1
  Ca2+  Ca97  1  0.40190500  0.92698605  0.26577073  1
  Ca2+  Ca98  1  0.75397292  0.90672044  0.24918604  1
  Ca2+  Ca99  1  0.25591351  0.91616738  0.39769812  1
  Ca2+  Ca100  1  0.92137291  0.90475021  0.74325817  1
  Ca2+  Ca101  1  0.42168396  0.40404983  0.91295917  1
  Ca2+  Ca102  1  0.58407844  0.89914258  0.74602468  1
  Ca2+  Ca103  1  0.75580405  0.90433928  0.90645226  1
  Ca2+  Ca104  1  0.23539546  0.41228339  0.73757617  1
  Ca2+  Ca105  1  0.59465247  0.39913020  0.42849584  1
  Ca2+  Ca106  1  0.60425492  0.40613962  0.06950353  1
  Ca2+  Ca107  1  0.24042658  0.41175061  0.07716846  1
  Mn3.34+  Mn108  1  0.08747782  0.33827344  0.08156945  1
  Mn3.34+  Mn109  1  0.08189600  0.33575462  0.42314732  1
  Mn3.34+  Mn110  1  0.07547092  0.33631204  0.74581329  1
  Mn3.34+  Mn111  1  0.08927340  0.82948824  0.08205100  1
  Mn3.34+  Mn112  1  0.08377579  0.83208759  0.41783347  1
  Mn3.34+  Mn113  1  0.08813218  0.82863475  0.75096949  1
  Mn3.34+  Mn114  1  0.41343353  0.33411603  0.08239456  1
  Mn3.34+  Mn115  1  0.41740442  0.33061503  0.42868379  1
  Mn3.34+  Mn116  1  0.42278786  0.33289229  0.74435958  1
  Mn3.34+  Mn117  1  0.40288284  0.84067157  0.07931483  1
  Mn3.34+  Mn118  1  0.41236161  0.83275384  0.42386073  1
  Mn3.34+  Mn119  1  0.40991923  0.83361489  0.75374364  1
  Mn3.34+  Mn120  1  0.75238596  0.32617172  0.08198363  1
  Mn3.34+  Mn121  1  0.75137320  0.32830487  0.42795015  1
  Mn3.34+  Mn122  1  0.74584477  0.34183073  0.74398730  1
  Mn3.34+  Mn123  1  0.75323032  0.83170385  0.08605381  1
  Mn3.34+  Mn124  1  0.75458024  0.83435285  0.41870738  1
  Mn3.34+  Mn125  1  0.75328503  0.82727568  0.74894630  1
  Mn3.34+  Mn126  1  0.24765142  0.33069632  0.25185719  1
  Mn3.34+  Mn127  1  0.25188775  0.33037452  0.57925455  1
  Mn3.34+  Mn128  1  0.25014809  0.33676660  0.91573414  1
  Mn3.34+  Mn129  1  0.24597740  0.83957588  0.24412513  1
  Mn3.34+  Mn130  1  0.24424508  0.83855118  0.58289378  1
  Mn3.34+  Mn131  1  0.25655233  0.83489227  0.91393786  1
  Mn3.34+  Mn132  1  0.58143738  0.32585795  0.25264841  1
  Mn3.34+  Mn133  1  0.58522775  0.34760487  0.58833899  1
  Mn3.34+  Mn134  1  0.58581783  0.33145056  0.90353276  1
  Mn3.34+  Mn135  1  0.58270214  0.83265262  0.25000339  1
  Mn3.34+  Mn136  1  0.58289579  0.83236227  0.58048570  1
  Mn3.34+  Mn137  1  0.57623494  0.82951330  0.91518608  1
  Mn3.34+  Mn138  1  0.91940553  0.33159157  0.24973459  1
  Mn3.34+  Mn139  1  0.91174414  0.33391062  0.58565083  1
  Mn3.34+  Mn140  1  0.90925877  0.33653898  0.90918887  1
  Mn3.34+  Mn141  1  0.92232417  0.83956525  0.25052465  1
  Mn3.34+  Mn142  1  0.92374750  0.83559634  0.57936480  1
  Mn3.34+  Mn143  1  0.92021938  0.82753153  0.91398427  1
  Mn3.34+  Mn144  1  0.40963895  0.16231360  0.08971015  1
  Mn3.34+  Mn145  1  0.92120282  0.66268590  0.91684108  1
  Mn3.34+  Mn146  1  0.08025717  0.15832337  0.08798243  1
  Mn3.34+  Mn147  1  0.42213156  0.17007339  0.74690975  1
  Mn3.34+  Mn148  1  0.92479548  0.16271734  0.91619783  1
  Mn3.34+  Mn149  1  0.07475979  0.16019294  0.74941511  1
  Mn3.34+  Mn150  1  0.92746420  0.66411913  0.25442475  1
  Mn3.34+  Mn151  1  0.40777632  0.67444281  0.41709993  1
  Mn3.34+  Mn152  1  0.91712262  0.66773594  0.25729747  1
  Mn3.34+  Mn153  1  0.91596062  0.66437379  0.58064026  1
  Mn3.34+  Mn154  1  0.41677441  0.68027570  0.41487011  1
  Mn3.34+  Mn155  1  0.91630641  0.16669842  0.25236243  1
  Mn3.34+  Mn156  1  0.24567142  0.66926346  0.24269310  1
  Mn3.34+  Mn157  1  0.75465264  0.17286987  0.08452070  1
  Mn3.34+  Mn158  1  0.91276084  0.16681319  0.57779858  1
  Mn3.34+  Mn159  1  0.07988921  0.66910715  0.42300528  1
  Mn3.34+  Mn160  1  0.42481541  0.16360451  0.42468868  1
  Mn3.34+  Mn161  1  0.75573832  0.66335830  0.75696908  1
  Mn3.34+  Mn162  1  0.58442595  0.67385958  0.24297569  1
  Mn3.34+  Mn163  1  0.91204774  0.16997662  0.91875222  1
  Mn3.34+  Mn164  1  0.58056218  0.66132130  0.58064719  1
  Mn3.34+  Mn165  1  0.25236848  0.16293530  0.57690159  1
  Mn3.34+  Mn166  1  0.23591718  0.66378263  0.24110085  1
  Mn3.34+  Mn167  1  0.75191607  0.17013301  0.42357720  1
  Mn3.34+  Mn168  1  0.74535747  0.16737319  0.08745248  1
  Mn3.34+  Mn169  1  0.59166494  0.66531783  0.58164601  1
  Mn3.34+  Mn170  1  0.08519472  0.16538020  0.74632751  1
  Mn3.34+  Mn171  1  0.41902809  0.15661028  0.09219497  1
  Mn3.34+  Mn172  1  0.41622853  0.67630348  0.07996272  1
  Mn3.34+  Mn173  1  0.08946190  0.16422956  0.08561138  1
  Mn3.34+  Mn174  1  0.58579510  0.16552779  0.25066588  1
  Mn3.34+  Mn175  1  0.24791271  0.16554701  0.91804135  1
  Mn3.34+  Mn176  1  0.58402488  0.66452102  0.92135489  1
  Mn3.34+  Mn177  1  0.41423073  0.16769117  0.42182974  1
  Mn3.34+  Mn178  1  0.91150109  0.65766098  0.91765376  1
  Mn3.34+  Mn179  1  0.25177343  0.67278875  0.58107063  1
  Mn3.34+  Mn180  1  0.57937399  0.50173106  0.24001607  1
  Mn3.34+  Mn181  1  0.07627715  -0.01118451  0.40679066  1
  Mn3.34+  Mn182  1  0.75785034  0.00299938  0.42552269  1
  Mn3.34+  Mn183  1  0.07188708  0.50311686  0.41426398  1
  Mn3.34+  Mn184  1  0.57834975  0.00017522  0.58135273  1
  Mn3.34+  Mn185  1  0.92319008  0.00210691  0.25823866  1
  Mn3.34+  Mn186  1  0.91655167  0.50228504  0.25019359  1
  Mn3.34+  Mn187  1  0.74736616  0.50213518  0.73981920  1
  Mn3.34+  Mn188  1  0.59233892  0.49861413  0.91923951  1
  Mn3.34+  Mn189  1  0.76437771  0.49764687  0.41666178  1
  Mn3.34+  Mn190  1  0.40741848  0.50270951  0.43035154  1
  Mn3.34+  Mn191  1  0.42219594  0.49742125  0.43241844  1
  Mn3.34+  Mn192  1  0.24924634  0.00005048  0.57842570  1
  Mn3.34+  Mn193  1  0.08844564  -0.00578805  0.08518057  1
  Mn3.34+  Mn194  1  0.56916189  -0.00781542  0.91659908  1
  Mn3.34+  Mn195  1  0.41722666  0.51166467  0.07205299  1
  Mn3.34+  Mn196  1  0.43342692  0.49493990  0.74444820  1
  Mn3.34+  Mn197  1  0.24359625  0.50485746  0.92044372  1
  Mn3.34+  Mn198  1  0.25223901  0.50060458  0.58098358  1
  Mn3.34+  Mn199  1  0.59423826  0.00160606  0.58638573  1
  Mn3.34+  Mn200  1  0.58941707  0.50851608  0.24030180  1
  Mn3.34+  Mn201  1  0.42272503  0.49977382  0.74783387  1
  Mn3.34+  Mn202  1  0.92291508  -0.00104846  0.91785033  1
  Mn3.34+  Mn203  1  0.91171023  0.49777306  0.58455318  1
  Mn3.34+  Mn204  1  0.24593836  0.50352829  0.24994849  1
  Mn3.34+  Mn205  1  0.39546573  -0.00699825  0.07512048  1
  Mn3.34+  Mn206  1  0.40382486  0.50613784  0.07683418  1
  Mn3.34+  Mn207  1  0.57978819  -0.00255985  0.91467284  1
  Mn3.34+  Mn208  1  0.91694516  0.00208040  0.58849621  1
  Mn3.34+  Mn209  1  0.75699697  -0.00000469  0.08148745  1
  Mn3.34+  Mn210  1  0.41678646  -0.00338664  0.74704175  1
  Mn3.34+  Mn211  1  0.08655991  -0.00768158  0.73656357  1
  Mn3.34+  Mn212  1  0.76799245  -0.00244657  0.42226045  1
  Mn3.34+  Mn213  1  0.08967307  0.51210261  0.07098963  1
  Mn3.34+  Mn214  1  0.25734999  -0.00496741  0.92742205  1
  Mn3.34+  Mn215  1  0.75041317  0.50737259  0.06805940  1
  O2-  O216  1  -0.00083297  0.14311288  0.00598301  1
  O2-  O217  1  -0.00470974  0.15898503  0.32660910  1
  O2-  O218  1  -0.00577246  0.14587117  0.66721923  1
  O2-  O219  1  -0.00194052  0.66836270  -0.00215872  1
  O2-  O220  1  -0.00240060  0.65401652  0.34131435  1
  O2-  O221  1  -0.00149286  0.66033632  0.66063512  1
  O2-  O222  1  0.33536736  0.14806843  -0.00143282  1
  O2-  O223  1  0.34039478  0.15397005  0.34049463  1
  O2-  O224  1  0.32996973  0.15449958  0.66818718  1
  O2-  O225  1  0.33713574  0.68566582  0.00338951  1
  O2-  O226  1  0.32873541  0.65960656  0.32947214  1
  O2-  O227  1  0.33464600  0.68014377  0.65734772  1
  O2-  O228  1  0.66573079  0.15276215  0.00479859  1
  O2-  O229  1  0.66849580  0.16530517  0.33485661  1
  O2-  O230  1  0.66353701  0.18034204  0.65661584  1
  O2-  O231  1  0.66278188  0.65980322  -0.00474567  1
  O2-  O232  1  0.66165878  0.65587802  0.32659007  1
  O2-  O233  1  0.67366314  0.64283524  0.66627097  1
  O2-  O234  1  0.16359353  0.14652857  -0.00314884  1
  O2-  O235  1  0.17449972  0.16229868  0.34732322  1
  O2-  O236  1  0.16980872  0.14811034  0.66454164  1
  O2-  O237  1  0.17986694  0.67567528  -0.01541904  1
  O2-  O238  1  0.16668309  0.65013932  0.33570673  1
  O2-  O239  1  0.17018067  0.66458906  0.65786801  1
  O2-  O240  1  0.49955798  0.14476002  0.01111450  1
  O2-  O241  1  0.49972290  0.14498976  0.33399296  1
  O2-  O242  1  0.49610834  0.17202919  0.66667011  1
  O2-  O243  1  0.49448873  0.67194086  -0.00563595  1
  O2-  O244  1  0.49936534  0.65597772  0.33674318  1
  O2-  O245  1  0.50441283  0.65822072  0.66700044  1
  O2-  O246  1  0.83700703  0.14552368  0.00624139  1
  O2-  O247  1  0.82784787  0.16619532  0.32900172  1
  O2-  O248  1  0.83203891  0.16101996  0.65817809  1
  O2-  O249  1  0.84159729  0.66893283  0.00338664  1
  O2-  O250  1  0.83575702  0.65873486  0.33066128  1
  O2-  O251  1  0.84674803  0.65260731  0.68288504  1
  O2-  O252  1  0.00293533  0.35128440  0.00288363  1
  O2-  O253  1  0.00139425  0.35318680  0.33356062  1
  O2-  O254  1  0.00178015  0.34472658  0.66018402  1
  O2-  O255  1  -0.00187475  0.83181772  -0.00236578  1
  O2-  O256  1  0.00136359  0.84214491  0.33528673  1
  O2-  O257  1  -0.00204668  0.83008284  0.66898024  1
  O2-  O258  1  0.32965045  0.35317855  0.00150510  1
  O2-  O259  1  0.33158384  0.34654205  0.33744908  1
  O2-  O260  1  0.32519223  0.33632575  0.67105782  1
  O2-  O261  1  0.33573484  0.81016448  -0.00415439  1
  O2-  O262  1  0.33593247  0.82883867  0.33741549  1
  O2-  O263  1  0.33436145  0.82402717  0.66267781  1
  O2-  O264  1  0.66715959  0.33180967  0.00167759  1
  O2-  O265  1  0.67194401  0.33092490  0.33261201  1
  O2-  O266  1  0.66446434  0.32993700  0.66010052  1
  O2-  O267  1  0.66743337  0.85518455  -0.00224079  1
  O2-  O268  1  0.66135887  0.85569342  0.34037634  1
  O2-  O269  1  0.66970472  0.84680469  0.66529014  1
  O2-  O270  1  0.15861454  0.35573339  -0.01173322  1
  O2-  O271  1  0.16543642  0.35013645  0.33480356  1
  O2-  O272  1  0.16754262  0.34208509  0.66660486  1
  O2-  O273  1  0.16913541  0.82810577  -0.00576816  1
  O2-  O274  1  0.17165921  0.84379657  0.34105272  1
  O2-  O275  1  0.16906367  0.82570083  0.66593047  1
  O2-  O276  1  0.50066293  0.34620765  0.00568480  1
  O2-  O277  1  0.49886522  0.35769695  0.33634717  1
  O2-  O278  1  0.50500697  0.32344736  0.66421852  1
  O2-  O279  1  0.50229447  0.84242514  0.00716667  1
  O2-  O280  1  0.49423765  0.84125288  0.33146132  1
  O2-  O281  1  0.49794768  0.82981471  0.66497962  1
  O2-  O282  1  0.84216425  0.33751558  0.00984863  1
  O2-  O283  1  0.83086095  0.33723907  0.33219663  1
  O2-  O284  1  0.83074791  0.33557113  0.66255544  1
  O2-  O285  1  0.83438574  0.84636253  -0.00072850  1
  O2-  O286  1  0.83474317  0.85164585  0.33442127  1
  O2-  O287  1  0.83865622  0.83206226  0.66660942  1
  O2-  O288  1  -0.00752500  0.17584669  0.16012487  1
  O2-  O289  1  0.00034926  0.17169071  0.50389407  1
  O2-  O290  1  0.01417237  0.18214765  0.84655306  1
  O2-  O291  1  -0.00193334  0.68012952  0.17351982  1
  O2-  O292  1  0.00188363  0.68637983  0.50729417  1
  O2-  O293  1  -0.00809971  0.67658740  0.83197266  1
  O2-  O294  1  0.32889803  0.17648565  0.16466017  1
  O2-  O295  1  0.34104844  0.18972496  0.50906702  1
  O2-  O296  1  0.33206013  0.16951319  0.83640163  1
  O2-  O297  1  0.33688473  0.68893037  0.17166246  1
  O2-  O298  1  0.32709720  0.69432566  0.49475283  1
  O2-  O299  1  0.32263003  0.68815959  0.82530715  1
  O2-  O300  1  0.66570657  0.19589174  0.16398018  1
  O2-  O301  1  0.67538037  0.19229071  0.49487769  1
  O2-  O302  1  0.66564278  0.18309611  0.83472688  1
  O2-  O303  1  0.66889144  0.67896902  0.17568032  1
  O2-  O304  1  0.66097711  0.67465276  0.49151064  1
  O2-  O305  1  0.66140573  0.67170048  0.82580539  1
  O2-  O306  1  0.17280572  0.17636620  0.16109907  1
  O2-  O307  1  0.16930422  0.18592329  0.51408869  1
  O2-  O308  1  0.17285583  0.17692365  0.82459236  1
  O2-  O309  1  0.16471059  0.67751895  0.15992392  1
  O2-  O310  1  0.16713964  0.68317865  0.49874626  1
  O2-  O311  1  0.18510088  0.68966570  0.84966151  1
  O2-  O312  1  0.50336840  0.17971317  0.16685564  1
  O2-  O313  1  0.50326515  0.18277127  0.49867104  1
  O2-  O314  1  0.48827086  0.17571306  0.83520550  1
  O2-  O315  1  0.49574952  0.69136199  0.16967030  1
  O2-  O316  1  0.49815394  0.69029390  0.49891480  1
  O2-  O317  1  0.50791041  0.67669249  0.83143332  1
  O2-  O318  1  0.83349049  0.19285279  0.16497346  1
  O2-  O319  1  0.83984643  0.18772916  0.49357805  1
  O2-  O320  1  0.83143331  0.17587982  0.83730058  1
  O2-  O321  1  0.84049298  0.67883156  0.17464502  1
  O2-  O322  1  0.82839948  0.68791228  0.52265277  1
  O2-  O323  1  0.83275715  0.68759598  0.84300980  1
  O2-  O324  1  0.00023743  0.34096286  0.16278197  1
  O2-  O325  1  -0.00431027  0.32556397  0.49656153  1
  O2-  O326  1  0.00740947  0.33307197  0.84204180  1
  O2-  O327  1  -0.00401403  0.82361394  0.16130707  1
  O2-  O328  1  -0.00381894  0.81266107  0.49561872  1
  O2-  O329  1  -0.00042250  0.81568737  0.83393364  1
  O2-  O330  1  0.33925727  0.32247340  0.17370438  1
  O2-  O331  1  0.33025339  0.30855144  0.49922056  1
  O2-  O332  1  0.33105340  0.32776112  0.83569829  1
  O2-  O333  1  0.33136488  0.81799983  0.16442777  1
  O2-  O334  1  0.33436811  0.81175189  0.50290793  1
  O2-  O335  1  0.33152637  0.81165850  0.83134088  1
  O2-  O336  1  0.66599177  0.32295698  0.16191302  1
  O2-  O337  1  0.66229814  0.31721621  0.50087396  1
  O2-  O338  1  0.65985663  0.32589418  0.82266198  1
  O2-  O339  1  0.66546106  0.82418422  0.16785716  1
  O2-  O340  1  0.66772099  0.82702737  0.49986572  1
  O2-  O341  1  0.66954207  0.82862359  0.83451073  1
  O2-  O342  1  0.16849842  0.33133380  0.16464755  1
  O2-  O343  1  0.16749148  0.31860625  0.50041646  1
  O2-  O344  1  0.17025892  0.32624678  0.82788764  1
  O2-  O345  1  0.16605620  0.82492451  0.16662533  1
  O2-  O346  1  0.16505835  0.81628551  0.50345887  1
  O2-  O347  1  0.16412142  0.82053799  0.83880720  1
  O2-  O348  1  0.50030275  0.33719275  0.16760686  1
  O2-  O349  1  0.50680544  0.31648312  0.50131832  1
  O2-  O350  1  0.49129419  0.33091504  0.83819816  1
  O2-  O351  1  0.50745368  0.81906754  0.16166667  1
  O2-  O352  1  0.49990048  0.81025743  0.49460170  1
  O2-  O353  1  0.49958107  0.81384376  0.82817750  1
  O2-  O354  1  0.82581152  0.31813468  0.17240253  1
  O2-  O355  1  0.84090237  0.31461625  0.49434393  1
  O2-  O356  1  0.83177100  0.32182047  0.83102714  1
  O2-  O357  1  0.83320355  0.82350176  0.16885685  1
  O2-  O358  1  0.83559636  0.81748669  0.50220891  1
  O2-  O359  1  0.82971128  0.81231267  0.84141688  1
  O2-  O360  1  0.09150216  0.07570337  0.12463376  1
  O2-  O361  1  0.09032933  0.06514290  0.44165690  1
  O2-  O362  1  0.09481055  0.07556985  0.78748886  1
  O2-  O363  1  0.05883842  0.57483964  0.11786641  1
  O2-  O364  1  0.09461720  0.58160500  0.46508162  1
  O2-  O365  1  0.07892684  0.57939476  0.74504840  1
  O2-  O366  1  0.41741507  0.07448801  0.13031548  1
  O2-  O367  1  0.42427659  0.08339513  0.45725085  1
  O2-  O368  1  0.40326256  0.07925194  0.77568253  1
  O2-  O369  1  0.41863109  0.58960628  0.10555871  1
  O2-  O370  1  0.40629668  0.58607997  0.45187370  1
  O2-  O371  1  0.43056431  0.57972398  0.78136356  1
  O2-  O372  1  0.75429681  0.08215920  0.12342441  1
  O2-  O373  1  0.74428337  0.08403897  0.44779358  1
  O2-  O374  1  0.75836227  0.06086513  0.77802992  1
  O2-  O375  1  0.76269671  0.57259422  0.12244609  1
  O2-  O376  1  0.73959568  0.57235621  0.45753165  1
  O2-  O377  1  0.75305099  0.57640489  0.79016437  1
  O2-  O378  1  0.27503512  0.06322690  0.24600963  1
  O2-  O379  1  0.24925500  0.07748132  0.53200865  1
  O2-  O380  1  0.24484417  0.07075582  0.87351211  1
  O2-  O381  1  0.27120876  0.58460801  0.22361076  1
  O2-  O382  1  0.25857220  0.58213205  0.55476877  1
  O2-  O383  1  0.27373510  0.57302431  0.88070214  1
  O2-  O384  1  0.60263950  0.08536958  0.22600751  1
  O2-  O385  1  0.59090812  0.07997297  0.54778038  1
  O2-  O386  1  0.57187249  0.07851154  0.88587343  1
  O2-  O387  1  0.56503014  0.58787291  0.22176351  1
  O2-  O388  1  0.56960684  0.58286532  0.53920414  1
  O2-  O389  1  0.57632111  0.57950852  0.89402198  1
  O2-  O390  1  0.90236060  0.08430209  0.22453804  1
  O2-  O391  1  0.91393551  0.08024655  0.55042817  1
  O2-  O392  1  0.92336401  0.08214031  0.87952069  1
  O2-  O393  1  0.91151280  0.58469507  0.22423784  1
  O2-  O394  1  0.91677861  0.57883058  0.55330442  1
  O2-  O395  1  0.91868800  0.57517945  0.88454519  1
  O2-  O396  1  0.09551843  0.44005333  0.13078477  1
  O2-  O397  1  0.08826731  0.42052092  0.45506001  1
  O2-  O398  1  0.09988731  0.42275711  0.77117161  1
  O2-  O399  1  0.07205940  0.91510935  0.07779687  1
  O2-  O400  1  0.07622310  0.91421371  0.44870111  1
  O2-  O401  1  0.06611349  0.91702328  0.77950354  1
  O2-  O402  1  0.41916560  0.43023001  0.12668992  1
  O2-  O403  1  0.41025374  0.41588802  0.45233606  1
  O2-  O404  1  0.40099374  0.41585304  0.76928682  1
  O2-  O405  1  0.43632751  0.92123030  0.12701022  1
  O2-  O406  1  0.42320220  0.91309508  0.44505805  1
  O2-  O407  1  0.43663159  0.91778772  0.75045833  1
  O2-  O408  1  0.74180101  0.42476844  0.11699134  1
  O2-  O409  1  0.74462476  0.41618685  0.42346646  1
  O2-  O410  1  0.74545933  0.42778112  0.76891353  1
  O2-  O411  1  0.73452719  0.91922495  0.11382612  1
  O2-  O412  1  0.76946159  0.91831176  0.45654226  1
  O2-  O413  1  0.76820679  0.91023680  0.77254134  1
  O2-  O414  1  0.26342706  0.41991187  0.21668818  1
  O2-  O415  1  0.24653621  0.41955637  0.56197074  1
  O2-  O416  1  0.24621291  0.42746430  0.87204175  1
  O2-  O417  1  0.26695938  0.91580419  0.24482716  1
  O2-  O418  1  0.27086097  0.92147572  0.54753778  1
  O2-  O419  1  0.23680723  0.92011009  0.89508526  1
  O2-  O420  1  0.60974500  0.42092930  0.22661564  1
  O2-  O421  1  0.58178895  0.42189991  0.55767130  1
  O2-  O422  1  0.58404980  0.41624706  0.91539347  1
  O2-  O423  1  0.58344668  0.91633689  0.23001658  1
  O2-  O424  1  0.56034827  0.92198626  0.54579672  1
  O2-  O425  1  0.57704073  0.91317699  0.88419785  1
  O2-  O426  1  0.89388731  0.42082105  0.20481686  1
  O2-  O427  1  0.91805119  0.41863097  0.55539243  1
  O2-  O428  1  0.92070442  0.41908183  0.91345185  1
  O2-  O429  1  0.91035118  0.92273401  0.21738295  1
  O2-  O430  1  0.91091376  0.92319672  0.55753802  1
  O2-  O431  1  0.90748672  0.91781009  0.88229852  1
  O2-  O432  1  -0.00629599  0.01234907  0.01470405  1
  O2-  O433  1  -0.03232053  -0.00199369  0.37205655  1
  O2-  O434  1  -0.01433642  0.00731762  0.67998431  1
  O2-  O435  1  0.00819637  0.48427065  0.00587644  1
  O2-  O436  1  0.00055049  0.47492299  0.32502278  1
  O2-  O437  1  0.00813913  0.50647203  0.64006325  1
  O2-  O438  1  0.34986476  0.03012797  -0.02234964  1
  O2-  O439  1  0.32994850  0.00731046  0.34470041  1
  O2-  O440  1  0.33267810  0.01530330  0.66271789  1
  O2-  O441  1  0.32509071  0.48465513  -0.00100102  1
  O2-  O442  1  0.34340189  0.48828691  0.33018306  1
  O2-  O443  1  0.33098952  0.50268119  0.67160742  1
  O2-  O444  1  0.66142903  0.00530562  0.00092573  1
  O2-  O445  1  0.65402000  -0.00457394  0.36653890  1
  O2-  O446  1  0.66337691  -0.02242297  0.66559655  1
  O2-  O447  1  0.64593665  0.49395323  0.02672829  1
  O2-  O448  1  0.65769778  0.51104304  0.34117956  1
  O2-  O449  1  0.66356438  0.52446307  0.68235058  1
  O2-  O450  1  0.16837076  0.00945729  0.00079714  1
  O2-  O451  1  0.17192575  -0.01066263  0.35635502  1
  O2-  O452  1  0.16973832  0.02182495  0.66353286  1
  O2-  O453  1  0.16074022  0.47911690  -0.00897443  1
  O2-  O454  1  0.17007572  0.48796384  0.33986519  1
  O2-  O455  1  0.16849115  0.49831171  0.65151682  1
  O2-  O456  1  0.50713997  0.00372015  0.01690289  1
  O2-  O457  1  0.49325083  -0.00622237  0.33312655  1
  O2-  O458  1  0.49980996  0.01394261  0.66280550  1
  O2-  O459  1  0.49118638  0.48885049  -0.01033890  1
  O2-  O460  1  0.50064629  0.50324077  0.33630889  1
  O2-  O461  1  0.50463093  0.52706226  0.66653881  1
  O2-  O462  1  0.82292113  -0.00827633  -0.01789487  1
  O2-  O463  1  0.80677007  0.00066314  0.30884956  1
  O2-  O464  1  0.82521837  0.00397836  0.64358222  1
  O2-  O465  1  0.85743994  0.50497827  0.03735224  1
  O2-  O466  1  0.81246998  0.48823330  0.31052130  1
  O2-  O467  1  0.84207468  0.51985377  0.67873639  1
  O2-  O468  1  0.93028987  0.25071565  0.94460903  1
  O2-  O469  1  0.59929092  0.74520626  0.61075668  1
  O2-  O470  1  0.74872910  0.25821440  0.73961417  1
  O2-  O471  1  0.07924725  0.25767736  0.40066510  1
  O2-  O472  1  0.73836074  0.74463765  0.72379408  1
  O2-  O473  1  0.23511630  0.74940487  0.27108308  1
  O2-  O474  1  0.41768003  0.24510102  0.05719829  1
  O2-  O475  1  0.07971183  0.25027688  0.73386600  1
  O2-  O476  1  0.93223913  0.25101830  0.26635626  1
  O2-  O477  1  0.59518738  0.75074363  0.93417534  1
  O2-  O478  1  0.08462521  0.75146365  0.07253354  1
  O2-  O479  1  0.58944851  0.75251990  0.27891714  1
  O2-  O480  1  0.40213122  0.25074447  0.74279245  1
  O2-  O481  1  0.42568854  0.24844114  0.38677336  1
  O2-  O482  1  0.24789861  0.25313294  0.26723284  1
  O2-  O483  1  0.92917499  0.24928863  0.60420359  1
  O2-  O484  1  0.91857241  0.75006847  0.27444008  1
  O2-  O485  1  0.57306970  0.25469546  0.92838523  1
  O2-  O486  1  0.08691211  0.74870198  0.38658240  1
  O2-  O487  1  0.56191594  0.24793869  0.27774424  1
  O2-  O488  1  0.74696033  0.75491758  0.06623941  1
  O2-  O489  1  0.08522777  0.74958344  0.73974366  1
  O2-  O490  1  0.08101640  0.24758341  0.05720339  1
  O2-  O491  1  0.24547353  0.25381632  0.94161481  1
  O2-  O492  1  0.74981048  0.75808861  0.39036409  1
