# generated using pymatgen
data_Ca108Mn108O277
_symmetry_space_group_name_H-M   'P 1'
_cell_length_a   16.03385050
_cell_length_b   22.31524378
_cell_length_c   16.39440969
_cell_angle_alpha   90.00175755
_cell_angle_beta   89.99973084
_cell_angle_gamma   90.00015227
_symmetry_Int_Tables_number   1
_chemical_formula_structural   Ca108Mn108O277
_chemical_formula_sum   'Ca108 Mn108 O277'
_cell_volume   5865.90802345
_cell_formula_units_Z   1
loop_
 _symmetry_equiv_pos_site_id
 _symmetry_equiv_pos_as_xyz
  1  'x, y, z'
loop_
 _atom_type_symbol
 _atom_type_oxidation_number
  Ca2+  2.0
  Mn3.34+  3.34
  O2-  -2.0
loop_
 _atom_site_type_symbol
 _atom_site_label
 _atom_site_symmetry_multiplicity
 _atom_site_fract_x
 _atom_site_fract_y
 _atom_site_fract_z
 _atom_site_occupancy
  Ca2+  Ca0  1  0.06742171  0.24992485  0.24088866  1
  Ca2+  Ca1  1  0.08228624  0.25774907  0.57888138  1
  Ca2+  Ca2  1  0.08327387  0.25626252  0.92581866  1
  Ca2+  Ca3  1  0.09213794  0.74915472  0.26581845  1
  Ca2+  Ca4  1  0.10197462  0.73403862  0.58608745  1
  Ca2+  Ca5  1  0.08681188  0.75841201  0.90232926  1
  Ca2+  Ca6  1  0.41320489  0.24037426  0.25308604  1
  Ca2+  Ca7  1  0.40503276  0.25091179  0.57062153  1
  Ca2+  Ca8  1  0.43249483  0.25065619  0.92248592  1
  Ca2+  Ca9  1  0.40946544  0.75686679  0.25064752  1
  Ca2+  Ca10  1  0.39664006  0.74136417  0.59074796  1
  Ca2+  Ca11  1  0.41267716  0.75804954  0.90941991  1
  Ca2+  Ca12  1  0.76415156  0.25102375  0.22982549  1
  Ca2+  Ca13  1  0.75718616  0.24843561  0.59790827  1
  Ca2+  Ca14  1  0.75450480  0.23168434  0.93022115  1
  Ca2+  Ca15  1  0.74116473  0.75563016  0.25651408  1
  Ca2+  Ca16  1  0.73854151  0.75365798  0.58167898  1
  Ca2+  Ca17  1  0.74888065  0.75309377  0.90390650  1
  Ca2+  Ca18  1  0.24054935  0.25345868  0.09682316  1
  Ca2+  Ca19  1  0.25941259  0.25993697  0.41475056  1
  Ca2+  Ca20  1  0.25108973  0.27036457  0.74452616  1
  Ca2+  Ca21  1  0.25628368  0.76563874  0.08253292  1
  Ca2+  Ca22  1  0.24540849  0.73911896  0.43489111  1
  Ca2+  Ca23  1  0.24888901  0.74126531  0.73547301  1
  Ca2+  Ca24  1  0.60932609  0.24007812  0.08458143  1
  Ca2+  Ca25  1  0.56576887  0.24602900  0.41714216  1
  Ca2+  Ca26  1  0.61379004  0.23737078  0.75362757  1
  Ca2+  Ca27  1  0.57148987  0.75492634  0.08808232  1
  Ca2+  Ca28  1  0.58240999  0.75466511  0.42080072  1
  Ca2+  Ca29  1  0.57238056  0.75140776  0.74895722  1
  Ca2+  Ca30  1  0.90396501  0.24832117  0.10174249  1
  Ca2+  Ca31  1  0.91090703  0.24517804  0.40155005  1
  Ca2+  Ca32  1  0.89826253  0.25041973  0.74458582  1
  Ca2+  Ca33  1  0.91518653  0.75802725  0.08011628  1
  Ca2+  Ca34  1  0.91650171  0.74783082  0.41909491  1
  Ca2+  Ca35  1  0.92635425  0.74780944  0.75277176  1
  Ca2+  Ca36  1  0.88403780  0.11350669  0.74713803  1
  Ca2+  Ca37  1  0.76561426  0.59054238  0.58446883  1
  Ca2+  Ca38  1  0.59089904  0.10829524  0.08510500  1
  Ca2+  Ca39  1  0.57655621  0.59357867  0.42283475  1
  Ca2+  Ca40  1  0.57510020  0.09667697  0.41932266  1
  Ca2+  Ca41  1  0.75412448  0.59143507  0.58513033  1
  Ca2+  Ca42  1  0.93718447  0.58928374  0.74197354  1
  Ca2+  Ca43  1  0.08073627  0.07316858  0.93208273  1
  Ca2+  Ca44  1  0.76151449  0.59842180  0.90350505  1
  Ca2+  Ca45  1  0.78385808  0.10977808  0.23999763  1
  Ca2+  Ca46  1  0.40138849  0.59670841  0.89992840  1
  Ca2+  Ca47  1  0.91182143  0.11183651  0.08759238  1
  Ca2+  Ca48  1  0.25458073  0.07884999  0.41872485  1
  Ca2+  Ca49  1  0.40516473  0.59166598  0.25070560  1
  Ca2+  Ca50  1  0.58857530  0.59287969  0.42254287  1
  Ca2+  Ca51  1  0.75703885  0.11221866  0.60825044  1
  Ca2+  Ca52  1  0.08879813  0.06784168  0.93323895  1
  Ca2+  Ca53  1  0.93098073  0.57778640  0.06843536  1
  Ca2+  Ca54  1  0.24383187  0.07597933  0.41931692  1
  Ca2+  Ca55  1  0.25141573  0.58508515  0.08313866  1
  Ca2+  Ca56  1  0.25785907  0.08620489  0.08243112  1
  Ca2+  Ca57  1  0.77633221  0.11252150  0.24634056  1
  Ca2+  Ca58  1  0.57117123  0.59091209  0.08419238  1
  Ca2+  Ca59  1  0.41152387  0.59385983  0.90291378  1
  Ca2+  Ca60  1  0.26329771  0.05531246  0.72418452  1
  Ca2+  Ca61  1  0.08498858  0.59147150  0.90014925  1
  Ca2+  Ca62  1  0.41774197  0.59168007  0.25126039  1
  Ca2+  Ca63  1  0.07358132  0.09248297  0.58598498  1
  Ca2+  Ca64  1  0.57036230  0.58513292  0.73191430  1
  Ca2+  Ca65  1  0.98865142  0.60584622  0.41880321  1
  Ca2+  Ca66  1  0.42366794  0.07941153  0.58356098  1
  Ca2+  Ca67  1  0.27380200  0.05309962  0.72772155  1
  Ca2+  Ca68  1  0.01658744  0.07629546  0.25486550  1
  Ca2+  Ca69  1  0.26256569  0.58644477  0.08215827  1
  Ca2+  Ca70  1  0.41812714  0.07987964  0.93900556  1
  Ca2+  Ca71  1  0.76691824  0.59206170  0.26617140  1
  Ca2+  Ca72  1  0.91762479  0.89792632  0.74914566  1
  Ca2+  Ca73  1  0.77370016  0.90449860  0.25977232  1
  Ca2+  Ca74  1  0.58600550  0.39227260  0.09154201  1
  Ca2+  Ca75  1  0.94040823  0.41300746  0.40602635  1
  Ca2+  Ca76  1  0.59295073  0.41099943  0.42237438  1
  Ca2+  Ca77  1  0.75543529  0.41023325  0.59290962  1
  Ca2+  Ca78  1  0.41038528  0.40726818  0.24807982  1
  Ca2+  Ca79  1  0.57137933  0.90188593  0.42220898  1
  Ca2+  Ca80  1  0.57669621  0.39509153  0.08848468  1
  Ca2+  Ca81  1  0.08035945  0.91880575  0.26683481  1
  Ca2+  Ca82  1  0.40884614  0.40324396  0.90272532  1
  Ca2+  Ca83  1  0.10931605  0.92156544  0.59099244  1
  Ca2+  Ca84  1  0.25023884  0.92591619  0.05009363  1
  Ca2+  Ca85  1  0.23758868  0.40403287  0.08075571  1
  Ca2+  Ca86  1  0.40281401  0.41640657  0.62293722  1
  Ca2+  Ca87  1  0.92413973  0.91879357  0.08355586  1
  Ca2+  Ca88  1  0.57226989  0.90291808  0.07944517  1
  Ca2+  Ca89  1  0.39792075  0.91283486  0.90565072  1
  Ca2+  Ca90  1  0.93248672  0.91578517  0.07823178  1
  Ca2+  Ca91  1  0.75521744  0.90095984  0.90975414  1
  Ca2+  Ca92  1  0.39596569  0.41927529  0.61621241  1
  Ca2+  Ca93  1  0.92870100  0.40518501  0.75036858  1
  Ca2+  Ca94  1  0.12047240  0.92370350  0.58566775  1
  Ca2+  Ca95  1  0.08963583  0.41109335  0.91860801  1
  Ca2+  Ca96  1  0.76668951  0.40980478  0.59070372  1
  Ca2+  Ca97  1  0.56622048  0.91206573  0.73589298  1
  Ca2+  Ca98  1  0.93043440  0.92083160  0.39421833  1
  Ca2+  Ca99  1  0.07719792  0.41269059  0.91876148  1
  Ca2+  Ca100  1  0.58028005  0.41091590  0.42356928  1
  Ca2+  Ca101  1  0.76731892  0.40069749  0.25302372  1
  Ca2+  Ca102  1  0.09119021  0.91947487  0.26808057  1
  Ca2+  Ca103  1  0.38730166  0.92334624  0.60845119  1
  Ca2+  Ca104  1  0.57865449  0.40020005  0.74224176  1
  Ca2+  Ca105  1  0.74209362  0.90337924  0.59061922  1
  Ca2+  Ca106  1  0.40664949  0.90545461  0.25251942  1
  Ca2+  Ca107  1  0.39832500  0.40637725  0.24454055  1
  Mn3.34+  Mn108  1  0.07722224  0.33244879  0.08543732  1
  Mn3.34+  Mn109  1  0.08649946  0.34058000  0.41919565  1
  Mn3.34+  Mn110  1  0.08138094  0.33780877  0.74915321  1
  Mn3.34+  Mn111  1  0.08882112  0.83310245  0.08311381  1
  Mn3.34+  Mn112  1  0.08400137  0.83592409  0.42718956  1
  Mn3.34+  Mn113  1  0.08761340  0.83255086  0.74683855  1
  Mn3.34+  Mn114  1  0.41147896  0.32604190  0.08140589  1
  Mn3.34+  Mn115  1  0.40881396  0.33850107  0.42282833  1
  Mn3.34+  Mn116  1  0.41728497  0.33022983  0.75496129  1
  Mn3.34+  Mn117  1  0.41456871  0.83671483  0.08142883  1
  Mn3.34+  Mn118  1  0.41011040  0.83268713  0.42195103  1
  Mn3.34+  Mn119  1  0.41008056  0.83685361  0.75053350  1
  Mn3.34+  Mn120  1  0.75860342  0.33218559  0.07709480  1
  Mn3.34+  Mn121  1  0.75431638  0.32912866  0.42186666  1
  Mn3.34+  Mn122  1  0.75320246  0.33288720  0.75781625  1
  Mn3.34+  Mn123  1  0.74809635  0.83391873  0.08497032  1
  Mn3.34+  Mn124  1  0.75257924  0.83267548  0.42068963  1
  Mn3.34+  Mn125  1  0.74702484  0.83233611  0.74841699  1
  Mn3.34+  Mn126  1  0.23647838  0.33407164  0.25564506  1
  Mn3.34+  Mn127  1  0.23871546  0.33768302  0.58158162  1
  Mn3.34+  Mn128  1  0.24965284  0.33130380  0.91479517  1
  Mn3.34+  Mn129  1  0.24970236  0.83466085  0.25209124  1
  Mn3.34+  Mn130  1  0.25320039  0.83080973  0.58059850  1
  Mn3.34+  Mn131  1  0.24388670  0.84100530  0.90934665  1
  Mn3.34+  Mn132  1  0.58361993  0.33015439  0.25423909  1
  Mn3.34+  Mn133  1  0.58395804  0.32529215  0.58065073  1
  Mn3.34+  Mn134  1  0.58774174  0.33063777  0.91093555  1
  Mn3.34+  Mn135  1  0.58330702  0.83479080  0.25143267  1
  Mn3.34+  Mn136  1  0.57588504  0.83436811  0.58282144  1
  Mn3.34+  Mn137  1  0.58280605  0.83299713  0.91390651  1
  Mn3.34+  Mn138  1  0.92426280  0.33537792  0.25001949  1
  Mn3.34+  Mn139  1  0.92666821  0.33589778  0.57761012  1
  Mn3.34+  Mn140  1  0.91323538  0.33567642  0.91586816  1
  Mn3.34+  Mn141  1  0.92047206  0.82791081  0.24702247  1
  Mn3.34+  Mn142  1  0.91894718  0.83056686  0.57724190  1
  Mn3.34+  Mn143  1  0.92095869  0.83461449  0.91287593  1
  Mn3.34+  Mn144  1  0.08495937  0.17265298  0.74700786  1
  Mn3.34+  Mn145  1  0.25890403  0.16324870  0.90803908  1
  Mn3.34+  Mn146  1  0.41306406  0.66528224  0.74336637  1
  Mn3.34+  Mn147  1  0.92359398  0.66119569  0.25089635  1
  Mn3.34+  Mn148  1  0.75587825  0.66840182  0.41928767  1
  Mn3.34+  Mn149  1  0.58288116  0.66845455  0.25017142  1
  Mn3.34+  Mn150  1  0.25059529  0.16588483  0.58166813  1
  Mn3.34+  Mn151  1  0.58505101  0.66844218  0.91443687  1
  Mn3.34+  Mn152  1  0.08781513  0.66849274  0.08524252  1
  Mn3.34+  Mn153  1  0.75942308  0.66363147  0.08681950  1
  Mn3.34+  Mn154  1  0.07372982  0.16007671  0.41744845  1
  Mn3.34+  Mn155  1  0.92509369  0.66449814  0.58089742  1
  Mn3.34+  Mn156  1  0.43206884  0.15405746  0.75565480  1
  Mn3.34+  Mn157  1  0.91905312  0.66929009  0.91182684  1
  Mn3.34+  Mn158  1  0.74966975  0.66893064  0.74951661  1
  Mn3.34+  Mn159  1  0.92181893  0.16351919  0.91438054  1
  Mn3.34+  Mn160  1  0.08509379  0.16571465  0.08997857  1
  Mn3.34+  Mn161  1  0.59195444  0.16869541  0.91635310  1
  Mn3.34+  Mn162  1  0.08387997  0.16792088  0.75724256  1
  Mn3.34+  Mn163  1  0.24816035  0.16843177  0.91071384  1
  Mn3.34+  Mn164  1  0.57818906  0.67020912  0.58474590  1
  Mn3.34+  Mn165  1  0.74571989  0.66973732  0.08288399  1
  Mn3.34+  Mn166  1  0.42136924  0.16505279  0.08976952  1
  Mn3.34+  Mn167  1  0.41276533  0.67031545  0.42352484  1
  Mn3.34+  Mn168  1  0.57794108  0.16850403  0.57876221  1
  Mn3.34+  Mn169  1  0.42349891  0.16007926  0.75100154  1
  Mn3.34+  Mn170  1  0.24600153  0.67055901  0.91052417  1
  Mn3.34+  Mn171  1  0.74616564  0.16870886  0.42449765  1
  Mn3.34+  Mn172  1  0.24345078  0.66762650  0.26156638  1
  Mn3.34+  Mn173  1  0.08492894  0.16647914  0.41536844  1
  Mn3.34+  Mn174  1  0.58270554  0.16839604  0.25308393  1
  Mn3.34+  Mn175  1  0.41119036  0.16551949  0.41409854  1
  Mn3.34+  Mn176  1  0.25279733  0.16438833  0.24663712  1
  Mn3.34+  Mn177  1  0.07423866  0.66260763  0.08751495  1
  Mn3.34+  Mn178  1  0.41651441  0.67080774  0.08194959  1
  Mn3.34+  Mn179  1  0.09123437  0.66151432  0.74425250  1
  Mn3.34+  Mn180  1  0.07817781  0.49904330  0.08642454  1
  Mn3.34+  Mn181  1  0.57794178  0.49940471  0.58676006  1
  Mn3.34+  Mn182  1  0.56997051  0.00649039  0.25209515  1
  Mn3.34+  Mn183  1  0.41133698  -0.00689086  0.42308892  1
  Mn3.34+  Mn184  1  0.75438274  0.00595264  0.08549679  1
  Mn3.34+  Mn185  1  0.58363498  0.00062064  0.25189916  1
  Mn3.34+  Mn186  1  0.41526283  0.49730475  0.07362501  1
  Mn3.34+  Mn187  1  0.07413124  -0.00121752  0.75178423  1
  Mn3.34+  Mn188  1  0.42072030  0.00078083  0.08301803  1
  Mn3.34+  Mn189  1  0.90227736  -0.00069744  0.57224237  1
  Mn3.34+  Mn190  1  0.92322100  0.50257260  0.26350614  1
  Mn3.34+  Mn191  1  0.58266968  0.00100410  0.90186010  1
  Mn3.34+  Mn192  1  0.91866478  0.50299323  0.90796460  1
  Mn3.34+  Mn193  1  0.37532659  0.50788030  0.44108873  1
  Mn3.34+  Mn194  1  0.75821870  0.50063660  0.08858680  1
  Mn3.34+  Mn195  1  0.74175412  -0.00148691  0.08684922  1
  Mn3.34+  Mn196  1  0.36325582  0.50793358  0.43828007  1
  Mn3.34+  Mn197  1  0.58945598  0.50052263  0.91005670  1
  Mn3.34+  Mn198  1  0.25352925  0.00245660  0.25229378  1
  Mn3.34+  Mn199  1  0.74951671  -0.00065294  0.74307610  1
  Mn3.34+  Mn200  1  0.59216259  0.00687202  0.90317907  1
  Mn3.34+  Mn201  1  0.74704685  0.00058666  0.42138781  1
  Mn3.34+  Mn202  1  0.93882674  0.50147774  0.59062851  1
  Mn3.34+  Mn203  1  0.77070880  0.49650744  0.08835634  1
  Mn3.34+  Mn204  1  0.24538999  0.50274250  0.60311532  1
  Mn3.34+  Mn205  1  0.59019698  0.50034777  0.26421117  1
  Mn3.34+  Mn206  1  0.91593808  0.00599540  0.57204520  1
  Mn3.34+  Mn207  1  0.58494487  0.00023037  0.58946449  1
  Mn3.34+  Mn208  1  0.08873896  0.00259851  0.09104544  1
  Mn3.34+  Mn209  1  0.76057458  0.00718637  0.41838843  1
  Mn3.34+  Mn210  1  0.24499363  0.50322131  0.90908801  1
  Mn3.34+  Mn211  1  0.22625987  0.49686394  0.27130697  1
  Mn3.34+  Mn212  1  0.75563340  0.50178025  0.74609399  1
  Mn3.34+  Mn213  1  0.77451082  0.49847194  0.40629148  1
  Mn3.34+  Mn214  1  0.59972101  0.49571477  0.90998367  1
  Mn3.34+  Mn215  1  0.90977838  0.00081409  0.91068270  1
  O2-  O216  1  0.01455205  0.14983287  -0.00827570  1
  O2-  O217  1  -0.00021535  0.16477664  0.33243889  1
  O2-  O218  1  0.00251579  0.16815860  0.66885905  1
  O2-  O219  1  0.00265685  0.64666907  -0.00329435  1
  O2-  O220  1  -0.00715044  0.69216802  0.32791928  1
  O2-  O221  1  -0.00391102  0.66949922  0.67163606  1
  O2-  O222  1  0.33837071  0.15202474  -0.00024986  1
  O2-  O223  1  0.32445378  0.14613857  0.34013133  1
  O2-  O224  1  0.34017064  0.13971555  0.67065163  1
  O2-  O225  1  0.33107156  0.64841670  -0.00056975  1
  O2-  O226  1  0.33775711  0.65156972  0.33208888  1
  O2-  O227  1  0.33472242  0.66241856  0.67332214  1
  O2-  O228  1  0.66372332  0.15975800  -0.00170938  1
  O2-  O229  1  0.66780769  0.14053510  0.33338137  1
  O2-  O230  1  0.66090414  0.17883619  0.65001324  1
  O2-  O231  1  0.66909115  0.63869524  -0.00019784  1
  O2-  O232  1  0.66739926  0.64448833  0.33304452  1
  O2-  O233  1  0.66949326  0.64807972  0.66290088  1
  O2-  O234  1  0.16902069  0.14127444  -0.00292831  1
  O2-  O235  1  0.16321613  0.14754675  0.33457569  1
  O2-  O236  1  0.16645485  0.14637583  0.66985475  1
  O2-  O237  1  0.16744453  0.63984175  0.00266554  1
  O2-  O238  1  0.16719925  0.67797326  0.33898505  1
  O2-  O239  1  0.16690992  0.66029879  0.67204446  1
  O2-  O240  1  0.49670528  0.16616502  0.00134312  1
  O2-  O241  1  0.49801591  0.15606761  0.33676363  1
  O2-  O242  1  0.49430268  0.19277576  0.66320424  1
  O2-  O243  1  0.49765266  0.64509887  -0.00496529  1
  O2-  O244  1  0.50075682  0.64945346  0.33267505  1
  O2-  O245  1  0.50466643  0.66170073  0.67089538  1
  O2-  O246  1  0.85676340  0.17877086  -0.00110831  1
  O2-  O247  1  0.81767802  0.17908844  0.33688358  1
  O2-  O248  1  0.83827541  0.18075138  0.66180292  1
  O2-  O249  1  0.83950867  0.64583707  0.00444364  1
  O2-  O250  1  0.84086272  0.65879202  0.33888529  1
  O2-  O251  1  0.83763072  0.65227103  0.66633846  1
  O2-  O252  1  0.00733874  0.33612609  -0.01262430  1
  O2-  O253  1  0.00262087  0.32935413  0.33900149  1
  O2-  O254  1  -0.00261261  0.31459824  0.66851107  1
  O2-  O255  1  -0.00203540  0.84961987  0.00499364  1
  O2-  O256  1  0.00494230  0.83501425  0.33209516  1
  O2-  O257  1  -0.00197551  0.83708030  0.66074027  1
  O2-  O258  1  0.33184916  0.34740277  -0.00039626  1
  O2-  O259  1  0.32752144  0.35449072  0.33602522  1
  O2-  O260  1  0.33070897  0.33901998  0.67554083  1
  O2-  O261  1  0.33275903  0.84781837  0.00252388  1
  O2-  O262  1  0.33518699  0.84442415  0.33101878  1
  O2-  O263  1  0.33093194  0.83913449  0.66633233  1
  O2-  O264  1  0.66621729  0.35041261  -0.00186864  1
  O2-  O265  1  0.66995470  0.35159951  0.33794114  1
  O2-  O266  1  0.67147476  0.34015553  0.65864780  1
  O2-  O267  1  0.66671244  0.85515431  0.00035849  1
  O2-  O268  1  0.67099837  0.85717431  0.33427355  1
  O2-  O269  1  0.65899138  0.84791126  0.67008149  1
  O2-  O270  1  0.16467347  0.34233771  -0.00644203  1
  O2-  O271  1  0.15665135  0.31699147  0.33764192  1
  O2-  O272  1  0.15764987  0.32565212  0.66592406  1
  O2-  O273  1  0.17186351  0.84681121  0.00592519  1
  O2-  O274  1  0.15993921  0.84220848  0.33174142  1
  O2-  O275  1  0.16250554  0.84405692  0.65885936  1
  O2-  O276  1  0.49799212  0.34198240  -0.00250015  1
  O2-  O277  1  0.49394600  0.35718053  0.33734531  1
  O2-  O278  1  0.49257008  0.33369016  0.65927872  1
  O2-  O279  1  0.49551522  0.85020307  -0.00632061  1
  O2-  O280  1  0.49715647  0.84952753  0.33058480  1
  O2-  O281  1  0.49385250  0.84572454  0.66114236  1
  O2-  O282  1  0.83981068  0.31829524  -0.00215289  1
  O2-  O283  1  0.83791879  0.34006157  0.34328333  1
  O2-  O284  1  0.84158734  0.34314486  0.66483157  1
  O2-  O285  1  0.83913394  0.85460158  0.01026498  1
  O2-  O286  1  0.84093372  0.83401219  0.33645585  1
  O2-  O287  1  0.83237948  0.84189385  0.66308515  1
  O2-  O288  1  0.00183351  0.17716215  0.15861087  1
  O2-  O289  1  0.00258783  0.18747483  0.49527207  1
  O2-  O290  1  0.00646463  0.19455401  0.83587069  1
  O2-  O291  1  -0.00424510  0.68938053  0.16436536  1
  O2-  O292  1  -0.00247135  0.68723020  0.50411047  1
  O2-  O293  1  -0.00022027  0.68216552  0.83677329  1
  O2-  O294  1  0.33503021  0.18601313  0.16003422  1
  O2-  O295  1  0.32813864  0.17917264  0.49329348  1
  O2-  O296  1  0.33998233  0.19701769  0.82616740  1
  O2-  O297  1  0.33047971  0.66768625  0.16556827  1
  O2-  O298  1  0.33714006  0.67954432  0.49726854  1
  O2-  O299  1  0.34013519  0.67904258  0.84084217  1
  O2-  O300  1  0.66980223  0.17780075  0.18466562  1
  O2-  O301  1  0.65079644  0.18506456  0.48960117  1
  O2-  O302  1  0.66934023  0.17747308  0.84362732  1
  O2-  O303  1  0.66247544  0.68027020  0.16323442  1
  O2-  O304  1  0.66582406  0.67140747  0.50080757  1
  O2-  O305  1  0.66717017  0.68210260  0.83342603  1
  O2-  O306  1  0.16992289  0.18052279  0.16543285  1
  O2-  O307  1  0.16264462  0.19098611  0.49229049  1
  O2-  O308  1  0.17077388  0.19899887  0.82488984  1
  O2-  O309  1  0.17048013  0.67223038  0.16552833  1
  O2-  O310  1  0.14540388  0.66845493  0.48059595  1
  O2-  O311  1  0.15882063  0.67833220  0.84072934  1
  O2-  O312  1  0.50769764  0.18943547  0.16362929  1
  O2-  O313  1  0.49019881  0.17933088  0.49996664  1
  O2-  O314  1  0.50411757  0.18775484  0.83343644  1
  O2-  O315  1  0.49557912  0.68174724  0.16899865  1
  O2-  O316  1  0.50939898  0.68028472  0.49029570  1
  O2-  O317  1  0.49712958  0.67940993  0.84348002  1
  O2-  O318  1  0.83730426  0.17537334  0.16825335  1
  O2-  O319  1  0.81762427  0.20193423  0.49296169  1
  O2-  O320  1  0.84689158  0.18422084  0.84079071  1
  O2-  O321  1  0.82898858  0.68877878  0.17514705  1
  O2-  O322  1  0.82746873  0.68235508  0.51130124  1
  O2-  O323  1  0.83038830  0.68336177  0.83557761  1
  O2-  O324  1  -0.00282641  0.32044417  0.16165197  1
  O2-  O325  1  -0.00104074  0.31276833  0.49317057  1
  O2-  O326  1  0.00013884  0.31425217  0.83089263  1
  O2-  O327  1  -0.00078369  0.81249249  0.16359079  1
  O2-  O328  1  -0.00012339  0.80772025  0.49740186  1
  O2-  O329  1  -0.00198849  0.82037146  0.82668645  1
  O2-  O330  1  0.33394945  0.32618672  0.16981534  1
  O2-  O331  1  0.33779276  0.32971443  0.51210344  1
  O2-  O332  1  0.34019988  0.31803797  0.84158861  1
  O2-  O333  1  0.33686307  0.82625782  0.16725678  1
  O2-  O334  1  0.33541271  0.81294950  0.50116863  1
  O2-  O335  1  0.33689145  0.82498139  0.83935771  1
  O2-  O336  1  0.66049768  0.32480263  0.16059395  1
  O2-  O337  1  0.66297836  0.31045482  0.49382442  1
  O2-  O338  1  0.65839155  0.32796542  0.82203172  1
  O2-  O339  1  0.66355972  0.81898026  0.16380047  1
  O2-  O340  1  0.66640662  0.82674341  0.50124283  1
  O2-  O341  1  0.66831366  0.81779659  0.83433970  1
  O2-  O342  1  0.16563017  0.32604455  0.16272379  1
  O2-  O343  1  0.16564867  0.31556216  0.49493635  1
  O2-  O344  1  0.16281914  0.31898623  0.83576574  1
  O2-  O345  1  0.16322610  0.82053889  0.17196186  1
  O2-  O346  1  0.16420663  0.81510410  0.50081582  1
  O2-  O347  1  0.16931408  0.82143875  0.82755530  1
  O2-  O348  1  0.49715424  0.31820395  0.16412683  1
  O2-  O349  1  0.50682716  0.32133616  0.49267166  1
  O2-  O350  1  0.50112174  0.31130887  0.83030604  1
  O2-  O351  1  0.49862024  0.82156959  0.16475084  1
  O2-  O352  1  0.50450360  0.81885473  0.49394154  1
  O2-  O353  1  0.50242535  0.82022722  0.83131958  1
  O2-  O354  1  0.83029442  0.33205824  0.17021187  1
  O2-  O355  1  0.82640602  0.32253246  0.51260347  1
  O2-  O356  1  0.83887843  0.32566479  0.83085948  1
  O2-  O357  1  0.83099658  0.81439795  0.17212596  1
  O2-  O358  1  0.83132140  0.81014471  0.50422920  1
  O2-  O359  1  0.83226192  0.81966916  0.83243239  1
  O2-  O360  1  0.07691430  0.08214911  0.11998689  1
  O2-  O361  1  0.10571436  0.07849915  0.45392820  1
  O2-  O362  1  0.08415073  0.08174759  0.79233050  1
  O2-  O363  1  0.07444762  0.58217075  0.12162340  1
  O2-  O364  1  0.12285005  0.58257658  0.42400393  1
  O2-  O365  1  0.07277366  0.58457529  0.76974349  1
  O2-  O366  1  0.43195961  0.07950366  0.10788110  1
  O2-  O367  1  0.40510320  0.07761535  0.44740104  1
  O2-  O368  1  0.39577208  0.07682070  0.79913898  1
  O2-  O369  1  0.41558302  0.57904383  0.11627476  1
  O2-  O370  1  0.43674619  0.58388465  0.44398659  1
  O2-  O371  1  0.43471955  0.58278356  0.77456041  1
  O2-  O372  1  0.72997346  0.08277067  0.11660188  1
  O2-  O373  1  0.74498148  0.08222535  0.46862774  1
  O2-  O374  1  0.75558631  0.07715245  0.74898537  1
  O2-  O375  1  0.74455988  0.57896799  0.13059780  1
  O2-  O376  1  0.74515878  0.58013147  0.44973770  1
  O2-  O377  1  0.75579291  0.58294308  0.77224205  1
  O2-  O378  1  0.25844172  0.08008888  0.21757813  1
  O2-  O379  1  0.24329007  0.08498014  0.55301315  1
  O2-  O380  1  0.23588016  0.08325272  0.86487304  1
  O2-  O381  1  0.26623381  0.56947196  0.21589151  1
  O2-  O382  1  0.27879031  0.54058780  0.51299743  1
  O2-  O383  1  0.26005742  0.58491225  0.88103950  1
  O2-  O384  1  0.57617816  0.08498570  0.21734459  1
  O2-  O385  1  0.57437966  0.07920012  0.55577894  1
  O2-  O386  1  0.56113370  0.08708073  0.89431058  1
  O2-  O387  1  0.55912369  0.57843886  0.21865711  1
  O2-  O388  1  0.58291783  0.58041043  0.55708801  1
  O2-  O389  1  0.59374747  0.58077086  0.87308228  1
  O2-  O390  1  0.88594440  0.05813953  0.19527608  1
  O2-  O391  1  0.90525095  0.08539588  0.56938339  1
  O2-  O392  1  0.94231487  0.08141127  0.87869764  1
  O2-  O393  1  0.90836434  0.57570681  0.20605751  1
  O2-  O394  1  0.90807611  0.57720195  0.54319807  1
  O2-  O395  1  0.91154307  0.58439680  0.87911158  1
  O2-  O396  1  0.08997584  0.41646967  0.07775036  1
  O2-  O397  1  0.07880519  0.41424997  0.43701648  1
  O2-  O398  1  0.07285577  0.41614734  0.78530016  1
  O2-  O399  1  0.07224652  0.92273154  0.12604436  1
  O2-  O400  1  0.06878744  0.91909535  0.45785042  1
  O2-  O401  1  0.06437282  0.91652032  0.74780799  1
  O2-  O402  1  0.44193484  0.41970154  0.11619639  1
  O2-  O403  1  0.43543692  0.43349697  0.47951209  1
  O2-  O404  1  0.42675209  0.41160648  0.76500393  1
  O2-  O405  1  0.42145807  0.92081318  0.11406472  1
  O2-  O406  1  0.42415097  0.91522098  0.45843331  1
  O2-  O407  1  0.42559173  0.91734815  0.77061951  1
  O2-  O408  1  0.72788527  0.41834975  0.11736028  1
  O2-  O409  1  0.73418352  0.42117801  0.45875125  1
  O2-  O410  1  0.75376721  0.41925115  0.74917201  1
  O2-  O411  1  0.76337605  0.92247638  0.12855666  1
  O2-  O412  1  0.76818507  0.92082125  0.45387370  1
  O2-  O413  1  0.75024487  0.91853687  0.77553196  1
  O2-  O414  1  0.26560716  0.43015848  0.21145681  1
  O2-  O415  1  0.26714614  0.42940940  0.56069454  1
  O2-  O416  1  0.23383121  0.41852870  0.89732245  1
  O2-  O417  1  0.24440556  0.92235782  0.21929667  1
  O2-  O418  1  0.24757549  0.91536096  0.55712273  1
  O2-  O419  1  0.25633147  0.92038244  0.90449820  1
  O2-  O420  1  0.57215828  0.41847047  0.22249239  1
  O2-  O421  1  0.60362445  0.41897935  0.55767897  1
  O2-  O422  1  0.56503504  0.41601063  0.88431402  1
  O2-  O423  1  0.57995995  0.92218366  0.21385235  1
  O2-  O424  1  0.58963611  0.92081835  0.55538213  1
  O2-  O425  1  0.59741818  0.92023742  0.87395381  1
  O2-  O426  1  0.92200844  0.42130695  0.25003807  1
  O2-  O427  1  0.90258273  0.42532940  0.54516178  1
  O2-  O428  1  0.93869050  0.42125470  0.88910246  1
  O2-  O429  1  0.92498914  0.91275419  0.21544122  1
  O2-  O430  1  0.91431403  0.92042179  0.54405142  1
  O2-  O431  1  0.90536146  0.91723326  0.88387745  1
  O2-  O432  1  0.00148563  0.00094193  0.00381245  1
  O2-  O433  1  0.00439169  -0.01447410  0.31612163  1
  O2-  O434  1  0.01324458  0.00420802  0.63641609  1
  O2-  O435  1  0.01765022  0.50945612  -0.02257987  1
  O2-  O436  1  -0.04713848  0.51145104  0.37022246  1
  O2-  O437  1  -0.03222058  0.49407077  0.69615538  1
  O2-  O438  1  0.33363402  0.00954941  0.01413257  1
  O2-  O439  1  0.31415898  0.00002421  0.35514789  1
  O2-  O440  1  0.34534357  0.01285998  0.64257079  1
  O2-  O441  1  0.34040794  0.51654067  -0.01562992  1
  O2-  O442  1  0.33615106  0.49843381  0.32012881  1
  O2-  O443  1  0.33254523  0.50195937  0.66198965  1
  O2-  O444  1  0.66851065  -0.00427530  -0.00567133  1
  O2-  O445  1  0.65673377  0.00822666  0.34486688  1
  O2-  O446  1  0.67874522  -0.00898603  0.65113312  1
  O2-  O447  1  0.66574397  0.50399592  0.01013050  1
  O2-  O448  1  0.64275974  0.50164815  0.37728825  1
  O2-  O449  1  0.66630734  0.51185055  0.66434049  1
  O2-  O450  1  0.17116827  0.01473780  0.01177685  1
  O2-  O451  1  0.15783770  0.00675464  0.30505044  1
  O2-  O452  1  0.16503185  0.00326955  0.66902680  1
  O2-  O453  1  0.18479935  0.50950445  0.02301962  1
  O2-  O454  1  0.14693789  0.51027883  0.33651321  1
  O2-  O455  1  0.16392125  0.50141936  0.66005798  1
  O2-  O456  1  0.49654593  -0.00814281  -0.01457083  1
  O2-  O457  1  0.49657705  -0.00820149  0.34113351  1
  O2-  O458  1  0.49700720  -0.00467574  0.64868348  1
  O2-  O459  1  0.50332455  0.51121385  -0.01000569  1
  O2-  O460  1  0.48845859  0.49430835  0.34366152  1
  O2-  O461  1  0.50265475  0.47934413  0.66320136  1
  O2-  O462  1  0.83852789  -0.01210213  0.00889191  1
  O2-  O463  1  0.82198208  -0.01251014  0.32642160  1
  O2-  O464  1  0.84825869  -0.01285404  0.67393448  1
  O2-  O465  1  0.83938993  0.51476860  -0.00151808  1
  O2-  O466  1  0.79504032  0.49675818  0.28384396  1
  O2-  O467  1  0.81524936  0.50293709  0.63387862  1
  O2-  O468  1  0.74812846  0.25344807  0.07714006  1
  O2-  O469  1  0.25998622  0.75121849  0.25975802  1
  O2-  O470  1  0.41521859  0.75267774  0.05419719  1
  O2-  O471  1  0.75403315  0.74870570  0.04316950  1
  O2-  O472  1  0.24601495  0.74970606  0.94322510  1
  O2-  O473  1  0.26107174  0.24497589  0.61084366  1
  O2-  O474  1  0.08710713  0.74574543  0.04638841  1
  O2-  O475  1  0.74524421  0.74943928  0.72052459  1
  O2-  O476  1  0.40989416  0.24921054  0.39264286  1
  O2-  O477  1  0.75278348  0.25586081  0.73962251  1
  O2-  O478  1  0.59016077  0.25242406  0.94350255  1
  O2-  O479  1  0.58568263  0.25032866  0.28411817  1
  O2-  O480  1  0.42109677  0.75016783  0.38875093  1
  O2-  O481  1  0.58994193  0.75076099  0.28033277  1
  O2-  O482  1  0.91491454  0.25700566  0.25725484  1
  O2-  O483  1  0.59175908  0.75181182  0.60663012  1
  O2-  O484  1  0.41883518  0.75026380  0.73283563  1
  O2-  O485  1  0.58941389  0.74801681  0.95080129  1
  O2-  O486  1  0.73464083  0.74900648  0.39367611  1
  O2-  O487  1  0.09222552  0.24783560  0.06213100  1
  O2-  O488  1  0.08873902  0.75080263  0.73227441  1
  O2-  O489  1  0.24877347  0.24773798  0.95352511  1
  O2-  O490  1  0.24717702  0.74994106  0.59720661  1
  O2-  O491  1  0.91596991  0.75072008  0.94400783  1
  O2-  O492  1  0.26074195  0.24530692  0.27396149  1
