# generated using pymatgen
data_Ca108Mn108O277
_symmetry_space_group_name_H-M   'P 1'
_cell_length_a   16.02324122
_cell_length_b   22.29979825
_cell_length_c   16.38674657
_cell_angle_alpha   90.00660063
_cell_angle_beta   89.99913999
_cell_angle_gamma   89.99886606
_symmetry_Int_Tables_number   1
_chemical_formula_structural   Ca108Mn108O277
_chemical_formula_sum   'Ca108 Mn108 O277'
_cell_volume   5855.23106877
_cell_formula_units_Z   1
loop_
 _symmetry_equiv_pos_site_id
 _symmetry_equiv_pos_as_xyz
  1  'x, y, z'
loop_
 _atom_type_symbol
 _atom_type_oxidation_number
  Ca2+  2.0
  Mn3.34+  3.34
  O2-  -2.0
loop_
 _atom_site_type_symbol
 _atom_site_label
 _atom_site_symmetry_multiplicity
 _atom_site_fract_x
 _atom_site_fract_y
 _atom_site_fract_z
 _atom_site_occupancy
  Ca2+  Ca0  1  0.09009387  0.24783932  0.24581006  1
  Ca2+  Ca1  1  0.07896732  0.24538463  0.57015088  1
  Ca2+  Ca2  1  0.06157596  0.23239630  0.93279238  1
  Ca2+  Ca3  1  0.08320774  0.74883198  0.23721985  1
  Ca2+  Ca4  1  0.10010432  0.75576003  0.57958042  1
  Ca2+  Ca5  1  0.06738306  0.74236394  0.93493474  1
  Ca2+  Ca6  1  0.42032900  0.24386791  0.25057592  1
  Ca2+  Ca7  1  0.43955101  0.24210414  0.56527856  1
  Ca2+  Ca8  1  0.41092276  0.25055594  0.92923102  1
  Ca2+  Ca9  1  0.40563704  0.74620984  0.27291810  1
  Ca2+  Ca10  1  0.40974625  0.74704712  0.57189245  1
  Ca2+  Ca11  1  0.43286090  0.75998459  0.91346850  1
  Ca2+  Ca12  1  0.73713901  0.24874640  0.24317295  1
  Ca2+  Ca13  1  0.73075918  0.24633973  0.57764952  1
  Ca2+  Ca14  1  0.77992062  0.23922093  0.93362642  1
  Ca2+  Ca15  1  0.75775878  0.75571868  0.22953468  1
  Ca2+  Ca16  1  0.73101168  0.75772408  0.59456328  1
  Ca2+  Ca17  1  0.74538553  0.75101300  0.92390868  1
  Ca2+  Ca18  1  0.22892840  0.24789590  0.08580558  1
  Ca2+  Ca19  1  0.22668011  0.23536489  0.41372447  1
  Ca2+  Ca20  1  0.23136050  0.25091690  0.75220134  1
  Ca2+  Ca21  1  0.23963915  0.75265944  0.08242953  1
  Ca2+  Ca22  1  0.26918121  0.74514232  0.42451962  1
  Ca2+  Ca23  1  0.25491287  0.74984419  0.73746846  1
  Ca2+  Ca24  1  0.58110243  0.24672164  0.09142930  1
  Ca2+  Ca25  1  0.57734615  0.25184466  0.42308299  1
  Ca2+  Ca26  1  0.58977361  0.24661464  0.72678360  1
  Ca2+  Ca27  1  0.59790370  0.75559625  0.06191233  1
  Ca2+  Ca28  1  0.55859555  0.75104988  0.42648887  1
  Ca2+  Ca29  1  0.58707862  0.74128969  0.76559958  1
  Ca2+  Ca30  1  0.92813485  0.24670412  0.07125299  1
  Ca2+  Ca31  1  0.93439370  0.25572622  0.41832468  1
  Ca2+  Ca32  1  0.92689236  0.25070673  0.77727459  1
  Ca2+  Ca33  1  0.91098254  0.75486706  0.07276745  1
  Ca2+  Ca34  1  0.92806264  0.76103336  0.41276474  1
  Ca2+  Ca35  1  0.91002993  0.75734852  0.77512561  1
  Ca2+  Ca36  1  0.61179778  0.09575377  0.08905946  1
  Ca2+  Ca37  1  0.73806465  0.60659791  0.91775155  1
  Ca2+  Ca38  1  0.69842326  0.07718763  0.58657338  1
  Ca2+  Ca39  1  0.93998995  0.09705956  0.76236775  1
  Ca2+  Ca40  1  0.29475817  0.59812964  0.42621685  1
  Ca2+  Ca41  1  0.46385849  0.08583146  0.58681967  1
  Ca2+  Ca42  1  0.91355634  0.58997885  0.38015906  1
  Ca2+  Ca43  1  0.42787938  0.08084311  0.92747463  1
  Ca2+  Ca44  1  0.59943449  0.09555746  0.08696076  1
  Ca2+  Ca45  1  0.61143550  0.57682908  0.04166575  1
  Ca2+  Ca46  1  0.77817281  0.59642821  0.23385028  1
  Ca2+  Ca47  1  0.06937052  0.60785497  0.22730988  1
  Ca2+  Ca48  1  0.22305191  0.09281208  0.09247103  1
  Ca2+  Ca49  1  0.56693116  0.08992473  0.41203239  1
  Ca2+  Ca50  1  0.93808246  0.61933082  0.09295852  1
  Ca2+  Ca51  1  0.21980537  0.07394640  0.74111481  1
  Ca2+  Ca52  1  0.53128565  0.58770976  0.43523602  1
  Ca2+  Ca53  1  0.71618841  0.58685776  0.59014434  1
  Ca2+  Ca54  1  0.26426832  0.60010926  0.73982593  1
  Ca2+  Ca55  1  0.07540467  0.59689204  0.95014112  1
  Ca2+  Ca56  1  0.09065404  0.09183441  0.25736038  1
  Ca2+  Ca57  1  0.40670440  0.60858511  0.58150582  1
  Ca2+  Ca58  1  0.19924861  0.59954475  0.08297894  1
  Ca2+  Ca59  1  0.94704666  0.08218441  0.41406907  1
  Ca2+  Ca60  1  0.09220968  0.09834296  0.58431687  1
  Ca2+  Ca61  1  0.76820330  0.09791572  0.94435490  1
  Ca2+  Ca62  1  0.21292184  0.09299045  0.09523178  1
  Ca2+  Ca63  1  0.92975829  0.09897959  0.07334173  1
  Ca2+  Ca64  1  0.57030187  0.08742913  0.42104708  1
  Ca2+  Ca65  1  0.08737592  0.09174037  0.58291411  1
  Ca2+  Ca66  1  0.90464305  0.61091656  0.77632325  1
  Ca2+  Ca67  1  0.95840500  0.07854336  0.41570193  1
  Ca2+  Ca68  1  0.93013881  0.61512775  0.08936030  1
  Ca2+  Ca69  1  0.11763859  0.59006584  0.58517913  1
  Ca2+  Ca70  1  0.41163016  0.09928851  0.24610472  1
  Ca2+  Ca71  1  0.46100132  0.60245171  0.89795155  1
  Ca2+  Ca72  1  0.07592467  0.91190193  0.57833135  1
  Ca2+  Ca73  1  0.75535619  0.41159810  0.93592906  1
  Ca2+  Ca74  1  0.41169712  0.90317276  0.25624085  1
  Ca2+  Ca75  1  0.09124374  0.90310884  0.91608598  1
  Ca2+  Ca76  1  0.74576591  0.40360892  0.57627329  1
  Ca2+  Ca77  1  0.09054080  0.39984737  0.58058288  1
  Ca2+  Ca78  1  0.42475254  0.41175984  0.91998427  1
  Ca2+  Ca79  1  0.23824549  0.90626509  0.08448592  1
  Ca2+  Ca80  1  0.92147488  0.90807587  0.40784489  1
  Ca2+  Ca81  1  0.58233411  0.90581279  0.42649394  1
  Ca2+  Ca82  1  0.24147860  0.40949242  0.74773864  1
  Ca2+  Ca83  1  0.73756803  0.90528934  0.57936033  1
  Ca2+  Ca84  1  0.58069487  0.41194515  0.41372833  1
  Ca2+  Ca85  1  0.43478079  0.41839782  0.57293331  1
  Ca2+  Ca86  1  0.08003445  0.90313308  0.91597128  1
  Ca2+  Ca87  1  0.08107783  0.91781513  0.25335611  1
  Ca2+  Ca88  1  0.76246926  0.40941992  0.24826145  1
  Ca2+  Ca89  1  0.56831978  0.90646937  0.74737864  1
  Ca2+  Ca90  1  0.57072852  0.41313106  0.74584140  1
  Ca2+  Ca91  1  0.60465797  0.41415145  0.07835234  1
  Ca2+  Ca92  1  0.42337280  0.41949906  0.57244303  1
  Ca2+  Ca93  1  0.73425041  0.40358014  0.57581476  1
  Ca2+  Ca94  1  0.74456432  0.41228224  0.93268806  1
  Ca2+  Ca95  1  0.25372538  0.41186062  0.74561878  1
  Ca2+  Ca96  1  0.59337572  0.41114527  0.07555575  1
  Ca2+  Ca97  1  0.25413575  0.40431691  0.41448801  1
  Ca2+  Ca98  1  0.57917910  0.90660900  0.74739643  1
  Ca2+  Ca99  1  0.08124619  0.41014144  0.94526343  1
  Ca2+  Ca100  1  0.41310031  0.40921400  0.27020327  1
  Ca2+  Ca101  1  0.58179958  0.41234931  0.74789095  1
  Ca2+  Ca102  1  0.42290570  0.90201655  0.25708232  1
  Ca2+  Ca103  1  0.25103029  0.90063503  0.75256183  1
  Ca2+  Ca104  1  0.41193519  0.41061019  0.91969056  1
  Ca2+  Ca105  1  0.08699658  0.91113673  0.57751838  1
  Ca2+  Ca106  1  0.22799466  0.40710148  0.08469096  1
  Ca2+  Ca107  1  0.07767761  0.39969954  0.58013968  1
  Mn3.34+  Mn108  1  0.07627676  0.33348796  0.09102042  1
  Mn3.34+  Mn109  1  0.08289840  0.32966599  0.40879673  1
  Mn3.34+  Mn110  1  0.07789990  0.33263440  0.75678219  1
  Mn3.34+  Mn111  1  0.07633499  0.84122538  0.09025418  1
  Mn3.34+  Mn112  1  0.08655913  0.84016399  0.41372143  1
  Mn3.34+  Mn113  1  0.08053543  0.83973434  0.75204094  1
  Mn3.34+  Mn114  1  0.41273804  0.32823166  0.09186204  1
  Mn3.34+  Mn115  1  0.41428770  0.33102933  0.41535135  1
  Mn3.34+  Mn116  1  0.41393321  0.32437565  0.74903554  1
  Mn3.34+  Mn117  1  0.42012504  0.83547076  0.08054829  1
  Mn3.34+  Mn118  1  0.41318881  0.83541459  0.42228609  1
  Mn3.34+  Mn119  1  0.41471371  0.83305111  0.74974526  1
  Mn3.34+  Mn120  1  0.75809967  0.33307992  0.09277846  1
  Mn3.34+  Mn121  1  0.75691434  0.33470634  0.40872967  1
  Mn3.34+  Mn122  1  0.75653235  0.33520240  0.75534651  1
  Mn3.34+  Mn123  1  0.75014820  0.83972068  0.08350743  1
  Mn3.34+  Mn124  1  0.75058606  0.83292460  0.41266565  1
  Mn3.34+  Mn125  1  0.75174332  0.83292264  0.75408627  1
  Mn3.34+  Mn126  1  0.24894111  0.33194317  0.24765834  1
  Mn3.34+  Mn127  1  0.25404771  0.32515098  0.57990089  1
  Mn3.34+  Mn128  1  0.24703213  0.33420182  0.91776699  1
  Mn3.34+  Mn129  1  0.24482257  0.83397166  0.25066435  1
  Mn3.34+  Mn130  1  0.25422183  0.83048266  0.58052094  1
  Mn3.34+  Mn131  1  0.25728959  0.82941163  0.91642625  1
  Mn3.34+  Mn132  1  0.58357676  0.33074928  0.25122168  1
  Mn3.34+  Mn133  1  0.58190999  0.33389195  0.57786894  1
  Mn3.34+  Mn134  1  0.58177092  0.33339836  0.91180069  1
  Mn3.34+  Mn135  1  0.58866921  0.83500536  0.24575460  1
  Mn3.34+  Mn136  1  0.57915038  0.83516413  0.58102486  1
  Mn3.34+  Mn137  1  0.58761893  0.84309044  0.91949455  1
  Mn3.34+  Mn138  1  0.92137979  0.33570094  0.24516267  1
  Mn3.34+  Mn139  1  0.91339189  0.32716064  0.58284104  1
  Mn3.34+  Mn140  1  0.91980447  0.33179440  0.92109548  1
  Mn3.34+  Mn141  1  0.91436206  0.83543101  0.24366139  1
  Mn3.34+  Mn142  1  0.91234585  0.83555137  0.58468052  1
  Mn3.34+  Mn143  1  0.90781067  0.83196538  0.92045309  1
  Mn3.34+  Mn144  1  0.58833610  0.66900264  0.24867319  1
  Mn3.34+  Mn145  1  0.74309401  0.16676236  0.41665972  1
  Mn3.34+  Mn146  1  0.07724652  0.66447865  0.75502955  1
  Mn3.34+  Mn147  1  0.91516824  0.17140026  0.24360458  1
  Mn3.34+  Mn148  1  0.90809323  0.67191531  0.58669720  1
  Mn3.34+  Mn149  1  0.58755828  0.16415641  0.91449630  1
  Mn3.34+  Mn150  1  0.25308164  0.66847043  0.91484911  1
  Mn3.34+  Mn151  1  0.09046219  0.67133407  0.75315425  1
  Mn3.34+  Mn152  1  0.25165273  0.16371464  0.25111042  1
  Mn3.34+  Mn153  1  0.91487474  0.16711609  0.57949994  1
  Mn3.34+  Mn154  1  0.74261465  0.67145333  0.75564356  1
  Mn3.34+  Mn155  1  0.08296888  0.66718229  0.41511045  1
  Mn3.34+  Mn156  1  0.40532978  0.66887672  0.08020066  1
  Mn3.34+  Mn157  1  0.24293684  0.15812942  0.91329201  1
  Mn3.34+  Mn158  1  0.74751530  0.16112533  0.74911274  1
  Mn3.34+  Mn159  1  0.40977639  0.16745414  0.41910055  1
  Mn3.34+  Mn160  1  0.25478774  0.17246093  0.58028436  1
  Mn3.34+  Mn161  1  0.41932715  0.66305720  0.08263826  1
  Mn3.34+  Mn162  1  0.57547353  0.66236000  0.24813793  1
  Mn3.34+  Mn163  1  0.25315245  0.16341591  0.91362014  1
  Mn3.34+  Mn164  1  0.91758442  0.66585517  0.58426884  1
  Mn3.34+  Mn165  1  0.75738406  0.16118851  0.41740742  1
  Mn3.34+  Mn166  1  0.24954941  0.66928760  0.24718482  1
  Mn3.34+  Mn167  1  0.40897205  0.16045219  0.74562173  1
  Mn3.34+  Mn168  1  0.90648345  0.16561748  0.24121363  1
  Mn3.34+  Mn169  1  0.74329279  0.67447787  0.41451179  1
  Mn3.34+  Mn170  1  0.75682883  0.16698295  0.74801494  1
  Mn3.34+  Mn171  1  0.57781843  0.66694370  0.58745224  1
  Mn3.34+  Mn172  1  0.41938231  0.16534902  0.74699706  1
  Mn3.34+  Mn173  1  0.08155083  0.16714501  0.75021518  1
  Mn3.34+  Mn174  1  0.58216080  0.16697580  0.24562144  1
  Mn3.34+  Mn175  1  0.09193300  0.66108905  0.41592199  1
  Mn3.34+  Mn176  1  0.75136494  0.66567764  0.08352679  1
  Mn3.34+  Mn177  1  0.75337322  0.66950009  0.41631100  1
  Mn3.34+  Mn178  1  0.57815905  0.17000783  0.91562059  1
  Mn3.34+  Mn179  1  0.41856589  0.66778138  0.75152858  1
  Mn3.34+  Mn180  1  0.90936096  0.49861515  0.56884295  1
  Mn3.34+  Mn181  1  0.74221757  -0.00673498  0.07280118  1
  Mn3.34+  Mn182  1  0.92518179  0.49476155  0.24926351  1
  Mn3.34+  Mn183  1  0.42023549  0.00005592  0.74556641  1
  Mn3.34+  Mn184  1  0.27035415  -0.00302280  0.57194999  1
  Mn3.34+  Mn185  1  0.75910019  0.50102656  0.75173582  1
  Mn3.34+  Mn186  1  0.42996072  -0.00428138  0.07743304  1
  Mn3.34+  Mn187  1  0.41779406  0.50184707  0.09026489  1
  Mn3.34+  Mn188  1  0.75404248  -0.00051011  0.40664440  1
  Mn3.34+  Mn189  1  0.91297999  0.00094449  0.25024283  1
  Mn3.34+  Mn190  1  0.07437243  0.50024208  0.75062911  1
  Mn3.34+  Mn191  1  0.91029543  -0.00825496  0.92836866  1
  Mn3.34+  Mn192  1  0.42422966  0.50426614  0.74326364  1
  Mn3.34+  Mn193  1  0.75804313  -0.00492684  0.75600458  1
  Mn3.34+  Mn194  1  0.59458394  -0.00009413  0.25803691  1
  Mn3.34+  Mn195  1  0.92333457  0.50491220  0.56955582  1
  Mn3.34+  Mn196  1  0.57922156  0.49990699  0.25691988  1
  Mn3.34+  Mn197  1  0.40745410  0.00152825  0.41012583  1
  Mn3.34+  Mn198  1  0.75928438  0.50296812  0.40966936  1
  Mn3.34+  Mn199  1  0.74514786  0.00166393  0.75597197  1
  Mn3.34+  Mn200  1  0.24573319  -0.00194833  0.92175719  1
  Mn3.34+  Mn201  1  0.40268646  0.49646679  0.09088282  1
  Mn3.34+  Mn202  1  0.24546522  0.50003751  0.25398624  1
  Mn3.34+  Mn203  1  0.41959355  0.00102408  0.07908366  1
  Mn3.34+  Mn204  1  0.92110698  -0.00077775  0.92661086  1
  Mn3.34+  Mn205  1  0.24594769  0.50698560  0.92000237  1
  Mn3.34+  Mn206  1  0.25836212  0.50685683  0.25560188  1
  Mn3.34+  Mn207  1  0.25368289  0.50007256  0.58053578  1
  Mn3.34+  Mn208  1  0.56962465  0.50624029  0.25958553  1
  Mn3.34+  Mn209  1  0.91260632  0.50302888  0.91980711  1
  Mn3.34+  Mn210  1  0.24593842  -0.00123773  0.26921816  1
  Mn3.34+  Mn211  1  0.92482422  0.49781689  0.91293901  1
  Mn3.34+  Mn212  1  0.25938706  0.00132462  0.56892108  1
  Mn3.34+  Mn213  1  0.74453858  0.50653584  0.75033899  1
  Mn3.34+  Mn214  1  0.91424064  0.00003329  0.58933642  1
  Mn3.34+  Mn215  1  0.07692109  0.49681094  0.41013873  1
  O2-  O216  1  -0.01261881  0.16684359  0.00356114  1
  O2-  O217  1  -0.01232448  0.15709659  0.33153632  1
  O2-  O218  1  0.00476653  0.16557665  0.65773018  1
  O2-  O219  1  0.00437764  0.67294846  0.00608708  1
  O2-  O220  1  0.00047626  0.66303159  0.33743957  1
  O2-  O221  1  0.00243475  0.64025637  0.66877347  1
  O2-  O222  1  0.33369960  0.15455382  -0.00605594  1
  O2-  O223  1  0.33439429  0.17237686  0.33154196  1
  O2-  O224  1  0.33061380  0.19101496  0.66793900  1
  O2-  O225  1  0.33462615  0.64291836  -0.00479802  1
  O2-  O226  1  0.32672257  0.66460772  0.32876035  1
  O2-  O227  1  0.33757444  0.67553876  0.67500972  1
  O2-  O228  1  0.67259132  0.16307278  0.00040963  1
  O2-  O229  1  0.66389457  0.14596584  0.33478438  1
  O2-  O230  1  0.67139514  0.15836849  0.66581692  1
  O2-  O231  1  0.66812441  0.66427189  0.00690470  1
  O2-  O232  1  0.67242505  0.64633023  0.33052316  1
  O2-  O233  1  0.66973310  0.66336583  0.66278021  1
  O2-  O234  1  0.16489666  0.15738567  -0.00061187  1
  O2-  O235  1  0.16629244  0.17603665  0.32111802  1
  O2-  O236  1  0.17154621  0.16212899  0.66584843  1
  O2-  O237  1  0.16874578  0.66773031  -0.00880446  1
  O2-  O238  1  0.16354973  0.65037279  0.32575213  1
  O2-  O239  1  0.16556602  0.65772366  0.67235703  1
  O2-  O240  1  0.50026585  0.16540557  0.00253696  1
  O2-  O241  1  0.49725990  0.15041517  0.33287302  1
  O2-  O242  1  0.49629502  0.17025984  0.66225705  1
  O2-  O243  1  0.50053443  0.65784975  0.00493722  1
  O2-  O244  1  0.50702621  0.66022176  0.33720409  1
  O2-  O245  1  0.49655339  0.67111412  0.66807159  1
  O2-  O246  1  0.84088779  0.16634871  0.00980267  1
  O2-  O247  1  0.83002609  0.17090442  0.32818959  1
  O2-  O248  1  0.84176988  0.16473824  0.66876725  1
  O2-  O249  1  0.83144839  0.65759126  0.00731116  1
  O2-  O250  1  0.83400061  0.67291602  0.33449869  1
  O2-  O251  1  0.82792671  0.64981072  0.66669078  1
  O2-  O252  1  -0.00065149  0.33894107  0.00156280  1
  O2-  O253  1  0.00008204  0.32325591  0.32769262  1
  O2-  O254  1  0.00324911  0.33475739  0.66156721  1
  O2-  O255  1  0.00529698  0.83671318  -0.00175171  1
  O2-  O256  1  -0.00451508  0.83248233  0.33365861  1
  O2-  O257  1  0.00363509  0.85166790  0.66179815  1
  O2-  O258  1  0.33874668  0.34205700  -0.00184727  1
  O2-  O259  1  0.33409617  0.33645402  0.33192712  1
  O2-  O260  1  0.32860317  0.33961489  0.67095799  1
  O2-  O261  1  0.32572776  0.84463301  0.00874702  1
  O2-  O262  1  0.33382835  0.84200557  0.33154312  1
  O2-  O263  1  0.32791819  0.82940383  0.67200264  1
  O2-  O264  1  0.66893452  0.34143224  0.00276738  1
  O2-  O265  1  0.66996646  0.35292621  0.32856181  1
  O2-  O266  1  0.66098031  0.35167877  0.66828979  1
  O2-  O267  1  0.67076795  0.83846987  -0.00243869  1
  O2-  O268  1  0.66262851  0.82759220  0.33890159  1
  O2-  O269  1  0.66351578  0.84467809  0.66808225  1
  O2-  O270  1  0.16913245  0.34144296  -0.00074327  1
  O2-  O271  1  0.17551299  0.33217530  0.33941077  1
  O2-  O272  1  0.16998196  0.34110717  0.66411942  1
  O2-  O273  1  0.15981656  0.83750474  0.00054155  1
  O2-  O274  1  0.15598188  0.84409814  0.32287410  1
  O2-  O275  1  0.16294396  0.84750142  0.66509562  1
  O2-  O276  1  0.49975058  0.34237295  0.00345100  1
  O2-  O277  1  0.50169075  0.34747325  0.33583297  1
  O2-  O278  1  0.49631960  0.34502939  0.66509187  1
  O2-  O279  1  0.50032475  0.83449543  -0.00019348  1
  O2-  O280  1  0.49730544  0.83893789  0.33610660  1
  O2-  O281  1  0.50149693  0.83617336  0.66993501  1
  O2-  O282  1  0.82787169  0.33597882  -0.00023880  1
  O2-  O283  1  0.83628219  0.32222018  0.32445215  1
  O2-  O284  1  0.82180078  0.33842706  0.65646896  1
  O2-  O285  1  0.83452314  0.83378089  0.00378482  1
  O2-  O286  1  0.83465284  0.81319107  0.33090366  1
  O2-  O287  1  0.82397312  0.84139239  0.65840059  1
  O2-  O288  1  0.00000504  0.17956694  0.17064850  1
  O2-  O289  1  -0.00587923  0.17445331  0.50147763  1
  O2-  O290  1  0.00191884  0.17440275  0.82460033  1
  O2-  O291  1  -0.00367982  0.68527485  0.16899725  1
  O2-  O292  1  0.00160470  0.67895219  0.50163883  1
  O2-  O293  1  0.00025689  0.67890336  0.83151603  1
  O2-  O294  1  0.32626962  0.18443044  0.17213231  1
  O2-  O295  1  0.33366391  0.19086628  0.49965022  1
  O2-  O296  1  0.33408589  0.18857880  0.83167623  1
  O2-  O297  1  0.32946127  0.68002352  0.16208267  1
  O2-  O298  1  0.33809813  0.67661442  0.50028065  1
  O2-  O299  1  0.33155060  0.68169200  0.82977186  1
  O2-  O300  1  0.65842491  0.17903176  0.16330579  1
  O2-  O301  1  0.66440690  0.16748722  0.49886647  1
  O2-  O302  1  0.66658665  0.18038297  0.83218606  1
  O2-  O303  1  0.66889193  0.67841592  0.17164790  1
  O2-  O304  1  0.66540049  0.68179343  0.49754442  1
  O2-  O305  1  0.67050240  0.67760082  0.83518741  1
  O2-  O306  1  0.17373739  0.17480840  0.16845612  1
  O2-  O307  1  0.16436938  0.17712358  0.51491653  1
  O2-  O308  1  0.17157115  0.17210768  0.82682976  1
  O2-  O309  1  0.16762375  0.68162408  0.16680558  1
  O2-  O310  1  0.16802845  0.67055091  0.49671211  1
  O2-  O311  1  0.16983823  0.68357826  0.83182120  1
  O2-  O312  1  0.50203822  0.17887340  0.17021439  1
  O2-  O313  1  0.50056726  0.16862821  0.48957089  1
  O2-  O314  1  0.49498987  0.18832169  0.83372484  1
  O2-  O315  1  0.49678783  0.68046951  0.16414208  1
  O2-  O316  1  0.50003087  0.67493439  0.50741547  1
  O2-  O317  1  0.48934931  0.68751911  0.83180554  1
  O2-  O318  1  0.83254546  0.19241953  0.16592684  1
  O2-  O319  1  0.83142097  0.18860222  0.50039678  1
  O2-  O320  1  0.83221149  0.17655219  0.83032871  1
  O2-  O321  1  0.83395582  0.67593174  0.16442446  1
  O2-  O322  1  0.83094844  0.69489872  0.49664098  1
  O2-  O323  1  0.82771334  0.68032160  0.82878674  1
  O2-  O324  1  -0.00217300  0.31099442  0.16859140  1
  O2-  O325  1  0.00355841  0.32382992  0.50600454  1
  O2-  O326  1  0.00402485  0.32753814  0.84114378  1
  O2-  O327  1  0.00060131  0.81388263  0.16577975  1
  O2-  O328  1  0.00114296  0.82794870  0.50279173  1
  O2-  O329  1  0.00721809  0.82799686  0.83968245  1
  O2-  O330  1  0.33077798  0.30756034  0.16818878  1
  O2-  O331  1  0.33985704  0.31815469  0.50553147  1
  O2-  O332  1  0.33598777  0.32477622  0.83681345  1
  O2-  O333  1  0.33432157  0.83002248  0.17471842  1
  O2-  O334  1  0.33232388  0.82248282  0.50063468  1
  O2-  O335  1  0.33158350  0.81701595  0.82865538  1
  O2-  O336  1  0.66478716  0.31577707  0.16170672  1
  O2-  O337  1  0.67031518  0.32922906  0.50156142  1
  O2-  O338  1  0.65964989  0.33728386  0.82564853  1
  O2-  O339  1  0.66576976  0.82175340  0.16471194  1
  O2-  O340  1  0.66827708  0.82147890  0.49961646  1
  O2-  O341  1  0.65871743  0.82556858  0.82158508  1
  O2-  O342  1  0.16796335  0.31937073  0.16749659  1
  O2-  O343  1  0.16459809  0.31987870  0.50719648  1
  O2-  O344  1  0.17700655  0.33003072  0.82393341  1
  O2-  O345  1  0.16662192  0.81980289  0.16045978  1
  O2-  O346  1  0.15840824  0.83367359  0.50672522  1
  O2-  O347  1  0.16550604  0.82403731  0.83362318  1
  O2-  O348  1  0.50131690  0.31469386  0.16533226  1
  O2-  O349  1  0.49759230  0.32804029  0.50009230  1
  O2-  O350  1  0.49608916  0.31451888  0.82806197  1
  O2-  O351  1  0.49065279  0.82794498  0.17663185  1
  O2-  O352  1  0.50059557  0.82764507  0.49828926  1
  O2-  O353  1  0.50224968  0.82302533  0.82369682  1
  O2-  O354  1  0.83455167  0.30968507  0.16920557  1
  O2-  O355  1  0.82829102  0.31803130  0.50367179  1
  O2-  O356  1  0.82576825  0.32226773  0.84576494  1
  O2-  O357  1  0.83765933  0.81871884  0.16342821  1
  O2-  O358  1  0.83583117  0.81946577  0.49603521  1
  O2-  O359  1  0.82745994  0.82249712  0.83736470  1
  O2-  O360  1  0.09987267  0.06624814  0.13003326  1
  O2-  O361  1  0.07455409  0.06368712  0.46300378  1
  O2-  O362  1  0.08077562  0.08400202  0.74571244  1
  O2-  O363  1  0.06476562  0.57600435  0.10001572  1
  O2-  O364  1  0.07563341  0.57852799  0.45302547  1
  O2-  O365  1  0.08530168  0.58275810  0.78616594  1
  O2-  O366  1  0.40710724  0.07825011  0.11568021  1
  O2-  O367  1  0.41017673  0.08118338  0.44882293  1
  O2-  O368  1  0.41149820  0.07901450  0.78712671  1
  O2-  O369  1  0.41418621  0.58149727  0.11555195  1
  O2-  O370  1  0.40974625  0.56059520  0.46897077  1
  O2-  O371  1  0.40467231  0.58396408  0.76784103  1
  O2-  O372  1  0.74095014  0.06523162  0.11890621  1
  O2-  O373  1  0.75641315  0.07937412  0.45082430  1
  O2-  O374  1  0.75639318  0.07906179  0.79533899  1
  O2-  O375  1  0.74827687  0.58225993  0.10299910  1
  O2-  O376  1  0.76244953  0.58406018  0.45191249  1
  O2-  O377  1  0.75565559  0.58607277  0.77766770  1
  O2-  O378  1  0.25806964  0.07865253  0.22796044  1
  O2-  O379  1  0.25420496  0.08446800  0.56410609  1
  O2-  O380  1  0.25946715  0.07644473  0.87540174  1
  O2-  O381  1  0.24125156  0.58266788  0.21403704  1
  O2-  O382  1  0.25744977  0.57941517  0.57231725  1
  O2-  O383  1  0.24089866  0.58429329  0.88514558  1
  O2-  O384  1  0.57811334  0.08113045  0.21779266  1
  O2-  O385  1  0.57939028  0.05961835  0.53769170  1
  O2-  O386  1  0.57876047  0.08562823  0.89270419  1
  O2-  O387  1  0.59018137  0.58062955  0.20888371  1
  O2-  O388  1  0.58375112  0.58486732  0.56504413  1
  O2-  O389  1  0.59354501  0.57170117  0.90682308  1
  O2-  O390  1  0.90896454  0.08143556  0.21053708  1
  O2-  O391  1  0.91596827  0.07860579  0.54939729  1
  O2-  O392  1  0.90334993  0.07161096  0.88768248  1
  O2-  O393  1  0.92103968  0.57392897  0.21753341  1
  O2-  O394  1  0.90925853  0.58380118  0.53796007  1
  O2-  O395  1  0.92288599  0.58362574  0.90435722  1
  O2-  O396  1  0.09232264  0.41356987  0.09133109  1
  O2-  O397  1  0.09536230  0.41688945  0.44839506  1
  O2-  O398  1  0.10056269  0.41709376  0.77007258  1
  O2-  O399  1  0.09058330  0.91776870  0.10551010  1
  O2-  O400  1  0.06749830  0.92053687  0.43880086  1
  O2-  O401  1  0.09550557  0.92079108  0.77967060  1
  O2-  O402  1  0.41223284  0.41618963  0.12341938  1
  O2-  O403  1  0.40612040  0.41299227  0.44227373  1
  O2-  O404  1  0.41706534  0.42243064  0.78682566  1
  O2-  O405  1  0.41013664  0.91847035  0.11482659  1
  O2-  O406  1  0.43035557  0.92121024  0.41578193  1
  O2-  O407  1  0.42179272  0.92089780  0.76969986  1
  O2-  O408  1  0.73541887  0.41807731  0.11515080  1
  O2-  O409  1  0.75073368  0.42215096  0.44679941  1
  O2-  O410  1  0.75217730  0.42243066  0.79262589  1
  O2-  O411  1  0.75288742  0.92214004  0.11246099  1
  O2-  O412  1  0.75427680  0.92105972  0.43915523  1
  O2-  O413  1  0.74295106  0.91557584  0.77199812  1
  O2-  O414  1  0.26580045  0.42217153  0.21615354  1
  O2-  O415  1  0.24308956  0.41789097  0.55509142  1
  O2-  O416  1  0.26433133  0.42615605  0.88080348  1
  O2-  O417  1  0.24918930  0.92081929  0.22420700  1
  O2-  O418  1  0.24812175  0.91586103  0.56812746  1
  O2-  O419  1  0.23462612  0.91747276  0.89507651  1
  O2-  O420  1  0.57618673  0.42037606  0.21077650  1
  O2-  O421  1  0.58038818  0.41922775  0.55049265  1
  O2-  O422  1  0.55827196  0.41805104  0.88007620  1
  O2-  O423  1  0.56370304  0.91888360  0.24173479  1
  O2-  O424  1  0.59322324  0.91464400  0.56629718  1
  O2-  O425  1  0.58258023  0.92209304  0.87874820  1
  O2-  O426  1  0.90186014  0.41744088  0.22413973  1
  O2-  O427  1  0.92007653  0.41691261  0.56426567  1
  O2-  O428  1  0.90395465  0.41686146  0.90225471  1
  O2-  O429  1  0.93232042  0.92061205  0.24838640  1
  O2-  O430  1  0.91564429  0.92049390  0.55515971  1
  O2-  O431  1  0.92688396  0.91675483  0.89865139  1
  O2-  O432  1  0.01901696  -0.00242984  -0.02685877  1
  O2-  O433  1  0.00105301  0.02150970  0.31744667  1
  O2-  O434  1  0.02218279  0.00338623  0.61876281  1
  O2-  O435  1  0.01728257  0.49807887  -0.02397591  1
  O2-  O436  1  -0.00269561  0.51629211  0.33315344  1
  O2-  O437  1  0.01258945  0.49948071  0.64378575  1
  O2-  O438  1  0.34201353  0.00639931  -0.01053834  1
  O2-  O439  1  0.35568545  -0.00485771  0.30115103  1
  O2-  O440  1  0.32267382  0.00582040  0.68054444  1
  O2-  O441  1  0.34416855  0.49190265  -0.01342096  1
  O2-  O442  1  0.33062145  0.48818216  0.33777383  1
  O2-  O443  1  0.33519327  0.47934634  0.66614595  1
  O2-  O444  1  0.66789441  0.01814568  0.00568192  1
  O2-  O445  1  0.64747592  0.00465722  0.36983659  1
  O2-  O446  1  0.66870435  -0.00384887  0.67178329  1
  O2-  O447  1  0.66096319  0.47088087  -0.00550010  1
  O2-  O448  1  0.66772901  0.49358999  0.33366354  1
  O2-  O449  1  0.67391324  0.47808599  0.66318164  1
  O2-  O450  1  0.17996155  -0.00053466  0.00451598  1
  O2-  O451  1  0.14391494  0.00184489  0.30157054  1
  O2-  O452  1  0.16733657  0.00283081  0.64324783  1
  O2-  O453  1  0.17764943  0.50160193  0.00002624  1
  O2-  O454  1  0.16727600  0.49948864  0.33695850  1
  O2-  O455  1  0.17259036  0.49427741  0.66921492  1
  O2-  O456  1  0.51247154  0.02534065  0.00957556  1
  O2-  O457  1  0.50070543  0.01889330  0.33990089  1
  O2-  O458  1  0.50836743  0.00280618  0.68674436  1
  O2-  O459  1  0.49959631  0.47905084  0.01104877  1
  O2-  O460  1  0.50234022  0.48861809  0.34759770  1
  O2-  O461  1  0.50104030  0.47268313  0.66516549  1
  O2-  O462  1  0.83160821  0.00990462  0.00299958  1
  O2-  O463  1  0.86130950  0.00489788  0.36741937  1
  O2-  O464  1  0.83535234  0.01129086  0.67106325  1
  O2-  O465  1  0.81129070  0.50230194  -0.03266395  1
  O2-  O466  1  0.82958926  0.51237153  0.31550357  1
  O2-  O467  1  0.83334014  0.50714157  0.65869501  1
  O2-  O468  1  0.25765158  0.74962560  0.94258714  1
  O2-  O469  1  0.43396363  0.24969795  0.39843503  1
  O2-  O470  1  0.08054596  0.25099971  0.41006578  1
  O2-  O471  1  0.75186847  0.75195758  0.72961922  1
  O2-  O472  1  0.25057870  0.75211600  0.27115059  1
  O2-  O473  1  0.58567616  0.24758998  0.28143309  1
  O2-  O474  1  0.08838887  0.75137810  0.40755495  1
  O2-  O475  1  0.93122337  0.75294741  0.61134624  1
  O2-  O476  1  0.58738648  0.25036740  0.93652232  1
  O2-  O477  1  0.41508166  0.75495611  0.40986636  1
  O2-  O478  1  0.07630295  0.75170732  0.72363235  1
  O2-  O479  1  0.91734279  0.75454067  0.92488612  1
  O2-  O480  1  0.58704248  0.75850262  0.92442039  1
  O2-  O481  1  0.08766954  0.25139934  0.73577467  1
  O2-  O482  1  0.74714459  0.75256410  0.07109375  1
  O2-  O483  1  0.08614700  0.25416612  0.06540351  1
  O2-  O484  1  0.73681630  0.25232284  0.73199417  1
  O2-  O485  1  0.91954504  0.25287717  0.92408253  1
  O2-  O486  1  0.73066043  0.24798905  0.39849741  1
  O2-  O487  1  0.41033855  0.75179771  0.06392743  1
  O2-  O488  1  0.58539861  0.75176974  0.59739310  1
  O2-  O489  1  0.25005233  0.24749070  0.93257126  1
  O2-  O490  1  0.58743301  0.25480992  0.59271398  1
  O2-  O491  1  0.24141378  0.75301411  0.58989316  1
  O2-  O492  1  0.57557609  0.75105725  0.26473834  1
