# generated using pymatgen
data_Ca108Mn108O277
_symmetry_space_group_name_H-M   'P 1'
_cell_length_a   16.02531129
_cell_length_b   22.30573712
_cell_length_c   16.39002562
_cell_angle_alpha   89.99847393
_cell_angle_beta   90.00081156
_cell_angle_gamma   90.00251379
_symmetry_Int_Tables_number   1
_chemical_formula_structural   Ca108Mn108O277
_chemical_formula_sum   'Ca108 Mn108 O277'
_cell_volume   5858.71922952
_cell_formula_units_Z   1
loop_
 _symmetry_equiv_pos_site_id
 _symmetry_equiv_pos_as_xyz
  1  'x, y, z'
loop_
 _atom_type_symbol
 _atom_type_oxidation_number
  Ca2+  2.0
  Mn3.34+  3.34
  O2-  -2.0
loop_
 _atom_site_type_symbol
 _atom_site_label
 _atom_site_symmetry_multiplicity
 _atom_site_fract_x
 _atom_site_fract_y
 _atom_site_fract_z
 _atom_site_occupancy
  Ca2+  Ca0  1  0.08991420  0.24202275  0.25610857  1
  Ca2+  Ca1  1  0.10737967  0.25325243  0.57718746  1
  Ca2+  Ca2  1  0.08722669  0.25058412  0.91951058  1
  Ca2+  Ca3  1  0.10563097  0.74490330  0.24465791  1
  Ca2+  Ca4  1  0.09282780  0.75263865  0.57095442  1
  Ca2+  Ca5  1  0.08255154  0.74872598  0.93205999  1
  Ca2+  Ca6  1  0.41470268  0.23787890  0.22652548  1
  Ca2+  Ca7  1  0.39421631  0.24361704  0.59287973  1
  Ca2+  Ca8  1  0.40599342  0.24315482  0.91796302  1
  Ca2+  Ca9  1  0.38943321  0.73766942  0.25857017  1
  Ca2+  Ca10  1  0.41785134  0.75144191  0.57271544  1
  Ca2+  Ca11  1  0.42232852  0.75825341  0.92174668  1
  Ca2+  Ca12  1  0.74537564  0.25128442  0.24120398  1
  Ca2+  Ca13  1  0.74302514  0.26767370  0.58641852  1
  Ca2+  Ca14  1  0.75592818  0.26047872  0.92025157  1
  Ca2+  Ca15  1  0.74417975  0.77785995  0.24776438  1
  Ca2+  Ca16  1  0.73410525  0.74820769  0.58662803  1
  Ca2+  Ca17  1  0.75008608  0.75140187  0.91881188  1
  Ca2+  Ca18  1  0.27660352  0.23457137  0.08014846  1
  Ca2+  Ca19  1  0.24626466  0.22783457  0.42410553  1
  Ca2+  Ca20  1  0.27046178  0.25009396  0.75177173  1
  Ca2+  Ca21  1  0.23611391  0.75267998  0.09821201  1
  Ca2+  Ca22  1  0.24601059  0.74405435  0.40044645  1
  Ca2+  Ca23  1  0.25248481  0.76067320  0.75308799  1
  Ca2+  Ca24  1  0.57437272  0.25521581  0.09009935  1
  Ca2+  Ca25  1  0.58168510  0.25927222  0.40709102  1
  Ca2+  Ca26  1  0.56528421  0.25660585  0.74962258  1
  Ca2+  Ca27  1  0.57540641  0.75772105  0.07621061  1
  Ca2+  Ca28  1  0.55544388  0.74120572  0.41592440  1
  Ca2+  Ca29  1  0.57221427  0.74711651  0.74767922  1
  Ca2+  Ca30  1  0.90996914  0.24286701  0.08623885  1
  Ca2+  Ca31  1  0.92962060  0.24175384  0.40122645  1
  Ca2+  Ca32  1  0.91582225  0.25120596  0.76729205  1
  Ca2+  Ca33  1  0.93873198  0.75320670  0.07449461  1
  Ca2+  Ca34  1  0.93792660  0.76000591  0.40997420  1
  Ca2+  Ca35  1  0.92872764  0.75583454  0.76497881  1
  Ca2+  Ca36  1  0.40935185  0.59299459  0.92101753  1
  Ca2+  Ca37  1  0.08070459  0.60800793  0.93025379  1
  Ca2+  Ca38  1  0.76628241  0.09477074  0.24716227  1
  Ca2+  Ca39  1  0.77895879  0.09537666  0.24637804  1
  Ca2+  Ca40  1  0.36618426  0.09060149  0.56783829  1
  Ca2+  Ca41  1  0.53852949  0.08011240  0.08753128  1
  Ca2+  Ca42  1  0.26429161  0.59640151  0.39395761  1
  Ca2+  Ca43  1  0.56273549  0.08044472  0.39623405  1
  Ca2+  Ca44  1  0.42184340  0.59164551  0.92093621  1
  Ca2+  Ca45  1  0.12074434  0.09302362  0.57574002  1
  Ca2+  Ca46  1  0.37604125  0.09311128  0.56700472  1
  Ca2+  Ca47  1  0.39111558  0.09613710  0.92815555  1
  Ca2+  Ca48  1  0.38926484  0.10155772  0.93477610  1
  Ca2+  Ca49  1  0.58773135  0.59967597  0.73794106  1
  Ca2+  Ca50  1  0.27063048  0.09666181  0.08845629  1
  Ca2+  Ca51  1  0.94354099  0.59224465  0.42196731  1
  Ca2+  Ca52  1  0.92361280  0.08482257  0.07994299  1
  Ca2+  Ca53  1  0.11021352  0.60895475  0.24251877  1
  Ca2+  Ca54  1  0.94411526  0.60520808  0.05496183  1
  Ca2+  Ca55  1  0.54874846  0.08169279  0.08862630  1
  Ca2+  Ca56  1  0.46238861  0.60566400  0.55251001  1
  Ca2+  Ca57  1  0.95560614  0.59311977  0.42644590  1
  Ca2+  Ca58  1  0.90447217  0.60698850  0.78661971  1
  Ca2+  Ca59  1  0.09123707  0.09941554  0.25515183  1
  Ca2+  Ca60  1  0.74734046  0.07626574  0.92312462  1
  Ca2+  Ca61  1  0.13190544  0.09344884  0.57105742  1
  Ca2+  Ca62  1  0.26343393  0.10727285  0.76521221  1
  Ca2+  Ca63  1  0.91678356  0.60874689  0.78471920  1
  Ca2+  Ca64  1  0.58574661  0.57408080  0.04180389  1
  Ca2+  Ca65  1  0.70740544  0.59557934  0.59341699  1
  Ca2+  Ca66  1  0.23574590  0.61216871  0.09418223  1
  Ca2+  Ca67  1  0.26726055  0.11187255  0.75815769  1
  Ca2+  Ca68  1  0.76014200  0.07831241  0.92232087  1
  Ca2+  Ca69  1  0.23934939  0.59448101  0.76342603  1
  Ca2+  Ca70  1  0.57251436  0.09058301  0.75270029  1
  Ca2+  Ca71  1  0.38497512  0.10358606  0.24281858  1
  Ca2+  Ca72  1  0.42979357  0.40772733  0.57955701  1
  Ca2+  Ca73  1  0.27860922  0.91878749  0.41810842  1
  Ca2+  Ca74  1  0.91955454  0.90073900  0.75292035  1
  Ca2+  Ca75  1  0.41680051  0.91899375  0.94163819  1
  Ca2+  Ca76  1  0.74138283  0.40136687  0.25179811  1
  Ca2+  Ca77  1  0.59740938  0.41565020  0.74033043  1
  Ca2+  Ca78  1  0.72363844  0.42221295  0.92296744  1
  Ca2+  Ca79  1  0.90711972  0.40983437  0.74906241  1
  Ca2+  Ca80  1  0.92144125  0.40719179  0.08056744  1
  Ca2+  Ca81  1  0.25745343  0.40552800  0.40936656  1
  Ca2+  Ca82  1  0.41853454  0.40098108  0.25623493  1
  Ca2+  Ca83  1  0.90857979  0.40755224  0.08003197  1
  Ca2+  Ca84  1  0.44071897  0.41163266  0.57591432  1
  Ca2+  Ca85  1  0.10303918  0.41306414  0.92196749  1
  Ca2+  Ca86  1  0.26991363  0.40693254  0.40953138  1
  Ca2+  Ca87  1  0.10929955  0.91211429  0.60152678  1
  Ca2+  Ca88  1  0.09110534  0.90415306  0.22973694  1
  Ca2+  Ca89  1  0.09820468  0.91054276  0.60027003  1
  Ca2+  Ca90  1  0.90701278  0.39956378  0.42638032  1
  Ca2+  Ca91  1  0.56986455  0.91720587  0.06907269  1
  Ca2+  Ca92  1  0.08165097  0.90546445  0.22583574  1
  Ca2+  Ca93  1  0.09234413  0.40331241  0.25278816  1
  Ca2+  Ca94  1  0.55880479  0.91098713  0.40969701  1
  Ca2+  Ca95  1  0.40661837  0.90517420  0.58111919  1
  Ca2+  Ca96  1  0.24916122  0.40822846  0.07200661  1
  Ca2+  Ca97  1  0.07457381  0.40618283  0.58977421  1
  Ca2+  Ca98  1  0.41265692  0.41185049  0.92249834  1
  Ca2+  Ca99  1  0.59028901  0.89694234  0.76590246  1
  Ca2+  Ca100  1  0.75219100  0.89259623  0.59193664  1
  Ca2+  Ca101  1  0.90768657  0.90269762  0.41247835  1
  Ca2+  Ca102  1  0.56972753  0.90725590  0.40659953  1
  Ca2+  Ca103  1  0.91942773  0.40103564  0.42429636  1
  Ca2+  Ca104  1  0.91989925  0.40995223  0.74968979  1
  Ca2+  Ca105  1  0.57927335  0.91384375  0.06835279  1
  Ca2+  Ca106  1  0.57847051  0.41107741  0.41441289  1
  Ca2+  Ca107  1  0.42505750  0.41254374  0.92212227  1
  Mn3.34+  Mn108  1  0.08708441  0.33129545  0.08484535  1
  Mn3.34+  Mn109  1  0.08562530  0.33255974  0.41971152  1
  Mn3.34+  Mn110  1  0.09049285  0.33410568  0.75284446  1
  Mn3.34+  Mn111  1  0.08568813  0.83686391  0.07259187  1
  Mn3.34+  Mn112  1  0.08836512  0.83448718  0.41576771  1
  Mn3.34+  Mn113  1  0.08920277  0.83099047  0.76097728  1
  Mn3.34+  Mn114  1  0.41914876  0.32898748  0.08459935  1
  Mn3.34+  Mn115  1  0.41618317  0.32525978  0.41761533  1
  Mn3.34+  Mn116  1  0.41630485  0.33239337  0.75147493  1
  Mn3.34+  Mn117  1  0.40868342  0.83679764  0.08703271  1
  Mn3.34+  Mn118  1  0.41192692  0.83066524  0.41435350  1
  Mn3.34+  Mn119  1  0.41348322  0.82973398  0.75366183  1
  Mn3.34+  Mn120  1  0.74219364  0.33413205  0.08197275  1
  Mn3.34+  Mn121  1  0.74712449  0.33184747  0.41797076  1
  Mn3.34+  Mn122  1  0.74660945  0.33277590  0.75444999  1
  Mn3.34+  Mn123  1  0.75511543  0.83736583  0.07862078  1
  Mn3.34+  Mn124  1  0.74755756  0.83337316  0.41712160  1
  Mn3.34+  Mn125  1  0.75255631  0.82570207  0.75653581  1
  Mn3.34+  Mn126  1  0.25200068  0.32922186  0.24309453  1
  Mn3.34+  Mn127  1  0.25164248  0.33184115  0.58648450  1
  Mn3.34+  Mn128  1  0.25176284  0.33712297  0.91103662  1
  Mn3.34+  Mn129  1  0.25700067  0.83912855  0.24773863  1
  Mn3.34+  Mn130  1  0.25487553  0.83665881  0.58431737  1
  Mn3.34+  Mn131  1  0.24782418  0.84314659  0.91750178  1
  Mn3.34+  Mn132  1  0.58168160  0.33342467  0.24696693  1
  Mn3.34+  Mn133  1  0.58781994  0.33761690  0.58128828  1
  Mn3.34+  Mn134  1  0.58170521  0.33759728  0.91530232  1
  Mn3.34+  Mn135  1  0.57911801  0.83589328  0.24316779  1
  Mn3.34+  Mn136  1  0.58169361  0.82750077  0.58298923  1
  Mn3.34+  Mn137  1  0.58466813  0.83300724  0.91397756  1
  Mn3.34+  Mn138  1  0.91618926  0.32507696  0.24653357  1
  Mn3.34+  Mn139  1  0.91607793  0.32806853  0.58605358  1
  Mn3.34+  Mn140  1  0.91844776  0.33206945  0.91679880  1
  Mn3.34+  Mn141  1  0.91391316  0.83688859  0.24365016  1
  Mn3.34+  Mn142  1  0.91669994  0.82827631  0.58117053  1
  Mn3.34+  Mn143  1  0.91589347  0.84477521  0.92154949  1
  Mn3.34+  Mn144  1  0.58883157  0.16390391  0.58031888  1
  Mn3.34+  Mn145  1  0.91394346  0.67834003  0.58801040  1
  Mn3.34+  Mn146  1  0.91902796  0.67210646  0.24802004  1
  Mn3.34+  Mn147  1  0.74175296  0.66601908  0.07989959  1
  Mn3.34+  Mn148  1  0.07524948  0.16149462  0.76010738  1
  Mn3.34+  Mn149  1  0.75013690  0.66824575  0.41434222  1
  Mn3.34+  Mn150  1  0.08601079  0.67030568  0.75382948  1
  Mn3.34+  Mn151  1  0.91959960  0.17279015  0.58646944  1
  Mn3.34+  Mn152  1  0.58162371  0.66632279  0.90915683  1
  Mn3.34+  Mn153  1  0.41271589  0.67308270  0.08537956  1
  Mn3.34+  Mn154  1  0.92209531  0.67177483  0.58658512  1
  Mn3.34+  Mn155  1  0.24189295  0.66234938  0.58117613  1
  Mn3.34+  Mn156  1  0.90878488  0.16838954  0.58632396  1
  Mn3.34+  Mn157  1  0.73775788  0.66142836  0.41794942  1
  Mn3.34+  Mn158  1  0.75599090  0.16029889  0.74865404  1
  Mn3.34+  Mn159  1  0.91374470  0.16288417  0.91650336  1
  Mn3.34+  Mn160  1  0.75743577  0.16186502  0.42220302  1
  Mn3.34+  Mn161  1  0.08465064  0.16773890  0.75795679  1
  Mn3.34+  Mn162  1  0.75262363  0.66180343  0.08013939  1
  Mn3.34+  Mn163  1  0.07982999  0.16194870  0.08379697  1
  Mn3.34+  Mn164  1  0.25187594  0.66438933  0.91363407  1
  Mn3.34+  Mn165  1  0.08227531  0.16950950  0.41291245  1
  Mn3.34+  Mn166  1  0.58303050  0.17024400  0.91380553  1
  Mn3.34+  Mn167  1  0.57293312  0.66055859  0.24508657  1
  Mn3.34+  Mn168  1  0.41679413  0.16406924  0.41152120  1
  Mn3.34+  Mn169  1  0.90538056  0.66608124  0.24735842  1
  Mn3.34+  Mn170  1  0.58217952  0.16589472  0.24685974  1
  Mn3.34+  Mn171  1  0.59435567  0.16636543  0.91212754  1
  Mn3.34+  Mn172  1  0.75160119  0.16796379  0.08607801  1
  Mn3.34+  Mn173  1  0.58336942  0.66511991  0.24644362  1
  Mn3.34+  Mn174  1  0.74601388  0.67494769  0.75525811  1
  Mn3.34+  Mn175  1  0.74356538  0.16737526  0.42055521  1
  Mn3.34+  Mn176  1  0.41462876  0.67045843  0.74863266  1
  Mn3.34+  Mn177  1  0.25652439  0.66753265  0.58409332  1
  Mn3.34+  Mn178  1  0.57503708  0.16999885  0.58131071  1
  Mn3.34+  Mn179  1  0.09012248  0.16557857  0.08094000  1
  Mn3.34+  Mn180  1  0.23438233  0.50481950  0.58228467  1
  Mn3.34+  Mn181  1  0.09016889  0.49905410  0.07757364  1
  Mn3.34+  Mn182  1  0.26264946  -0.00316232  0.26093726  1
  Mn3.34+  Mn183  1  0.90355010  0.50436753  0.25084342  1
  Mn3.34+  Mn184  1  0.42432062  0.50497115  0.74520574  1
  Mn3.34+  Mn185  1  0.59666301  0.00547097  0.58663804  1
  Mn3.34+  Mn186  1  0.90263004  0.00621322  0.58200377  1
  Mn3.34+  Mn187  1  0.74662684  0.50367506  0.74846144  1
  Mn3.34+  Mn188  1  0.57920373  -0.00245509  0.26111926  1
  Mn3.34+  Mn189  1  0.08436274  0.50127553  0.75818962  1
  Mn3.34+  Mn190  1  0.39941124  -0.00998355  0.75150301  1
  Mn3.34+  Mn191  1  0.58217650  0.50546039  0.25883375  1
  Mn3.34+  Mn192  1  0.40910056  0.50312577  0.09220369  1
  Mn3.34+  Mn193  1  0.93059712  0.00054960  0.93182706  1
  Mn3.34+  Mn194  1  0.75157228  -0.00569157  0.75448746  1
  Mn3.34+  Mn195  1  0.08995754  -0.00214809  0.75269541  1
  Mn3.34+  Mn196  1  0.73974767  0.50008696  0.42919669  1
  Mn3.34+  Mn197  1  0.07410502  -0.00104594  0.40793161  1
  Mn3.34+  Mn198  1  0.58262911  -0.00083307  0.58564583  1
  Mn3.34+  Mn199  1  0.75737207  -0.00146030  0.41514976  1
  Mn3.34+  Mn200  1  0.75297113  -0.00214172  0.08269603  1
  Mn3.34+  Mn201  1  0.91614387  0.50298362  0.59433089  1
  Mn3.34+  Mn202  1  0.91605303  0.49843790  0.24928023  1
  Mn3.34+  Mn203  1  0.91385872  0.49803675  0.92443318  1
  Mn3.34+  Mn204  1  0.74303167  0.49792166  0.08033586  1
  Mn3.34+  Mn205  1  0.56921986  0.49909142  0.25704274  1
  Mn3.34+  Mn206  1  0.41044251  0.49896720  0.74754411  1
  Mn3.34+  Mn207  1  0.91658627  -0.00004606  0.58284041  1
  Mn3.34+  Mn208  1  0.42006887  0.49830540  0.09203752  1
  Mn3.34+  Mn209  1  0.24874576  0.49989737  0.58407750  1
  Mn3.34+  Mn210  1  0.25477809  0.49669780  0.25808624  1
  Mn3.34+  Mn211  1  0.09201171  0.49715525  0.41950333  1
  Mn3.34+  Mn212  1  0.41123352  -0.00566522  0.75389572  1
  Mn3.34+  Mn213  1  0.08728000  0.00524142  0.40997312  1
  Mn3.34+  Mn214  1  0.91534032  -0.00208843  0.24380882  1
  Mn3.34+  Mn215  1  0.24448536  -0.00545215  0.94267483  1
  O2-  O216  1  0.00075916  0.15146988  0.00271702  1
  O2-  O217  1  0.00521034  0.17368184  0.32972442  1
  O2-  O218  1  0.00170410  0.14983144  0.66989400  1
  O2-  O219  1  0.00181924  0.67831890  -0.00766237  1
  O2-  O220  1  -0.00024856  0.65309985  0.32736328  1
  O2-  O221  1  -0.00658842  0.65412878  0.67710663  1
  O2-  O222  1  0.33032059  0.16547463  -0.00247114  1
  O2-  O223  1  0.34519158  0.18986520  0.33580404  1
  O2-  O224  1  0.32951420  0.15283535  0.66455694  1
  O2-  O225  1  0.33739101  0.66120148  -0.00538757  1
  O2-  O226  1  0.32227736  0.67076058  0.33481997  1
  O2-  O227  1  0.32607004  0.64421700  0.67050030  1
  O2-  O228  1  0.66395430  0.14760098  0.00339454  1
  O2-  O229  1  0.66810676  0.14324355  0.33169823  1
  O2-  O230  1  0.65831639  0.16064618  0.67333728  1
  O2-  O231  1  0.66511623  0.65058056  -0.00668462  1
  O2-  O232  1  0.66569999  0.64452858  0.32362183  1
  O2-  O233  1  0.66818029  0.67831864  0.67261812  1
  O2-  O234  1  0.16835003  0.16464137  0.00487516  1
  O2-  O235  1  0.16389002  0.16382491  0.33703854  1
  O2-  O236  1  0.16550418  0.15334925  0.67335664  1
  O2-  O237  1  0.17455037  0.66884156  -0.00838551  1
  O2-  O238  1  0.17944249  0.66492214  0.33121733  1
  O2-  O239  1  0.16572600  0.65170430  0.66577259  1
  O2-  O240  1  0.49981002  0.14679219  -0.00855374  1
  O2-  O241  1  0.49929851  0.15875601  0.32727181  1
  O2-  O242  1  0.49306228  0.14099799  0.65041356  1
  O2-  O243  1  0.49940472  0.65270796  -0.00578580  1
  O2-  O244  1  0.49626038  0.66382999  0.32593262  1
  O2-  O245  1  0.49555887  0.66049381  0.67466920  1
  O2-  O246  1  0.83007378  0.14901653  0.00075444  1
  O2-  O247  1  0.83005868  0.16628587  0.33106432  1
  O2-  O248  1  0.83320845  0.19973130  0.66841252  1
  O2-  O249  1  0.83865672  0.66978422  0.00846239  1
  O2-  O250  1  0.84411600  0.64608552  0.34711159  1
  O2-  O251  1  0.83152201  0.67322226  0.66925666  1
  O2-  O252  1  0.00330164  0.35406038  -0.00280905  1
  O2-  O253  1  -0.00288856  0.34036690  0.33428850  1
  O2-  O254  1  -0.00461569  0.34662652  0.67250100  1
  O2-  O255  1  0.00026912  0.82577272  -0.00403813  1
  O2-  O256  1  0.00139650  0.85036221  0.33744398  1
  O2-  O257  1  0.00191288  0.84230692  0.65902477  1
  O2-  O258  1  0.33505655  0.33707320  -0.00228413  1
  O2-  O259  1  0.33437617  0.33594523  0.33019650  1
  O2-  O260  1  0.34360420  0.35243992  0.65689773  1
  O2-  O261  1  0.33673121  0.83624299  -0.00659311  1
  O2-  O262  1  0.32880533  0.84678485  0.33902279  1
  O2-  O263  1  0.33586573  0.84737059  0.66677494  1
  O2-  O264  1  0.66846614  0.34667142  -0.00750046  1
  O2-  O265  1  0.66174918  0.34817482  0.33367698  1
  O2-  O266  1  0.66754598  0.33526285  0.67143730  1
  O2-  O267  1  0.65977097  0.84481276  0.00261373  1
  O2-  O268  1  0.65967134  0.85219782  0.33781361  1
  O2-  O269  1  0.66709442  0.82078554  0.66778037  1
  O2-  O270  1  0.16996164  0.33866884  -0.00224444  1
  O2-  O271  1  0.17344011  0.34589014  0.33268400  1
  O2-  O272  1  0.16258639  0.34687429  0.66030969  1
  O2-  O273  1  0.17270756  0.82103807  -0.00110861  1
  O2-  O274  1  0.16590733  0.86160466  0.33395018  1
  O2-  O275  1  0.17001993  0.83958775  0.66821189  1
  O2-  O276  1  0.49667588  0.35158172  -0.00128916  1
  O2-  O277  1  0.50156995  0.33766567  0.33882445  1
  O2-  O278  1  0.50433736  0.35308674  0.67242188  1
  O2-  O279  1  0.50174277  0.84129913  -0.00442095  1
  O2-  O280  1  0.50047056  0.83984640  0.33510994  1
  O2-  O281  1  0.50229226  0.83970950  0.66660633  1
  O2-  O282  1  0.83328936  0.34883533  -0.00122096  1
  O2-  O283  1  0.83452847  0.33454442  0.33173649  1
  O2-  O284  1  0.83646164  0.32715167  0.67382481  1
  O2-  O285  1  0.83583285  0.81761447  -0.00398856  1
  O2-  O286  1  0.83215226  0.84482873  0.33382851  1
  O2-  O287  1  0.83620298  0.81617608  0.66797152  1
  O2-  O288  1  0.00202432  0.17768608  0.16088291  1
  O2-  O289  1  0.00005476  0.18954386  0.50355137  1
  O2-  O290  1  -0.00148066  0.18228722  0.83947426  1
  O2-  O291  1  -0.00630095  0.67504049  0.16497666  1
  O2-  O292  1  -0.00530323  0.68344653  0.49732642  1
  O2-  O293  1  0.00399693  0.68093016  0.83115628  1
  O2-  O294  1  0.32622233  0.17499162  0.17206128  1
  O2-  O295  1  0.34719119  0.17923145  0.49725168  1
  O2-  O296  1  0.33342496  0.17006366  0.84091790  1
  O2-  O297  1  0.32964654  0.68077745  0.15424070  1
  O2-  O298  1  0.33823933  0.67284284  0.50945189  1
  O2-  O299  1  0.33471880  0.68347803  0.83576526  1
  O2-  O300  1  0.67229332  0.17061648  0.17116282  1
  O2-  O301  1  0.67096760  0.18516444  0.50583122  1
  O2-  O302  1  0.66808467  0.19368811  0.83065894  1
  O2-  O303  1  0.66222347  0.67411469  0.16320542  1
  O2-  O304  1  0.66741787  0.68137459  0.50053351  1
  O2-  O305  1  0.66024564  0.68323538  0.82982283  1
  O2-  O306  1  0.16240538  0.18118016  0.16475427  1
  O2-  O307  1  0.15798649  0.17406538  0.50573495  1
  O2-  O308  1  0.17324524  0.18435453  0.82953956  1
  O2-  O309  1  0.16631142  0.67750545  0.16648399  1
  O2-  O310  1  0.17413772  0.68585382  0.50014007  1
  O2-  O311  1  0.17237628  0.68124613  0.82986266  1
  O2-  O312  1  0.51049434  0.17296980  0.16323374  1
  O2-  O313  1  0.51010245  0.18668204  0.48665411  1
  O2-  O314  1  0.50543655  0.17593961  0.83022513  1
  O2-  O315  1  0.50286445  0.68186451  0.15959448  1
  O2-  O316  1  0.50982093  0.69243736  0.51841055  1
  O2-  O317  1  0.49241222  0.68377504  0.83533486  1
  O2-  O318  1  0.82764293  0.18150415  0.16681830  1
  O2-  O319  1  0.83313893  0.19417624  0.50208394  1
  O2-  O320  1  0.82802102  0.18334444  0.84068068  1
  O2-  O321  1  0.82304835  0.68452009  0.17291468  1
  O2-  O322  1  0.83168067  0.69015458  0.50441160  1
  O2-  O323  1  0.83676420  0.68779704  0.82603796  1
  O2-  O324  1  -0.00544380  0.32105805  0.16143157  1
  O2-  O325  1  0.00082463  0.31800371  0.50586902  1
  O2-  O326  1  -0.00190903  0.32246735  0.83305011  1
  O2-  O327  1  0.00763859  0.82340037  0.17605688  1
  O2-  O328  1  0.00109248  0.82022294  0.50026823  1
  O2-  O329  1  -0.00183318  0.82424277  0.83307080  1
  O2-  O330  1  0.33132762  0.31257573  0.16296535  1
  O2-  O331  1  0.32770437  0.31286387  0.49361441  1
  O2-  O332  1  0.33619093  0.31498136  0.83758727  1
  O2-  O333  1  0.33508513  0.81999126  0.16802123  1
  O2-  O334  1  0.33522484  0.82797195  0.50379588  1
  O2-  O335  1  0.33505623  0.81701592  0.83686509  1
  O2-  O336  1  0.66850963  0.32167705  0.17015598  1
  O2-  O337  1  0.66118212  0.32171177  0.49433136  1
  O2-  O338  1  0.66291770  0.31890954  0.83355488  1
  O2-  O339  1  0.66071077  0.82840985  0.16248454  1
  O2-  O340  1  0.66641166  0.81515277  0.50319939  1
  O2-  O341  1  0.66501344  0.81494526  0.83024184  1
  O2-  O342  1  0.16123472  0.31620923  0.17393081  1
  O2-  O343  1  0.17170728  0.33327511  0.49827155  1
  O2-  O344  1  0.16864799  0.31383628  0.83693264  1
  O2-  O345  1  0.16442271  0.82962418  0.17267619  1
  O2-  O346  1  0.16345483  0.82642733  0.50770401  1
  O2-  O347  1  0.16750482  0.81346324  0.83945390  1
  O2-  O348  1  0.49323603  0.32077309  0.17441350  1
  O2-  O349  1  0.49064074  0.31881341  0.50598943  1
  O2-  O350  1  0.49355521  0.31889491  0.84003934  1
  O2-  O351  1  0.50653292  0.82763503  0.15513528  1
  O2-  O352  1  0.50240441  0.82244096  0.49752114  1
  O2-  O353  1  0.50311576  0.81547268  0.82913849  1
  O2-  O354  1  0.83425200  0.31600247  0.16349653  1
  O2-  O355  1  0.84233531  0.31433924  0.49542925  1
  O2-  O356  1  0.83477819  0.31905609  0.83222099  1
  O2-  O357  1  0.83763403  0.82180733  0.16051135  1
  O2-  O358  1  0.83426193  0.81387989  0.50039927  1
  O2-  O359  1  0.83763243  0.81666427  0.83415475  1
  O2-  O360  1  0.08492056  0.08412507  0.11711982  1
  O2-  O361  1  0.07069165  0.08409089  0.44756361  1
  O2-  O362  1  0.10758150  0.07949366  0.78346810  1
  O2-  O363  1  0.08347186  0.57513763  0.10332653  1
  O2-  O364  1  0.08474953  0.57668536  0.44025553  1
  O2-  O365  1  0.08041123  0.58429306  0.78776588  1
  O2-  O366  1  0.41489150  0.07446871  0.11311539  1
  O2-  O367  1  0.42868112  0.08365355  0.44317067  1
  O2-  O368  1  0.41927347  0.07199928  0.79841310  1
  O2-  O369  1  0.41684337  0.58649530  0.09586222  1
  O2-  O370  1  0.39123752  0.56851453  0.44443819  1
  O2-  O371  1  0.41213872  0.58442141  0.78415393  1
  O2-  O372  1  0.76478822  0.07947962  0.11432337  1
  O2-  O373  1  0.75219436  0.08228459  0.45217363  1
  O2-  O374  1  0.74122662  0.07516523  0.78814455  1
  O2-  O375  1  0.74981782  0.57999309  0.10454035  1
  O2-  O376  1  0.75998843  0.58419820  0.46065572  1
  O2-  O377  1  0.76959771  0.58474188  0.76814829  1
  O2-  O378  1  0.25133031  0.06566577  0.21540298  1
  O2-  O379  1  0.24758183  0.06835003  0.53861135  1
  O2-  O380  1  0.26136119  0.05518018  0.87171327  1
  O2-  O381  1  0.24112923  0.56859038  0.22162341  1
  O2-  O382  1  0.24076768  0.58264519  0.54025875  1
  O2-  O383  1  0.26868319  0.58230558  0.89330531  1
  O2-  O384  1  0.58586616  0.07669194  0.22340306  1
  O2-  O385  1  0.58597352  0.08144183  0.53601375  1
  O2-  O386  1  0.60680327  0.08287442  0.88441448  1
  O2-  O387  1  0.58250383  0.57643589  0.19927867  1
  O2-  O388  1  0.58572705  0.57070242  0.57406930  1
  O2-  O389  1  0.55871711  0.58484996  0.88109400  1
  O2-  O390  1  0.90451486  0.07493206  0.21068398  1
  O2-  O391  1  0.92039942  0.08465036  0.55346469  1
  O2-  O392  1  0.89966193  0.07507425  0.88604510  1
  O2-  O393  1  0.91118246  0.58207885  0.21359362  1
  O2-  O394  1  0.91011740  0.58462011  0.55302559  1
  O2-  O395  1  0.93626654  0.57881481  0.90951013  1
  O2-  O396  1  0.07837903  0.42207432  0.12020382  1
  O2-  O397  1  0.06303258  0.41679988  0.44480952  1
  O2-  O398  1  0.07055697  0.41995020  0.78893891  1
  O2-  O399  1  0.08043280  0.91725181  0.09773223  1
  O2-  O400  1  0.07310553  0.92390373  0.46194239  1
  O2-  O401  1  0.07392142  0.91546025  0.75009280  1
  O2-  O402  1  0.40428866  0.41559434  0.11422258  1
  O2-  O403  1  0.39756749  0.41503901  0.44934331  1
  O2-  O404  1  0.41784686  0.41970715  0.78756553  1
  O2-  O405  1  0.42997558  0.91608508  0.08494505  1
  O2-  O406  1  0.42814768  0.91749059  0.44911025  1
  O2-  O407  1  0.43273430  0.91172216  0.78086980  1
  O2-  O408  1  0.76857604  0.42032209  0.11893408  1
  O2-  O409  1  0.77027547  0.41499973  0.44092196  1
  O2-  O410  1  0.75680498  0.42277974  0.78339819  1
  O2-  O411  1  0.72682874  0.92077891  0.09838823  1
  O2-  O412  1  0.75262304  0.91755008  0.45617486  1
  O2-  O413  1  0.74905356  0.91234293  0.75017040  1
  O2-  O414  1  0.25691019  0.42121649  0.21423377  1
  O2-  O415  1  0.25933611  0.42031371  0.54599148  1
  O2-  O416  1  0.26983457  0.41536065  0.89892882  1
  O2-  O417  1  0.23493193  0.92578101  0.22201240  1
  O2-  O418  1  0.24277455  0.91757245  0.55780585  1
  O2-  O419  1  0.26359018  0.92998973  0.88718740  1
  O2-  O420  1  0.58405938  0.41994123  0.21559886  1
  O2-  O421  1  0.57351749  0.41760408  0.54885566  1
  O2-  O422  1  0.57084805  0.41637612  0.88099814  1
  O2-  O423  1  0.57644625  0.92206544  0.21924787  1
  O2-  O424  1  0.59513440  0.91864895  0.55160445  1
  O2-  O425  1  0.57482127  0.91465369  0.89837991  1
  O2-  O426  1  0.90908320  0.41803127  0.21984606  1
  O2-  O427  1  0.92516570  0.42056184  0.55504459  1
  O2-  O428  1  0.90933721  0.41921460  0.88400802  1
  O2-  O429  1  0.94117557  0.91855930  0.23254185  1
  O2-  O430  1  0.90198072  0.91905586  0.55584012  1
  O2-  O431  1  0.91452967  0.93155047  0.88059176  1
  O2-  O432  1  -0.00409182  0.01478880  0.00852970  1
  O2-  O433  1  0.00918306  0.01211230  0.31312549  1
  O2-  O434  1  -0.00669772  -0.00157127  0.66974400  1
  O2-  O435  1  -0.00272452  0.48685976  0.01145882  1
  O2-  O436  1  0.00285160  0.50045935  0.33275746  1
  O2-  O437  1  -0.00446806  0.48720022  0.68422120  1
  O2-  O438  1  0.34202213  0.00943966  -0.01432322  1
  O2-  O439  1  0.33648348  -0.00129644  0.33238842  1
  O2-  O440  1  0.33627558  0.01592938  0.66056389  1
  O2-  O441  1  0.33498801  0.49460758  0.00311109  1
  O2-  O442  1  0.32230134  0.48687524  0.34104543  1
  O2-  O443  1  0.32685011  0.50710362  0.66718377  1
  O2-  O444  1  0.66521620  0.02094896  0.02128574  1
  O2-  O445  1  0.66203398  0.00636262  0.34172057  1
  O2-  O446  1  0.65635330  0.00235388  0.68497366  1
  O2-  O447  1  0.66822914  0.49623300  0.00359871  1
  O2-  O448  1  0.67032775  0.48555437  0.33190342  1
  O2-  O449  1  0.64732329  0.50920572  0.70214045  1
  O2-  O450  1  0.17682293  0.01391701  0.01169281  1
  O2-  O451  1  0.16936140  0.00108650  0.32667400  1
  O2-  O452  1  0.14710117  0.00426060  0.64600261  1
  O2-  O453  1  0.16367540  0.48784958  0.00258100  1
  O2-  O454  1  0.16792254  0.47778492  0.33099713  1
  O2-  O455  1  0.16099149  0.49802786  0.66966286  1
  O2-  O456  1  0.51247927  0.00145179  0.01438546  1
  O2-  O457  1  0.51033427  -0.00825310  0.34668447  1
  O2-  O458  1  0.50028964  0.00634572  0.67117604  1
  O2-  O459  1  0.48869460  0.50151105  -0.00933448  1
  O2-  O460  1  0.49633596  0.47685205  0.33595680  1
  O2-  O461  1  0.48699658  0.48291281  0.65426101  1
  O2-  O462  1  0.83022668  0.00861337  -0.00750245  1
  O2-  O463  1  0.82795762  0.00809036  0.31840132  1
  O2-  O464  1  0.82612442  -0.00464782  0.66530172  1
  O2-  O465  1  0.84047587  0.48820319  0.01653030  1
  O2-  O466  1  0.85008452  0.50253540  0.35979719  1
  O2-  O467  1  0.84402905  0.49330945  0.69143285  1
  O2-  O468  1  0.57884425  0.25063213  0.94892527  1
  O2-  O469  1  0.25499830  0.74923909  0.60936685  1
  O2-  O470  1  0.41907059  0.25545324  0.72579876  1
  O2-  O471  1  0.07019337  0.24570067  0.05616847  1
  O2-  O472  1  0.59415690  0.24806023  0.26920968  1
  O2-  O473  1  0.74259178  0.74700642  0.38182203  1
  O2-  O474  1  0.59521639  0.75096467  0.26662831  1
  O2-  O475  1  0.90782057  0.75360723  0.27643576  1
  O2-  O476  1  0.58274088  0.25248416  0.60757902  1
  O2-  O477  1  0.58493653  0.74811204  0.94003255  1
  O2-  O478  1  0.08262650  0.74944831  0.72113673  1
  O2-  O479  1  0.42949127  0.25252097  0.06232213  1
  O2-  O480  1  0.73394096  0.24736530  0.38960405  1
  O2-  O481  1  0.07068439  0.24878795  0.72088334  1
  O2-  O482  1  0.73080762  0.74850935  0.06931739  1
  O2-  O483  1  0.74190826  0.24794756  0.05684911  1
  O2-  O484  1  0.91879879  0.25041045  0.94496438  1
  O2-  O485  1  0.08586410  0.75403044  0.08245018  1
  O2-  O486  1  0.08874293  0.75811843  0.38979285  1
  O2-  O487  1  0.24626646  0.76090542  0.26468452  1
  O2-  O488  1  0.40770452  0.75218767  0.40285052  1
  O2-  O489  1  0.42505268  0.75169543  0.06086525  1
  O2-  O490  1  0.09497985  0.25324920  0.40095208  1
  O2-  O491  1  0.40656290  0.75003878  0.71949209  1
  O2-  O492  1  0.24867987  0.25448008  0.61002634  1
