# generated using pymatgen
data_Ca108Mn108O277
_symmetry_space_group_name_H-M   'P 1'
_cell_length_a   16.02754390
_cell_length_b   22.30311804
_cell_length_c   16.38689012
_cell_angle_alpha   90.00425389
_cell_angle_beta   89.99728778
_cell_angle_gamma   89.99537527
_symmetry_Int_Tables_number   1
_chemical_formula_structural   Ca108Mn108O277
_chemical_formula_sum   'Ca108 Mn108 O277'
_cell_volume   5857.72658588
_cell_formula_units_Z   1
loop_
 _symmetry_equiv_pos_site_id
 _symmetry_equiv_pos_as_xyz
  1  'x, y, z'
loop_
 _atom_type_symbol
 _atom_type_oxidation_number
  Ca2+  2.0
  Mn3.34+  3.34
  O2-  -2.0
loop_
 _atom_site_type_symbol
 _atom_site_label
 _atom_site_symmetry_multiplicity
 _atom_site_fract_x
 _atom_site_fract_y
 _atom_site_fract_z
 _atom_site_occupancy
  Ca2+  Ca0  1  0.08456382  0.24512399  0.24011462  1
  Ca2+  Ca1  1  0.09539946  0.24628081  0.58023810  1
  Ca2+  Ca2  1  0.09467220  0.24875224  0.92901637  1
  Ca2+  Ca3  1  0.08636547  0.75202121  0.23917447  1
  Ca2+  Ca4  1  0.06799984  0.76363860  0.58277825  1
  Ca2+  Ca5  1  0.09691074  0.76150306  0.92013713  1
  Ca2+  Ca6  1  0.43048728  0.24052679  0.23841887  1
  Ca2+  Ca7  1  0.41451049  0.24899235  0.59284272  1
  Ca2+  Ca8  1  0.42098973  0.23023274  0.91242294  1
  Ca2+  Ca9  1  0.42392890  0.75734020  0.24734721  1
  Ca2+  Ca10  1  0.43442876  0.75403385  0.58213538  1
  Ca2+  Ca11  1  0.40377430  0.74691373  0.92035047  1
  Ca2+  Ca12  1  0.73424255  0.22972569  0.24853289  1
  Ca2+  Ca13  1  0.74808210  0.23848052  0.59867575  1
  Ca2+  Ca14  1  0.74759985  0.23654155  0.89768810  1
  Ca2+  Ca15  1  0.73568561  0.75583836  0.24991665  1
  Ca2+  Ca16  1  0.74668652  0.76546324  0.58633568  1
  Ca2+  Ca17  1  0.74175993  0.75992420  0.91836441  1
  Ca2+  Ca18  1  0.25200755  0.24158831  0.07943427  1
  Ca2+  Ca19  1  0.24136077  0.23958022  0.41683684  1
  Ca2+  Ca20  1  0.27944243  0.22946523  0.74976199  1
  Ca2+  Ca21  1  0.25574603  0.75494246  0.06936614  1
  Ca2+  Ca22  1  0.26375861  0.76573267  0.41112158  1
  Ca2+  Ca23  1  0.25209118  0.75417148  0.77394707  1
  Ca2+  Ca24  1  0.57316084  0.24368836  0.08691232  1
  Ca2+  Ca25  1  0.58974026  0.23209240  0.39273411  1
  Ca2+  Ca26  1  0.58258086  0.23868940  0.76042917  1
  Ca2+  Ca27  1  0.57228986  0.75514087  0.07897591  1
  Ca2+  Ca28  1  0.57363883  0.75798932  0.41577636  1
  Ca2+  Ca29  1  0.58385708  0.76398845  0.74417358  1
  Ca2+  Ca30  1  0.92828595  0.24655406  0.07923791  1
  Ca2+  Ca31  1  0.91576007  0.23837612  0.40957003  1
  Ca2+  Ca32  1  0.90017753  0.24051387  0.76462692  1
  Ca2+  Ca33  1  0.92560653  0.75958429  0.07365203  1
  Ca2+  Ca34  1  0.91899160  0.76052605  0.42650804  1
  Ca2+  Ca35  1  0.91016104  0.77200328  0.74746957  1
  Ca2+  Ca36  1  0.91183525  0.08013005  0.74702881  1
  Ca2+  Ca37  1  0.93314240  0.59146077  0.75791773  1
  Ca2+  Ca38  1  0.42017905  0.59775611  0.24389147  1
  Ca2+  Ca39  1  0.25794778  0.09011618  0.41062526  1
  Ca2+  Ca40  1  0.08173855  0.09191578  0.24841480  1
  Ca2+  Ca41  1  0.91865876  0.59417688  0.06866560  1
  Ca2+  Ca42  1  0.09572929  0.58265513  0.59769547  1
  Ca2+  Ca43  1  0.26366794  0.59255447  0.40375866  1
  Ca2+  Ca44  1  0.08329281  0.58401077  0.59880533  1
  Ca2+  Ca45  1  0.08146963  0.08718556  0.58670073  1
  Ca2+  Ca46  1  0.26188801  0.60238087  0.78066412  1
  Ca2+  Ca47  1  0.90237534  0.60578041  0.41797923  1
  Ca2+  Ca48  1  0.91327443  0.08669642  0.41033861  1
  Ca2+  Ca49  1  0.38950948  0.10359299  0.61260504  1
  Ca2+  Ca50  1  0.91575290  0.09243113  0.08036002  1
  Ca2+  Ca51  1  0.74579150  0.09337567  0.91504696  1
  Ca2+  Ca52  1  0.90338405  0.08340003  0.74277710  1
  Ca2+  Ca53  1  0.55590164  0.59049737  0.73054777  1
  Ca2+  Ca54  1  0.92920515  0.58897482  0.07122164  1
  Ca2+  Ca55  1  0.72340862  0.60057959  0.24932639  1
  Ca2+  Ca56  1  0.58739524  0.10146529  0.08920666  1
  Ca2+  Ca57  1  0.73581068  0.59892505  0.25121218  1
  Ca2+  Ca58  1  0.07025791  0.08828538  0.58625471  1
  Ca2+  Ca59  1  0.72992030  0.59957283  0.57318264  1
  Ca2+  Ca60  1  0.57254355  0.59738768  0.07893966  1
  Ca2+  Ca61  1  0.25099079  0.08787657  0.07393285  1
  Ca2+  Ca62  1  0.92042573  0.59151086  0.75936443  1
  Ca2+  Ca63  1  0.58006593  0.09765991  0.76021726  1
  Ca2+  Ca64  1  0.39188134  0.09836174  0.60574351  1
  Ca2+  Ca65  1  0.42846258  0.09882006  0.25212347  1
  Ca2+  Ca66  1  0.09463824  0.58921181  0.91917399  1
  Ca2+  Ca67  1  0.27346262  0.60126290  0.78332197  1
  Ca2+  Ca68  1  0.26286091  0.59256010  0.06224451  1
  Ca2+  Ca69  1  0.76314111  0.08607547  0.58985620  1
  Ca2+  Ca70  1  0.08411700  0.58937687  0.91928096  1
  Ca2+  Ca71  1  0.25739634  0.58628278  0.06429641  1
  Ca2+  Ca72  1  0.92113079  0.40416898  0.76402508  1
  Ca2+  Ca73  1  0.43628511  0.40829624  0.24327196  1
  Ca2+  Ca74  1  0.75294182  0.90475042  0.25972978  1
  Ca2+  Ca75  1  0.73396049  0.39795105  0.24252477  1
  Ca2+  Ca76  1  0.24822260  0.90472402  0.75632624  1
  Ca2+  Ca77  1  0.93379483  0.40278482  0.76461078  1
  Ca2+  Ca78  1  0.73356054  0.40602688  0.58102728  1
  Ca2+  Ca79  1  0.25214350  0.40429640  0.76488156  1
  Ca2+  Ca80  1  0.24267940  0.41624115  0.06118629  1
  Ca2+  Ca81  1  0.08765956  0.39756812  0.24119463  1
  Ca2+  Ca82  1  0.74625264  0.40546535  0.58245839  1
  Ca2+  Ca83  1  0.57396520  0.39974899  0.41374720  1
  Ca2+  Ca84  1  0.04551527  0.93364883  0.61622095  1
  Ca2+  Ca85  1  0.92378110  0.39753117  0.42606578  1
  Ca2+  Ca86  1  0.40809096  0.40675122  0.91899738  1
  Ca2+  Ca87  1  0.07934218  0.91024549  0.25349595  1
  Ca2+  Ca88  1  0.09200659  0.91010686  0.25330336  1
  Ca2+  Ca89  1  0.58454181  0.90671764  0.07534651  1
  Ca2+  Ca90  1  0.58001296  0.40711949  0.75008011  1
  Ca2+  Ca91  1  0.43151788  0.90553366  0.57439373  1
  Ca2+  Ca92  1  0.42641746  0.40490100  0.24583819  1
  Ca2+  Ca93  1  0.23180721  0.41702679  0.06155102  1
  Ca2+  Ca94  1  0.91550498  0.91133606  0.42625037  1
  Ca2+  Ca95  1  0.92168632  0.40980665  0.06312739  1
  Ca2+  Ca96  1  0.40651807  0.41905807  0.59849119  1
  Ca2+  Ca97  1  0.25652795  0.40332095  0.41622460  1
  Ca2+  Ca98  1  0.58145108  0.40524792  0.08082870  1
  Ca2+  Ca99  1  0.25585116  0.91311296  0.07376743  1
  Ca2+  Ca100  1  0.75417554  0.39900699  0.92178754  1
  Ca2+  Ca101  1  0.10741175  0.40948204  0.60022358  1
  Ca2+  Ca102  1  0.74823408  0.90697183  0.91816532  1
  Ca2+  Ca103  1  0.39485193  0.42237376  0.59437852  1
  Ca2+  Ca104  1  0.91390916  0.90950475  0.07493972  1
  Ca2+  Ca105  1  0.40594982  0.91507048  0.27337024  1
  Ca2+  Ca106  1  0.91144642  0.39664135  0.42377572  1
  Ca2+  Ca107  1  0.56867139  0.40786572  0.75011515  1
  Mn3.34+  Mn108  1  0.08304101  0.33049185  0.08099578  1
  Mn3.34+  Mn109  1  0.08630366  0.32666814  0.41485185  1
  Mn3.34+  Mn110  1  0.09027200  0.32803893  0.75280449  1
  Mn3.34+  Mn111  1  0.08544389  0.83658742  0.07935109  1
  Mn3.34+  Mn112  1  0.08746890  0.83767965  0.42552881  1
  Mn3.34+  Mn113  1  0.08349034  0.84151007  0.75259265  1
  Mn3.34+  Mn114  1  0.41618482  0.32918015  0.07985630  1
  Mn3.34+  Mn115  1  0.41465060  0.32385528  0.41664845  1
  Mn3.34+  Mn116  1  0.41582393  0.32801900  0.75454993  1
  Mn3.34+  Mn117  1  0.41654514  0.83842614  0.08318811  1
  Mn3.34+  Mn118  1  0.41767381  0.83945956  0.41982373  1
  Mn3.34+  Mn119  1  0.41827774  0.83900945  0.75374377  1
  Mn3.34+  Mn120  1  0.75022982  0.32443025  0.08284843  1
  Mn3.34+  Mn121  1  0.74698981  0.32509269  0.41346263  1
  Mn3.34+  Mn122  1  0.74856988  0.32830432  0.75324606  1
  Mn3.34+  Mn123  1  0.75041109  0.83570439  0.08754443  1
  Mn3.34+  Mn124  1  0.74548418  0.83690862  0.42162496  1
  Mn3.34+  Mn125  1  0.74669381  0.84352571  0.74856850  1
  Mn3.34+  Mn126  1  0.25198993  0.33157678  0.24698223  1
  Mn3.34+  Mn127  1  0.25238759  0.33170641  0.57924886  1
  Mn3.34+  Mn128  1  0.25021152  0.33089144  0.91453531  1
  Mn3.34+  Mn129  1  0.25300784  0.83633045  0.24597422  1
  Mn3.34+  Mn130  1  0.25066382  0.82214714  0.58829488  1
  Mn3.34+  Mn131  1  0.25288056  0.83835135  0.91705757  1
  Mn3.34+  Mn132  1  0.58508675  0.32857038  0.24574259  1
  Mn3.34+  Mn133  1  0.58006443  0.33195864  0.57636571  1
  Mn3.34+  Mn134  1  0.58244598  0.33113993  0.91947102  1
  Mn3.34+  Mn135  1  0.58102176  0.83540255  0.25082098  1
  Mn3.34+  Mn136  1  0.58770222  0.83576930  0.58213038  1
  Mn3.34+  Mn137  1  0.57578942  0.83433028  0.91147917  1
  Mn3.34+  Mn138  1  0.91427250  0.32839394  0.24393581  1
  Mn3.34+  Mn139  1  0.91706970  0.32413546  0.58532827  1
  Mn3.34+  Mn140  1  0.91981573  0.33016162  0.91954594  1
  Mn3.34+  Mn141  1  0.91249147  0.83173953  0.24871011  1
  Mn3.34+  Mn142  1  0.91005330  0.84207887  0.58574887  1
  Mn3.34+  Mn143  1  0.92001326  0.83521556  0.91177139  1
  Mn3.34+  Mn144  1  0.58146724  0.16418310  0.57440717  1
  Mn3.34+  Mn145  1  0.09062805  0.67378415  0.40964399  1
  Mn3.34+  Mn146  1  0.75091511  0.67152687  0.75212434  1
  Mn3.34+  Mn147  1  0.41693896  0.67168455  0.07987528  1
  Mn3.34+  Mn148  1  0.74325882  0.67755708  0.41793994  1
  Mn3.34+  Mn149  1  0.57566218  0.66999178  0.24817361  1
  Mn3.34+  Mn150  1  0.74559182  0.67506492  0.07967724  1
  Mn3.34+  Mn151  1  0.91873304  0.67170498  0.91573222  1
  Mn3.34+  Mn152  1  0.42297636  0.67208637  0.41319849  1
  Mn3.34+  Mn153  1  0.25707278  0.16139624  0.91644908  1
  Mn3.34+  Mn154  1  0.91080458  0.67558734  0.24448174  1
  Mn3.34+  Mn155  1  0.08645565  0.67956048  0.75085567  1
  Mn3.34+  Mn156  1  0.75023556  0.16050645  0.41071480  1
  Mn3.34+  Mn157  1  0.41717428  0.16195091  0.08225803  1
  Mn3.34+  Mn158  1  0.25511915  0.66734367  0.24205975  1
  Mn3.34+  Mn159  1  0.91588578  0.16553687  0.57543002  1
  Mn3.34+  Mn160  1  0.75278801  0.16357715  0.08441363  1
  Mn3.34+  Mn161  1  0.41569089  0.15752365  0.42104739  1
  Mn3.34+  Mn162  1  0.91285881  0.67022408  0.58099878  1
  Mn3.34+  Mn163  1  0.74090884  0.66623555  0.75492986  1
  Mn3.34+  Mn164  1  0.08545954  0.16196510  0.08172965  1
  Mn3.34+  Mn165  1  0.91541443  0.16496090  0.24658647  1
  Mn3.34+  Mn166  1  0.08127543  0.66745037  0.41099099  1
  Mn3.34+  Mn167  1  0.58222365  0.16305649  0.91497071  1
  Mn3.34+  Mn168  1  0.25595096  0.66315984  0.57807479  1
  Mn3.34+  Mn169  1  0.57735195  0.66480012  0.57579267  1
  Mn3.34+  Mn170  1  0.09462947  0.15955416  0.75760491  1
  Mn3.34+  Mn171  1  0.08495316  0.16506295  0.75723061  1
  Mn3.34+  Mn172  1  0.42345730  0.67496355  0.75273516  1
  Mn3.34+  Mn173  1  0.91927207  0.16271672  0.91781322  1
  Mn3.34+  Mn174  1  0.08382527  0.16562773  0.41581043  1
  Mn3.34+  Mn175  1  0.25064577  0.16572951  0.24754410  1
  Mn3.34+  Mn176  1  0.08552463  0.67047159  0.09129921  1
  Mn3.34+  Mn177  1  0.59166953  0.15917278  0.57354887  1
  Mn3.34+  Mn178  1  0.26528853  0.66876896  0.57933835  1
  Mn3.34+  Mn179  1  0.57785484  0.66896290  0.91487416  1
  Mn3.34+  Mn180  1  0.90676848  0.00174652  0.25362679  1
  Mn3.34+  Mn181  1  0.25957472  -0.00628693  0.57617556  1
  Mn3.34+  Mn182  1  0.75025671  -0.00653454  0.72852936  1
  Mn3.34+  Mn183  1  0.42151033  -0.00073751  0.74076474  1
  Mn3.34+  Mn184  1  0.25499812  0.00393036  0.25585988  1
  Mn3.34+  Mn185  1  0.92401155  -0.00276535  0.92620996  1
  Mn3.34+  Mn186  1  0.74034210  0.49864206  0.08303936  1
  Mn3.34+  Mn187  1  0.24822761  0.50171188  0.24846529  1
  Mn3.34+  Mn188  1  0.09908776  0.49774721  0.75744230  1
  Mn3.34+  Mn189  1  0.57740670  -0.00275014  0.92788544  1
  Mn3.34+  Mn190  1  0.73659215  0.50337559  0.41492768  1
  Mn3.34+  Mn191  1  0.43743367  0.51011151  0.41680841  1
  Mn3.34+  Mn192  1  0.58334786  -0.00221560  0.26771418  1
  Mn3.34+  Mn193  1  0.58376744  -0.00300997  0.58802141  1
  Mn3.34+  Mn194  1  0.75070941  0.49965326  0.76378695  1
  Mn3.34+  Mn195  1  0.75108026  0.50334746  0.08245780  1
  Mn3.34+  Mn196  1  0.75147585  0.00174295  0.07695716  1
  Mn3.34+  Mn197  1  0.72594585  0.50192135  0.40740744  1
  Mn3.34+  Mn198  1  0.08168286  0.49440169  0.42239210  1
  Mn3.34+  Mn199  1  0.25196300  0.00153846  0.92324151  1
  Mn3.34+  Mn200  1  0.73444980  0.50305939  0.76218452  1
  Mn3.34+  Mn201  1  0.07640976  0.50431594  0.09606438  1
  Mn3.34+  Mn202  1  0.91674694  0.50269472  0.58568361  1
  Mn3.34+  Mn203  1  0.42616594  0.50552270  0.42003040  1
  Mn3.34+  Mn204  1  0.59262088  0.00589634  0.26744802  1
  Mn3.34+  Mn205  1  0.41354795  0.49998976  0.75241042  1
  Mn3.34+  Mn206  1  0.90863800  0.49688825  0.24919138  1
  Mn3.34+  Mn207  1  0.41954903  -0.00023795  0.07664584  1
  Mn3.34+  Mn208  1  0.24481901  -0.00935933  0.57197696  1
  Mn3.34+  Mn209  1  0.42388277  0.50208780  0.07825010  1
  Mn3.34+  Mn210  1  0.09666828  0.49893664  0.42575767  1
  Mn3.34+  Mn211  1  0.08147795  0.00039887  0.06847462  1
  Mn3.34+  Mn212  1  0.58026388  0.50825115  0.91636303  1
  Mn3.34+  Mn213  1  0.75338034  0.00053970  0.41799474  1
  Mn3.34+  Mn214  1  0.08441328  -0.00019041  0.40956380  1
  Mn3.34+  Mn215  1  0.92300333  0.50318316  0.24759267  1
  O2-  O216  1  -0.00329584  0.15795843  0.00690094  1
  O2-  O217  1  -0.00227039  0.14862541  0.33352040  1
  O2-  O218  1  0.00162029  0.16301927  0.66181658  1
  O2-  O219  1  0.00650878  0.65359260  0.00048566  1
  O2-  O220  1  -0.01169182  0.66224097  0.33187810  1
  O2-  O221  1  0.00298004  0.65247079  0.66901761  1
  O2-  O222  1  0.32911968  0.15694980  0.00576244  1
  O2-  O223  1  0.33236458  0.15423713  0.33621697  1
  O2-  O224  1  0.33300986  0.17890429  0.64889834  1
  O2-  O225  1  0.32932249  0.66273065  0.00977442  1
  O2-  O226  1  0.33477147  0.66108429  0.32883336  1
  O2-  O227  1  0.33073503  0.67299597  0.67504821  1
  O2-  O228  1  0.67425284  0.16345014  -0.00301357  1
  O2-  O229  1  0.67148444  0.15622360  0.33852304  1
  O2-  O230  1  0.66790491  0.15033780  0.65757078  1
  O2-  O231  1  0.66063526  0.66296413  0.00484378  1
  O2-  O232  1  0.66564352  0.66725738  0.32987467  1
  O2-  O233  1  0.66274727  0.65612009  0.67160500  1
  O2-  O234  1  0.16960044  0.16082110  0.00696555  1
  O2-  O235  1  0.16711563  0.14889082  0.33401146  1
  O2-  O236  1  0.16070203  0.15505911  0.66449472  1
  O2-  O237  1  0.16150545  0.64664574  0.00813270  1
  O2-  O238  1  0.17411450  0.66539660  0.32829897  1
  O2-  O239  1  0.16862795  0.65762267  0.66652112  1
  O2-  O240  1  0.50392308  0.15839500  0.00518089  1
  O2-  O241  1  0.48301847  0.17781099  0.33919481  1
  O2-  O242  1  0.50271484  0.15471002  0.65567612  1
  O2-  O243  1  0.49732756  0.65725155  -0.00137630  1
  O2-  O244  1  0.49792192  0.65104720  0.32882206  1
  O2-  O245  1  0.49912593  0.66999457  0.66642210  1
  O2-  O246  1  0.83442561  0.16139814  -0.00250318  1
  O2-  O247  1  0.83944203  0.15666091  0.33698104  1
  O2-  O248  1  0.84420398  0.15723303  0.66407038  1
  O2-  O249  1  0.83935316  0.65944881  0.00838337  1
  O2-  O250  1  0.82282122  0.66569371  0.32555798  1
  O2-  O251  1  0.82978605  0.64248573  0.66746124  1
  O2-  O252  1  -0.00133227  0.33988447  0.00310616  1
  O2-  O253  1  -0.00071467  0.35228783  0.33412189  1
  O2-  O254  1  -0.00014443  0.34169668  0.66409360  1
  O2-  O255  1  -0.00306029  0.84281536  0.00520274  1
  O2-  O256  1  -0.00365691  0.85026012  0.33157518  1
  O2-  O257  1  0.00258448  0.83704948  0.66710765  1
  O2-  O258  1  0.32964554  0.34806387  0.00669627  1
  O2-  O259  1  0.33985008  0.35187523  0.32972700  1
  O2-  O260  1  0.33815237  0.34428960  0.66358546  1
  O2-  O261  1  0.33125301  0.84338959  0.00450211  1
  O2-  O262  1  0.33396794  0.83190238  0.32863273  1
  O2-  O263  1  0.33237980  0.80925420  0.67289047  1
  O2-  O264  1  0.66630311  0.34257969  -0.00004287  1
  O2-  O265  1  0.66158810  0.34585113  0.33530015  1
  O2-  O266  1  0.66396221  0.35143968  0.67094229  1
  O2-  O267  1  0.67028356  0.83720848  0.00187303  1
  O2-  O268  1  0.67269493  0.83202267  0.32925889  1
  O2-  O269  1  0.66597061  0.83701496  0.66645918  1
  O2-  O270  1  0.16691402  0.34102591  -0.00033310  1
  O2-  O271  1  0.16998402  0.35118806  0.33303060  1
  O2-  O272  1  0.17300342  0.33573524  0.66502064  1
  O2-  O273  1  0.17082842  0.84557000  0.00435284  1
  O2-  O274  1  0.16297676  0.83640971  0.32706728  1
  O2-  O275  1  0.16402048  0.80367599  0.67185835  1
  O2-  O276  1  0.49726693  0.34982565  -0.00272347  1
  O2-  O277  1  0.49589560  0.34100126  0.33043722  1
  O2-  O278  1  0.49540793  0.35399887  0.66030745  1
  O2-  O279  1  0.50324155  0.84433546  0.00497285  1
  O2-  O280  1  0.49743162  0.84860218  0.32920956  1
  O2-  O281  1  0.49371285  0.83407867  0.66442704  1
  O2-  O282  1  0.83394597  0.33543125  0.00147266  1
  O2-  O283  1  0.83189954  0.35213900  0.33342989  1
  O2-  O284  1  0.83174743  0.34720245  0.66781673  1
  O2-  O285  1  0.83150777  0.83443421  0.00432701  1
  O2-  O286  1  0.83339901  0.81479964  0.33404563  1
  O2-  O287  1  0.83136505  0.84049069  0.66780947  1
  O2-  O288  1  0.00215223  0.17530230  0.16850467  1
  O2-  O289  1  0.00193757  0.18728385  0.50159316  1
  O2-  O290  1  -0.00030352  0.17549494  0.83026353  1
  O2-  O291  1  -0.01004328  0.68682694  0.15941519  1
  O2-  O292  1  0.00684520  0.67687580  0.50322482  1
  O2-  O293  1  0.00130298  0.68367539  0.82799952  1
  O2-  O294  1  0.33375087  0.17848729  0.16863871  1
  O2-  O295  1  0.34331356  0.19139656  0.48789842  1
  O2-  O296  1  0.33419984  0.17317170  0.84281566  1
  O2-  O297  1  0.34070580  0.68612430  0.16899404  1
  O2-  O298  1  0.33216904  0.68886668  0.48906086  1
  O2-  O299  1  0.33682212  0.67995552  0.82858589  1
  O2-  O300  1  0.66893803  0.18493688  0.14756877  1
  O2-  O301  1  0.67274360  0.18226462  0.49973807  1
  O2-  O302  1  0.66442560  0.17036371  0.83676050  1
  O2-  O303  1  0.66730381  0.68417358  0.16894282  1
  O2-  O304  1  0.67234283  0.68403079  0.50657122  1
  O2-  O305  1  0.66785686  0.68576583  0.83917062  1
  O2-  O306  1  0.16552878  0.17647277  0.16961351  1
  O2-  O307  1  0.16073341  0.17657046  0.49723051  1
  O2-  O308  1  0.17036712  0.18106577  0.83895608  1
  O2-  O309  1  0.17344399  0.68887518  0.16308598  1
  O2-  O310  1  0.16631748  0.68974192  0.50556380  1
  O2-  O311  1  0.16849252  0.67224843  0.83088631  1
  O2-  O312  1  0.49546050  0.17227639  0.16015786  1
  O2-  O313  1  0.50196072  0.18596218  0.49658812  1
  O2-  O314  1  0.50854826  0.17266377  0.83490013  1
  O2-  O315  1  0.50096327  0.67573332  0.16277425  1
  O2-  O316  1  0.50104755  0.68343025  0.49506067  1
  O2-  O317  1  0.50555945  0.68921572  0.82827590  1
  O2-  O318  1  0.83762668  0.18481980  0.16111685  1
  O2-  O319  1  0.83393451  0.18803396  0.50535284  1
  O2-  O320  1  0.84070992  0.16665314  0.83526247  1
  O2-  O321  1  0.82432241  0.68702705  0.16746832  1
  O2-  O322  1  0.83546189  0.68637637  0.48867628  1
  O2-  O323  1  0.84207488  0.67618961  0.82374803  1
  O2-  O324  1  0.00684667  0.32434258  0.16728333  1
  O2-  O325  1  -0.00782670  0.31681666  0.49497285  1
  O2-  O326  1  -0.00682705  0.32456349  0.82509359  1
  O2-  O327  1  0.00238430  0.82223779  0.17277113  1
  O2-  O328  1  -0.00313990  0.82618285  0.50005840  1
  O2-  O329  1  0.00488183  0.81692988  0.83198163  1
  O2-  O330  1  0.34181069  0.32500229  0.17077960  1
  O2-  O331  1  0.32972906  0.31094457  0.49529139  1
  O2-  O332  1  0.33777075  0.32153498  0.83765008  1
  O2-  O333  1  0.33199216  0.81832010  0.16534555  1
  O2-  O334  1  0.33876209  0.81523739  0.50753370  1
  O2-  O335  1  0.33448975  0.82233387  0.83297540  1
  O2-  O336  1  0.66600699  0.31905689  0.16296718  1
  O2-  O337  1  0.67565989  0.32193159  0.50842029  1
  O2-  O338  1  0.66533945  0.32899797  0.83327658  1
  O2-  O339  1  0.66480700  0.81956657  0.16460992  1
  O2-  O340  1  0.66466050  0.81540509  0.49572336  1
  O2-  O341  1  0.66700740  0.82220670  0.83520568  1
  O2-  O342  1  0.17067963  0.32574965  0.16147855  1
  O2-  O343  1  0.16620559  0.31684140  0.50159749  1
  O2-  O344  1  0.17334026  0.32209227  0.83043276  1
  O2-  O345  1  0.16350964  0.82234393  0.17025415  1
  O2-  O346  1  0.16953321  0.81215506  0.50150244  1
  O2-  O347  1  0.16837374  0.82554405  0.83007984  1
  O2-  O348  1  0.49722721  0.32186181  0.16518571  1
  O2-  O349  1  0.49883411  0.31649946  0.49604758  1
  O2-  O350  1  0.50912000  0.32926083  0.82536007  1
  O2-  O351  1  0.50152275  0.82779288  0.16485889  1
  O2-  O352  1  0.49925046  0.82379808  0.50135285  1
  O2-  O353  1  0.49601864  0.81495207  0.83228227  1
  O2-  O354  1  0.83021595  0.31289737  0.16573476  1
  O2-  O355  1  0.83299929  0.32147823  0.50015068  1
  O2-  O356  1  0.83505164  0.32095058  0.83119716  1
  O2-  O357  1  0.83341821  0.81001269  0.16721816  1
  O2-  O358  1  0.83272675  0.82142339  0.49834288  1
  O2-  O359  1  0.82800427  0.82391119  0.83839925  1
  O2-  O360  1  0.08639803  0.07826244  0.10978639  1
  O2-  O361  1  0.07698574  0.08090205  0.44921329  1
  O2-  O362  1  0.06860030  0.08042242  0.76597408  1
  O2-  O363  1  0.06361398  0.58511129  0.12580783  1
  O2-  O364  1  0.08576038  0.58128327  0.45187478  1
  O2-  O365  1  0.07349437  0.58152153  0.78304223  1
  O2-  O366  1  0.41016570  0.07794288  0.11350702  1
  O2-  O367  1  0.40268166  0.08379942  0.46707712  1
  O2-  O368  1  0.43821446  0.07708232  0.74658581  1
  O2-  O369  1  0.41553838  0.58351105  0.10612310  1
  O2-  O370  1  0.40419777  0.58917847  0.44302286  1
  O2-  O371  1  0.40846996  0.58194579  0.76850302  1
  O2-  O372  1  0.75027889  0.08039724  0.10753028  1
  O2-  O373  1  0.76349671  0.08094533  0.45253232  1
  O2-  O374  1  0.76782394  0.05828652  0.79043161  1
  O2-  O375  1  0.75039970  0.58425109  0.11775264  1
  O2-  O376  1  0.75852556  0.58482828  0.43965315  1
  O2-  O377  1  0.76217786  0.58351814  0.78973844  1
  O2-  O378  1  0.24924845  0.08015427  0.21711727  1
  O2-  O379  1  0.25573799  0.07398239  0.54597551  1
  O2-  O380  1  0.24605696  0.07886050  0.89797507  1
  O2-  O381  1  0.26375679  0.58064539  0.20356590  1
  O2-  O382  1  0.22549776  0.58162446  0.54033632  1
  O2-  O383  1  0.21882170  0.56147086  0.89017772  1
  O2-  O384  1  0.57301878  0.07618350  0.22166238  1
  O2-  O385  1  0.58299187  0.07742307  0.54200191  1
  O2-  O386  1  0.59333591  0.07640434  0.89640017  1
  O2-  O387  1  0.59499249  0.58702663  0.21781174  1
  O2-  O388  1  0.59225771  0.58457818  0.57413735  1
  O2-  O389  1  0.57867296  0.58610890  0.87614608  1
  O2-  O390  1  0.91962493  0.08074386  0.21924561  1
  O2-  O391  1  0.92560621  0.08857332  0.54666623  1
  O2-  O392  1  0.92253204  0.07617432  0.88596084  1
  O2-  O393  1  0.89584340  0.58310899  0.21466503  1
  O2-  O394  1  0.92679241  0.58464876  0.55028840  1
  O2-  O395  1  0.93954261  0.58426388  0.89198619  1
  O2-  O396  1  0.09036658  0.42010183  0.10309753  1
  O2-  O397  1  0.06577394  0.41582369  0.46114593  1
  O2-  O398  1  0.07499339  0.41426491  0.75772874  1
  O2-  O399  1  0.07898650  0.92244398  0.11828876  1
  O2-  O400  1  0.08119193  0.91989746  0.44664198  1
  O2-  O401  1  0.10736748  0.91793010  0.74021906  1
  O2-  O402  1  0.42075243  0.42115808  0.10994490  1
  O2-  O403  1  0.42408372  0.42336348  0.46059499  1
  O2-  O404  1  0.42007072  0.41860855  0.78265022  1
  O2-  O405  1  0.41083664  0.92255021  0.12053161  1
  O2-  O406  1  0.40412377  0.91661139  0.43792518  1
  O2-  O407  1  0.39193833  0.91996628  0.75267124  1
  O2-  O408  1  0.75164644  0.41680915  0.10755464  1
  O2-  O409  1  0.75725166  0.42043237  0.44752245  1
  O2-  O410  1  0.76152749  0.41714466  0.78289992  1
  O2-  O411  1  0.75945566  0.92411441  0.11816052  1
  O2-  O412  1  0.76714033  0.91823434  0.41891769  1
  O2-  O413  1  0.74669934  0.92522745  0.78212177  1
  O2-  O414  1  0.25546948  0.41971302  0.20929115  1
  O2-  O415  1  0.26607453  0.42059791  0.54836798  1
  O2-  O416  1  0.26041921  0.41626144  0.90659359  1
  O2-  O417  1  0.23525005  0.92605945  0.21817852  1
  O2-  O418  1  0.25465290  0.90998506  0.59322992  1
  O2-  O419  1  0.25155563  0.92368067  0.88933426  1
  O2-  O420  1  0.57360149  0.41323855  0.21780924  1
  O2-  O421  1  0.59648025  0.41667916  0.54614446  1
  O2-  O422  1  0.58442192  0.42579578  0.88272454  1
  O2-  O423  1  0.59773929  0.92307798  0.22360276  1
  O2-  O424  1  0.57783527  0.91812974  0.56059477  1
  O2-  O425  1  0.59192586  0.91804591  0.90284954  1
  O2-  O426  1  0.91755688  0.41755926  0.21266328  1
  O2-  O427  1  0.89130322  0.42122739  0.55330036  1
  O2-  O428  1  0.90330829  0.41699674  0.89512457  1
  O2-  O429  1  0.90676151  0.92107514  0.22023987  1
  O2-  O430  1  0.91883685  0.91938284  0.56105052  1
  O2-  O431  1  0.90346542  0.91787794  0.90774680  1
  O2-  O432  1  -0.02764214  0.00089956  0.03657765  1
  O2-  O433  1  0.00997654  -0.00832466  0.31084834  1
  O2-  O434  1  -0.00498471  0.02707500  0.65562523  1
  O2-  O435  1  0.01130524  0.51838868  0.00536742  1
  O2-  O436  1  0.00269207  0.49483905  0.33518384  1
  O2-  O437  1  -0.00673266  0.51606534  0.68178312  1
  O2-  O438  1  0.32769809  -0.00107631  0.01508047  1
  O2-  O439  1  0.33014735  0.01060493  0.32727658  1
  O2-  O440  1  0.31967499  0.01280208  0.67025426  1
  O2-  O441  1  0.31799018  0.49851335  0.03736846  1
  O2-  O442  1  0.33217299  0.50149272  0.34395845  1
  O2-  O443  1  0.32297637  0.48523250  0.68806782  1
  O2-  O444  1  0.67356675  -0.00564937  -0.00484698  1
  O2-  O445  1  0.69407746  -0.00230197  0.31230979  1
  O2-  O446  1  0.66645102  0.02181329  0.66600076  1
  O2-  O447  1  0.67714616  0.49398441  -0.01342022  1
  O2-  O448  1  0.69070571  0.49981776  0.29742528  1
  O2-  O449  1  0.67524521  0.47716357  0.66772049  1
  O2-  O450  1  0.18107202  -0.00342824  0.01940953  1
  O2-  O451  1  0.15953791  0.00329831  0.31430693  1
  O2-  O452  1  0.15125133  0.00766674  0.63069783  1
  O2-  O453  1  0.17445716  0.51168756  0.03642178  1
  O2-  O454  1  0.17190312  0.49393042  0.33993264  1
  O2-  O455  1  0.15018080  0.50389203  0.64888674  1
  O2-  O456  1  0.52390591  0.00114638  0.03472727  1
  O2-  O457  1  0.47844134  0.00033887  0.30059504  1
  O2-  O458  1  0.47518795  -0.00011780  0.63086660  1
  O2-  O459  1  0.51758444  0.49643553  0.01640502  1
  O2-  O460  1  0.49640651  0.48256491  0.32396360  1
  O2-  O461  1  0.50572502  0.48463319  0.68313880  1
  O2-  O462  1  0.82534752  0.00773520  -0.01193483  1
  O2-  O463  1  0.85769003  0.00113827  0.36225369  1
  O2-  O464  1  0.83230403  0.01615088  0.66478050  1
  O2-  O465  1  0.85962720  0.50566636  0.03902955  1
  O2-  O466  1  0.85003153  0.50124810  0.35858846  1
  O2-  O467  1  0.83822837  0.50484600  0.68278346  1
  O2-  O468  1  0.24661710  0.75784236  0.93051819  1
  O2-  O469  1  0.24986165  0.24923203  0.93986300  1
  O2-  O470  1  0.58385000  0.75145970  0.94019029  1
  O2-  O471  1  0.24622333  0.24955198  0.27432444  1
  O2-  O472  1  0.92789908  0.24846642  0.27382684  1
  O2-  O473  1  0.58942491  0.24845865  0.61227353  1
  O2-  O474  1  0.91598847  0.75139458  0.93569964  1
  O2-  O475  1  0.42224254  0.75297368  0.06106973  1
  O2-  O476  1  0.75197523  0.24610494  0.38777319  1
  O2-  O477  1  0.42731861  0.75180535  0.39013816  1
  O2-  O478  1  0.41370598  0.24871077  0.05930956  1
  O2-  O479  1  0.08394900  0.75047895  0.05831114  1
  O2-  O480  1  0.58522217  0.75170791  0.60156762  1
  O2-  O481  1  0.08407954  0.24667341  0.38206853  1
  O2-  O482  1  0.42758118  0.25160560  0.73511786  1
  O2-  O483  1  0.57079249  0.75154651  0.27047973  1
  O2-  O484  1  0.08279846  0.24545720  0.73059350  1
  O2-  O485  1  0.58050150  0.24968810  0.93477894  1
  O2-  O486  1  0.08314947  0.24857558  0.06783750  1
  O2-  O487  1  0.06697926  0.75650128  0.39252949  1
  O2-  O488  1  0.74609343  0.25071775  0.73626520  1
  O2-  O489  1  0.58407452  0.25043046  0.26147109  1
  O2-  O490  1  0.75565029  0.75329253  0.72877954  1
  O2-  O491  1  0.91680941  0.75015865  0.60700931  1
  O2-  O492  1  0.92380313  0.24721594  0.92886392  1
