# generated using pymatgen
data_Ca108Mn108O277
_symmetry_space_group_name_H-M   'P 1'
_cell_length_a   16.02278111
_cell_length_b   22.30012370
_cell_length_c   16.38547691
_cell_angle_alpha   89.99607517
_cell_angle_beta   89.99969864
_cell_angle_gamma   89.99911167
_symmetry_Int_Tables_number   1
_chemical_formula_structural   Ca108Mn108O277
_chemical_formula_sum   'Ca108 Mn108 O277'
_cell_volume   5854.69475325
_cell_formula_units_Z   1
loop_
 _symmetry_equiv_pos_site_id
 _symmetry_equiv_pos_as_xyz
  1  'x, y, z'
loop_
 _atom_type_symbol
 _atom_type_oxidation_number
  Ca2+  2.0
  Mn3.34+  3.34
  O2-  -2.0
loop_
 _atom_site_type_symbol
 _atom_site_label
 _atom_site_symmetry_multiplicity
 _atom_site_fract_x
 _atom_site_fract_y
 _atom_site_fract_z
 _atom_site_occupancy
  Ca2+  Ca0  1  0.07257178  0.25931287  0.24648809  1
  Ca2+  Ca1  1  0.08295446  0.25322638  0.59655325  1
  Ca2+  Ca2  1  0.09073881  0.25460066  0.90848836  1
  Ca2+  Ca3  1  0.08782244  0.75055484  0.25174209  1
  Ca2+  Ca4  1  0.08886184  0.75145305  0.58489918  1
  Ca2+  Ca5  1  0.09514846  0.75000899  0.91700103  1
  Ca2+  Ca6  1  0.42823975  0.26801947  0.24686763  1
  Ca2+  Ca7  1  0.42333141  0.25010045  0.60696656  1
  Ca2+  Ca8  1  0.40858962  0.24368807  0.89626581  1
  Ca2+  Ca9  1  0.43504602  0.72867394  0.26407786  1
  Ca2+  Ca10  1  0.41535278  0.72129068  0.56900817  1
  Ca2+  Ca11  1  0.40160850  0.75665462  0.91924778  1
  Ca2+  Ca12  1  0.74903533  0.26145252  0.24584310  1
  Ca2+  Ca13  1  0.74438216  0.24808237  0.59948988  1
  Ca2+  Ca14  1  0.74966881  0.25419338  0.89605611  1
  Ca2+  Ca15  1  0.72680614  0.74333206  0.26035914  1
  Ca2+  Ca16  1  0.73350967  0.72751115  0.57722927  1
  Ca2+  Ca17  1  0.75369040  0.75964030  0.91100638  1
  Ca2+  Ca18  1  0.26800694  0.26056695  0.06654211  1
  Ca2+  Ca19  1  0.26028180  0.26547749  0.43435118  1
  Ca2+  Ca20  1  0.26814686  0.23830572  0.74637549  1
  Ca2+  Ca21  1  0.25101294  0.73878200  0.08793067  1
  Ca2+  Ca22  1  0.25606297  0.74104251  0.41264597  1
  Ca2+  Ca23  1  0.24408939  0.74864406  0.74922791  1
  Ca2+  Ca24  1  0.57461201  0.25818511  0.08375611  1
  Ca2+  Ca25  1  0.58211405  0.26436620  0.43141868  1
  Ca2+  Ca26  1  0.58315935  0.24786936  0.73729093  1
  Ca2+  Ca27  1  0.57854305  0.75345662  0.10310456  1
  Ca2+  Ca28  1  0.58444323  0.73739184  0.40994567  1
  Ca2+  Ca29  1  0.59691144  0.73243719  0.73599200  1
  Ca2+  Ca30  1  0.91066836  0.25440323  0.08738051  1
  Ca2+  Ca31  1  0.90934107  0.26006024  0.42675579  1
  Ca2+  Ca32  1  0.89758124  0.24007229  0.74394342  1
  Ca2+  Ca33  1  0.91909346  0.76533810  0.08312147  1
  Ca2+  Ca34  1  0.90435277  0.74826438  0.41828468  1
  Ca2+  Ca35  1  0.90011922  0.74369965  0.74587975  1
  Ca2+  Ca36  1  0.39677168  0.60127047  0.91825754  1
  Ca2+  Ca37  1  0.25774395  0.08477147  0.06572768  1
  Ca2+  Ca38  1  0.40249880  0.07638198  0.24699709  1
  Ca2+  Ca39  1  0.56254104  0.59443510  0.09817407  1
  Ca2+  Ca40  1  0.76361387  0.59155666  0.91115980  1
  Ca2+  Ca41  1  0.57908774  0.07934135  0.07675346  1
  Ca2+  Ca42  1  0.72552228  0.59795124  0.27272681  1
  Ca2+  Ca43  1  0.76980355  0.10408106  0.89240380  1
  Ca2+  Ca44  1  0.42090988  0.09464045  0.60850639  1
  Ca2+  Ca45  1  0.10954870  0.06982373  0.62460055  1
  Ca2+  Ca46  1  0.09908994  0.07007392  0.62597508  1
  Ca2+  Ca47  1  0.09128944  0.08594495  0.89424457  1
  Ca2+  Ca48  1  0.25783611  0.07396469  0.42172024  1
  Ca2+  Ca49  1  0.58109291  0.10226933  0.73952690  1
  Ca2+  Ca50  1  0.73275700  0.59267055  0.27110790  1
  Ca2+  Ca51  1  0.11629774  0.60537463  0.59561739  1
  Ca2+  Ca52  1  0.58046602  0.60012875  0.42657598  1
  Ca2+  Ca53  1  0.40580125  0.59803112  0.91405253  1
  Ca2+  Ca54  1  0.78960507  0.10387335  0.24960733  1
  Ca2+  Ca55  1  0.75093844  0.59202955  0.91166135  1
  Ca2+  Ca56  1  0.91783575  0.09970028  0.41343613  1
  Ca2+  Ca57  1  0.13860209  0.59248076  0.25029691  1
  Ca2+  Ca58  1  0.59543945  0.09585356  0.43621951  1
  Ca2+  Ca59  1  0.38494280  0.59579411  0.24859530  1
  Ca2+  Ca60  1  0.74296848  0.09916080  0.60293666  1
  Ca2+  Ca61  1  0.10745986  0.60603504  0.60109399  1
  Ca2+  Ca62  1  0.06923127  0.08643724  0.25585229  1
  Ca2+  Ca63  1  0.57017986  0.59990159  0.42744753  1
  Ca2+  Ca64  1  0.92316244  0.58672242  0.07973493  1
  Ca2+  Ca65  1  0.08178455  0.08446375  0.25624954  1
  Ca2+  Ca66  1  0.25018192  0.61870869  0.74434783  1
  Ca2+  Ca67  1  0.90825409  0.10471469  0.40930587  1
  Ca2+  Ca68  1  0.57440490  0.59315054  0.09496560  1
  Ca2+  Ca69  1  0.24541920  0.07297089  0.42012946  1
  Ca2+  Ca70  1  0.12878890  0.59275178  0.24857178  1
  Ca2+  Ca71  1  0.27654389  0.60301722  0.42024471  1
  Ca2+  Ca72  1  0.58318153  0.90468756  0.42207071  1
  Ca2+  Ca73  1  0.58472088  0.40913496  0.73347061  1
  Ca2+  Ca74  1  0.25121868  0.41867468  0.39900684  1
  Ca2+  Ca75  1  0.57086514  0.41460593  0.08345465  1
  Ca2+  Ca76  1  0.76331385  0.40453424  0.92071039  1
  Ca2+  Ca77  1  0.25254775  0.90511852  0.08270458  1
  Ca2+  Ca78  1  0.39530918  0.90715114  0.58120369  1
  Ca2+  Ca79  1  0.75604415  0.89705135  0.24095394  1
  Ca2+  Ca80  1  0.43833837  0.40913152  0.57784238  1
  Ca2+  Ca81  1  0.92521955  0.90048220  0.41489477  1
  Ca2+  Ca82  1  0.92426954  0.40275914  0.08592799  1
  Ca2+  Ca83  1  0.39702547  0.41826969  0.24297071  1
  Ca2+  Ca84  1  0.75433287  0.90657156  0.58324002  1
  Ca2+  Ca85  1  0.41229301  0.90731912  0.24780486  1
  Ca2+  Ca86  1  0.92151950  0.40066621  0.75182604  1
  Ca2+  Ca87  1  0.57529725  0.90716433  0.41305490  1
  Ca2+  Ca88  1  0.07741710  0.40884092  0.58564390  1
  Ca2+  Ca89  1  0.58752748  0.90864842  0.08038648  1
  Ca2+  Ca90  1  0.08860230  0.90012785  0.25436048  1
  Ca2+  Ca91  1  0.22741413  0.91761521  0.73689850  1
  Ca2+  Ca92  1  0.40756860  0.90902430  0.58266054  1
  Ca2+  Ca93  1  0.73402581  0.40756294  0.57849973  1
  Ca2+  Ca94  1  0.40827151  0.40778131  0.92512914  1
  Ca2+  Ca95  1  0.58565278  0.90430766  0.75178302  1
  Ca2+  Ca96  1  0.93503692  0.90502696  0.74868128  1
  Ca2+  Ca97  1  0.75545342  0.90855421  0.92572380  1
  Ca2+  Ca98  1  0.09193808  0.41735275  0.24947217  1
  Ca2+  Ca99  1  0.08908604  0.40890219  0.58574472  1
  Ca2+  Ca100  1  0.74146853  0.90670032  0.58328950  1
  Ca2+  Ca101  1  0.09470060  0.91236792  0.59312542  1
  Ca2+  Ca102  1  0.58250634  0.41106903  0.08332834  1
  Ca2+  Ca103  1  0.57411028  0.90362670  0.75128579  1
  Ca2+  Ca104  1  0.24316583  0.90328517  0.41642971  1
  Ca2+  Ca105  1  0.39962920  0.90628910  0.24757126  1
  Ca2+  Ca106  1  0.41794899  0.40483722  0.92121254  1
  Ca2+  Ca107  1  0.08601777  0.90591726  0.90856453  1
  Mn3.34+  Mn108  1  0.08697893  0.33390841  0.08265483  1
  Mn3.34+  Mn109  1  0.08096768  0.33370540  0.41642286  1
  Mn3.34+  Mn110  1  0.08727198  0.33639428  0.75581504  1
  Mn3.34+  Mn111  1  0.08411997  0.83138482  0.08222745  1
  Mn3.34+  Mn112  1  0.08336540  0.82848570  0.41802544  1
  Mn3.34+  Mn113  1  0.08319103  0.83326233  0.75366058  1
  Mn3.34+  Mn114  1  0.41343079  0.33612560  0.08688979  1
  Mn3.34+  Mn115  1  0.41971984  0.34094209  0.41658135  1
  Mn3.34+  Mn116  1  0.41466378  0.33464694  0.75075748  1
  Mn3.34+  Mn117  1  0.41500087  0.83071100  0.07948952  1
  Mn3.34+  Mn118  1  0.41295533  0.82523807  0.41813178  1
  Mn3.34+  Mn119  1  0.41201595  0.82697717  0.75224223  1
  Mn3.34+  Mn120  1  0.75195535  0.33485330  0.08520691  1
  Mn3.34+  Mn121  1  0.75254500  0.34051172  0.41645750  1
  Mn3.34+  Mn122  1  0.75160455  0.33310956  0.74945915  1
  Mn3.34+  Mn123  1  0.75218888  0.83255747  0.08267528  1
  Mn3.34+  Mn124  1  0.75144478  0.82762430  0.41430719  1
  Mn3.34+  Mn125  1  0.75457817  0.83048368  0.75388884  1
  Mn3.34+  Mn126  1  0.24616859  0.33473853  0.24656344  1
  Mn3.34+  Mn127  1  0.25517591  0.33571623  0.58497458  1
  Mn3.34+  Mn128  1  0.24307658  0.33049113  0.91119493  1
  Mn3.34+  Mn129  1  0.24908156  0.83224101  0.24526755  1
  Mn3.34+  Mn130  1  0.24766812  0.82805605  0.58118270  1
  Mn3.34+  Mn131  1  0.25171195  0.83619523  0.91368941  1
  Mn3.34+  Mn132  1  0.58908337  0.33857597  0.25863705  1
  Mn3.34+  Mn133  1  0.58538324  0.33522491  0.57917388  1
  Mn3.34+  Mn134  1  0.58646127  0.33524736  0.91229861  1
  Mn3.34+  Mn135  1  0.58195573  0.83253619  0.24715348  1
  Mn3.34+  Mn136  1  0.58148268  0.83403094  0.58173631  1
  Mn3.34+  Mn137  1  0.57964420  0.83561946  0.91891737  1
  Mn3.34+  Mn138  1  0.91329097  0.33618555  0.25480855  1
  Mn3.34+  Mn139  1  0.91338013  0.33254457  0.58036663  1
  Mn3.34+  Mn140  1  0.92484933  0.33132791  0.91414983  1
  Mn3.34+  Mn141  1  0.91816053  0.83302377  0.24771109  1
  Mn3.34+  Mn142  1  0.91911864  0.83383907  0.58260624  1
  Mn3.34+  Mn143  1  0.92075304  0.83648014  0.91841985  1
  Mn3.34+  Mn144  1  0.57571058  0.16585714  0.24916177  1
  Mn3.34+  Mn145  1  0.91733239  0.65999054  0.58134747  1
  Mn3.34+  Mn146  1  0.41227928  0.17000581  0.41848716  1
  Mn3.34+  Mn147  1  0.08607073  0.66669403  0.41994710  1
  Mn3.34+  Mn148  1  0.08290046  0.16499341  0.75368628  1
  Mn3.34+  Mn149  1  0.90694139  0.66404796  0.57974055  1
  Mn3.34+  Mn150  1  0.24067070  0.67222864  0.91513649  1
  Mn3.34+  Mn151  1  0.08097028  0.17771299  0.42152973  1
  Mn3.34+  Mn152  1  0.40797815  0.66734745  0.09221966  1
  Mn3.34+  Mn153  1  0.41549022  0.16664367  0.07740040  1
  Mn3.34+  Mn154  1  0.93607869  0.66500072  0.91025713  1
  Mn3.34+  Mn155  1  0.08829246  0.18482179  0.42060753  1
  Mn3.34+  Mn156  1  0.08602145  0.17734176  0.07862050  1
  Mn3.34+  Mn157  1  0.91567795  0.16850177  0.58796900  1
  Mn3.34+  Mn158  1  0.91519814  0.65947497  0.24947694  1
  Mn3.34+  Mn159  1  0.74975957  0.17959605  0.41895318  1
  Mn3.34+  Mn160  1  0.25485017  0.16385358  0.90697466  1
  Mn3.34+  Mn161  1  0.24671165  0.17734331  0.24402200  1
  Mn3.34+  Mn162  1  0.57899584  0.64844289  0.59465790  1
  Mn3.34+  Mn163  1  0.92294756  0.16775212  0.90732028  1
  Mn3.34+  Mn164  1  0.25443158  0.17056816  0.24192108  1
  Mn3.34+  Mn165  1  0.75336967  0.16632350  0.08039362  1
  Mn3.34+  Mn166  1  0.58840484  0.67227565  0.91215950  1
  Mn3.34+  Mn167  1  0.57804970  0.66743429  0.90925655  1
  Mn3.34+  Mn168  1  0.75102829  0.66764767  0.08660265  1
  Mn3.34+  Mn169  1  0.58699457  0.16688474  0.91594944  1
  Mn3.34+  Mn170  1  0.08923450  0.66613238  0.08340646  1
  Mn3.34+  Mn171  1  0.76428722  0.16143131  0.08239624  1
  Mn3.34+  Mn172  1  0.57636248  0.16311349  0.91260231  1
  Mn3.34+  Mn173  1  0.92503775  0.66847647  0.91225111  1
  Mn3.34+  Mn174  1  0.42168903  0.16395236  0.42072324  1
  Mn3.34+  Mn175  1  0.07306147  0.17065327  0.08001682  1
  Mn3.34+  Mn176  1  0.92522382  0.66474610  0.25117983  1
  Mn3.34+  Mn177  1  0.58677046  0.16740286  0.58509090  1
  Mn3.34+  Mn178  1  0.25006906  0.16932704  0.58588048  1
  Mn3.34+  Mn179  1  0.58890640  0.15948292  0.24767783  1
  Mn3.34+  Mn180  1  0.74783826  0.00524550  0.42129194  1
  Mn3.34+  Mn181  1  0.75274790  0.50082256  0.41296750  1
  Mn3.34+  Mn182  1  0.22916912  0.49580415  0.91573702  1
  Mn3.34+  Mn183  1  0.42601811  0.50767889  0.73360254  1
  Mn3.34+  Mn184  1  0.23925590  0.50364345  0.91229429  1
  Mn3.34+  Mn185  1  0.75889399  -0.00042964  0.75563142  1
  Mn3.34+  Mn186  1  0.41974284  0.00054326  0.41956100  1
  Mn3.34+  Mn187  1  0.08551354  0.50309334  0.74210996  1
  Mn3.34+  Mn188  1  0.07954181  0.49904893  0.07854203  1
  Mn3.34+  Mn189  1  0.76020665  0.50135010  0.07904231  1
  Mn3.34+  Mn190  1  0.75860751  0.00013182  0.41976167  1
  Mn3.34+  Mn191  1  0.40504700  0.00457329  0.75444736  1
  Mn3.34+  Mn192  1  0.91683427  0.00192038  0.58158003  1
  Mn3.34+  Mn193  1  0.93010072  0.49859800  0.92117007  1
  Mn3.34+  Mn194  1  0.41630780  -0.00009781  0.76403070  1
  Mn3.34+  Mn195  1  0.25123488  0.49808845  0.57712492  1
  Mn3.34+  Mn196  1  0.57781962  -0.00006869  0.92690802  1
  Mn3.34+  Mn197  1  0.41233046  -0.00191529  0.07013752  1
  Mn3.34+  Mn198  1  0.26009910  -0.00077434  0.91552372  1
  Mn3.34+  Mn199  1  0.91822254  0.49738155  0.57555910  1
  Mn3.34+  Mn200  1  0.74107731  0.50786625  0.72948311  1
  Mn3.34+  Mn201  1  0.07828183  -0.00469628  0.07730990  1
  Mn3.34+  Mn202  1  0.75213398  0.50054862  0.73325302  1
  Mn3.34+  Mn203  1  0.41528088  0.50163632  0.40520541  1
  Mn3.34+  Mn204  1  0.91653816  0.49817505  0.26650685  1
  Mn3.34+  Mn205  1  0.41387829  0.50049950  0.73595207  1
  Mn3.34+  Mn206  1  0.91789191  -0.00058985  0.24428156  1
  Mn3.34+  Mn207  1  0.08248041  0.50459552  0.40742419  1
  Mn3.34+  Mn208  1  0.58406123  0.49415417  0.25875187  1
  Mn3.34+  Mn209  1  0.58275833  0.50116540  0.91749888  1
  Mn3.34+  Mn210  1  0.58585405  -0.00150477  0.24802030  1
  Mn3.34+  Mn211  1  0.76205167  -0.00206327  0.07264161  1
  Mn3.34+  Mn212  1  0.06695328  0.00052207  0.07647384  1
  Mn3.34+  Mn213  1  0.74724767  0.00356626  0.75556341  1
  Mn3.34+  Mn214  1  0.91427859  0.00275718  0.91130234  1
  Mn3.34+  Mn215  1  0.07864996  -0.00058473  0.42475586  1
  O2-  O216  1  -0.00046826  0.18221776  -0.00594856  1
  O2-  O217  1  0.00407718  0.16103859  0.33330991  1
  O2-  O218  1  0.00968968  0.16264736  0.65917391  1
  O2-  O219  1  0.00099994  0.65088942  0.00068857  1
  O2-  O220  1  0.01028740  0.64519787  0.32778352  1
  O2-  O221  1  0.00155605  0.66334353  0.65554029  1
  O2-  O222  1  0.32574391  0.15935196  0.00453769  1
  O2-  O223  1  0.32733589  0.14475238  0.33268621  1
  O2-  O224  1  0.33474818  0.16338897  0.65284001  1
  O2-  O225  1  0.33289717  0.65911827  0.00079269  1
  O2-  O226  1  0.33425488  0.67222198  0.33308294  1
  O2-  O227  1  0.32280737  0.68893291  0.66770668  1
  O2-  O228  1  0.67319063  0.14311845  -0.00268770  1
  O2-  O229  1  0.66929930  0.16026146  0.33345714  1
  O2-  O230  1  0.66377730  0.16615429  0.66350006  1
  O2-  O231  1  0.66381518  0.64366428  0.00082495  1
  O2-  O232  1  0.65367900  0.65754526  0.33534892  1
  O2-  O233  1  0.66233176  0.66281526  0.65915953  1
  O2-  O234  1  0.16112215  0.15575106  -0.00239057  1
  O2-  O235  1  0.16361440  0.16839609  0.32983148  1
  O2-  O236  1  0.16448709  0.16771993  0.66625378  1
  O2-  O237  1  0.16743375  0.66616030  0.00487822  1
  O2-  O238  1  0.16937108  0.66503529  0.34158541  1
  O2-  O239  1  0.16928823  0.68325181  0.66187978  1
  O2-  O240  1  0.50829634  0.15126669  0.00265591  1
  O2-  O241  1  0.49588359  0.13653368  0.33177306  1
  O2-  O242  1  0.50438856  0.16411730  0.65943322  1
  O2-  O243  1  0.49998098  0.65093505  -0.00595092  1
  O2-  O244  1  0.49540868  0.64960641  0.33257150  1
  O2-  O245  1  0.50127719  0.67205760  0.66259420  1
  O2-  O246  1  0.84099874  0.16882603  -0.00383832  1
  O2-  O247  1  0.83689651  0.17116492  0.34191790  1
  O2-  O248  1  0.83463465  0.16185266  0.65830614  1
  O2-  O249  1  0.83550417  0.64895399  -0.00189210  1
  O2-  O250  1  0.82863300  0.65842398  0.32357294  1
  O2-  O251  1  0.83495526  0.66536677  0.66350112  1
  O2-  O252  1  -0.00092038  0.31425314  0.00332573  1
  O2-  O253  1  -0.00187330  0.31343715  0.33562502  1
  O2-  O254  1  0.00386416  0.33722410  0.66414458  1
  O2-  O255  1  0.00560895  0.84613233  -0.00330664  1
  O2-  O256  1  0.00345305  0.84648201  0.33237394  1
  O2-  O257  1  0.00477545  0.83510967  0.66609728  1
  O2-  O258  1  0.33399889  0.34464646  0.00091932  1
  O2-  O259  1  0.32811732  0.33800748  0.33058458  1
  O2-  O260  1  0.34116732  0.34604596  0.66126008  1
  O2-  O261  1  0.33195595  0.84351333  0.00188079  1
  O2-  O262  1  0.33135878  0.84181972  0.33413457  1
  O2-  O263  1  0.33172427  0.84001764  0.66496588  1
  O2-  O264  1  0.66369557  0.35151692  0.00117488  1
  O2-  O265  1  0.67005935  0.31719640  0.34094542  1
  O2-  O266  1  0.66819133  0.34148468  0.66747118  1
  O2-  O267  1  0.66929056  0.84920999  -0.00131985  1
  O2-  O268  1  0.66314430  0.85146593  0.33421123  1
  O2-  O269  1  0.66615566  0.85105015  0.66802298  1
  O2-  O270  1  0.16365003  0.31842182  -0.00040779  1
  O2-  O271  1  0.16547501  0.31723357  0.33258915  1
  O2-  O272  1  0.15931881  0.33702967  0.65911274  1
  O2-  O273  1  0.16634850  0.84995721  -0.00231541  1
  O2-  O274  1  0.16821829  0.83126474  0.33118236  1
  O2-  O275  1  0.16662502  0.82650268  0.66773475  1
  O2-  O276  1  0.50310513  0.34858480  0.00162626  1
  O2-  O277  1  0.49415860  0.34611178  0.32609916  1
  O2-  O278  1  0.50280946  0.34064786  0.67116766  1
  O2-  O279  1  0.50427353  0.84369041  0.00766783  1
  O2-  O280  1  0.49504149  0.85109297  0.33257534  1
  O2-  O281  1  0.49384101  0.85273793  0.66287072  1
  O2-  O282  1  0.83732057  0.33315542  -0.00029365  1
  O2-  O283  1  0.83175804  0.31140973  0.33469877  1
  O2-  O284  1  0.83325526  0.34804781  0.66580220  1
  O2-  O285  1  0.83244448  0.84130202  -0.00214500  1
  O2-  O286  1  0.83549036  0.84288962  0.33653683  1
  O2-  O287  1  0.83444338  0.85067811  0.66827484  1
  O2-  O288  1  0.00500378  0.18879190  0.16811392  1
  O2-  O289  1  -0.00964207  0.18248577  0.49362942  1
  O2-  O290  1  0.00288547  0.18896206  0.82865661  1
  O2-  O291  1  -0.00407291  0.67622920  0.16353583  1
  O2-  O292  1  -0.00045662  0.67464040  0.50325095  1
  O2-  O293  1  0.00199348  0.69194926  0.82769114  1
  O2-  O294  1  0.34210870  0.18496704  0.16925646  1
  O2-  O295  1  0.31575771  0.17231813  0.48865935  1
  O2-  O296  1  0.33061050  0.17329385  0.83458240  1
  O2-  O297  1  0.33851635  0.68214321  0.17139560  1
  O2-  O298  1  0.31736085  0.67947776  0.49616603  1
  O2-  O299  1  0.33175623  0.67647394  0.84586223  1
  O2-  O300  1  0.66592985  0.17529323  0.15926185  1
  O2-  O301  1  0.66751315  0.18473891  0.49676172  1
  O2-  O302  1  0.66813960  0.17806550  0.83965628  1
  O2-  O303  1  0.66917622  0.67076844  0.16241998  1
  O2-  O304  1  0.64951473  0.67152134  0.50282058  1
  O2-  O305  1  0.67690773  0.67742423  0.84282152  1
  O2-  O306  1  0.16484092  0.19273980  0.16027363  1
  O2-  O307  1  0.16614605  0.19226868  0.50325166  1
  O2-  O308  1  0.16274393  0.18068915  0.83408162  1
  O2-  O309  1  0.15721706  0.67909125  0.17169002  1
  O2-  O310  1  0.15889601  0.68117060  0.50229352  1
  O2-  O311  1  0.17059187  0.68505635  0.83436898  1
  O2-  O312  1  0.50098632  0.17493564  0.16159838  1
  O2-  O313  1  0.50766204  0.17658392  0.49708265  1
  O2-  O314  1  0.50720033  0.18027549  0.82824224  1
  O2-  O315  1  0.50350594  0.67452764  0.15441827  1
  O2-  O316  1  0.51129864  0.67310124  0.50051117  1
  O2-  O317  1  0.49074479  0.68390828  0.84018044  1
  O2-  O318  1  0.83021273  0.18566753  0.17230861  1
  O2-  O319  1  0.83861605  0.17742084  0.49617282  1
  O2-  O320  1  0.83733845  0.18600823  0.84366776  1
  O2-  O321  1  0.83774021  0.68091460  0.16348911  1
  O2-  O322  1  0.83577045  0.67572143  0.49869274  1
  O2-  O323  1  0.83511507  0.67692392  0.84522445  1
  O2-  O324  1  -0.00251442  0.31732963  0.16481294  1
  O2-  O325  1  0.00528763  0.31690405  0.50371306  1
  O2-  O326  1  -0.00118924  0.31059690  0.82675490  1
  O2-  O327  1  0.00607573  0.82279745  0.17314107  1
  O2-  O328  1  -0.00240601  0.82952813  0.49647885  1
  O2-  O329  1  -0.00038430  0.81928219  0.83049097  1
  O2-  O330  1  0.33473257  0.32111982  0.17098671  1
  O2-  O331  1  0.33385498  0.33192063  0.49868542  1
  O2-  O332  1  0.34195461  0.33106717  0.84374971  1
  O2-  O333  1  0.33663844  0.81918980  0.17121794  1
  O2-  O334  1  0.33679563  0.81590569  0.50478722  1
  O2-  O335  1  0.32945205  0.81241701  0.82868671  1
  O2-  O336  1  0.66130824  0.33035519  0.16137907  1
  O2-  O337  1  0.67304067  0.31996400  0.50385826  1
  O2-  O338  1  0.66751395  0.32709986  0.83352378  1
  O2-  O339  1  0.66626665  0.82342252  0.16760692  1
  O2-  O340  1  0.66316647  0.83469305  0.49517213  1
  O2-  O341  1  0.66597696  0.82988826  0.83050993  1
  O2-  O342  1  0.16710935  0.31045558  0.16699259  1
  O2-  O343  1  0.16212861  0.31983227  0.50046778  1
  O2-  O344  1  0.17319960  0.30958709  0.82260205  1
  O2-  O345  1  0.16956964  0.81396352  0.16502522  1
  O2-  O346  1  0.16825579  0.81504545  0.49836646  1
  O2-  O347  1  0.16386005  0.81812362  0.83312947  1
  O2-  O348  1  0.50294566  0.32562766  0.15979375  1
  O2-  O349  1  0.49524856  0.32346680  0.50549298  1
  O2-  O350  1  0.49561464  0.32805519  0.84243528  1
  O2-  O351  1  0.49334927  0.82778401  0.17240543  1
  O2-  O352  1  0.50062052  0.83483237  0.49748459  1
  O2-  O353  1  0.50712141  0.81819990  0.81995586  1
  O2-  O354  1  0.83494142  0.31996016  0.16656286  1
  O2-  O355  1  0.82861948  0.31826328  0.50414158  1
  O2-  O356  1  0.83555579  0.32368389  0.83330712  1
  O2-  O357  1  0.82884006  0.81807949  0.17299304  1
  O2-  O358  1  0.82697962  0.82777170  0.50385236  1
  O2-  O359  1  0.83691847  0.82173826  0.83395155  1
  O2-  O360  1  0.08400104  0.08279079  0.11789230  1
  O2-  O361  1  0.08162681  0.08715716  0.45057665  1
  O2-  O362  1  0.08442082  0.08156450  0.76116964  1
  O2-  O363  1  0.07835090  0.57955218  0.11934770  1
  O2-  O364  1  0.09188662  0.58134056  0.45325011  1
  O2-  O365  1  0.11206218  0.58130182  0.73730380  1
  O2-  O366  1  0.41033071  0.07794827  0.11039165  1
  O2-  O367  1  0.40071776  0.07992650  0.46119139  1
  O2-  O368  1  0.42707612  0.08281684  0.75190416  1
  O2-  O369  1  0.42719823  0.58354786  0.10410107  1
  O2-  O370  1  0.42758558  0.57136428  0.44749884  1
  O2-  O371  1  0.40739846  0.58024122  0.78473975  1
  O2-  O372  1  0.75366078  0.07845216  0.12044646  1
  O2-  O373  1  0.75599273  0.08658974  0.44580327  1
  O2-  O374  1  0.73534807  0.08481378  0.76102231  1
  O2-  O375  1  0.75697779  0.58110183  0.11891799  1
  O2-  O376  1  0.71911246  0.57575356  0.43175023  1
  O2-  O377  1  0.75289533  0.57859764  0.78245587  1
  O2-  O378  1  0.22767422  0.08630373  0.21215305  1
  O2-  O379  1  0.22834413  0.08419966  0.55310085  1
  O2-  O380  1  0.23744230  0.08054940  0.89889114  1
  O2-  O381  1  0.25575306  0.57232708  0.23899944  1
  O2-  O382  1  0.23974994  0.57607514  0.55332592  1
  O2-  O383  1  0.25097633  0.58351209  0.88667623  1
  O2-  O384  1  0.57724920  0.07928971  0.21482373  1
  O2-  O385  1  0.59282768  0.08350805  0.56671826  1
  O2-  O386  1  0.58695333  0.08001636  0.88215834  1
  O2-  O387  1  0.60001859  0.57038612  0.22118398  1
  O2-  O388  1  0.57606739  0.57578908  0.56547986  1
  O2-  O389  1  0.58967824  0.58308839  0.88572027  1
  O2-  O390  1  0.93213380  0.08102012  0.23073140  1
  O2-  O391  1  0.92347950  0.08155708  0.54668887  1
  O2-  O392  1  0.91835070  0.08235321  0.88436858  1
  O2-  O393  1  0.91345158  0.57620600  0.21396546  1
  O2-  O394  1  0.92050652  0.57998133  0.55749069  1
  O2-  O395  1  0.91246421  0.58140834  0.89008580  1
  O2-  O396  1  0.07438298  0.41967987  0.11309247  1
  O2-  O397  1  0.08994273  0.42381722  0.44413135  1
  O2-  O398  1  0.06553649  0.42219035  0.76256627  1
  O2-  O399  1  0.09556795  0.91846520  0.11983652  1
  O2-  O400  1  0.09566889  0.91521060  0.43585208  1
  O2-  O401  1  0.08334787  0.91459821  0.76877558  1
  O2-  O402  1  0.43016778  0.41920877  0.10413867  1
  O2-  O403  1  0.40675763  0.42737268  0.44498425  1
  O2-  O404  1  0.42601533  0.42445438  0.78727139  1
  O2-  O405  1  0.41190659  0.91989224  0.11381159  1
  O2-  O406  1  0.41516277  0.91707494  0.44634868  1
  O2-  O407  1  0.41000326  0.91936772  0.78010361  1
  O2-  O408  1  0.75570241  0.41905692  0.09488083  1
  O2-  O409  1  0.76034924  0.42380566  0.44737848  1
  O2-  O410  1  0.75139958  0.42382880  0.78300424  1
  O2-  O411  1  0.74627612  0.91844731  0.10897985  1
  O2-  O412  1  0.75039813  0.91839565  0.44212314  1
  O2-  O413  1  0.76354923  0.91858350  0.78329327  1
  O2-  O414  1  0.23927817  0.41401391  0.24493520  1
  O2-  O415  1  0.23173631  0.41743671  0.55001276  1
  O2-  O416  1  0.24913646  0.41553701  0.89712521  1
  O2-  O417  1  0.26298493  0.92004288  0.22562928  1
  O2-  O418  1  0.26617649  0.91697124  0.55058687  1
  O2-  O419  1  0.24062301  0.91987286  0.87893154  1
  O2-  O420  1  0.56933988  0.42022873  0.21914343  1
  O2-  O421  1  0.58564090  0.41236911  0.56319220  1
  O2-  O422  1  0.57969905  0.41983576  0.88980436  1
  O2-  O423  1  0.57863789  0.91768357  0.22074518  1
  O2-  O424  1  0.59447480  0.92396160  0.55166200  1
  O2-  O425  1  0.58492401  0.92037624  0.88358155  1
  O2-  O426  1  0.93253240  0.42177101  0.22557508  1
  O2-  O427  1  0.93718993  0.41547484  0.55906932  1
  O2-  O428  1  0.91366921  0.41892613  0.89336364  1
  O2-  O429  1  0.91056378  0.91789968  0.23670430  1
  O2-  O430  1  0.89858148  0.92278692  0.55356421  1
  O2-  O431  1  0.92026147  0.92137338  0.88390922  1
  O2-  O432  1  0.01080586  0.00274169  -0.02605450  1
  O2-  O433  1  -0.00572579  0.01176264  0.33754913  1
  O2-  O434  1  0.00875115  -0.00663955  0.64109532  1
  O2-  O435  1  -0.02985274  0.49661142  0.03615850  1
  O2-  O436  1  0.02653862  0.50632690  0.30099357  1
  O2-  O437  1  0.00767201  0.49712005  0.64825759  1
  O2-  O438  1  0.30908842  -0.00490104  0.02758495  1
  O2-  O439  1  0.32930335  0.01209367  0.34250251  1
  O2-  O440  1  0.34343972  -0.00074920  0.66286121  1
  O2-  O441  1  0.35680527  0.50182488  -0.05407692  1
  O2-  O442  1  0.33320375  0.49887518  0.33987829  1
  O2-  O443  1  0.33393108  0.50086137  0.65393278  1
  O2-  O444  1  0.66339028  -0.00001419  0.01324104  1
  O2-  O445  1  0.65916907  -0.00192571  0.34471289  1
  O2-  O446  1  0.66678493  -0.02349454  0.67802853  1
  O2-  O447  1  0.65764017  0.50936698  0.01847806  1
  O2-  O448  1  0.66275380  0.50205306  0.33522151  1
  O2-  O449  1  0.66504837  0.48050997  0.65800108  1
  O2-  O450  1  0.16241496  0.00261304  -0.00336826  1
  O2-  O451  1  0.16076943  0.02382774  0.33906021  1
  O2-  O452  1  0.16380187  -0.01305533  0.64618277  1
  O2-  O453  1  0.17105993  0.50429186  0.01234562  1
  O2-  O454  1  0.17116688  0.50162034  0.34791368  1
  O2-  O455  1  0.15389542  0.49379196  0.63966982  1
  O2-  O456  1  0.51684342  -0.00399160  0.03217265  1
  O2-  O457  1  0.49614224  -0.01234937  0.32920037  1
  O2-  O458  1  0.50871168  -0.01456752  0.69195889  1
  O2-  O459  1  0.50618447  0.49418694  0.00167654  1
  O2-  O460  1  0.49030606  0.50336918  0.32420621  1
  O2-  O461  1  0.50270710  0.48108404  0.66081876  1
  O2-  O462  1  0.81310384  0.00348704  -0.03705804  1
  O2-  O463  1  0.83090799  0.01696676  0.32800485  1
  O2-  O464  1  0.82048406  0.00122140  0.65008262  1
  O2-  O465  1  0.81504069  0.50814495  -0.02934172  1
  O2-  O466  1  0.81567226  0.51872152  0.31391390  1
  O2-  O467  1  0.83589885  0.48787936  0.65781968  1
  O2-  O468  1  0.91698941  0.25106333  0.60363638  1
  O2-  O469  1  0.57861074  0.24795149  0.25916147  1
  O2-  O470  1  0.42797884  0.74909408  0.40333806  1
  O2-  O471  1  0.24967735  0.75388162  0.94449226  1
  O2-  O472  1  0.92412190  0.74861459  0.27517556  1
  O2-  O473  1  0.74492474  0.74794173  0.05630784  1
  O2-  O474  1  0.58798613  0.25040976  0.94352275  1
  O2-  O475  1  0.73474491  0.25009417  0.06183709  1
  O2-  O476  1  0.58724890  0.75725488  0.59974985  1
  O2-  O477  1  0.42282622  0.74939669  0.05872971  1
  O2-  O478  1  0.26111375  0.25286278  0.59749508  1
  O2-  O479  1  0.58185646  0.75496185  0.26776097  1
  O2-  O480  1  0.91448636  0.74910848  0.94459837  1
  O2-  O481  1  0.91679917  0.74689254  0.59275604  1
  O2-  O482  1  0.07042267  0.74920499  0.06117226  1
  O2-  O483  1  0.74848601  0.25496681  0.73831494  1
  O2-  O484  1  0.42276077  0.25178017  0.05820463  1
  O2-  O485  1  0.74508873  0.75079378  0.40058385  1
  O2-  O486  1  0.74854569  0.75424080  0.73281362  1
  O2-  O487  1  0.06275736  0.74789236  0.39613146  1
  O2-  O488  1  0.58022707  0.25201063  0.59752742  1
  O2-  O489  1  0.41447897  0.25569069  0.74346314  1
  O2-  O490  1  0.59301634  0.75176058  0.94648376  1
  O2-  O491  1  0.41964881  0.25288783  0.39240521  1
  O2-  O492  1  0.26049929  0.24820315  0.92973728  1
