# generated using pymatgen
data_Ca108Mn108O277
_symmetry_space_group_name_H-M   'P 1'
_cell_length_a   16.02462689
_cell_length_b   22.30186573
_cell_length_c   16.38635511
_cell_angle_alpha   90.00325991
_cell_angle_beta   90.00035342
_cell_angle_gamma   90.00803219
_symmetry_Int_Tables_number   1
_chemical_formula_structural   Ca108Mn108O277
_chemical_formula_sum   'Ca108 Mn108 O277'
_cell_volume   5856.14040252
_cell_formula_units_Z   1
loop_
 _symmetry_equiv_pos_site_id
 _symmetry_equiv_pos_as_xyz
  1  'x, y, z'
loop_
 _atom_type_symbol
 _atom_type_oxidation_number
  Ca2+  2.0
  Mn3.34+  3.34
  O2-  -2.0
loop_
 _atom_site_type_symbol
 _atom_site_label
 _atom_site_symmetry_multiplicity
 _atom_site_fract_x
 _atom_site_fract_y
 _atom_site_fract_z
 _atom_site_occupancy
  Ca2+  Ca0  1  0.09386223  0.25193982  0.27140472  1
  Ca2+  Ca1  1  0.08940866  0.23858659  0.58739745  1
  Ca2+  Ca2  1  0.05863222  0.24411613  0.90100427  1
  Ca2+  Ca3  1  0.09809654  0.75403649  0.25516140  1
  Ca2+  Ca4  1  0.08698692  0.73150276  0.59556012  1
  Ca2+  Ca5  1  0.07804223  0.74535041  0.90529286  1
  Ca2+  Ca6  1  0.40449391  0.25095116  0.24609385  1
  Ca2+  Ca7  1  0.39508017  0.25293237  0.58430885  1
  Ca2+  Ca8  1  0.42072512  0.25387739  0.92170639  1
  Ca2+  Ca9  1  0.41110660  0.75094494  0.25831911  1
  Ca2+  Ca10  1  0.41071276  0.75086666  0.58040354  1
  Ca2+  Ca11  1  0.42883811  0.73435280  0.91368162  1
  Ca2+  Ca12  1  0.75339057  0.26045336  0.24899534  1
  Ca2+  Ca13  1  0.75793242  0.26293786  0.57699077  1
  Ca2+  Ca14  1  0.77013636  0.25293181  0.92041966  1
  Ca2+  Ca15  1  0.73658708  0.75624949  0.24586428  1
  Ca2+  Ca16  1  0.74606044  0.74244624  0.60141149  1
  Ca2+  Ca17  1  0.74767372  0.72644894  0.89195311  1
  Ca2+  Ca18  1  0.25239762  0.25975170  0.09561043  1
  Ca2+  Ca19  1  0.22752869  0.23290558  0.43855666  1
  Ca2+  Ca20  1  0.23476170  0.24930300  0.72429981  1
  Ca2+  Ca21  1  0.25107425  0.74614084  0.09057721  1
  Ca2+  Ca22  1  0.25659029  0.75696489  0.42305612  1
  Ca2+  Ca23  1  0.23898386  0.74917256  0.74161170  1
  Ca2+  Ca24  1  0.58013468  0.25967740  0.08107953  1
  Ca2+  Ca25  1  0.58022152  0.25328294  0.42852713  1
  Ca2+  Ca26  1  0.57208387  0.25649278  0.74010974  1
  Ca2+  Ca27  1  0.56633772  0.74391890  0.08713854  1
  Ca2+  Ca28  1  0.56247141  0.75352392  0.41917707  1
  Ca2+  Ca29  1  0.57411008  0.75500367  0.74378333  1
  Ca2+  Ca30  1  0.91283160  0.25367438  0.06746744  1
  Ca2+  Ca31  1  0.93815343  0.25134789  0.43532874  1
  Ca2+  Ca32  1  0.93263791  0.25781973  0.75257357  1
  Ca2+  Ca33  1  0.92843711  0.74420804  0.06620943  1
  Ca2+  Ca34  1  0.92779173  0.76305187  0.43127284  1
  Ca2+  Ca35  1  0.93253200  0.74517023  0.74215842  1
  Ca2+  Ca36  1  0.09922370  0.09356380  0.28068247  1
  Ca2+  Ca37  1  0.37109682  0.08193297  0.57867673  1
  Ca2+  Ca38  1  0.93591582  0.58001666  0.42445378  1
  Ca2+  Ca39  1  0.94270393  0.09827502  0.42989682  1
  Ca2+  Ca40  1  0.07053089  0.61824272  0.90762205  1
  Ca2+  Ca41  1  0.57165115  0.09175569  0.42042628  1
  Ca2+  Ca42  1  0.94807864  0.58180197  0.42735151  1
  Ca2+  Ca43  1  0.57301918  0.09093201  0.07474110  1
  Ca2+  Ca44  1  0.42545024  0.08650692  0.25296053  1
  Ca2+  Ca45  1  0.91124446  0.09558716  0.06997577  1
  Ca2+  Ca46  1  0.90841009  0.60646592  0.76458852  1
  Ca2+  Ca47  1  0.54831959  0.58930571  0.06844814  1
  Ca2+  Ca48  1  0.93090322  0.10361378  0.75753960  1
  Ca2+  Ca49  1  0.09251439  0.59003590  0.24597645  1
  Ca2+  Ca50  1  0.73788192  0.58889472  0.60333809  1
  Ca2+  Ca51  1  0.59621792  0.61368796  0.76332374  1
  Ca2+  Ca52  1  0.72903466  0.58008211  0.26130010  1
  Ca2+  Ca53  1  0.95463396  0.09800094  0.43314119  1
  Ca2+  Ca54  1  0.94713043  0.60383567  0.04118923  1
  Ca2+  Ca55  1  0.75282425  0.09040726  0.90974081  1
  Ca2+  Ca56  1  0.74016662  0.08826785  0.91113904  1
  Ca2+  Ca57  1  0.24555177  0.60580462  0.07967723  1
  Ca2+  Ca58  1  0.42535355  0.59065310  0.58619782  1
  Ca2+  Ca59  1  0.74284292  0.09498031  0.25408565  1
  Ca2+  Ca60  1  0.22275622  0.60514438  0.75034869  1
  Ca2+  Ca61  1  0.59030009  0.07998708  0.74548946  1
  Ca2+  Ca62  1  0.42886405  0.07575920  0.92612588  1
  Ca2+  Ca63  1  0.08960554  0.09517770  0.27455951  1
  Ca2+  Ca64  1  0.60673519  0.61391534  0.76355471  1
  Ca2+  Ca65  1  0.74536990  0.08405556  0.59937148  1
  Ca2+  Ca66  1  0.41393510  0.08589420  0.25327931  1
  Ca2+  Ca67  1  0.10153438  0.59310118  0.24990244  1
  Ca2+  Ca68  1  0.58453294  0.09160545  0.07545552  1
  Ca2+  Ca69  1  0.25032601  0.59868002  0.42435533  1
  Ca2+  Ca70  1  0.41846514  0.59696402  0.24487892  1
  Ca2+  Ca71  1  0.25854881  0.08417766  0.07945272  1
  Ca2+  Ca72  1  0.57580592  0.90840743  0.06936190  1
  Ca2+  Ca73  1  0.41007452  0.89933253  0.91467727  1
  Ca2+  Ca74  1  0.08360447  0.41585101  0.25870611  1
  Ca2+  Ca75  1  0.09232456  0.89300047  0.91324572  1
  Ca2+  Ca76  1  0.92965769  0.89155711  0.08179156  1
  Ca2+  Ca77  1  0.74826282  0.90547944  0.25837253  1
  Ca2+  Ca78  1  0.42715624  0.41445048  0.24036781  1
  Ca2+  Ca79  1  0.41328219  0.91181202  0.27528227  1
  Ca2+  Ca80  1  0.24061994  0.41455404  0.41831156  1
  Ca2+  Ca81  1  0.58701077  0.41833293  0.72859105  1
  Ca2+  Ca82  1  0.74219260  0.89879363  0.90893055  1
  Ca2+  Ca83  1  0.91761661  0.40691190  0.07625413  1
  Ca2+  Ca84  1  0.40957050  0.40841183  0.92632243  1
  Ca2+  Ca85  1  0.59722479  0.41232375  0.42187022  1
  Ca2+  Ca86  1  0.91898952  0.40779365  0.42238048  1
  Ca2+  Ca87  1  0.41487499  0.41254462  0.24118594  1
  Ca2+  Ca88  1  0.24386848  0.90026296  0.08195162  1
  Ca2+  Ca89  1  0.09415217  0.90485381  0.58173790  1
  Ca2+  Ca90  1  0.58129511  0.90782141  0.76033511  1
  Ca2+  Ca91  1  0.56618130  0.90567386  0.07333260  1
  Ca2+  Ca92  1  0.42267036  0.40842524  0.92707097  1
  Ca2+  Ca93  1  0.22988957  0.41447494  0.42156456  1
  Ca2+  Ca94  1  0.74765202  0.90373371  0.58829292  1
  Ca2+  Ca95  1  0.42348543  0.41470996  0.59044819  1
  Ca2+  Ca96  1  0.58425905  0.41253294  0.42216264  1
  Ca2+  Ca97  1  0.93155057  0.40720380  0.42301099  1
  Ca2+  Ca98  1  0.25707039  0.41254907  0.07452316  1
  Ca2+  Ca99  1  0.76192969  0.40189800  0.91374973  1
  Ca2+  Ca100  1  0.25317463  0.91738945  0.73055298  1
  Ca2+  Ca101  1  0.07385004  0.40239980  0.91297261  1
  Ca2+  Ca102  1  0.09163275  0.90181581  0.25043090  1
  Ca2+  Ca103  1  0.10329161  0.90819374  0.57925823  1
  Ca2+  Ca104  1  0.75927467  0.90388720  0.58829464  1
  Ca2+  Ca105  1  0.07100321  0.41625436  0.25884955  1
  Ca2+  Ca106  1  0.91487763  0.90579808  0.74758792  1
  Ca2+  Ca107  1  0.73675976  0.90561372  0.25763857  1
  Mn3.34+  Mn108  1  0.08336246  0.33392431  0.08480090  1
  Mn3.34+  Mn109  1  0.08504702  0.33154673  0.42291425  1
  Mn3.34+  Mn110  1  0.08650319  0.33765133  0.74609146  1
  Mn3.34+  Mn111  1  0.08548132  0.82449114  0.08310111  1
  Mn3.34+  Mn112  1  0.08804418  0.83359109  0.41732056  1
  Mn3.34+  Mn113  1  0.08509438  0.83242093  0.75115150  1
  Mn3.34+  Mn114  1  0.42134828  0.33442774  0.08540248  1
  Mn3.34+  Mn115  1  0.41632919  0.33471231  0.42131933  1
  Mn3.34+  Mn116  1  0.41189982  0.33652780  0.75119031  1
  Mn3.34+  Mn117  1  0.41052128  0.83001098  0.08587681  1
  Mn3.34+  Mn118  1  0.41524050  0.84359109  0.42443581  1
  Mn3.34+  Mn119  1  0.41431631  0.83136144  0.74782115  1
  Mn3.34+  Mn120  1  0.74787428  0.32921987  0.08506239  1
  Mn3.34+  Mn121  1  0.75314057  0.33410596  0.41707906  1
  Mn3.34+  Mn122  1  0.75031696  0.33650154  0.74891944  1
  Mn3.34+  Mn123  1  0.75244851  0.83199749  0.08194593  1
  Mn3.34+  Mn124  1  0.74834127  0.83349353  0.42301835  1
  Mn3.34+  Mn125  1  0.75090462  0.83377330  0.75677252  1
  Mn3.34+  Mn126  1  0.25177384  0.33589857  0.24865963  1
  Mn3.34+  Mn127  1  0.24785756  0.33835703  0.58578778  1
  Mn3.34+  Mn128  1  0.24480224  0.32961521  0.91242365  1
  Mn3.34+  Mn129  1  0.25300782  0.83507729  0.25439234  1
  Mn3.34+  Mn130  1  0.25831208  0.83616064  0.58003141  1
  Mn3.34+  Mn131  1  0.25247181  0.82856456  0.91180937  1
  Mn3.34+  Mn132  1  0.58756823  0.33295066  0.24800004  1
  Mn3.34+  Mn133  1  0.58629824  0.33887423  0.58510994  1
  Mn3.34+  Mn134  1  0.58933480  0.33083879  0.90942419  1
  Mn3.34+  Mn135  1  0.57689360  0.83304840  0.25246919  1
  Mn3.34+  Mn136  1  0.57579896  0.82987010  0.58239551  1
  Mn3.34+  Mn137  1  0.58253143  0.83249749  0.91184349  1
  Mn3.34+  Mn138  1  0.91577142  0.33207716  0.24417140  1
  Mn3.34+  Mn139  1  0.91828886  0.33840601  0.59419323  1
  Mn3.34+  Mn140  1  0.91697122  0.33349794  0.91184254  1
  Mn3.34+  Mn141  1  0.91976040  0.83141723  0.25372553  1
  Mn3.34+  Mn142  1  0.92135616  0.83194511  0.58257285  1
  Mn3.34+  Mn143  1  0.91558972  0.82457286  0.91102088  1
  Mn3.34+  Mn144  1  0.40587740  0.16186536  0.42479551  1
  Mn3.34+  Mn145  1  0.74833464  0.66121106  0.07610793  1
  Mn3.34+  Mn146  1  0.58284555  0.16780638  0.91100403  1
  Mn3.34+  Mn147  1  0.24986381  0.67301536  0.91485686  1
  Mn3.34+  Mn148  1  0.24248244  0.16776882  0.90913171  1
  Mn3.34+  Mn149  1  0.41318370  0.66766399  0.75286723  1
  Mn3.34+  Mn150  1  0.41303073  0.66498153  0.08172349  1
  Mn3.34+  Mn151  1  0.75350085  0.16873657  0.42179197  1
  Mn3.34+  Mn152  1  0.58243096  0.17637244  0.24791689  1
  Mn3.34+  Mn153  1  0.08568977  0.16480726  0.74642078  1
  Mn3.34+  Mn154  1  0.08891138  0.66743743  0.42380692  1
  Mn3.34+  Mn155  1  0.92007793  0.66974797  0.24608413  1
  Mn3.34+  Mn156  1  0.75156352  0.66830287  0.41863540  1
  Mn3.34+  Mn157  1  0.42221759  0.16492063  0.74795453  1
  Mn3.34+  Mn158  1  0.41335708  0.16971149  0.08297974  1
  Mn3.34+  Mn159  1  0.25098575  0.16746566  0.25126439  1
  Mn3.34+  Mn160  1  0.75057382  0.17063703  0.08650037  1
  Mn3.34+  Mn161  1  0.74078063  0.66341546  0.41980861  1
  Mn3.34+  Mn162  1  0.74822649  0.17846197  0.74243645  1
  Mn3.34+  Mn163  1  0.74705782  0.17322286  0.75200613  1
  Mn3.34+  Mn164  1  0.90829047  0.66191960  0.24479985  1
  Mn3.34+  Mn165  1  0.57871674  0.66341135  0.58186507  1
  Mn3.34+  Mn166  1  0.41202748  0.15967716  0.74929110  1
  Mn3.34+  Mn167  1  0.41614093  0.66720543  0.41922551  1
  Mn3.34+  Mn168  1  0.41676212  0.16845318  0.42407431  1
  Mn3.34+  Mn169  1  0.25148037  0.16188073  0.90737661  1
  Mn3.34+  Mn170  1  0.07554627  0.16807972  0.08280232  1
  Mn3.34+  Mn171  1  0.08439279  0.16173950  0.08382829  1
  Mn3.34+  Mn172  1  0.91192557  0.17186395  0.24952426  1
  Mn3.34+  Mn173  1  0.73967921  0.66769739  0.07638087  1
  Mn3.34+  Mn174  1  0.74068206  0.16385765  0.42283469  1
  Mn3.34+  Mn175  1  0.57740259  0.66459675  0.24988648  1
  Mn3.34+  Mn176  1  0.92244181  0.16800491  0.58741938  1
  Mn3.34+  Mn177  1  0.25141177  0.66629687  0.58549976  1
  Mn3.34+  Mn178  1  0.91797403  0.66360794  0.58956410  1
  Mn3.34+  Mn179  1  0.25298049  0.66974977  0.25155359  1
  Mn3.34+  Mn180  1  0.08418523  0.49742616  0.74200728  1
  Mn3.34+  Mn181  1  0.90356536  0.49945981  0.25076895  1
  Mn3.34+  Mn182  1  0.93520196  0.00341731  0.91099635  1
  Mn3.34+  Mn183  1  0.09032106  0.00422558  0.74091263  1
  Mn3.34+  Mn184  1  0.92416680  -0.00129898  0.91010804  1
  Mn3.34+  Mn185  1  0.57574802  -0.00101547  0.57899509  1
  Mn3.34+  Mn186  1  0.92020792  0.49880844  0.60686530  1
  Mn3.34+  Mn187  1  0.24446159  0.49979344  0.90667787  1
  Mn3.34+  Mn188  1  0.76126397  0.00019825  0.08996709  1
  Mn3.34+  Mn189  1  0.08602060  -0.00234406  0.08752395  1
  Mn3.34+  Mn190  1  0.91609044  -0.00177187  0.59459059  1
  Mn3.34+  Mn191  1  0.75074140  0.00439072  0.08931449  1
  Mn3.34+  Mn192  1  0.58520755  0.50753045  0.91002348  1
  Mn3.34+  Mn193  1  0.74284705  0.49714989  0.09059571  1
  Mn3.34+  Mn194  1  0.41606646  0.50379657  0.74195988  1
  Mn3.34+  Mn195  1  0.91018612  0.00396269  0.24456031  1
  Mn3.34+  Mn196  1  0.91774222  0.49974016  0.91659684  1
  Mn3.34+  Mn197  1  0.74496021  0.49931688  0.74194729  1
  Mn3.34+  Mn198  1  0.74248101  -0.00139710  0.41349933  1
  Mn3.34+  Mn199  1  0.58259156  0.49911896  0.91423472  1
  Mn3.34+  Mn200  1  0.75374699  0.49265801  0.08821607  1
  Mn3.34+  Mn201  1  0.24611083  0.50441074  0.59664509  1
  Mn3.34+  Mn202  1  0.08171774  0.49861010  0.07971028  1
  Mn3.34+  Mn203  1  0.24759696  -0.00362581  0.26456056  1
  Mn3.34+  Mn204  1  0.24574251  -0.00131474  0.92035388  1
  Mn3.34+  Mn205  1  0.58560225  0.49965326  0.24781163  1
  Mn3.34+  Mn206  1  0.25494007  0.50468404  0.90776792  1
  Mn3.34+  Mn207  1  0.26099081  0.50182340  0.24801865  1
  Mn3.34+  Mn208  1  0.92590381  -0.00054348  0.24638680  1
  Mn3.34+  Mn209  1  0.10656947  -0.00095899  0.41838595  1
  Mn3.34+  Mn210  1  0.56381713  -0.00865276  0.58130574  1
  Mn3.34+  Mn211  1  0.40411797  -0.00214482  0.74097898  1
  Mn3.34+  Mn212  1  0.58015990  0.00109295  0.25395694  1
  Mn3.34+  Mn213  1  0.40687562  -0.00304044  0.08516250  1
  Mn3.34+  Mn214  1  0.74702356  0.50027652  0.42417495  1
  Mn3.34+  Mn215  1  0.42228997  0.50480692  0.41330360  1
  O2-  O216  1  -0.00660061  0.15955048  0.00639293  1
  O2-  O217  1  -0.00778291  0.16089067  0.33104339  1
  O2-  O218  1  -0.00133444  0.16251302  0.66725915  1
  O2-  O219  1  0.00534981  0.68522614  -0.00494466  1
  O2-  O220  1  0.00327168  0.65138050  0.32975564  1
  O2-  O221  1  -0.00780964  0.65929232  0.66741130  1
  O2-  O222  1  0.33229580  0.15785112  -0.00431386  1
  O2-  O223  1  0.34111368  0.14739008  0.33029996  1
  O2-  O224  1  0.33704641  0.15795964  0.66599068  1
  O2-  O225  1  0.32959854  0.67368351  0.00296448  1
  O2-  O226  1  0.33436844  0.65174998  0.33277904  1
  O2-  O227  1  0.33405258  0.65036510  0.66559408  1
  O2-  O228  1  0.66252356  0.15635211  0.00221776  1
  O2-  O229  1  0.66499033  0.16034355  0.33189549  1
  O2-  O230  1  0.66693513  0.17544736  0.66469525  1
  O2-  O231  1  0.65961793  0.67583910  -0.00239122  1
  O2-  O232  1  0.67254071  0.65610113  0.32612382  1
  O2-  O233  1  0.66478157  0.66560513  0.65941974  1
  O2-  O234  1  0.17088221  0.15685592  0.00103940  1
  O2-  O235  1  0.16693517  0.16743439  0.32610065  1
  O2-  O236  1  0.16475232  0.16820525  0.66635750  1
  O2-  O237  1  0.17435721  0.67979119  -0.00175011  1
  O2-  O238  1  0.16692465  0.65558566  0.33293400  1
  O2-  O239  1  0.17135573  0.66515120  0.66087966  1
  O2-  O240  1  0.49931019  0.15534448  -0.00198694  1
  O2-  O241  1  0.49729539  0.15852479  0.33321924  1
  O2-  O242  1  0.50830621  0.15522580  0.67570546  1
  O2-  O243  1  0.49734520  0.67149149  0.00944361  1
  O2-  O244  1  0.49688654  0.66076221  0.33068355  1
  O2-  O245  1  0.50095638  0.65317627  0.67117353  1
  O2-  O246  1  0.81971543  0.14843030  0.00121653  1
  O2-  O247  1  0.83190892  0.14793734  0.33769320  1
  O2-  O248  1  0.83227573  0.15615635  0.66647803  1
  O2-  O249  1  0.83353040  0.66823186  0.00084871  1
  O2-  O250  1  0.83639115  0.63748778  0.33429358  1
  O2-  O251  1  0.82900081  0.66208405  0.65678420  1
  O2-  O252  1  -0.00157080  0.34440408  0.00252922  1
  O2-  O253  1  0.00113879  0.33679454  0.33241981  1
  O2-  O254  1  0.00002002  0.33575726  0.67019087  1
  O2-  O255  1  0.00286130  0.82456689  -0.00512178  1
  O2-  O256  1  0.00597226  0.83854175  0.32875871  1
  O2-  O257  1  0.00484805  0.85477942  0.66597573  1
  O2-  O258  1  0.33165600  0.33868467  -0.00135731  1
  O2-  O259  1  0.33470794  0.35926920  0.33061412  1
  O2-  O260  1  0.33989779  0.34396783  0.65775794  1
  O2-  O261  1  0.32996116  0.83843731  0.00193114  1
  O2-  O262  1  0.33483004  0.83942803  0.33169460  1
  O2-  O263  1  0.32840856  0.84189963  0.67422742  1
  O2-  O264  1  0.66911348  0.32707139  -0.00715694  1
  O2-  O265  1  0.66164971  0.33247122  0.33833424  1
  O2-  O266  1  0.66606068  0.31604412  0.66624367  1
  O2-  O267  1  0.66016731  0.83886905  0.00307192  1
  O2-  O268  1  0.66694606  0.84284545  0.33168135  1
  O2-  O269  1  0.67241585  0.83729191  0.67022916  1
  O2-  O270  1  0.17095378  0.34427226  0.00532970  1
  O2-  O271  1  0.16664550  0.34899859  0.33040772  1
  O2-  O272  1  0.16870786  0.33631823  0.66661195  1
  O2-  O273  1  0.16930666  0.82421415  -0.00060861  1
  O2-  O274  1  0.16578788  0.83949427  0.32996629  1
  O2-  O275  1  0.16695775  0.84461165  0.66968561  1
  O2-  O276  1  0.50053857  0.33425630  -0.00702423  1
  O2-  O277  1  0.50257106  0.34116755  0.33691213  1
  O2-  O278  1  0.50583945  0.34341141  0.66974509  1
  O2-  O279  1  0.50023032  0.83350062  -0.00168869  1
  O2-  O280  1  0.49463884  0.83340413  0.32825759  1
  O2-  O281  1  0.50746477  0.84638726  0.67638434  1
  O2-  O282  1  0.83486258  0.34288161  0.00051530  1
  O2-  O283  1  0.84068317  0.34161859  0.33519801  1
  O2-  O284  1  0.83046434  0.31940014  0.67136615  1
  O2-  O285  1  0.83734602  0.83372877  -0.00041995  1
  O2-  O286  1  0.82734892  0.85069290  0.33456975  1
  O2-  O287  1  0.83386710  0.83641779  0.66991476  1
  O2-  O288  1  0.00372619  0.18632591  0.17630329  1
  O2-  O289  1  -0.00316149  0.17255189  0.50250740  1
  O2-  O290  1  -0.00143103  0.17830751  0.81975126  1
  O2-  O291  1  -0.00054354  0.68124084  0.16767787  1
  O2-  O292  1  -0.00493422  0.67104254  0.49071337  1
  O2-  O293  1  -0.01538711  0.68274668  0.83761204  1
  O2-  O294  1  0.33421019  0.17163280  0.17090554  1
  O2-  O295  1  0.32763015  0.17078031  0.50474760  1
  O2-  O296  1  0.33870968  0.18588526  0.83511666  1
  O2-  O297  1  0.32979303  0.67525716  0.16924495  1
  O2-  O298  1  0.33148181  0.67812095  0.49661725  1
  O2-  O299  1  0.33109809  0.68656759  0.82958646  1
  O2-  O300  1  0.66201293  0.18040285  0.16131566  1
  O2-  O301  1  0.66480432  0.18655665  0.50067271  1
  O2-  O302  1  0.66797668  0.19445341  0.83362719  1
  O2-  O303  1  0.66444864  0.67256062  0.16279673  1
  O2-  O304  1  0.66484758  0.68311264  0.50326327  1
  O2-  O305  1  0.65863094  0.69268362  0.81108480  1
  O2-  O306  1  0.16864552  0.17414091  0.15965579  1
  O2-  O307  1  0.16167802  0.16382129  0.51630619  1
  O2-  O308  1  0.16644151  0.18590937  0.82761774  1
  O2-  O309  1  0.16475672  0.67481683  0.17916575  1
  O2-  O310  1  0.17356576  0.67873183  0.49572199  1
  O2-  O311  1  0.16933987  0.68292312  0.83771177  1
  O2-  O312  1  0.49801731  0.17886947  0.16567957  1
  O2-  O313  1  0.49814662  0.18615580  0.49827621  1
  O2-  O314  1  0.49671489  0.18478208  0.83378247  1
  O2-  O315  1  0.49600036  0.67314202  0.17012132  1
  O2-  O316  1  0.49352969  0.67879113  0.50346754  1
  O2-  O317  1  0.50080180  0.67979871  0.82199715  1
  O2-  O318  1  0.83036890  0.18576956  0.17166252  1
  O2-  O319  1  0.83884671  0.16991546  0.50113285  1
  O2-  O320  1  0.82618184  0.18083411  0.83178584  1
  O2-  O321  1  0.82799351  0.67399594  0.16239714  1
  O2-  O322  1  0.83945609  0.67655572  0.49191789  1
  O2-  O323  1  0.84947761  0.68794310  0.81986074  1
  O2-  O324  1  0.00477492  0.31372247  0.17231456  1
  O2-  O325  1  -0.00327501  0.33215224  0.49487464  1
  O2-  O326  1  0.00372524  0.32717243  0.83636761  1
  O2-  O327  1  -0.00229265  0.81116450  0.15965468  1
  O2-  O328  1  0.00778415  0.82996336  0.50755222  1
  O2-  O329  1  -0.00133033  0.82304041  0.82974304  1
  O2-  O330  1  0.33569703  0.32429644  0.17105177  1
  O2-  O331  1  0.32927477  0.33831717  0.49346878  1
  O2-  O332  1  0.33955770  0.31766155  0.84435821  1
  O2-  O333  1  0.33273021  0.83048404  0.16868430  1
  O2-  O334  1  0.33501644  0.82256946  0.50040310  1
  O2-  O335  1  0.33836832  0.81652881  0.83828686  1
  O2-  O336  1  0.66471099  0.30821580  0.16820897  1
  O2-  O337  1  0.66304582  0.32041567  0.49726870  1
  O2-  O338  1  0.66828489  0.31121497  0.82836875  1
  O2-  O339  1  0.66857529  0.83807672  0.16929349  1
  O2-  O340  1  0.67420159  0.81900759  0.51141113  1
  O2-  O341  1  0.66721407  0.81673689  0.83537939  1
  O2-  O342  1  0.16556742  0.32697632  0.17328159  1
  O2-  O343  1  0.17538489  0.33372478  0.49037182  1
  O2-  O344  1  0.16075204  0.31399805  0.83895280  1
  O2-  O345  1  0.16845633  0.81897233  0.16568818  1
  O2-  O346  1  0.16332076  0.82122598  0.50781309  1
  O2-  O347  1  0.16502950  0.81843899  0.83492792  1
  O2-  O348  1  0.49708992  0.31517827  0.17785205  1
  O2-  O349  1  0.49994872  0.31442364  0.50654994  1
  O2-  O350  1  0.49878950  0.31857392  0.83625389  1
  O2-  O351  1  0.50811776  0.83216437  0.15604527  1
  O2-  O352  1  0.49752735  0.82167896  0.50124389  1
  O2-  O353  1  0.49954520  0.81957163  0.83561137  1
  O2-  O354  1  0.83887502  0.31281179  0.16318329  1
  O2-  O355  1  0.83981384  0.33103730  0.49215983  1
  O2-  O356  1  0.82928328  0.32214942  0.83495649  1
  O2-  O357  1  0.82787213  0.83755945  0.17584149  1
  O2-  O358  1  0.82994580  0.82238373  0.50897512  1
  O2-  O359  1  0.83075080  0.81103843  0.83365822  1
  O2-  O360  1  0.07461208  0.07963482  0.12896655  1
  O2-  O361  1  0.08400029  0.08294407  0.41736182  1
  O2-  O362  1  0.07476929  0.08020465  0.77526411  1
  O2-  O363  1  0.08315612  0.57736201  0.11170217  1
  O2-  O364  1  0.08349359  0.58238450  0.42620771  1
  O2-  O365  1  0.09508338  0.56122221  0.80128097  1
  O2-  O366  1  0.41438356  0.08133659  0.11286429  1
  O2-  O367  1  0.42646887  0.08095575  0.44631864  1
  O2-  O368  1  0.42772452  0.07730721  0.78960665  1
  O2-  O369  1  0.40995652  0.58408456  0.10466293  1
  O2-  O370  1  0.40420099  0.58275503  0.44439124  1
  O2-  O371  1  0.42000120  0.58087125  0.77596333  1
  O2-  O372  1  0.75090125  0.08535914  0.12155019  1
  O2-  O373  1  0.73432905  0.08113324  0.45193850  1
  O2-  O374  1  0.73778446  0.08464479  0.77498705  1
  O2-  O375  1  0.75029258  0.57841928  0.12189624  1
  O2-  O376  1  0.75264030  0.58205168  0.45549269  1
  O2-  O377  1  0.73793683  0.57148602  0.78541892  1
  O2-  O378  1  0.23890599  0.07652565  0.22156530  1
  O2-  O379  1  0.23178196  0.08097252  0.56783404  1
  O2-  O380  1  0.26264848  0.07846607  0.88999077  1
  O2-  O381  1  0.24262470  0.58309203  0.22524315  1
  O2-  O382  1  0.25548231  0.58059363  0.55865497  1
  O2-  O383  1  0.24252310  0.58697549  0.90081899  1
  O2-  O384  1  0.57844197  0.07976085  0.21013228  1
  O2-  O385  1  0.58097963  0.07675645  0.55105999  1
  O2-  O386  1  0.59947517  0.08165387  0.88540046  1
  O2-  O387  1  0.58937416  0.57929642  0.21478399  1
  O2-  O388  1  0.58339629  0.58405879  0.57651101  1
  O2-  O389  1  0.58766454  0.58716971  0.89825678  1
  O2-  O390  1  0.91160372  0.08376345  0.20974289  1
  O2-  O391  1  0.91256455  0.07860483  0.56047863  1
  O2-  O392  1  0.89231844  0.08045891  0.88413077  1
  O2-  O393  1  0.92445355  0.58191579  0.21047240  1
  O2-  O394  1  0.91115207  0.57663211  0.55595729  1
  O2-  O395  1  0.93359080  0.57670012  0.89901295  1
  O2-  O396  1  0.08022490  0.41961299  0.11907455  1
  O2-  O397  1  0.07872728  0.41915924  0.41640599  1
  O2-  O398  1  0.08932100  0.42214552  0.77838935  1
  O2-  O399  1  0.07789432  0.91463992  0.10483992  1
  O2-  O400  1  0.08749598  0.91808384  0.44383837  1
  O2-  O401  1  0.08714188  0.92560567  0.78523489  1
  O2-  O402  1  0.41023371  0.41665364  0.10764281  1
  O2-  O403  1  0.44613942  0.42422509  0.44602036  1
  O2-  O404  1  0.42064908  0.42625765  0.79141339  1
  O2-  O405  1  0.42656302  0.91476595  0.09381652  1
  O2-  O406  1  0.42170623  0.92023332  0.41741951  1
  O2-  O407  1  0.41454950  0.91979723  0.78046973  1
  O2-  O408  1  0.75611848  0.41123822  0.11129351  1
  O2-  O409  1  0.73750937  0.41690467  0.43677099  1
  O2-  O410  1  0.73160531  0.42475830  0.78231008  1
  O2-  O411  1  0.75308278  0.91745538  0.09046786  1
  O2-  O412  1  0.74608234  0.91756647  0.45082565  1
  O2-  O413  1  0.75373087  0.91613300  0.77454180  1
  O2-  O414  1  0.26132456  0.42081996  0.21356146  1
  O2-  O415  1  0.25324454  0.42718106  0.55323763  1
  O2-  O416  1  0.25866081  0.41754613  0.88707492  1
  O2-  O417  1  0.24508515  0.91912184  0.22181188  1
  O2-  O418  1  0.23922035  0.91519134  0.57005259  1
  O2-  O419  1  0.24375534  0.91855529  0.89031518  1
  O2-  O420  1  0.56637569  0.41895583  0.22656924  1
  O2-  O421  1  0.57551403  0.42126275  0.55502901  1
  O2-  O422  1  0.58183819  0.41817967  0.88231733  1
  O2-  O423  1  0.58974214  0.92254242  0.21932695  1
  O2-  O424  1  0.59932844  0.91371673  0.56704475  1
  O2-  O425  1  0.58700695  0.91775755  0.90656068  1
  O2-  O426  1  0.93648939  0.41926958  0.21613968  1
  O2-  O427  1  0.91666803  0.42514196  0.55460741  1
  O2-  O428  1  0.91023870  0.41860035  0.89643368  1
  O2-  O429  1  0.92983476  0.91910896  0.21954387  1
  O2-  O430  1  0.90423598  0.91724971  0.56807676  1
  O2-  O431  1  0.92164009  0.91574966  0.89300011  1
  O2-  O432  1  -0.00970472  0.00483278  0.01491547  1
  O2-  O433  1  -0.00743451  0.01736845  0.34062598  1
  O2-  O434  1  -0.01155694  -0.00765208  0.68456234  1
  O2-  O435  1  -0.00173893  0.49458261  0.00251656  1
  O2-  O436  1  0.00325498  0.50323365  0.32054082  1
  O2-  O437  1  -0.00942386  0.51760753  0.69121225  1
  O2-  O438  1  0.35230285  0.00038282  -0.02066254  1
  O2-  O439  1  0.35804336  0.00299966  0.28511655  1
  O2-  O440  1  0.32878894  0.00928904  0.66754476  1
  O2-  O441  1  0.33573340  0.48338468  -0.01440123  1
  O2-  O442  1  0.31924645  0.48462940  0.35219875  1
  O2-  O443  1  0.35312988  0.50014339  0.64542922  1
  O2-  O444  1  0.66987568  0.02264913  0.00839628  1
  O2-  O445  1  0.68904889  0.00230814  0.29806365  1
  O2-  O446  1  0.66365951  0.00535023  0.65452478  1
  O2-  O447  1  0.66243807  0.50247660  0.00621875  1
  O2-  O448  1  0.65533249  0.49825156  0.34599657  1
  O2-  O449  1  0.65885148  0.50647047  0.68349973  1
  O2-  O450  1  0.18837228  -0.00088109  0.02770035  1
  O2-  O451  1  0.13632341  -0.00301283  0.29558194  1
  O2-  O452  1  0.15622797  -0.01698165  0.66015811  1
  O2-  O453  1  0.17287067  0.49295152  0.00482471  1
  O2-  O454  1  0.15776201  0.49251660  0.30218369  1
  O2-  O455  1  0.17890581  0.51329708  0.68663489  1
  O2-  O456  1  0.52066500  0.00424589  0.03996516  1
  O2-  O457  1  0.50427486  0.02280181  0.32803698  1
  O2-  O458  1  0.50455004  0.00263958  0.68175596  1
  O2-  O459  1  0.49251981  0.49181929  -0.01388411  1
  O2-  O460  1  0.47865619  0.50007444  0.30607611  1
  O2-  O461  1  0.50338141  0.49216092  0.68351026  1
  O2-  O462  1  0.82858011  0.00575906  -0.01125696  1
  O2-  O463  1  0.83488597  0.00225933  0.33327115  1
  O2-  O464  1  0.81183672  -0.00419682  0.63119733  1
  O2-  O465  1  0.83442616  0.49816127  0.00409126  1
  O2-  O466  1  0.85372345  0.50369348  0.36868259  1
  O2-  O467  1  0.82251521  0.51536726  0.66750818  1
  O2-  O468  1  0.41078082  0.25094189  0.06489104  1
  O2-  O469  1  0.76046941  0.25009926  0.39585842  1
  O2-  O470  1  0.57529460  0.75058747  0.60208932  1
  O2-  O471  1  0.25392546  0.25422445  0.26632172  1
  O2-  O472  1  0.09255906  0.25015084  0.05982208  1
  O2-  O473  1  0.91794554  0.25449532  0.93113588  1
  O2-  O474  1  0.39861864  0.24815720  0.39067940  1
  O2-  O475  1  0.41429574  0.75078292  0.08630345  1
  O2-  O476  1  0.25646775  0.75006746  0.60026310  1
  O2-  O477  1  0.92482945  0.74986523  0.59400888  1
  O2-  O478  1  0.75736036  0.24791546  0.05733694  1
  O2-  O479  1  0.08003104  0.75520572  0.72962898  1
  O2-  O480  1  0.75601317  0.74950916  0.38909421  1
  O2-  O481  1  0.41395543  0.74927834  0.39983143  1
  O2-  O482  1  0.08107815  0.25154425  0.73008101  1
  O2-  O483  1  0.07771147  0.74958285  0.39730747  1
  O2-  O484  1  0.89204717  0.74621436  0.27848056  1
  O2-  O485  1  0.75032898  0.75222902  0.09157605  1
  O2-  O486  1  0.08666041  0.25186815  0.41194419  1
  O2-  O487  1  0.59067928  0.74931393  0.25704626  1
  O2-  O488  1  0.41671968  0.24940288  0.72390221  1
  O2-  O489  1  0.25020727  0.25752058  0.58380166  1
  O2-  O490  1  0.41922172  0.74996636  0.72048240  1
  O2-  O491  1  0.91394899  0.25007123  0.58451111  1
  O2-  O492  1  0.25506819  0.75083996  0.27271480  1
