# generated using pymatgen
data_Ca108Mn108O277
_symmetry_space_group_name_H-M   'P 1'
_cell_length_a   16.02773405
_cell_length_b   22.30920962
_cell_length_c   16.38947295
_cell_angle_alpha   89.99894569
_cell_angle_beta   90.00048353
_cell_angle_gamma   89.99671327
_symmetry_Int_Tables_number   1
_chemical_formula_structural   Ca108Mn108O277
_chemical_formula_sum   'Ca108 Mn108 O277'
_cell_volume   5860.31956300
_cell_formula_units_Z   1
loop_
 _symmetry_equiv_pos_site_id
 _symmetry_equiv_pos_as_xyz
  1  'x, y, z'
loop_
 _atom_type_symbol
 _atom_type_oxidation_number
  Ca2+  2.0
  Mn3.34+  3.34
  O2-  -2.0
loop_
 _atom_site_type_symbol
 _atom_site_label
 _atom_site_symmetry_multiplicity
 _atom_site_fract_x
 _atom_site_fract_y
 _atom_site_fract_z
 _atom_site_occupancy
  Ca2+  Ca0  1  0.05689239  0.24289283  0.26521525  1
  Ca2+  Ca1  1  0.08973332  0.23663641  0.55825847  1
  Ca2+  Ca2  1  0.08140822  0.24612354  0.91532365  1
  Ca2+  Ca3  1  0.08386221  0.77050106  0.24771551  1
  Ca2+  Ca4  1  0.05847355  0.74853379  0.58215689  1
  Ca2+  Ca5  1  0.08098906  0.75902880  0.92481097  1
  Ca2+  Ca6  1  0.43045367  0.24451341  0.23904195  1
  Ca2+  Ca7  1  0.44157733  0.22573479  0.58133261  1
  Ca2+  Ca8  1  0.42540728  0.22575265  0.92938245  1
  Ca2+  Ca9  1  0.42170639  0.76521655  0.25135763  1
  Ca2+  Ca10  1  0.42172990  0.75057204  0.57357845  1
  Ca2+  Ca11  1  0.42171883  0.75418538  0.92570358  1
  Ca2+  Ca12  1  0.76075332  0.24732371  0.25051086  1
  Ca2+  Ca13  1  0.73620607  0.23629591  0.59939016  1
  Ca2+  Ca14  1  0.73659857  0.23840977  0.88785961  1
  Ca2+  Ca15  1  0.73854556  0.76321607  0.24463765  1
  Ca2+  Ca16  1  0.76293831  0.73782668  0.59431206  1
  Ca2+  Ca17  1  0.75164626  0.74611604  0.91206068  1
  Ca2+  Ca18  1  0.27245495  0.24478778  0.08053855  1
  Ca2+  Ca19  1  0.23705337  0.25047186  0.42489114  1
  Ca2+  Ca20  1  0.26565528  0.25126257  0.74051110  1
  Ca2+  Ca21  1  0.25994084  0.76020679  0.08440744  1
  Ca2+  Ca22  1  0.26249732  0.76599798  0.40820795  1
  Ca2+  Ca23  1  0.26015218  0.75805205  0.74960574  1
  Ca2+  Ca24  1  0.56689811  0.23754390  0.08058485  1
  Ca2+  Ca25  1  0.58295107  0.25365662  0.42316131  1
  Ca2+  Ca26  1  0.58551026  0.24329571  0.74070748  1
  Ca2+  Ca27  1  0.58001797  0.76082201  0.08505800  1
  Ca2+  Ca28  1  0.57392956  0.75762621  0.41019573  1
  Ca2+  Ca29  1  0.60000584  0.75477973  0.75529120  1
  Ca2+  Ca30  1  0.91277272  0.24972465  0.10640113  1
  Ca2+  Ca31  1  0.92956286  0.25809569  0.41513595  1
  Ca2+  Ca32  1  0.89471377  0.24982860  0.73794786  1
  Ca2+  Ca33  1  0.90890346  0.75449140  0.07304358  1
  Ca2+  Ca34  1  0.91784487  0.74869530  0.43619102  1
  Ca2+  Ca35  1  0.89655999  0.74438896  0.74648413  1
  Ca2+  Ca36  1  0.25663245  0.57772973  0.74434748  1
  Ca2+  Ca37  1  0.27280329  0.10619965  0.42722893  1
  Ca2+  Ca38  1  0.44917536  0.08245158  0.25768551  1
  Ca2+  Ca39  1  0.43210975  0.58787942  0.25373798  1
  Ca2+  Ca40  1  0.60549632  0.10240970  0.74657579  1
  Ca2+  Ca41  1  0.59634197  0.57615797  0.41554337  1
  Ca2+  Ca42  1  0.91424688  0.10442608  0.09609774  1
  Ca2+  Ca43  1  0.89927807  0.58756499  0.04177544  1
  Ca2+  Ca44  1  0.26559381  0.09925961  0.75415062  1
  Ca2+  Ca45  1  0.73344873  0.57528490  0.27440570  1
  Ca2+  Ca46  1  0.41530056  0.57665151  0.59768005  1
  Ca2+  Ca47  1  0.74287937  0.57503815  0.26904973  1
  Ca2+  Ca48  1  0.58568979  0.59600137  0.08450340  1
  Ca2+  Ca49  1  0.28173004  0.10472204  0.43225292  1
  Ca2+  Ca50  1  0.89280685  0.59405176  0.74980585  1
  Ca2+  Ca51  1  0.07600376  0.57329836  0.25686374  1
  Ca2+  Ca52  1  0.74240881  0.09616123  0.24250508  1
  Ca2+  Ca53  1  0.90345004  0.58751660  0.05350082  1
  Ca2+  Ca54  1  0.25989818  0.60134367  0.07212263  1
  Ca2+  Ca55  1  0.94905973  0.10754985  0.42130504  1
  Ca2+  Ca56  1  0.53866122  0.10057740  0.44490936  1
  Ca2+  Ca57  1  0.44309262  0.07886261  0.25093663  1
  Ca2+  Ca58  1  0.42778848  0.57898821  0.59698243  1
  Ca2+  Ca59  1  0.59699737  0.59646932  0.08483143  1
  Ca2+  Ca60  1  0.06610041  0.10413238  0.24840530  1
  Ca2+  Ca61  1  0.75952885  0.60321444  0.90195216  1
  Ca2+  Ca62  1  0.05336703  0.58689889  0.59204738  1
  Ca2+  Ca63  1  0.95557538  0.11229838  0.41666513  1
  Ca2+  Ca64  1  0.52875329  0.09891813  0.44235151  1
  Ca2+  Ca65  1  0.08946934  0.57365171  0.25727827  1
  Ca2+  Ca66  1  0.42267831  0.59189366  0.25668220  1
  Ca2+  Ca67  1  0.87000316  0.10006838  0.74315489  1
  Ca2+  Ca68  1  0.10054215  0.08900023  0.92649921  1
  Ca2+  Ca69  1  0.27587209  0.08458673  0.04651699  1
  Ca2+  Ca70  1  0.58703277  0.57881462  0.41243772  1
  Ca2+  Ca71  1  0.56798007  0.09343085  0.07660524  1
  Ca2+  Ca72  1  0.92744972  0.90688535  0.07298146  1
  Ca2+  Ca73  1  0.75910148  0.41988482  0.26472354  1
  Ca2+  Ca74  1  0.07893146  0.89873350  0.58639771  1
  Ca2+  Ca75  1  0.59444100  0.40964241  0.74186148  1
  Ca2+  Ca76  1  0.24569775  0.39204183  0.08708155  1
  Ca2+  Ca77  1  0.09458732  0.39505628  0.90899403  1
  Ca2+  Ca78  1  0.24477783  0.40665885  0.42697420  1
  Ca2+  Ca79  1  0.74781235  0.41384906  0.57893752  1
  Ca2+  Ca80  1  0.91737604  0.90281986  0.41801588  1
  Ca2+  Ca81  1  0.08174862  0.39596877  0.90998434  1
  Ca2+  Ca82  1  0.06017182  0.40764860  0.25257284  1
  Ca2+  Ca83  1  0.55217120  0.93870976  0.37200061  1
  Ca2+  Ca84  1  0.57423426  0.91401470  0.09640119  1
  Ca2+  Ca85  1  0.90456570  0.42047505  0.40305450  1
  Ca2+  Ca86  1  0.42808808  0.90388603  0.57638139  1
  Ca2+  Ca87  1  0.76346762  0.40224662  0.91241679  1
  Ca2+  Ca88  1  0.08713990  0.40737074  0.58641440  1
  Ca2+  Ca89  1  0.25460793  0.42338329  0.71500625  1
  Ca2+  Ca90  1  0.74823180  0.41970925  0.26524185  1
  Ca2+  Ca91  1  0.26052291  0.90592852  0.75717488  1
  Ca2+  Ca92  1  0.40095222  0.91355184  0.92534931  1
  Ca2+  Ca93  1  0.42696260  0.40398157  0.26009103  1
  Ca2+  Ca94  1  0.58960040  0.39873317  0.09817233  1
  Ca2+  Ca95  1  0.75238078  0.40265836  0.91248167  1
  Ca2+  Ca96  1  0.25603783  0.40683099  0.42908520  1
  Ca2+  Ca97  1  0.73702532  0.90781503  0.91562397  1
  Ca2+  Ca98  1  0.73453130  0.90322101  0.58976818  1
  Ca2+  Ca99  1  0.44032186  0.90289850  0.57649997  1
  Ca2+  Ca100  1  0.74947271  0.90723043  0.91629384  1
  Ca2+  Ca101  1  0.09178023  0.89786456  0.58529586  1
  Ca2+  Ca102  1  0.91549759  0.90725751  0.07278654  1
  Ca2+  Ca103  1  0.90618352  0.41177915  0.74415775  1
  Ca2+  Ca104  1  0.90448145  0.90220705  0.41835354  1
  Ca2+  Ca105  1  0.40401030  0.39668106  0.90426175  1
  Ca2+  Ca106  1  0.40797717  0.39517266  0.91381414  1
  Ca2+  Ca107  1  0.59431696  0.41288266  0.40827228  1
  Mn3.34+  Mn108  1  0.08264626  0.32285152  0.09049714  1
  Mn3.34+  Mn109  1  0.08190618  0.33543231  0.41772831  1
  Mn3.34+  Mn110  1  0.08185257  0.32859055  0.74253674  1
  Mn3.34+  Mn111  1  0.09351039  0.83929605  0.08276341  1
  Mn3.34+  Mn112  1  0.08900808  0.83678741  0.41019164  1
  Mn3.34+  Mn113  1  0.08347541  0.82850820  0.75745603  1
  Mn3.34+  Mn114  1  0.41865563  0.32931803  0.08803082  1
  Mn3.34+  Mn115  1  0.41963003  0.33169696  0.42176647  1
  Mn3.34+  Mn116  1  0.42087503  0.33139766  0.74024300  1
  Mn3.34+  Mn117  1  0.41436841  0.83820699  0.08713417  1
  Mn3.34+  Mn118  1  0.41616501  0.84119762  0.41025555  1
  Mn3.34+  Mn119  1  0.42477566  0.83705672  0.75708282  1
  Mn3.34+  Mn120  1  0.75005616  0.33242474  0.08729625  1
  Mn3.34+  Mn121  1  0.75130888  0.33545613  0.42132102  1
  Mn3.34+  Mn122  1  0.74861278  0.33748074  0.74409519  1
  Mn3.34+  Mn123  1  0.74677809  0.83492819  0.08732689  1
  Mn3.34+  Mn124  1  0.74265531  0.83342882  0.41977519  1
  Mn3.34+  Mn125  1  0.74944878  0.83436609  0.75073889  1
  Mn3.34+  Mn126  1  0.24932316  0.33193506  0.24980070  1
  Mn3.34+  Mn127  1  0.25451715  0.33455662  0.58453367  1
  Mn3.34+  Mn128  1  0.24938750  0.31992321  0.91157392  1
  Mn3.34+  Mn129  1  0.25313990  0.83448493  0.24703076  1
  Mn3.34+  Mn130  1  0.25288196  0.83122252  0.58254575  1
  Mn3.34+  Mn131  1  0.24816601  0.84071817  0.91578055  1
  Mn3.34+  Mn132  1  0.58790748  0.33012434  0.25029680  1
  Mn3.34+  Mn133  1  0.58079337  0.33391196  0.58063396  1
  Mn3.34+  Mn134  1  0.58169714  0.33099737  0.91609161  1
  Mn3.34+  Mn135  1  0.58285210  0.84257986  0.24995018  1
  Mn3.34+  Mn136  1  0.58953214  0.82692290  0.58200788  1
  Mn3.34+  Mn137  1  0.57871037  0.83636450  0.91565736  1
  Mn3.34+  Mn138  1  0.91261312  0.33282600  0.24986140  1
  Mn3.34+  Mn139  1  0.91637407  0.33741174  0.57883175  1
  Mn3.34+  Mn140  1  0.91896663  0.32994899  0.91819934  1
  Mn3.34+  Mn141  1  0.91518833  0.83160099  0.24706985  1
  Mn3.34+  Mn142  1  0.91046567  0.83044028  0.58980869  1
  Mn3.34+  Mn143  1  0.92239388  0.83513769  0.90254185  1
  Mn3.34+  Mn144  1  0.25624758  0.17330109  0.58545308  1
  Mn3.34+  Mn145  1  0.08704309  0.66431941  0.41873340  1
  Mn3.34+  Mn146  1  0.24762699  0.65906025  0.58374889  1
  Mn3.34+  Mn147  1  0.75345622  0.15999307  0.42186280  1
  Mn3.34+  Mn148  1  0.58633895  0.16669277  0.24449917  1
  Mn3.34+  Mn149  1  0.24687816  0.16182043  0.24068176  1
  Mn3.34+  Mn150  1  0.42446593  0.66766088  0.76016801  1
  Mn3.34+  Mn151  1  0.41705136  0.67214886  0.08077427  1
  Mn3.34+  Mn152  1  0.08632961  0.66680370  0.76586644  1
  Mn3.34+  Mn153  1  0.58161291  0.67321427  0.91120160  1
  Mn3.34+  Mn154  1  0.58324352  0.16299125  0.91373102  1
  Mn3.34+  Mn155  1  0.42429460  0.16442141  0.75042192  1
  Mn3.34+  Mn156  1  0.90815705  0.66475067  0.24877931  1
  Mn3.34+  Mn157  1  0.08734547  0.16500256  0.08152897  1
  Mn3.34+  Mn158  1  0.74302891  0.16469127  0.42153308  1
  Mn3.34+  Mn159  1  0.25165710  0.66547410  0.25161169  1
  Mn3.34+  Mn160  1  0.92160847  0.16633483  0.91319075  1
  Mn3.34+  Mn161  1  0.74462090  0.16529023  0.08126724  1
  Mn3.34+  Mn162  1  0.07560746  0.65830888  0.42175852  1
  Mn3.34+  Mn163  1  0.25638265  0.16729843  0.24260140  1
  Mn3.34+  Mn164  1  0.91823499  0.17468813  0.58678285  1
  Mn3.34+  Mn165  1  0.08651115  0.16815083  0.74660762  1
  Mn3.34+  Mn166  1  0.74585331  0.66240512  0.74817398  1
  Mn3.34+  Mn167  1  0.74941049  0.67273584  0.08070902  1
  Mn3.34+  Mn168  1  0.24997345  0.16735856  0.90799109  1
  Mn3.34+  Mn169  1  0.75006250  0.66203191  0.42757833  1
  Mn3.34+  Mn170  1  0.07527334  0.67290770  0.76244239  1
  Mn3.34+  Mn171  1  0.07998510  0.67150171  0.07907633  1
  Mn3.34+  Mn172  1  0.09324431  0.66515818  0.07879727  1
  Mn3.34+  Mn173  1  0.91150576  0.16102884  0.91243550  1
  Mn3.34+  Mn174  1  0.25688034  0.66492643  0.58541223  1
  Mn3.34+  Mn175  1  0.41986630  0.66826505  0.42043014  1
  Mn3.34+  Mn176  1  0.91662019  0.65752861  0.24715867  1
  Mn3.34+  Mn177  1  0.25822225  0.66737324  0.90769027  1
  Mn3.34+  Mn178  1  0.58661982  0.66501335  0.58345512  1
  Mn3.34+  Mn179  1  0.58496762  0.67025126  0.24951842  1
  Mn3.34+  Mn180  1  0.58016255  0.00142155  0.91967929  1
  Mn3.34+  Mn181  1  0.41002583  0.50459645  0.41185864  1
  Mn3.34+  Mn182  1  0.25086221  0.49800408  0.24569530  1
  Mn3.34+  Mn183  1  0.90991986  0.49949307  0.59572956  1
  Mn3.34+  Mn184  1  0.24781945  0.50118340  0.90875286  1
  Mn3.34+  Mn185  1  0.41961487  0.50162893  0.75150897  1
  Mn3.34+  Mn186  1  0.91696298  0.00755929  0.58747185  1
  Mn3.34+  Mn187  1  0.07512101  0.49897877  0.41250487  1
  Mn3.34+  Mn188  1  0.24762272  0.00105568  0.58315615  1
  Mn3.34+  Mn189  1  0.09122477  0.00130261  0.07261158  1
  Mn3.34+  Mn190  1  0.90540929  0.00262094  0.58784827  1
  Mn3.34+  Mn191  1  0.91955885  0.50144891  0.90599619  1
  Mn3.34+  Mn192  1  0.74146238  -0.00253322  0.74699130  1
  Mn3.34+  Mn193  1  0.41959473  0.49317857  0.08289445  1
  Mn3.34+  Mn194  1  0.09132772  0.00167201  0.42116127  1
  Mn3.34+  Mn195  1  0.08331091  0.50123177  0.74779069  1
  Mn3.34+  Mn196  1  0.75372081  0.49616609  0.08246283  1
  Mn3.34+  Mn197  1  0.74798987  -0.00046435  0.08208334  1
  Mn3.34+  Mn198  1  0.59328098  0.49742315  0.59854543  1
  Mn3.34+  Mn199  1  0.07568245  -0.00389047  0.76179819  1
  Mn3.34+  Mn200  1  0.08858275  0.00262445  0.76180421  1
  Mn3.34+  Mn201  1  0.57548005  0.51089792  0.90453526  1
  Mn3.34+  Mn202  1  0.91636216  0.00242894  0.92031704  1
  Mn3.34+  Mn203  1  0.07636958  0.49388602  0.08229696  1
  Mn3.34+  Mn204  1  0.41027102  -0.00477987  0.06815077  1
  Mn3.34+  Mn205  1  0.40476160  0.49852763  0.08052254  1
  Mn3.34+  Mn206  1  0.25291703  -0.00645681  0.24837518  1
  Mn3.34+  Mn207  1  0.23981674  -0.00068612  0.24611778  1
  Mn3.34+  Mn208  1  0.58955001  0.50515303  0.90516353  1
  Mn3.34+  Mn209  1  0.92374067  -0.00443406  0.25121922  1
  Mn3.34+  Mn210  1  0.91019282  0.00179851  0.25081923  1
  Mn3.34+  Mn211  1  0.58346625  -0.00292836  0.59543520  1
  Mn3.34+  Mn212  1  0.74356395  0.00023248  0.41578928  1
  Mn3.34+  Mn213  1  0.08722448  0.49874158  0.08053525  1
  Mn3.34+  Mn214  1  0.25931163  0.00463234  0.58490996  1
  Mn3.34+  Mn215  1  0.42406723  0.00211774  0.75027241  1
  O2-  O216  1  0.00316837  0.15139949  -0.00652870  1
  O2-  O217  1  0.00525653  0.16339159  0.33121140  1
  O2-  O218  1  -0.00113437  0.17349171  0.67097201  1
  O2-  O219  1  -0.00882053  0.65866792  0.01106809  1
  O2-  O220  1  -0.00317885  0.63654933  0.33143436  1
  O2-  O221  1  0.00338745  0.66322542  0.67581716  1
  O2-  O222  1  0.32030184  0.17321979  -0.00775947  1
  O2-  O223  1  0.34046271  0.15266556  0.32197756  1
  O2-  O224  1  0.33575176  0.16362912  0.67177307  1
  O2-  O225  1  0.32988313  0.67422736  0.00211553  1
  O2-  O226  1  0.34351474  0.64757851  0.33368607  1
  O2-  O227  1  0.33116188  0.66063407  0.67685322  1
  O2-  O228  1  0.66753708  0.17169944  -0.00245395  1
  O2-  O229  1  0.66932175  0.15155283  0.33187214  1
  O2-  O230  1  0.66541749  0.17071472  0.67187572  1
  O2-  O231  1  0.66958963  0.64905383  -0.00139897  1
  O2-  O232  1  0.66536211  0.65734823  0.33390179  1
  O2-  O233  1  0.65861803  0.67894244  0.66681692  1
  O2-  O234  1  0.16289591  0.17663285  -0.00754936  1
  O2-  O235  1  0.17886649  0.14369869  0.32828678  1
  O2-  O236  1  0.17425346  0.16438400  0.67283461  1
  O2-  O237  1  0.16919304  0.66782145  -0.00958770  1
  O2-  O238  1  0.15630782  0.64679204  0.32970175  1
  O2-  O239  1  0.16590578  0.65807786  0.67760245  1
  O2-  O240  1  0.50650207  0.15752337  -0.00192527  1
  O2-  O241  1  0.50334223  0.15405233  0.32417965  1
  O2-  O242  1  0.50491654  0.15816552  0.67697197  1
  O2-  O243  1  0.50775295  0.65594754  0.00752463  1
  O2-  O244  1  0.50711986  0.64520602  0.34165688  1
  O2-  O245  1  0.48855741  0.66479441  0.65540515  1
  O2-  O246  1  0.83715149  0.16046895  0.00280241  1
  O2-  O247  1  0.83052299  0.14648496  0.34203353  1
  O2-  O248  1  0.83376379  0.16786805  0.65875461  1
  O2-  O249  1  0.83113740  0.66697932  0.00205676  1
  O2-  O250  1  0.82105947  0.65754019  0.32997157  1
  O2-  O251  1  0.82789733  0.66197032  0.67398146  1
  O2-  O252  1  0.00970431  0.33658517  -0.00396002  1
  O2-  O253  1  -0.00633707  0.34847836  0.34035170  1
  O2-  O254  1  -0.00476927  0.35000857  0.66811430  1
  O2-  O255  1  -0.00481068  0.83501177  -0.00594353  1
  O2-  O256  1  -0.00321390  0.85152336  0.33249383  1
  O2-  O257  1  0.00808652  0.83673445  0.66241974  1
  O2-  O258  1  0.33098609  0.34047510  0.00000596  1
  O2-  O259  1  0.33119425  0.34473803  0.33413591  1
  O2-  O260  1  0.32927367  0.34319996  0.67131294  1
  O2-  O261  1  0.33509453  0.83091131  -0.00581184  1
  O2-  O262  1  0.33472117  0.83673522  0.33131708  1
  O2-  O263  1  0.34014007  0.84381283  0.66906357  1
  O2-  O264  1  0.66933957  0.34966426  -0.00184710  1
  O2-  O265  1  0.67253974  0.34629529  0.32953069  1
  O2-  O266  1  0.66959403  0.35050973  0.66029968  1
  O2-  O267  1  0.66551904  0.85460637  0.00447822  1
  O2-  O268  1  0.66591298  0.82557413  0.33575806  1
  O2-  O269  1  0.66395884  0.83667918  0.66976503  1
  O2-  O270  1  0.16585870  0.32269171  -0.00227270  1
  O2-  O271  1  0.16579770  0.35543821  0.33224250  1
  O2-  O272  1  0.16679977  0.34387364  0.66586607  1
  O2-  O273  1  0.17302480  0.82052194  -0.00340169  1
  O2-  O274  1  0.17056137  0.83325307  0.33153791  1
  O2-  O275  1  0.16901729  0.83490298  0.67039971  1
  O2-  O276  1  0.49706626  0.35487904  0.00030082  1
  O2-  O277  1  0.50371888  0.34030286  0.33715742  1
  O2-  O278  1  0.50879931  0.34783323  0.67196164  1
  O2-  O279  1  0.49788506  0.85074934  -0.00071127  1
  O2-  O280  1  0.50340114  0.84162398  0.33571463  1
  O2-  O281  1  0.49660779  0.82357365  0.66006159  1
  O2-  O282  1  0.83054005  0.34229674  -0.00135265  1
  O2-  O283  1  0.82885643  0.34570198  0.33184058  1
  O2-  O284  1  0.83214992  0.35215028  0.66174444  1
  O2-  O285  1  0.83418061  0.83520466  -0.00036191  1
  O2-  O286  1  0.83445868  0.83259789  0.33941945  1
  O2-  O287  1  0.82778983  0.84736020  0.66526675  1
  O2-  O288  1  0.00583563  0.18206455  0.15346908  1
  O2-  O289  1  -0.00668145  0.18342776  0.49782198  1
  O2-  O290  1  0.00206262  0.18739145  0.83117751  1
  O2-  O291  1  0.01549886  0.67393738  0.17946661  1
  O2-  O292  1  0.00443874  0.67519135  0.50603710  1
  O2-  O293  1  -0.00225291  0.68907754  0.83920242  1
  O2-  O294  1  0.33522139  0.17510784  0.16435967  1
  O2-  O295  1  0.33071765  0.18523885  0.49925293  1
  O2-  O296  1  0.32916495  0.18487725  0.83148437  1
  O2-  O297  1  0.33897226  0.66805669  0.16829861  1
  O2-  O298  1  0.33927685  0.68127259  0.50184991  1
  O2-  O299  1  0.33875612  0.69548961  0.83240331  1
  O2-  O300  1  0.66676769  0.18500927  0.16513981  1
  O2-  O301  1  0.66044103  0.17252218  0.49311415  1
  O2-  O302  1  0.65485767  0.17754655  0.82800194  1
  O2-  O303  1  0.66363281  0.67536749  0.15910649  1
  O2-  O304  1  0.66157189  0.68184848  0.49472218  1
  O2-  O305  1  0.66785887  0.68252530  0.83945591  1
  O2-  O306  1  0.16739158  0.18772785  0.16358459  1
  O2-  O307  1  0.18307888  0.17227147  0.49694806  1
  O2-  O308  1  0.16692079  0.19135573  0.83084611  1
  O2-  O309  1  0.17456902  0.67940043  0.15616852  1
  O2-  O310  1  0.16594525  0.68036011  0.50805098  1
  O2-  O311  1  0.17007786  0.69572207  0.83290917  1
  O2-  O312  1  0.50135692  0.17102739  0.17103485  1
  O2-  O313  1  0.49879219  0.18852241  0.47520289  1
  O2-  O314  1  0.50042251  0.17838182  0.83389266  1
  O2-  O315  1  0.49884540  0.66357814  0.16969948  1
  O2-  O316  1  0.50428381  0.68514027  0.49901457  1
  O2-  O317  1  0.50404403  0.69554597  0.83213884  1
  O2-  O318  1  0.82372747  0.18041566  0.15864356  1
  O2-  O319  1  0.83800673  0.18199576  0.49546048  1
  O2-  O320  1  0.83589976  0.17712351  0.83056740  1
  O2-  O321  1  0.83675191  0.68472083  0.15868236  1
  O2-  O322  1  0.82630089  0.68969367  0.49075980  1
  O2-  O323  1  0.82556500  0.67861905  0.83007365  1
  O2-  O324  1  0.00367580  0.31803722  0.17549177  1
  O2-  O325  1  0.00668890  0.32770157  0.50519754  1
  O2-  O326  1  0.00475984  0.31951676  0.83357327  1
  O2-  O327  1  -0.00853748  0.82860885  0.15546180  1
  O2-  O328  1  -0.00235440  0.82835317  0.50007008  1
  O2-  O329  1  -0.00265555  0.80331913  0.82627737  1
  O2-  O330  1  0.33532957  0.31709866  0.16993715  1
  O2-  O331  1  0.32357652  0.32342915  0.48953474  1
  O2-  O332  1  0.33859357  0.32192046  0.83798245  1
  O2-  O333  1  0.33637917  0.81680407  0.16731629  1
  O2-  O334  1  0.34093207  0.82842932  0.50576348  1
  O2-  O335  1  0.33374113  0.81860109  0.83334849  1
  O2-  O336  1  0.66224404  0.31069295  0.15941444  1
  O2-  O337  1  0.66490132  0.32782034  0.49545836  1
  O2-  O338  1  0.67055360  0.32961873  0.83825263  1
  O2-  O339  1  0.66268754  0.82680702  0.16407146  1
  O2-  O340  1  0.67268240  0.80725548  0.50610731  1
  O2-  O341  1  0.67427303  0.82407463  0.84457399  1
  O2-  O342  1  0.17440696  0.31448681  0.16243754  1
  O2-  O343  1  0.17085302  0.32636099  0.49568446  1
  O2-  O344  1  0.16081337  0.31345806  0.83362804  1
  O2-  O345  1  0.17141982  0.81950002  0.16472898  1
  O2-  O346  1  0.15751199  0.82188875  0.50691889  1
  O2-  O347  1  0.17011054  0.81310574  0.83388008  1
  O2-  O348  1  0.50188693  0.32362244  0.16962631  1
  O2-  O349  1  0.49825529  0.31753074  0.50130185  1
  O2-  O350  1  0.49517305  0.33166517  0.83777138  1
  O2-  O351  1  0.50405329  0.82915658  0.16355377  1
  O2-  O352  1  0.50046688  0.81920291  0.50471912  1
  O2-  O353  1  0.50210889  0.81444780  0.83546108  1
  O2-  O354  1  0.82830055  0.31606033  0.16912590  1
  O2-  O355  1  0.84052616  0.32726981  0.49186890  1
  O2-  O356  1  0.83367160  0.32847195  0.83512968  1
  O2-  O357  1  0.83382605  0.81541774  0.16202644  1
  O2-  O358  1  0.83774445  0.82524500  0.49587728  1
  O2-  O359  1  0.82942541  0.82008766  0.83841382  1
  O2-  O360  1  0.07642311  0.07746272  0.11425829  1
  O2-  O361  1  0.08572807  0.07853927  0.44637991  1
  O2-  O362  1  0.08781403  0.08243116  0.78865806  1
  O2-  O363  1  0.08878887  0.57988427  0.11577144  1
  O2-  O364  1  0.08969275  0.57881391  0.45664940  1
  O2-  O365  1  0.07714191  0.58110635  0.77667862  1
  O2-  O366  1  0.40200964  0.06205261  0.12678663  1
  O2-  O367  1  0.40019920  0.07513812  0.45632879  1
  O2-  O368  1  0.40872262  0.08156170  0.77456298  1
  O2-  O369  1  0.40960075  0.58068383  0.10476778  1
  O2-  O370  1  0.42694871  0.58164895  0.46158591  1
  O2-  O371  1  0.41200021  0.58174448  0.76889809  1
  O2-  O372  1  0.74657197  0.07874749  0.10990615  1
  O2-  O373  1  0.76444841  0.07809837  0.45329035  1
  O2-  O374  1  0.74099519  0.07066495  0.78228111  1
  O2-  O375  1  0.75707339  0.58244503  0.11693778  1
  O2-  O376  1  0.73376852  0.58212589  0.42906434  1
  O2-  O377  1  0.75281609  0.58316697  0.77207795  1
  O2-  O378  1  0.23670227  0.07607480  0.19121383  1
  O2-  O379  1  0.26289241  0.08698764  0.56766084  1
  O2-  O380  1  0.24004756  0.08919879  0.89296624  1
  O2-  O381  1  0.22748668  0.57805942  0.21145708  1
  O2-  O382  1  0.27442038  0.57917883  0.56967785  1
  O2-  O383  1  0.25411192  0.58237340  0.88240144  1
  O2-  O384  1  0.58928130  0.08414755  0.21540939  1
  O2-  O385  1  0.58722846  0.07183446  0.56535163  1
  O2-  O386  1  0.58480937  0.07979692  0.89016792  1
  O2-  O387  1  0.59044615  0.57892570  0.21710737  1
  O2-  O388  1  0.56729245  0.57375758  0.55077648  1
  O2-  O389  1  0.57889798  0.59077850  0.88757195  1
  O2-  O390  1  0.91834523  0.08118218  0.22541548  1
  O2-  O391  1  0.92058609  0.08775052  0.55562102  1
  O2-  O392  1  0.93114288  0.08029799  0.87548470  1
  O2-  O393  1  0.93183110  0.57770308  0.18613121  1
  O2-  O394  1  0.92166318  0.56788606  0.55500721  1
  O2-  O395  1  0.90370811  0.58090151  0.90051481  1
  O2-  O396  1  0.09469560  0.41340988  0.10780327  1
  O2-  O397  1  0.09952918  0.42091680  0.44882389  1
  O2-  O398  1  0.08642097  0.42144467  0.78067126  1
  O2-  O399  1  0.06686376  0.92307412  0.10113372  1
  O2-  O400  1  0.06189609  0.92457303  0.45662842  1
  O2-  O401  1  0.09516619  0.91523427  0.76775654  1
  O2-  O402  1  0.41132025  0.41449654  0.11843941  1
  O2-  O403  1  0.39694967  0.42272853  0.42613386  1
  O2-  O404  1  0.40974073  0.42036977  0.77855122  1
  O2-  O405  1  0.41994088  0.92198262  0.10534048  1
  O2-  O406  1  0.42659518  0.92082048  0.44498002  1
  O2-  O407  1  0.41233535  0.92361539  0.78744152  1
  O2-  O408  1  0.73363975  0.41863062  0.12700230  1
  O2-  O409  1  0.75377412  0.41870083  0.42797396  1
  O2-  O410  1  0.75321766  0.42191020  0.78459583  1
  O2-  O411  1  0.77478521  0.91785726  0.10184205  1
  O2-  O412  1  0.76736983  0.92245923  0.45436040  1
  O2-  O413  1  0.75074001  0.91883734  0.78272478  1
  O2-  O414  1  0.25665299  0.41661587  0.21929884  1
  O2-  O415  1  0.24256895  0.41820302  0.56243090  1
  O2-  O416  1  0.23408951  0.41585544  0.88965137  1
  O2-  O417  1  0.25333240  0.91503152  0.22005539  1
  O2-  O418  1  0.22900531  0.91886924  0.56551298  1
  O2-  O419  1  0.25839862  0.91760127  0.89036942  1
  O2-  O420  1  0.59114331  0.41407222  0.23228034  1
  O2-  O421  1  0.58842738  0.42537812  0.54608284  1
  O2-  O422  1  0.58208149  0.42236432  0.88791547  1
  O2-  O423  1  0.58666669  0.92156879  0.23657699  1
  O2-  O424  1  0.57905449  0.92063789  0.54776722  1
  O2-  O425  1  0.59092643  0.92090248  0.88682047  1
  O2-  O426  1  0.90161613  0.41369914  0.23342733  1
  O2-  O427  1  0.91255295  0.42859335  0.54533511  1
  O2-  O428  1  0.93569604  0.41780395  0.89097762  1
  O2-  O429  1  0.90936609  0.91768105  0.21465535  1
  O2-  O430  1  0.92301818  0.92006458  0.55579011  1
  O2-  O431  1  0.89209694  0.92029832  0.91070202  1
  O2-  O432  1  -0.00542050  0.00239553  0.01260589  1
  O2-  O433  1  -0.00675592  0.00656882  0.34822456  1
  O2-  O434  1  0.00660843  -0.00569786  0.66373123  1
  O2-  O435  1  -0.01295973  0.51160922  0.00886596  1
  O2-  O436  1  0.01090340  0.49928407  0.31390023  1
  O2-  O437  1  0.00661907  0.49318550  0.65416123  1
  O2-  O438  1  0.34094519  -0.00040834  -0.00849451  1
  O2-  O439  1  0.33470200  0.03024228  0.31409708  1
  O2-  O440  1  0.32021306  -0.00919812  0.68487133  1
  O2-  O441  1  0.34055298  0.48073960  -0.01518234  1
  O2-  O442  1  0.35213974  0.51118824  0.30366950  1
  O2-  O443  1  0.33502675  0.50685249  0.67884490  1
  O2-  O444  1  0.67335733  -0.01454845  -0.00625843  1
  O2-  O445  1  0.65081891  0.01380203  0.36836278  1
  O2-  O446  1  0.67677209  -0.01385026  0.65479130  1
  O2-  O447  1  0.65585150  0.51276466  0.00739717  1
  O2-  O448  1  0.65976202  0.50659880  0.33785277  1
  O2-  O449  1  0.66998272  0.48084935  0.66624932  1
  O2-  O450  1  0.16845368  0.02037794  0.00380636  1
  O2-  O451  1  0.16591907  0.00490629  0.33427789  1
  O2-  O452  1  0.16266211  0.00070999  0.66706447  1
  O2-  O453  1  0.17312372  0.50173099  0.00352588  1
  O2-  O454  1  0.16955870  0.50067632  0.33226818  1
  O2-  O455  1  0.16950764  0.50473062  0.68236099  1
  O2-  O456  1  0.51134028  0.00180122  0.01895715  1
  O2-  O457  1  0.50257302  0.02746176  0.34725502  1
  O2-  O458  1  0.48205982  -0.01556071  0.64728732  1
  O2-  O459  1  0.50054563  0.50164108  -0.00134131  1
  O2-  O460  1  0.50103780  0.52118274  0.34038211  1
  O2-  O461  1  0.49527105  0.50350424  0.65813327  1
  O2-  O462  1  0.84230984  0.00096319  0.01489735  1
  O2-  O463  1  0.83126893  -0.01012514  0.33872555  1
  O2-  O464  1  0.83935832  0.00565881  0.68282937  1
  O2-  O465  1  0.82311752  0.49788672  -0.01893933  1
  O2-  O466  1  0.81965251  0.50350723  0.29242769  1
  O2-  O467  1  0.84349550  0.49482576  0.67508915  1
  O2-  O468  1  0.57676527  0.25170673  0.93627520  1
  O2-  O469  1  0.58984827  0.75287322  0.94709481  1
  O2-  O470  1  0.91456540  0.75258982  0.60105847  1
  O2-  O471  1  0.25073798  0.24963519  0.28220100  1
  O2-  O472  1  0.74625830  0.24818058  0.39420857  1
  O2-  O473  1  0.07420616  0.75387101  0.07232651  1
  O2-  O474  1  0.58077354  0.24862814  0.27740074  1
  O2-  O475  1  0.25388385  0.74577380  0.60456656  1
  O2-  O476  1  0.74844661  0.25792977  0.73670828  1
  O2-  O477  1  0.91134085  0.25713486  0.60114879  1
  O2-  O478  1  0.42242466  0.25277782  0.06717913  1
  O2-  O479  1  0.91159489  0.25366138  0.27440273  1
  O2-  O480  1  0.91885155  0.24771808  0.94480970  1
  O2-  O481  1  0.24184251  0.25345228  0.60278951  1
  O2-  O482  1  0.75007849  0.75372860  0.73606468  1
  O2-  O483  1  0.42270356  0.25108389  0.72781503  1
  O2-  O484  1  0.06946039  0.74512993  0.39373654  1
  O2-  O485  1  0.08688311  0.25722852  0.40061420  1
  O2-  O486  1  0.41609886  0.74912585  0.39396664  1
  O2-  O487  1  0.58870876  0.25593541  0.60148459  1
  O2-  O488  1  0.25153840  0.74729930  0.27075916  1
  O2-  O489  1  0.93332784  0.74822504  0.27159831  1
  O2-  O490  1  0.43076790  0.75330223  0.07164820  1
  O2-  O491  1  0.73621212  0.75307710  0.06090503  1
  O2-  O492  1  0.57425149  0.75064477  0.26207669  1
