# generated using pymatgen
data_Ca108Mn108O277
_symmetry_space_group_name_H-M   'P 1'
_cell_length_a   16.03438154
_cell_length_b   22.31697006
_cell_length_c   16.39491729
_cell_angle_alpha   90.00110507
_cell_angle_beta   90.00497993
_cell_angle_gamma   90.00356869
_symmetry_Int_Tables_number   1
_chemical_formula_structural   Ca108Mn108O277
_chemical_formula_sum   'Ca108 Mn108 O277'
_cell_volume   5866.73770351
_cell_formula_units_Z   1
loop_
 _symmetry_equiv_pos_site_id
 _symmetry_equiv_pos_as_xyz
  1  'x, y, z'
loop_
 _atom_type_symbol
 _atom_type_oxidation_number
  Ca2+  2.0
  Mn3.34+  3.34
  O2-  -2.0
loop_
 _atom_site_type_symbol
 _atom_site_label
 _atom_site_symmetry_multiplicity
 _atom_site_fract_x
 _atom_site_fract_y
 _atom_site_fract_z
 _atom_site_occupancy
  Ca2+  Ca0  1  0.07698708  0.24690074  0.25912507  1
  Ca2+  Ca1  1  0.08593781  0.25647627  0.58783113  1
  Ca2+  Ca2  1  0.08551786  0.25302520  0.89075948  1
  Ca2+  Ca3  1  0.07278369  0.76384734  0.25487606  1
  Ca2+  Ca4  1  0.06281752  0.75697887  0.57538514  1
  Ca2+  Ca5  1  0.09395838  0.75411714  0.91774995  1
  Ca2+  Ca6  1  0.41141319  0.27411767  0.24985832  1
  Ca2+  Ca7  1  0.42236058  0.24611239  0.59794803  1
  Ca2+  Ca8  1  0.41222352  0.25994260  0.90239862  1
  Ca2+  Ca9  1  0.41891508  0.75372040  0.24387588  1
  Ca2+  Ca10  1  0.42933946  0.75517347  0.58636685  1
  Ca2+  Ca11  1  0.43263103  0.74518540  0.91886332  1
  Ca2+  Ca12  1  0.75965394  0.24472050  0.24571969  1
  Ca2+  Ca13  1  0.75576045  0.24108168  0.58056689  1
  Ca2+  Ca14  1  0.74728973  0.24940607  0.92936603  1
  Ca2+  Ca15  1  0.75277032  0.75228662  0.25933207  1
  Ca2+  Ca16  1  0.75583824  0.75531179  0.56674434  1
  Ca2+  Ca17  1  0.73150393  0.74113893  0.92231747  1
  Ca2+  Ca18  1  0.25314995  0.26058043  0.09500939  1
  Ca2+  Ca19  1  0.22346875  0.24181757  0.41645597  1
  Ca2+  Ca20  1  0.24598915  0.23879445  0.72946683  1
  Ca2+  Ca21  1  0.26581873  0.75906057  0.08160638  1
  Ca2+  Ca22  1  0.25013395  0.76142105  0.41533450  1
  Ca2+  Ca23  1  0.26399909  0.76681097  0.75347366  1
  Ca2+  Ca24  1  0.60476893  0.25448942  0.08709806  1
  Ca2+  Ca25  1  0.59601746  0.26262431  0.42146596  1
  Ca2+  Ca26  1  0.57312114  0.23404873  0.74634511  1
  Ca2+  Ca27  1  0.59303932  0.73695319  0.07070821  1
  Ca2+  Ca28  1  0.60796088  0.75539951  0.42028106  1
  Ca2+  Ca29  1  0.57531911  0.75303584  0.76214931  1
  Ca2+  Ca30  1  0.89535337  0.24945599  0.09162895  1
  Ca2+  Ca31  1  0.92894008  0.22687464  0.41693954  1
  Ca2+  Ca32  1  0.92918516  0.23189460  0.74109400  1
  Ca2+  Ca33  1  0.88723224  0.74692567  0.08158071  1
  Ca2+  Ca34  1  0.89297012  0.74577720  0.42694938  1
  Ca2+  Ca35  1  0.90913795  0.74995850  0.72701067  1
  Ca2+  Ca36  1  0.22512437  0.10233484  0.42906536  1
  Ca2+  Ca37  1  0.02206097  0.58227358  0.58160097  1
  Ca2+  Ca38  1  0.89801647  0.10335798  0.08761992  1
  Ca2+  Ca39  1  0.74677605  0.08367304  0.26874726  1
  Ca2+  Ca40  1  0.23264300  0.10679764  0.72871651  1
  Ca2+  Ca41  1  0.59647807  0.59893945  0.41929080  1
  Ca2+  Ca42  1  0.77884054  0.61204744  0.56411633  1
  Ca2+  Ca43  1  0.40193726  0.09826453  0.61457653  1
  Ca2+  Ca44  1  0.06194976  0.57902417  0.92502290  1
  Ca2+  Ca45  1  0.39776868  0.58682361  0.24968889  1
  Ca2+  Ca46  1  0.74864000  0.10663018  0.92572277  1
  Ca2+  Ca47  1  0.82374131  0.09558320  0.57092775  1
  Ca2+  Ca48  1  0.08578769  0.08676082  0.26382989  1
  Ca2+  Ca49  1  0.43483043  0.10955808  0.86702038  1
  Ca2+  Ca50  1  0.26881388  0.58439941  0.75691311  1
  Ca2+  Ca51  1  0.05975388  0.11303129  0.56956731  1
  Ca2+  Ca52  1  0.39394393  0.10488574  0.61526719  1
  Ca2+  Ca53  1  0.58999958  0.60856271  0.76488751  1
  Ca2+  Ca54  1  0.24935705  0.58119603  0.38937648  1
  Ca2+  Ca55  1  0.60787366  0.59609894  0.42326231  1
  Ca2+  Ca56  1  0.26380359  0.59045970  0.08831803  1
  Ca2+  Ca57  1  0.45395353  0.59986651  0.91969806  1
  Ca2+  Ca58  1  0.38884437  0.07525300  0.25460404  1
  Ca2+  Ca59  1  0.72345199  0.59938476  0.93866120  1
  Ca2+  Ca60  1  0.90845415  0.10237989  0.08762094  1
  Ca2+  Ca61  1  0.90690891  0.58876188  0.73694586  1
  Ca2+  Ca62  1  0.25919972  0.58065141  0.75367497  1
  Ca2+  Ca63  1  0.06736815  0.11768000  0.57038128  1
  Ca2+  Ca64  1  0.42700277  0.58409836  0.59020188  1
  Ca2+  Ca65  1  0.78803608  0.60977636  0.56736259  1
  Ca2+  Ca66  1  0.09617279  0.08701357  0.26235349  1
  Ca2+  Ca67  1  0.62745413  0.09810474  0.07874505  1
  Ca2+  Ca68  1  0.20534079  0.06613442  0.08575859  1
  Ca2+  Ca69  1  0.05741223  0.10004192  0.91247975  1
  Ca2+  Ca70  1  0.08956580  0.56557315  0.26505497  1
  Ca2+  Ca71  1  0.88059565  0.58872190  0.07003451  1
  Ca2+  Ca72  1  0.42957432  0.40682150  0.92113929  1
  Ca2+  Ca73  1  0.75930051  0.90863755  0.92247542  1
  Ca2+  Ca74  1  0.42720226  0.40242625  0.58054061  1
  Ca2+  Ca75  1  0.08799422  0.91490882  0.94594511  1
  Ca2+  Ca76  1  0.09138553  0.91655198  0.23577040  1
  Ca2+  Ca77  1  0.73880118  0.91385968  0.25874311  1
  Ca2+  Ca78  1  0.92529861  0.40940246  0.74685456  1
  Ca2+  Ca79  1  0.24159650  0.41377420  0.40021434  1
  Ca2+  Ca80  1  0.91767708  0.90428154  0.08529246  1
  Ca2+  Ca81  1  0.24166396  0.91724925  0.39324029  1
  Ca2+  Ca82  1  0.41566630  0.40574948  0.58128089  1
  Ca2+  Ca83  1  0.40604577  0.90407638  0.58394742  1
  Ca2+  Ca84  1  0.25297267  0.40347593  0.75443342  1
  Ca2+  Ca85  1  0.26895367  0.40994368  0.09648897  1
  Ca2+  Ca86  1  0.91778163  0.41129563  0.08198494  1
  Ca2+  Ca87  1  0.57721651  0.90566932  0.74753214  1
  Ca2+  Ca88  1  0.74663697  0.90848490  0.92124458  1
  Ca2+  Ca89  1  0.06099352  0.90719271  0.57464881  1
  Ca2+  Ca90  1  0.75109606  0.40746644  0.25148414  1
  Ca2+  Ca91  1  0.07645010  0.40432527  0.91535026  1
  Ca2+  Ca92  1  0.75399482  0.40687938  0.57755858  1
  Ca2+  Ca93  1  0.42155109  0.89744863  0.91409219  1
  Ca2+  Ca94  1  0.07461828  0.91463431  0.94576424  1
  Ca2+  Ca95  1  0.08604867  0.41026971  0.25482950  1
  Ca2+  Ca96  1  0.93040283  0.41761253  0.40807120  1
  Ca2+  Ca97  1  0.91290512  0.91138154  0.72237104  1
  Ca2+  Ca98  1  0.76539276  0.40726019  0.57729360  1
  Ca2+  Ca99  1  0.59931194  0.92250398  0.38970933  1
  Ca2+  Ca100  1  0.75387554  0.40302312  0.92625803  1
  Ca2+  Ca101  1  0.24136460  0.40314093  0.75451439  1
  Ca2+  Ca102  1  0.90520993  0.41168050  0.08248626  1
  Ca2+  Ca103  1  0.77932067  0.91850974  0.56039510  1
  Ca2+  Ca104  1  0.92030345  0.41906374  0.40599120  1
  Ca2+  Ca105  1  0.58709524  0.90087515  0.09610791  1
  Ca2+  Ca106  1  0.41640984  0.90486893  0.25801000  1
  Ca2+  Ca107  1  0.58409907  0.39956503  0.75513100  1
  Mn3.34+  Mn108  1  0.08268452  0.32641880  0.08569901  1
  Mn3.34+  Mn109  1  0.08216930  0.32897208  0.41974592  1
  Mn3.34+  Mn110  1  0.08043977  0.32982401  0.74533774  1
  Mn3.34+  Mn111  1  0.08261221  0.83175777  0.08965424  1
  Mn3.34+  Mn112  1  0.07847266  0.83628744  0.41351573  1
  Mn3.34+  Mn113  1  0.08364634  0.83480331  0.75331442  1
  Mn3.34+  Mn114  1  0.42613521  0.33634818  0.08430533  1
  Mn3.34+  Mn115  1  0.41758421  0.33164567  0.41186140  1
  Mn3.34+  Mn116  1  0.41838013  0.33183932  0.75369106  1
  Mn3.34+  Mn117  1  0.41745792  0.83243135  0.08436740  1
  Mn3.34+  Mn118  1  0.41866756  0.83074146  0.42043730  1
  Mn3.34+  Mn119  1  0.41502420  0.83655648  0.74834454  1
  Mn3.34+  Mn120  1  0.74351776  0.33313525  0.09009314  1
  Mn3.34+  Mn121  1  0.75233784  0.32992246  0.41296477  1
  Mn3.34+  Mn122  1  0.75060530  0.32832190  0.75472093  1
  Mn3.34+  Mn123  1  0.74786597  0.82969904  0.08994742  1
  Mn3.34+  Mn124  1  0.75214829  0.84033296  0.41445868  1
  Mn3.34+  Mn125  1  0.74861161  0.83341273  0.74954077  1
  Mn3.34+  Mn126  1  0.24746150  0.33714488  0.25072573  1
  Mn3.34+  Mn127  1  0.24927302  0.33617815  0.57342644  1
  Mn3.34+  Mn128  1  0.24985457  0.33765046  0.92290776  1
  Mn3.34+  Mn129  1  0.25036989  0.83653038  0.24537331  1
  Mn3.34+  Mn130  1  0.24447132  0.83340671  0.58232861  1
  Mn3.34+  Mn131  1  0.25342720  0.82955083  0.91879808  1
  Mn3.34+  Mn132  1  0.58271210  0.33949330  0.25157726  1
  Mn3.34+  Mn133  1  0.58909948  0.33207651  0.58200809  1
  Mn3.34+  Mn134  1  0.58583145  0.33557416  0.91695320  1
  Mn3.34+  Mn135  1  0.58208652  0.83327963  0.24982851  1
  Mn3.34+  Mn136  1  0.58616226  0.83406100  0.58023787  1
  Mn3.34+  Mn137  1  0.58426017  0.83399638  0.91796962  1
  Mn3.34+  Mn138  1  0.92009936  0.33335800  0.24839196  1
  Mn3.34+  Mn139  1  0.92154002  0.33820940  0.57895743  1
  Mn3.34+  Mn140  1  0.91557501  0.33643877  0.91026798  1
  Mn3.34+  Mn141  1  0.91594655  0.83808218  0.25274124  1
  Mn3.34+  Mn142  1  0.91459758  0.83275148  0.57804314  1
  Mn3.34+  Mn143  1  0.91679571  0.82728384  0.90834225  1
  Mn3.34+  Mn144  1  0.07987385  0.67284417  0.75170117  1
  Mn3.34+  Mn145  1  0.57684668  0.16312576  0.25494653  1
  Mn3.34+  Mn146  1  0.91469512  0.16633547  0.25526873  1
  Mn3.34+  Mn147  1  0.42016190  0.66496650  0.08218036  1
  Mn3.34+  Mn148  1  0.25518333  0.66628892  0.91724528  1
  Mn3.34+  Mn149  1  0.41011199  0.16213392  0.08474254  1
  Mn3.34+  Mn150  1  0.75251058  0.16104501  0.42489227  1
  Mn3.34+  Mn151  1  0.42188589  0.16926249  0.08161488  1
  Mn3.34+  Mn152  1  0.90994791  0.66159076  0.25165943  1
  Mn3.34+  Mn153  1  0.91268180  0.65058442  0.24525783  1
  Mn3.34+  Mn154  1  0.08164590  0.16769705  0.08742294  1
  Mn3.34+  Mn155  1  0.08619863  0.67084511  0.08762026  1
  Mn3.34+  Mn156  1  0.24798303  0.66662296  0.57651575  1
  Mn3.34+  Mn157  1  0.41957079  0.66847366  0.75161051  1
  Mn3.34+  Mn158  1  0.58504538  0.16778497  0.91450329  1
  Mn3.34+  Mn159  1  0.08305091  0.66633721  0.41431957  1
  Mn3.34+  Mn160  1  0.08801630  0.66649414  0.75437730  1
  Mn3.34+  Mn161  1  0.91165091  0.17167698  0.91314068  1
  Mn3.34+  Mn162  1  0.25526230  0.16003366  0.91613783  1
  Mn3.34+  Mn163  1  0.59227567  0.65999122  0.24054463  1
  Mn3.34+  Mn164  1  0.59206899  0.16644991  0.58220402  1
  Mn3.34+  Mn165  1  0.58712857  0.15822837  0.25418285  1
  Mn3.34+  Mn166  1  0.75120303  0.66987108  0.75331770  1
  Mn3.34+  Mn167  1  0.42022969  0.66998880  0.41520927  1
  Mn3.34+  Mn168  1  0.07166482  0.65989678  0.41665100  1
  Mn3.34+  Mn169  1  0.25921070  0.66228140  0.57420300  1
  Mn3.34+  Mn170  1  0.07702839  0.67654404  0.08559911  1
  Mn3.34+  Mn171  1  0.58209311  0.66509285  0.24186484  1
  Mn3.34+  Mn172  1  0.91207511  0.66506667  0.90564483  1
  Mn3.34+  Mn173  1  0.58523648  0.66789586  0.58581342  1
  Mn3.34+  Mn174  1  0.24838136  0.16889916  0.24664969  1
  Mn3.34+  Mn175  1  0.42656971  0.16249122  0.41828923  1
  Mn3.34+  Mn176  1  0.24790674  0.66674005  0.24467848  1
  Mn3.34+  Mn177  1  0.41315104  0.16874274  0.41611982  1
  Mn3.34+  Mn178  1  0.74963082  0.17015231  0.74951199  1
  Mn3.34+  Mn179  1  0.24499861  0.16949758  0.92002905  1
  Mn3.34+  Mn180  1  0.24689038  0.00187660  0.90332067  1
  Mn3.34+  Mn181  1  0.74955568  0.50149190  0.76106556  1
  Mn3.34+  Mn182  1  0.26665257  0.50316822  0.93692488  1
  Mn3.34+  Mn183  1  0.91259829  0.00018877  0.91010688  1
  Mn3.34+  Mn184  1  0.08884933  0.49935612  0.08756996  1
  Mn3.34+  Mn185  1  0.41191814  -0.00453561  0.07888346  1
  Mn3.34+  Mn186  1  0.09118931  -0.00516569  0.74578412  1
  Mn3.34+  Mn187  1  0.58553066  0.00264135  0.91284294  1
  Mn3.34+  Mn188  1  0.24983706  -0.00575230  0.57853779  1
  Mn3.34+  Mn189  1  0.58905535  0.49988128  0.23998067  1
  Mn3.34+  Mn190  1  0.73851832  0.49748540  0.07166821  1
  Mn3.34+  Mn191  1  0.42736762  0.49432206  0.40394787  1
  Mn3.34+  Mn192  1  0.42805405  0.00503808  0.41598109  1
  Mn3.34+  Mn193  1  0.58449308  0.49739953  0.93906077  1
  Mn3.34+  Mn194  1  0.41326297  -0.00006381  0.41540204  1
  Mn3.34+  Mn195  1  0.58129954  0.00061869  0.57825455  1
  Mn3.34+  Mn196  1  0.43696366  0.50124466  0.74495891  1
  Mn3.34+  Mn197  1  0.07907902  0.50525300  0.08922942  1
  Mn3.34+  Mn198  1  0.59015027  0.49993856  0.58635457  1
  Mn3.34+  Mn199  1  0.75472002  0.49874705  0.39240547  1
  Mn3.34+  Mn200  1  0.75246613  -0.00522583  0.08477212  1
  Mn3.34+  Mn201  1  0.08058688  -0.00180019  0.40928162  1
  Mn3.34+  Mn202  1  0.07661726  0.50027041  0.74813636  1
  Mn3.34+  Mn203  1  0.41705729  0.49956457  0.40567470  1
  Mn3.34+  Mn204  1  0.73942537  0.49680521  0.76451179  1
  Mn3.34+  Mn205  1  0.75260998  0.01454147  0.73874518  1
  Mn3.34+  Mn206  1  0.42748916  0.50099932  0.07808281  1
  Mn3.34+  Mn207  1  0.76356787  0.00972123  0.73859285  1
  Mn3.34+  Mn208  1  0.59448327  0.00673097  0.58009119  1
  Mn3.34+  Mn209  1  0.42302348  0.00055306  0.07730552  1
  Mn3.34+  Mn210  1  0.26019000  -0.00499660  0.90622053  1
  Mn3.34+  Mn211  1  0.07853591  0.00178595  0.74433237  1
  Mn3.34+  Mn212  1  0.40801812  -0.00456715  0.74088680  1
  Mn3.34+  Mn213  1  0.23573688  0.50022731  0.58894879  1
  Mn3.34+  Mn214  1  0.08541440  0.49691421  0.42188600  1
  Mn3.34+  Mn215  1  0.91349806  -0.00217721  0.26883206  1
  O2-  O216  1  -0.00490384  0.16828567  0.00659141  1
  O2-  O217  1  0.00509182  0.15548439  0.32112752  1
  O2-  O218  1  -0.00306207  0.18238403  0.64888778  1
  O2-  O219  1  -0.00260551  0.66848758  -0.00461408  1
  O2-  O220  1  0.00414538  0.63905289  0.32073057  1
  O2-  O221  1  -0.00063400  0.65936858  0.67305069  1
  O2-  O222  1  0.33285684  0.13909920  -0.00309118  1
  O2-  O223  1  0.33080390  0.14225965  0.33938534  1
  O2-  O224  1  0.32347906  0.17373165  0.66114266  1
  O2-  O225  1  0.34125245  0.64646269  -0.00141058  1
  O2-  O226  1  0.33049421  0.67216383  0.33389893  1
  O2-  O227  1  0.33485585  0.64348142  0.66437692  1
  O2-  O228  1  0.66197962  0.17286450  -0.00335180  1
  O2-  O229  1  0.66308561  0.15053237  0.33846530  1
  O2-  O230  1  0.67138198  0.14742041  0.66442785  1
  O2-  O231  1  0.66148432  0.67115273  -0.00232692  1
  O2-  O232  1  0.66373305  0.65520895  0.33052782  1
  O2-  O233  1  0.67450250  0.64731951  0.66175741  1
  O2-  O234  1  0.16222564  0.14516811  -0.00234596  1
  O2-  O235  1  0.16787092  0.16063271  0.32433007  1
  O2-  O236  1  0.16135595  0.16789145  0.65092954  1
  O2-  O237  1  0.16301319  0.65517427  -0.00014100  1
  O2-  O238  1  0.16018299  0.65437342  0.33001026  1
  O2-  O239  1  0.16717652  0.64078944  0.66977776  1
  O2-  O240  1  0.50158002  0.15025752  0.00370650  1
  O2-  O241  1  0.49025389  0.13547711  0.32771926  1
  O2-  O242  1  0.50213529  0.15897967  0.65475733  1
  O2-  O243  1  0.50304499  0.66148990  0.01131765  1
  O2-  O244  1  0.50138827  0.64354581  0.32881740  1
  O2-  O245  1  0.50003695  0.65113365  0.66769709  1
  O2-  O246  1  0.83596356  0.16757744  0.00018784  1
  O2-  O247  1  0.82971921  0.15482344  0.33021012  1
  O2-  O248  1  0.83237620  0.16554361  0.67599652  1
  O2-  O249  1  0.83493562  0.66341597  -0.01630838  1
  O2-  O250  1  0.83379166  0.65218414  0.33075908  1
  O2-  O251  1  0.83342634  0.66409263  0.67579950  1
  O2-  O252  1  -0.00135861  0.32897750  -0.00309473  1
  O2-  O253  1  0.00279348  0.35028011  0.33168763  1
  O2-  O254  1  -0.00390881  0.33062617  0.66632646  1
  O2-  O255  1  0.00126648  0.82583958  -0.00474673  1
  O2-  O256  1  0.01313630  0.85124873  0.31803775  1
  O2-  O257  1  -0.00337287  0.83494393  0.67077453  1
  O2-  O258  1  0.33678282  0.35324754  -0.00181812  1
  O2-  O259  1  0.32846855  0.34930118  0.33580988  1
  O2-  O260  1  0.33271277  0.34741086  0.66621245  1
  O2-  O261  1  0.33402741  0.84893450  0.00249404  1
  O2-  O262  1  0.33426592  0.82346346  0.33188186  1
  O2-  O263  1  0.32855056  0.84564825  0.66786198  1
  O2-  O264  1  0.67016987  0.33575304  -0.00258309  1
  O2-  O265  1  0.67108805  0.34456192  0.33445390  1
  O2-  O266  1  0.67302699  0.35598011  0.66758699  1
  O2-  O267  1  0.66912953  0.85065713  0.00029382  1
  O2-  O268  1  0.66331097  0.84120935  0.33363825  1
  O2-  O269  1  0.66252508  0.84585961  0.67294876  1
  O2-  O270  1  0.16520873  0.34521067  0.00536034  1
  O2-  O271  1  0.16355404  0.34346381  0.33572813  1
  O2-  O272  1  0.17364364  0.34119252  0.66792917  1
  O2-  O273  1  0.15934414  0.83190682  0.00017991  1
  O2-  O274  1  0.17163685  0.83154456  0.33270785  1
  O2-  O275  1  0.15482592  0.83796476  0.66082612  1
  O2-  O276  1  0.49976448  0.32411132  -0.00785766  1
  O2-  O277  1  0.49877131  0.34506477  0.33113692  1
  O2-  O278  1  0.50036112  0.34790545  0.66806662  1
  O2-  O279  1  0.50387151  0.85164892  0.00225860  1
  O2-  O280  1  0.49711589  0.84230922  0.33349579  1
  O2-  O281  1  0.49648900  0.84949014  0.65975475  1
  O2-  O282  1  0.83953709  0.34390123  0.00410573  1
  O2-  O283  1  0.84069412  0.35201996  0.33643586  1
  O2-  O284  1  0.83621229  0.34891897  0.66889960  1
  O2-  O285  1  0.83572585  0.84480728  -0.00239413  1
  O2-  O286  1  0.82822828  0.84686636  0.32576152  1
  O2-  O287  1  0.82933829  0.83481325  0.66540514  1
  O2-  O288  1  -0.00529461  0.18308543  0.16198514  1
  O2-  O289  1  -0.00299708  0.19582062  0.52291632  1
  O2-  O290  1  -0.00230711  0.18470383  0.84611627  1
  O2-  O291  1  -0.00531266  0.68966670  0.16843809  1
  O2-  O292  1  0.00744022  0.67219616  0.50527626  1
  O2-  O293  1  0.00245666  0.69244370  0.83424869  1
  O2-  O294  1  0.33690892  0.17783744  0.16905529  1
  O2-  O295  1  0.33599073  0.18158292  0.49622170  1
  O2-  O296  1  0.33339180  0.18380115  0.83947045  1
  O2-  O297  1  0.32994273  0.68352591  0.16711838  1
  O2-  O298  1  0.34501859  0.69283815  0.49853531  1
  O2-  O299  1  0.32631147  0.67855574  0.81913805  1
  O2-  O300  1  0.66541320  0.17727402  0.17294474  1
  O2-  O301  1  0.66748414  0.18763004  0.49847954  1
  O2-  O302  1  0.66718673  0.18740995  0.83892605  1
  O2-  O303  1  0.67079162  0.68650400  0.17112577  1
  O2-  O304  1  0.66682845  0.66973797  0.50470829  1
  O2-  O305  1  0.66546630  0.68683309  0.82032799  1
  O2-  O306  1  0.16691738  0.18945347  0.16082318  1
  O2-  O307  1  0.16128433  0.17680516  0.50609982  1
  O2-  O308  1  0.17191522  0.17950119  0.83438694  1
  O2-  O309  1  0.16573755  0.69842702  0.16828658  1
  O2-  O310  1  0.17363499  0.68694631  0.48935885  1
  O2-  O311  1  0.17049378  0.68990810  0.82842673  1
  O2-  O312  1  0.50096243  0.18564450  0.17005697  1
  O2-  O313  1  0.50183845  0.18809355  0.49710595  1
  O2-  O314  1  0.50086913  0.19298805  0.85012143  1
  O2-  O315  1  0.49508985  0.68340789  0.17198603  1
  O2-  O316  1  0.51178907  0.68314842  0.48800819  1
  O2-  O317  1  0.49608424  0.67784392  0.82967768  1
  O2-  O318  1  0.84016334  0.17229789  0.16910225  1
  O2-  O319  1  0.83085546  0.18187411  0.49732374  1
  O2-  O320  1  0.82751699  0.18996513  0.83852898  1
  O2-  O321  1  0.83636001  0.67195019  0.16451267  1
  O2-  O322  1  0.82666187  0.68502163  0.50187322  1
  O2-  O323  1  0.83600191  0.69538003  0.83052699  1
  O2-  O324  1  -0.00419759  0.31045152  0.16166627  1
  O2-  O325  1  -0.00949259  0.32089137  0.49117666  1
  O2-  O326  1  -0.00173525  0.32162394  0.83203556  1
  O2-  O327  1  -0.00491523  0.81465785  0.15983312  1
  O2-  O328  1  0.00075588  0.82739679  0.49891396  1
  O2-  O329  1  0.00124455  0.80827276  0.83127439  1
  O2-  O330  1  0.32957588  0.32917160  0.16325792  1
  O2-  O331  1  0.33988674  0.31189467  0.50832084  1
  O2-  O332  1  0.32599195  0.32671750  0.82788579  1
  O2-  O333  1  0.33614973  0.81774126  0.17207089  1
  O2-  O334  1  0.33631376  0.81558479  0.50294092  1
  O2-  O335  1  0.34303922  0.82232176  0.84272377  1
  O2-  O336  1  0.67160874  0.31729805  0.17688543  1
  O2-  O337  1  0.67650456  0.32401036  0.50802523  1
  O2-  O338  1  0.66300426  0.31771055  0.83245102  1
  O2-  O339  1  0.66407079  0.81717564  0.16887007  1
  O2-  O340  1  0.67111122  0.82299131  0.50376859  1
  O2-  O341  1  0.67224625  0.82338970  0.83808338  1
  O2-  O342  1  0.16020173  0.31462281  0.17151801  1
  O2-  O343  1  0.16807299  0.31567544  0.49767510  1
  O2-  O344  1  0.16627517  0.33145677  0.83330287  1
  O2-  O345  1  0.16520073  0.81712956  0.16901862  1
  O2-  O346  1  0.16251849  0.81476081  0.49832194  1
  O2-  O347  1  0.16694991  0.81482248  0.83383851  1
  O2-  O348  1  0.50588009  0.31467532  0.16187762  1
  O2-  O349  1  0.49776990  0.32225858  0.50958205  1
  O2-  O350  1  0.50059605  0.32561397  0.83324013  1
  O2-  O351  1  0.50121007  0.81889913  0.16657154  1
  O2-  O352  1  0.50324055  0.81334809  0.49717444  1
  O2-  O353  1  0.50449502  0.82691525  0.83292529  1
  O2-  O354  1  0.83495651  0.32815450  0.16897802  1
  O2-  O355  1  0.82776264  0.31906974  0.51016657  1
  O2-  O356  1  0.83055539  0.31338452  0.83989313  1
  O2-  O357  1  0.83463892  0.82091306  0.16539856  1
  O2-  O358  1  0.83117072  0.82923800  0.49900693  1
  O2-  O359  1  0.82899979  0.81624304  0.83333542  1
  O2-  O360  1  0.07175968  0.07877230  0.12354098  1
  O2-  O361  1  0.08669875  0.07493272  0.44301651  1
  O2-  O362  1  0.09638945  0.07639105  0.78783264  1
  O2-  O363  1  0.10048222  0.58501984  0.12431428  1
  O2-  O364  1  0.09353907  0.57931463  0.45144237  1
  O2-  O365  1  0.09290580  0.57952966  0.79033666  1
  O2-  O366  1  0.42434003  0.07888938  0.12327018  1
  O2-  O367  1  0.41980002  0.08099412  0.46706587  1
  O2-  O368  1  0.38798583  0.07726335  0.74817067  1
  O2-  O369  1  0.41411867  0.58141030  0.11591805  1
  O2-  O370  1  0.42249969  0.57879622  0.45178072  1
  O2-  O371  1  0.40912544  0.58225982  0.78546209  1
  O2-  O372  1  0.76706499  0.07532643  0.10686933  1
  O2-  O373  1  0.75315802  0.08345812  0.44554913  1
  O2-  O374  1  0.75210878  0.08735950  0.79307910  1
  O2-  O375  1  0.73960152  0.57418059  0.08509642  1
  O2-  O376  1  0.72223357  0.55570626  0.46941517  1
  O2-  O377  1  0.75836614  0.58236886  0.79415160  1
  O2-  O378  1  0.23138150  0.08534475  0.21707116  1
  O2-  O379  1  0.26708186  0.07238303  0.55490737  1
  O2-  O380  1  0.26465309  0.08047584  0.86841910  1
  O2-  O381  1  0.24487245  0.58556647  0.22618784  1
  O2-  O382  1  0.25909589  0.57941464  0.53465860  1
  O2-  O383  1  0.24321634  0.58261868  0.88687716  1
  O2-  O384  1  0.58372501  0.08181406  0.21025793  1
  O2-  O385  1  0.57831659  0.08479043  0.54677174  1
  O2-  O386  1  0.57799373  0.08321567  0.88986027  1
  O2-  O387  1  0.57572925  0.58100901  0.20653891  1
  O2-  O388  1  0.56938032  0.58251950  0.55208146  1
  O2-  O389  1  0.59025404  0.56887670  0.88641181  1
  O2-  O390  1  0.92404894  0.07803219  0.22234794  1
  O2-  O391  1  0.94964692  0.07080881  0.55487492  1
  O2-  O392  1  0.90806965  0.08283692  0.91517089  1
  O2-  O393  1  0.93904968  0.57763876  0.20111393  1
  O2-  O394  1  0.89749477  0.56687655  0.57115923  1
  O2-  O395  1  0.92654377  0.58787752  0.87753521  1
  O2-  O396  1  0.06137965  0.41743755  0.10488757  1
  O2-  O397  1  0.07949229  0.41774160  0.44773577  1
  O2-  O398  1  0.07852316  0.41918753  0.77399099  1
  O2-  O399  1  0.06881410  0.91581639  0.09009759  1
  O2-  O400  1  0.09807938  0.91956499  0.44068272  1
  O2-  O401  1  0.07155621  0.92408957  0.80513308  1
  O2-  O402  1  0.42624780  0.41971089  0.09880038  1
  O2-  O403  1  0.41306744  0.41685533  0.44793676  1
  O2-  O404  1  0.40803769  0.41996482  0.77933881  1
  O2-  O405  1  0.42322030  0.91852222  0.12403126  1
  O2-  O406  1  0.40705689  0.91976228  0.44585852  1
  O2-  O407  1  0.43008805  0.92027617  0.78121550  1
  O2-  O408  1  0.75901453  0.41904579  0.11172183  1
  O2-  O409  1  0.75700920  0.42183364  0.44340815  1
  O2-  O410  1  0.75306878  0.41487685  0.79253616  1
  O2-  O411  1  0.74055345  0.91564888  0.11468977  1
  O2-  O412  1  0.73490603  0.92220037  0.43344964  1
  O2-  O413  1  0.76642155  0.92962320  0.78897217  1
  O2-  O414  1  0.22528723  0.41617717  0.22505720  1
  O2-  O415  1  0.27912682  0.42395189  0.54721108  1
  O2-  O416  1  0.24564183  0.42583336  0.88460287  1
  O2-  O417  1  0.24960296  0.91549510  0.24338945  1
  O2-  O418  1  0.24830573  0.91599202  0.54168812  1
  O2-  O419  1  0.22789215  0.91444251  0.89920570  1
  O2-  O420  1  0.60478491  0.42026967  0.22261262  1
  O2-  O421  1  0.58735933  0.41621625  0.55702375  1
  O2-  O422  1  0.57968602  0.42278473  0.88884696  1
  O2-  O423  1  0.58401763  0.91319476  0.23148658  1
  O2-  O424  1  0.57757039  0.92250448  0.53875731  1
  O2-  O425  1  0.60911445  0.92220472  0.88331557  1
  O2-  O426  1  0.93263558  0.41518994  0.21481755  1
  O2-  O427  1  0.89782524  0.42227858  0.54066974  1
  O2-  O428  1  0.91863614  0.41664914  0.89444910  1
  O2-  O429  1  0.92302036  0.92300131  0.21769145  1
  O2-  O430  1  0.91759518  0.91302548  0.57602171  1
  O2-  O431  1  0.91511971  0.91803838  0.88107257  1
  O2-  O432  1  0.00506085  -0.00293844  -0.02962975  1
  O2-  O433  1  0.02622039  -0.00106058  0.30143073  1
  O2-  O434  1  0.00661028  -0.01993016  0.66366781  1
  O2-  O435  1  -0.00544882  0.50883537  0.00999650  1
  O2-  O436  1  0.00802677  0.49098268  0.34074440  1
  O2-  O437  1  -0.01966099  0.50755480  0.69721988  1
  O2-  O438  1  0.31962429  0.01044754  0.00876645  1
  O2-  O439  1  0.33248797  0.00492986  0.33539203  1
  O2-  O440  1  0.34983998  -0.00713258  0.63660699  1
  O2-  O441  1  0.31054344  0.50024261  0.04971671  1
  O2-  O442  1  0.32891145  0.51102993  0.33392255  1
  O2-  O443  1  0.32644090  0.51171813  0.67844325  1
  O2-  O444  1  0.67429456  0.00518544  -0.00614446  1
  O2-  O445  1  0.67054274  -0.00172917  0.32289580  1
  O2-  O446  1  0.66025519  -0.01614858  0.67496845  1
  O2-  O447  1  0.70104799  0.49425329  -0.04131757  1
  O2-  O448  1  0.66241136  0.51903640  0.33195779  1
  O2-  O449  1  0.63702627  0.50114352  0.70212158  1
  O2-  O450  1  0.15753955  0.00707787  -0.02189924  1
  O2-  O451  1  0.17180230  0.00885645  0.35043357  1
  O2-  O452  1  0.17755367  0.00793291  0.67035785  1
  O2-  O453  1  0.15261063  0.50510678  -0.01215834  1
  O2-  O454  1  0.16878592  0.50046629  0.35114039  1
  O2-  O455  1  0.18589680  0.49781049  0.70907235  1
  O2-  O456  1  0.49307513  -0.01681711  -0.01293612  1
  O2-  O457  1  0.49543444  -0.00634313  0.32633224  1
  O2-  O458  1  0.50115890  -0.00019417  0.66450184  1
  O2-  O459  1  0.46764728  0.50195684  -0.03840380  1
  O2-  O460  1  0.49766993  0.51282811  0.31535261  1
  O2-  O461  1  0.47185990  0.49052852  0.62490224  1
  O2-  O462  1  0.83711609  -0.02104232  0.00278327  1
  O2-  O463  1  0.80561429  -0.00259695  0.28510937  1
  O2-  O464  1  0.82164283  -0.00113899  0.64229868  1
  O2-  O465  1  0.84843370  0.49305264  0.04096541  1
  O2-  O466  1  0.83815192  0.47838906  0.32772875  1
  O2-  O467  1  0.81048645  0.48062961  0.66621018  1
  O2-  O468  1  0.41741798  0.75059094  0.72453812  1
  O2-  O469  1  0.41337982  0.74991656  0.05772868  1
  O2-  O470  1  0.73585680  0.25164161  0.71847989  1
  O2-  O471  1  0.57858571  0.75644511  0.93525296  1
  O2-  O472  1  0.91569061  0.74453875  0.27974965  1
  O2-  O473  1  0.58513823  0.74827148  0.61535151  1
  O2-  O474  1  0.57803862  0.24380841  0.28230390  1
  O2-  O475  1  0.25440334  0.25008650  0.95124639  1
  O2-  O476  1  0.06460796  0.74762397  0.39151468  1
  O2-  O477  1  0.91807529  0.75303139  0.58896754  1
  O2-  O478  1  0.07811890  0.25233874  0.39512062  1
  O2-  O479  1  0.57499005  0.74532616  0.28078200  1
  O2-  O480  1  0.25805501  0.74737844  0.94455179  1
  O2-  O481  1  0.41792655  0.25530440  0.73423530  1
  O2-  O482  1  0.74900998  0.75409972  0.05949116  1
  O2-  O483  1  0.09303873  0.25296500  0.73826821  1
  O2-  O484  1  0.42555824  0.24745806  0.38021432  1
  O2-  O485  1  0.91139006  0.25068966  0.27641607  1
  O2-  O486  1  0.58809807  0.25082274  0.60966182  1
  O2-  O487  1  0.24985799  0.74637642  0.61642816  1
  O2-  O488  1  0.74792994  0.25087657  0.38706852  1
  O2-  O489  1  0.75306344  0.25610252  0.07278729  1
  O2-  O490  1  0.26448608  0.25010744  0.27512694  1
  O2-  O491  1  0.75010397  0.75809477  0.39805357  1
  O2-  O492  1  0.39750672  0.24883180  0.05575037  1
