# generated using pymatgen
data_Ca108Mn108O277
_symmetry_space_group_name_H-M   'P 1'
_cell_length_a   16.01210378
_cell_length_b   22.28596158
_cell_length_c   16.37658977
_cell_angle_alpha   89.99811174
_cell_angle_beta   90.00206837
_cell_angle_gamma   89.99731918
_symmetry_Int_Tables_number   1
_chemical_formula_structural   Ca108Mn108O277
_chemical_formula_sum   'Ca108 Mn108 O277'
_cell_volume   5843.90628797
_cell_formula_units_Z   1
loop_
 _symmetry_equiv_pos_site_id
 _symmetry_equiv_pos_as_xyz
  1  'x, y, z'
loop_
 _atom_type_symbol
 _atom_type_oxidation_number
  Ca2+  2.0
  Mn3.34+  3.34
  O2-  -2.0
loop_
 _atom_site_type_symbol
 _atom_site_label
 _atom_site_symmetry_multiplicity
 _atom_site_fract_x
 _atom_site_fract_y
 _atom_site_fract_z
 _atom_site_occupancy
  Ca2+  Ca0  1  0.08127091  0.26231807  0.26279951  1
  Ca2+  Ca1  1  0.08312321  0.24292343  0.58060327  1
  Ca2+  Ca2  1  0.07685909  0.25720114  0.90072906  1
  Ca2+  Ca3  1  0.06745648  0.74097498  0.26409327  1
  Ca2+  Ca4  1  0.06639273  0.75540103  0.57969179  1
  Ca2+  Ca5  1  0.07360535  0.75131972  0.90250235  1
  Ca2+  Ca6  1  0.41624178  0.25071152  0.26516856  1
  Ca2+  Ca7  1  0.41552437  0.24154800  0.56769500  1
  Ca2+  Ca8  1  0.41639415  0.27129461  0.92245972  1
  Ca2+  Ca9  1  0.43857805  0.74034280  0.26500313  1
  Ca2+  Ca10  1  0.42813699  0.76000853  0.56618962  1
  Ca2+  Ca11  1  0.42768865  0.75093659  0.92924313  1
  Ca2+  Ca12  1  0.74813635  0.24158664  0.25834034  1
  Ca2+  Ca13  1  0.74991487  0.24587207  0.56635344  1
  Ca2+  Ca14  1  0.75827877  0.25741367  0.92521188  1
  Ca2+  Ca15  1  0.74112138  0.73471620  0.25432684  1
  Ca2+  Ca16  1  0.76327397  0.75432534  0.57218069  1
  Ca2+  Ca17  1  0.75067063  0.74697701  0.92170583  1
  Ca2+  Ca18  1  0.25925038  0.26289563  0.08886672  1
  Ca2+  Ca19  1  0.25278757  0.24926644  0.41629719  1
  Ca2+  Ca20  1  0.23864120  0.24934730  0.73701728  1
  Ca2+  Ca21  1  0.25515630  0.74858346  0.08160288  1
  Ca2+  Ca22  1  0.24710855  0.75201057  0.41477534  1
  Ca2+  Ca23  1  0.22625144  0.75185554  0.75349814  1
  Ca2+  Ca24  1  0.58995358  0.25589562  0.09402259  1
  Ca2+  Ca25  1  0.58126728  0.24783165  0.41436782  1
  Ca2+  Ca26  1  0.58370421  0.25101977  0.73703329  1
  Ca2+  Ca27  1  0.58330716  0.73874058  0.09769188  1
  Ca2+  Ca28  1  0.57674233  0.74065769  0.39882831  1
  Ca2+  Ca29  1  0.58876882  0.75542862  0.75177903  1
  Ca2+  Ca30  1  0.90189420  0.26003445  0.08663225  1
  Ca2+  Ca31  1  0.91703472  0.25432656  0.41141485  1
  Ca2+  Ca32  1  0.92626816  0.24030222  0.74484890  1
  Ca2+  Ca33  1  0.91139343  0.75062093  0.08770420  1
  Ca2+  Ca34  1  0.92867092  0.73484217  0.42057764  1
  Ca2+  Ca35  1  0.93609352  0.73884729  0.74393609  1
  Ca2+  Ca36  1  0.91065274  0.10164352  0.42910349  1
  Ca2+  Ca37  1  0.42814932  0.08762334  0.27643390  1
  Ca2+  Ca38  1  0.92349768  0.60494076  0.09443347  1
  Ca2+  Ca39  1  0.26367304  0.58786781  0.06928189  1
  Ca2+  Ca40  1  0.07429279  0.60374332  0.91045998  1
  Ca2+  Ca41  1  0.58455285  0.59439447  0.40225429  1
  Ca2+  Ca42  1  0.23122657  0.08670797  0.73397348  1
  Ca2+  Ca43  1  0.06849161  0.08576754  0.89771824  1
  Ca2+  Ca44  1  0.57780312  0.59718489  0.07712031  1
  Ca2+  Ca45  1  0.75979836  0.09078539  0.91101558  1
  Ca2+  Ca46  1  0.72629350  0.60543541  0.91778028  1
  Ca2+  Ca47  1  0.59953581  0.08685316  0.72767805  1
  Ca2+  Ca48  1  0.07496143  0.08480545  0.59503217  1
  Ca2+  Ca49  1  0.90198252  0.10505551  0.42497314  1
  Ca2+  Ca50  1  0.08357950  0.60437630  0.57597169  1
  Ca2+  Ca51  1  0.58854722  0.10853612  0.40501670  1
  Ca2+  Ca52  1  0.58705003  0.08775612  0.72666167  1
  Ca2+  Ca53  1  0.59318361  0.60184696  0.77829262  1
  Ca2+  Ca54  1  0.24617928  0.08500208  0.09386090  1
  Ca2+  Ca55  1  0.93387854  0.60630842  0.09397819  1
  Ca2+  Ca56  1  0.75597535  0.09563631  0.58397599  1
  Ca2+  Ca57  1  0.75783507  0.59495385  0.56577605  1
  Ca2+  Ca58  1  0.44080216  0.59881895  0.25612286  1
  Ca2+  Ca59  1  0.07245886  0.60469114  0.57510248  1
  Ca2+  Ca60  1  0.08509723  0.60434816  0.90939688  1
  Ca2+  Ca61  1  0.09127333  0.08700437  0.25963733  1
  Ca2+  Ca62  1  0.25309246  0.58741592  0.06945837  1
  Ca2+  Ca63  1  0.43552897  0.58144355  0.94205623  1
  Ca2+  Ca64  1  0.91067748  0.10100696  0.08035521  1
  Ca2+  Ca65  1  0.27445934  0.08204073  0.41340690  1
  Ca2+  Ca66  1  0.75036527  0.59082114  0.26334777  1
  Ca2+  Ca67  1  0.10385694  0.08614371  0.25981630  1
  Ca2+  Ca68  1  0.23725660  0.58625491  0.75523734  1
  Ca2+  Ca69  1  0.77172201  0.09284019  0.90752646  1
  Ca2+  Ca70  1  0.42132405  0.59049837  0.55988001  1
  Ca2+  Ca71  1  0.22813218  0.58972600  0.75088376  1
  Ca2+  Ca72  1  0.90033750  0.41240039  0.39301005  1
  Ca2+  Ca73  1  0.58746272  0.40594974  0.74998784  1
  Ca2+  Ca74  1  0.24968668  0.90591390  0.08492804  1
  Ca2+  Ca75  1  0.75788278  0.90069865  0.90306890  1
  Ca2+  Ca76  1  0.23696065  0.90609746  0.08534677  1
  Ca2+  Ca77  1  0.42683770  0.41027053  0.57819137  1
  Ca2+  Ca78  1  0.92438668  0.89882204  0.07383529  1
  Ca2+  Ca79  1  0.24277182  0.90491617  0.74228120  1
  Ca2+  Ca80  1  0.09318613  0.40936432  0.58249128  1
  Ca2+  Ca81  1  0.75801871  0.40999947  0.26181702  1
  Ca2+  Ca82  1  0.40434249  0.91910033  0.27953208  1
  Ca2+  Ca83  1  0.92677938  0.39912219  0.75489297  1
  Ca2+  Ca84  1  0.74785253  0.89793258  0.25051152  1
  Ca2+  Ca85  1  0.56364558  0.90643220  0.42418490  1
  Ca2+  Ca86  1  0.76065628  0.91350296  0.60360704  1
  Ca2+  Ca87  1  0.41496611  0.40692011  0.57799063  1
  Ca2+  Ca88  1  0.41609124  0.40830330  0.24475877  1
  Ca2+  Ca89  1  0.25139509  0.40505267  0.75908951  1
  Ca2+  Ca90  1  0.07559965  0.90660713  0.90415353  1
  Ca2+  Ca91  1  0.25406328  0.40679743  0.41244079  1
  Ca2+  Ca92  1  0.26966285  0.41603884  0.07297921  1
  Ca2+  Ca93  1  0.06981626  0.91532327  0.59084639  1
  Ca2+  Ca94  1  0.59424253  0.90303643  0.74217561  1
  Ca2+  Ca95  1  0.09392107  0.90352458  0.25931533  1
  Ca2+  Ca96  1  0.39360802  0.91986479  0.27943018  1
  Ca2+  Ca97  1  0.58036150  0.89340393  0.08307272  1
  Ca2+  Ca98  1  0.91403581  0.39885722  0.75429328  1
  Ca2+  Ca99  1  0.73602999  0.89831623  0.24887403  1
  Ca2+  Ca100  1  0.60345536  0.41489629  0.42676015  1
  Ca2+  Ca101  1  0.74244690  0.40483144  0.92261884  1
  Ca2+  Ca102  1  0.23227746  0.90827586  0.74560367  1
  Ca2+  Ca103  1  0.92422921  0.90045983  0.42985973  1
  Ca2+  Ca104  1  0.10564730  0.40790367  0.58198908  1
  Ca2+  Ca105  1  0.56244179  0.41926314  0.07154760  1
  Ca2+  Ca106  1  0.57478959  0.40548930  0.75060365  1
  Ca2+  Ca107  1  0.09749928  0.40640619  0.92188133  1
  Mn3.34+  Mn108  1  0.08272433  0.33070695  0.08686506  1
  Mn3.34+  Mn109  1  0.08135349  0.33411841  0.41275699  1
  Mn3.34+  Mn110  1  0.08561596  0.33061140  0.75115921  1
  Mn3.34+  Mn111  1  0.08210634  0.82477204  0.08477144  1
  Mn3.34+  Mn112  1  0.08553502  0.83048320  0.42062822  1
  Mn3.34+  Mn113  1  0.07627046  0.83254479  0.74920555  1
  Mn3.34+  Mn114  1  0.41893470  0.33976854  0.08668436  1
  Mn3.34+  Mn115  1  0.41873283  0.33254154  0.41345383  1
  Mn3.34+  Mn116  1  0.41404228  0.32447853  0.75057722  1
  Mn3.34+  Mn117  1  0.41732307  0.82841200  0.08540898  1
  Mn3.34+  Mn118  1  0.41246841  0.83207190  0.42183348  1
  Mn3.34+  Mn119  1  0.41791081  0.83287011  0.75088348  1
  Mn3.34+  Mn120  1  0.74872374  0.33283496  0.08920056  1
  Mn3.34+  Mn121  1  0.74967394  0.33627817  0.41686467  1
  Mn3.34+  Mn122  1  0.75122757  0.32489318  0.74876817  1
  Mn3.34+  Mn123  1  0.75052588  0.83021348  0.08002988  1
  Mn3.34+  Mn124  1  0.74928995  0.82882682  0.42229189  1
  Mn3.34+  Mn125  1  0.75482810  0.83755772  0.75099163  1
  Mn3.34+  Mn126  1  0.24750969  0.33365501  0.24798308  1
  Mn3.34+  Mn127  1  0.25261160  0.33281199  0.57925084  1
  Mn3.34+  Mn128  1  0.25227009  0.33799268  0.91698719  1
  Mn3.34+  Mn129  1  0.24874384  0.83224083  0.25137362  1
  Mn3.34+  Mn130  1  0.25071618  0.83618124  0.57745740  1
  Mn3.34+  Mn131  1  0.25175875  0.83115716  0.91484109  1
  Mn3.34+  Mn132  1  0.58568658  0.33590244  0.24953161  1
  Mn3.34+  Mn133  1  0.58756199  0.33351115  0.57761218  1
  Mn3.34+  Mn134  1  0.58221930  0.33869874  0.91760055  1
  Mn3.34+  Mn135  1  0.57936287  0.83110116  0.24965385  1
  Mn3.34+  Mn136  1  0.58385994  0.83569326  0.58197722  1
  Mn3.34+  Mn137  1  0.58385280  0.82746160  0.91469962  1
  Mn3.34+  Mn138  1  0.91790533  0.33727233  0.24453001  1
  Mn3.34+  Mn139  1  0.91346479  0.32948669  0.57669549  1
  Mn3.34+  Mn140  1  0.91694418  0.33475593  0.92454894  1
  Mn3.34+  Mn141  1  0.91851305  0.82933728  0.25196237  1
  Mn3.34+  Mn142  1  0.91544256  0.83883782  0.58645238  1
  Mn3.34+  Mn143  1  0.91514408  0.83051317  0.91150172  1
  Mn3.34+  Mn144  1  0.25066152  0.66724386  0.25178443  1
  Mn3.34+  Mn145  1  0.08633092  0.16512575  0.42271643  1
  Mn3.34+  Mn146  1  0.07877862  0.17805035  0.08317220  1
  Mn3.34+  Mn147  1  0.91448876  0.66847440  0.91296040  1
  Mn3.34+  Mn148  1  0.74561914  0.66785040  0.08602659  1
  Mn3.34+  Mn149  1  0.91834587  0.16937449  0.91104233  1
  Mn3.34+  Mn150  1  0.24845833  0.66725856  0.91735410  1
  Mn3.34+  Mn151  1  0.42097862  0.66606215  0.08618006  1
  Mn3.34+  Mn152  1  0.24966768  0.67369740  0.57971697  1
  Mn3.34+  Mn153  1  0.91557045  0.16615646  0.58551607  1
  Mn3.34+  Mn154  1  0.91507379  0.67106616  0.58313692  1
  Mn3.34+  Mn155  1  0.75488238  0.67355769  0.75110168  1
  Mn3.34+  Mn156  1  0.08701556  0.17188812  0.08473810  1
  Mn3.34+  Mn157  1  0.25035877  0.16962394  0.91314609  1
  Mn3.34+  Mn158  1  0.41633110  0.17184674  0.09006065  1
  Mn3.34+  Mn159  1  0.42514567  0.66786271  0.75866198  1
  Mn3.34+  Mn160  1  0.41840640  0.16259257  0.41924513  1
  Mn3.34+  Mn161  1  0.59131588  0.66016776  0.57988345  1
  Mn3.34+  Mn162  1  0.25921066  0.66428105  0.57717449  1
  Mn3.34+  Mn163  1  0.91145406  0.17064398  0.25073787  1
  Mn3.34+  Mn164  1  0.41641293  0.16864790  0.74468206  1
  Mn3.34+  Mn165  1  0.57324739  0.16582587  0.91423566  1
  Mn3.34+  Mn166  1  0.24070047  0.66236913  0.25096138  1
  Mn3.34+  Mn167  1  0.58623095  0.17207675  0.91600109  1
  Mn3.34+  Mn168  1  0.26298128  0.16285289  0.91208955  1
  Mn3.34+  Mn169  1  0.92172545  0.66090221  0.25533268  1
  Mn3.34+  Mn170  1  0.07962384  0.16015129  0.74766889  1
  Mn3.34+  Mn171  1  0.42789068  0.16588435  0.09154236  1
  Mn3.34+  Mn172  1  0.58240440  0.66613149  0.58079049  1
  Mn3.34+  Mn173  1  0.75570228  0.66050087  0.41369970  1
  Mn3.34+  Mn174  1  0.25188885  0.16721433  0.25317142  1
  Mn3.34+  Mn175  1  0.41481293  0.67297869  0.75685555  1
  Mn3.34+  Mn176  1  0.75508560  0.16378872  0.74686364  1
  Mn3.34+  Mn177  1  0.58448194  0.16968881  0.57442661  1
  Mn3.34+  Mn178  1  0.74281849  0.17042876  0.09376210  1
  Mn3.34+  Mn179  1  0.25162290  0.16492133  0.57935912  1
  Mn3.34+  Mn180  1  0.75717404  0.49532164  0.08437891  1
  Mn3.34+  Mn181  1  0.07810562  -0.00094667  0.08000653  1
  Mn3.34+  Mn182  1  0.07430680  0.49518937  0.09291331  1
  Mn3.34+  Mn183  1  0.24457505  0.00048553  0.58769466  1
  Mn3.34+  Mn184  1  0.41160594  0.49753511  0.75627931  1
  Mn3.34+  Mn185  1  0.58406288  0.00522182  0.25144352  1
  Mn3.34+  Mn186  1  0.75354975  -0.00381414  0.42453483  1
  Mn3.34+  Mn187  1  0.91807490  -0.00303715  0.90845975  1
  Mn3.34+  Mn188  1  0.90847521  -0.00150969  0.24363643  1
  Mn3.34+  Mn189  1  0.58738827  0.00082826  0.58372609  1
  Mn3.34+  Mn190  1  0.73968076  0.00258203  0.42361674  1
  Mn3.34+  Mn191  1  0.58968490  0.49903988  0.26035983  1
  Mn3.34+  Mn192  1  0.42200405  0.50268514  0.75536881  1
  Mn3.34+  Mn193  1  0.41345042  0.50241341  0.40577401  1
  Mn3.34+  Mn194  1  0.06885153  0.50911622  0.39300297  1
  Mn3.34+  Mn195  1  0.42142770  -0.00313905  0.75695378  1
  Mn3.34+  Mn196  1  0.74485781  0.50461185  0.75314414  1
  Mn3.34+  Mn197  1  0.90542819  0.49701622  0.57079755  1
  Mn3.34+  Mn198  1  0.09543262  -0.00261055  0.41429583  1
  Mn3.34+  Mn199  1  0.08120414  0.49910647  0.74963776  1
  Mn3.34+  Mn200  1  0.74431162  0.50173128  0.08357775  1
  Mn3.34+  Mn201  1  0.57111726  0.00095147  0.90901095  1
  Mn3.34+  Mn202  1  0.25083565  0.49723759  0.24861784  1
  Mn3.34+  Mn203  1  0.58527265  -0.00501316  0.90864943  1
  Mn3.34+  Mn204  1  0.41665804  0.00167284  0.08782464  1
  Mn3.34+  Mn205  1  0.75189772  0.00597912  0.08878260  1
  Mn3.34+  Mn206  1  0.92094050  0.00373598  0.24442796  1
  Mn3.34+  Mn207  1  0.25184799  0.00041239  0.91826115  1
  Mn3.34+  Mn208  1  0.08033014  0.50321607  0.38914650  1
  Mn3.34+  Mn209  1  0.42738364  -0.00278814  0.09022177  1
  Mn3.34+  Mn210  1  0.73969675  0.00140184  0.08857215  1
  Mn3.34+  Mn211  1  0.75832349  0.50037408  0.76041788  1
  Mn3.34+  Mn212  1  0.91424337  0.50336140  0.91411248  1
  Mn3.34+  Mn213  1  0.91657448  0.50197972  0.57074848  1
  Mn3.34+  Mn214  1  0.41037431  0.00297609  0.75947781  1
  Mn3.34+  Mn215  1  0.08594849  0.50205146  0.09522582  1
  O2-  O216  1  -0.00052486  0.16027332  -0.00143101  1
  O2-  O217  1  0.00251906  0.15047147  0.33349443  1
  O2-  O218  1  0.00298405  0.16364866  0.66260461  1
  O2-  O219  1  -0.00188414  0.66045236  -0.00302649  1
  O2-  O220  1  -0.00421925  0.66711168  0.32999883  1
  O2-  O221  1  0.00263438  0.66317940  0.65733322  1
  O2-  O222  1  0.33324598  0.15790420  0.00987727  1
  O2-  O223  1  0.33232193  0.16059291  0.33375000  1
  O2-  O224  1  0.33016110  0.17314267  0.66819607  1
  O2-  O225  1  0.32763601  0.66578211  0.00291391  1
  O2-  O226  1  0.33501804  0.67152878  0.32434763  1
  O2-  O227  1  0.33246436  0.65820031  0.66923222  1
  O2-  O228  1  0.67342360  0.15490690  -0.00683762  1
  O2-  O229  1  0.65899958  0.18472421  0.33999734  1
  O2-  O230  1  0.66729808  0.16365791  0.66746619  1
  O2-  O231  1  0.66748204  0.66898202  0.00366944  1
  O2-  O232  1  0.67159910  0.66074835  0.33807085  1
  O2-  O233  1  0.66455513  0.66452276  0.66864828  1
  O2-  O234  1  0.16981248  0.15904870  0.00207580  1
  O2-  O235  1  0.16498808  0.15660607  0.33444823  1
  O2-  O236  1  0.16564458  0.16058908  0.66515276  1
  O2-  O237  1  0.16654610  0.66394381  -0.00300990  1
  O2-  O238  1  0.16898231  0.68196389  0.33190772  1
  O2-  O239  1  0.17450703  0.66235297  0.66802739  1
  O2-  O240  1  0.49836486  0.16289737  0.00124688  1
  O2-  O241  1  0.49717192  0.17064141  0.33960916  1
  O2-  O242  1  0.50762189  0.16518844  0.67119140  1
  O2-  O243  1  0.49548438  0.66696062  0.00476798  1
  O2-  O244  1  0.50623467  0.66344041  0.33379848  1
  O2-  O245  1  0.49856648  0.65188138  0.66441774  1
  O2-  O246  1  0.83214352  0.15749029  -0.00603214  1
  O2-  O247  1  0.84204087  0.16679562  0.33890446  1
  O2-  O248  1  0.83021495  0.17611111  0.66285244  1
  O2-  O249  1  0.83618710  0.65431953  0.00286966  1
  O2-  O250  1  0.82922761  0.66402849  0.32714602  1
  O2-  O251  1  0.82732001  0.67332309  0.66227481  1
  O2-  O252  1  0.00862087  0.32473914  -0.00285208  1
  O2-  O253  1  -0.00582226  0.33658887  0.33761333  1
  O2-  O254  1  0.00335780  0.34732244  0.66531387  1
  O2-  O255  1  0.00220774  0.83337599  -0.00037985  1
  O2-  O256  1  0.00101913  0.84317101  0.33288775  1
  O2-  O257  1  0.00414676  0.83792765  0.66169758  1
  O2-  O258  1  0.33154242  0.33876953  0.00349182  1
  O2-  O259  1  0.33551515  0.34268753  0.33282311  1
  O2-  O260  1  0.33686448  0.34014038  0.66215346  1
  O2-  O261  1  0.32685799  0.83429842  0.00562668  1
  O2-  O262  1  0.33542837  0.83022499  0.32771602  1
  O2-  O263  1  0.32363324  0.83395343  0.67192756  1
  O2-  O264  1  0.66597022  0.34266643  0.00201969  1
  O2-  O265  1  0.66733679  0.32548043  0.33436185  1
  O2-  O266  1  0.66083962  0.33616531  0.67413593  1
  O2-  O267  1  0.66854125  0.83303647  -0.00299488  1
  O2-  O268  1  0.66485788  0.84283658  0.33268888  1
  O2-  O269  1  0.66972803  0.83107786  0.67013344  1
  O2-  O270  1  0.16682326  0.33019821  0.00049322  1
  O2-  O271  1  0.17201843  0.33586753  0.33826809  1
  O2-  O272  1  0.16953820  0.34325923  0.66673763  1
  O2-  O273  1  0.16829363  0.82459380  0.00203889  1
  O2-  O274  1  0.16400097  0.82880548  0.32952051  1
  O2-  O275  1  0.16848137  0.83474672  0.67091932  1
  O2-  O276  1  0.50181387  0.33789422  0.00381070  1
  O2-  O277  1  0.50255219  0.33314102  0.33307825  1
  O2-  O278  1  0.49922957  0.33713094  0.66758618  1
  O2-  O279  1  0.50643537  0.82349000  0.00558762  1
  O2-  O280  1  0.49815469  0.84296259  0.32901832  1
  O2-  O281  1  0.50671990  0.83827591  0.67164024  1
  O2-  O282  1  0.82714161  0.33880693  -0.00053132  1
  O2-  O283  1  0.82948949  0.32791622  0.33519344  1
  O2-  O284  1  0.84269372  0.33181539  0.67555136  1
  O2-  O285  1  0.83416906  0.84199211  -0.00030112  1
  O2-  O286  1  0.82949113  0.84618761  0.33118667  1
  O2-  O287  1  0.82873960  0.82877881  0.66481080  1
  O2-  O288  1  0.00017586  0.17601140  0.16972672  1
  O2-  O289  1  -0.00374869  0.16948295  0.49655489  1
  O2-  O290  1  0.00492398  0.17412244  0.83608180  1
  O2-  O291  1  -0.00973142  0.67954292  0.16438181  1
  O2-  O292  1  -0.00012815  0.67196960  0.50841674  1
  O2-  O293  1  0.00212789  0.67496516  0.84302620  1
  O2-  O294  1  0.32889869  0.17101112  0.16671423  1
  O2-  O295  1  0.32782006  0.17404400  0.49566587  1
  O2-  O296  1  0.33807967  0.18457802  0.82712866  1
  O2-  O297  1  0.32783461  0.67530704  0.16595412  1
  O2-  O298  1  0.33993621  0.68057011  0.50554810  1
  O2-  O299  1  0.32805418  0.68119041  0.83643038  1
  O2-  O300  1  0.66701759  0.18685278  0.16656031  1
  O2-  O301  1  0.66547129  0.17689088  0.50060098  1
  O2-  O302  1  0.66683546  0.17940416  0.82818180  1
  O2-  O303  1  0.66898032  0.67053252  0.16321321  1
  O2-  O304  1  0.67304248  0.67402330  0.49981929  1
  O2-  O305  1  0.67144307  0.68553755  0.82688351  1
  O2-  O306  1  0.16649828  0.18080064  0.16998555  1
  O2-  O307  1  0.16482843  0.17371119  0.50169198  1
  O2-  O308  1  0.16660347  0.17353830  0.82995906  1
  O2-  O309  1  0.17216521  0.68459235  0.16580282  1
  O2-  O310  1  0.16325318  0.68123758  0.50881655  1
  O2-  O311  1  0.16913457  0.67332765  0.83597483  1
  O2-  O312  1  0.49705233  0.18433236  0.17543999  1
  O2-  O313  1  0.50099806  0.17514872  0.49878047  1
  O2-  O314  1  0.50311058  0.18332500  0.82394954  1
  O2-  O315  1  0.49642329  0.66860583  0.16456259  1
  O2-  O316  1  0.50262588  0.67160702  0.50234065  1
  O2-  O317  1  0.50475396  0.68036915  0.83969620  1
  O2-  O318  1  0.83897176  0.17743058  0.16007627  1
  O2-  O319  1  0.83888895  0.17605036  0.50227701  1
  O2-  O320  1  0.82678606  0.17742627  0.83537600  1
  O2-  O321  1  0.83503801  0.67119805  0.16253876  1
  O2-  O322  1  0.83062803  0.67488534  0.50312850  1
  O2-  O323  1  0.82989742  0.68045205  0.83817418  1
  O2-  O324  1  -0.00050676  0.31375777  0.16432164  1
  O2-  O325  1  0.00868571  0.33547438  0.50636529  1
  O2-  O326  1  -0.00407246  0.32947305  0.82967198  1
  O2-  O327  1  -0.00151730  0.82390159  0.16438958  1
  O2-  O328  1  -0.00079165  0.83159890  0.50201597  1
  O2-  O329  1  0.00249148  0.82792294  0.83769324  1
  O2-  O330  1  0.33472266  0.32763678  0.16785908  1
  O2-  O331  1  0.33724981  0.33215662  0.50161999  1
  O2-  O332  1  0.32793162  0.31885908  0.82634486  1
  O2-  O333  1  0.32752800  0.82641257  0.16311252  1
  O2-  O334  1  0.33005529  0.81516399  0.50030129  1
  O2-  O335  1  0.32678819  0.81880782  0.82950980  1
  O2-  O336  1  0.66703595  0.31928978  0.17044602  1
  O2-  O337  1  0.66466569  0.32197349  0.49385710  1
  O2-  O338  1  0.66828857  0.32278513  0.83056563  1
  O2-  O339  1  0.66761508  0.82899671  0.16711791  1
  O2-  O340  1  0.66753882  0.82581515  0.50197025  1
  O2-  O341  1  0.67051026  0.81580019  0.83278345  1
  O2-  O342  1  0.16665090  0.31563289  0.16548259  1
  O2-  O343  1  0.16530946  0.33146529  0.50203331  1
  O2-  O344  1  0.16530830  0.32665750  0.83366690  1
  O2-  O345  1  0.17017162  0.81893658  0.16375683  1
  O2-  O346  1  0.16486152  0.81641270  0.50566318  1
  O2-  O347  1  0.16597433  0.82226239  0.83519225  1
  O2-  O348  1  0.49997044  0.32120660  0.17045814  1
  O2-  O349  1  0.49447375  0.32834948  0.50341040  1
  O2-  O350  1  0.50566834  0.32061070  0.82494447  1
  O2-  O351  1  0.49683774  0.83405232  0.16977029  1
  O2-  O352  1  0.50435782  0.82904794  0.49658864  1
  O2-  O353  1  0.50272051  0.81538019  0.83424043  1
  O2-  O354  1  0.82810303  0.32272062  0.17100967  1
  O2-  O355  1  0.83257933  0.31556101  0.49360086  1
  O2-  O356  1  0.83387282  0.32573452  0.83148078  1
  O2-  O357  1  0.83018284  0.83587535  0.16750923  1
  O2-  O358  1  0.83455179  0.82990898  0.49974795  1
  O2-  O359  1  0.82988494  0.81986008  0.83573343  1
  O2-  O360  1  0.08751641  0.08144775  0.11567147  1
  O2-  O361  1  0.07453424  0.07826934  0.44120095  1
  O2-  O362  1  0.08922678  0.08064778  0.76578548  1
  O2-  O363  1  0.07404664  0.58306558  0.10368694  1
  O2-  O364  1  0.08893676  0.57905251  0.44532181  1
  O2-  O365  1  0.09460328  0.57845246  0.77714805  1
  O2-  O366  1  0.41125220  0.08249945  0.11173925  1
  O2-  O367  1  0.41965587  0.08321027  0.42000138  1
  O2-  O368  1  0.42951841  0.08385206  0.77212246  1
  O2-  O369  1  0.40140316  0.58515327  0.10157186  1
  O2-  O370  1  0.42958496  0.57691921  0.43073120  1
  O2-  O371  1  0.41044553  0.58328512  0.78272227  1
  O2-  O372  1  0.75689112  0.08686464  0.10154113  1
  O2-  O373  1  0.76048852  0.08229171  0.44377482  1
  O2-  O374  1  0.72526594  0.07661782  0.78396102  1
  O2-  O375  1  0.75506636  0.58124039  0.10521856  1
  O2-  O376  1  0.74439627  0.58114263  0.43333914  1
  O2-  O377  1  0.73829411  0.58455089  0.77186372  1
  O2-  O378  1  0.23450187  0.08513338  0.22668376  1
  O2-  O379  1  0.24321698  0.08069459  0.55883333  1
  O2-  O380  1  0.24399253  0.08240509  0.88947214  1
  O2-  O381  1  0.24971549  0.57827967  0.21288314  1
  O2-  O382  1  0.23764129  0.58196241  0.57236201  1
  O2-  O383  1  0.23802612  0.57739880  0.88665390  1
  O2-  O384  1  0.57321157  0.08017382  0.24019513  1
  O2-  O385  1  0.59206768  0.08415335  0.56952616  1
  O2-  O386  1  0.58837374  0.08214737  0.88540457  1
  O2-  O387  1  0.58263142  0.57016693  0.21951297  1
  O2-  O388  1  0.58658586  0.57931525  0.55764520  1
  O2-  O389  1  0.57662864  0.57009039  0.89949550  1
  O2-  O390  1  0.92055289  0.08492212  0.22419450  1
  O2-  O391  1  0.91256692  0.08302580  0.56152057  1
  O2-  O392  1  0.90883563  0.08144992  0.89286550  1
  O2-  O393  1  0.90843165  0.58141488  0.22405861  1
  O2-  O394  1  0.91246631  0.58433757  0.56739910  1
  O2-  O395  1  0.92876704  0.58407711  0.89677056  1
  O2-  O396  1  0.09162820  0.41562669  0.09043060  1
  O2-  O397  1  0.08835292  0.42766544  0.44208105  1
  O2-  O398  1  0.07129836  0.41708260  0.77013380  1
  O2-  O399  1  0.09870319  0.91712452  0.10845566  1
  O2-  O400  1  0.07856736  0.91855306  0.43714055  1
  O2-  O401  1  0.10165103  0.91767132  0.77083144  1
  O2-  O402  1  0.41971685  0.41908784  0.10639694  1
  O2-  O403  1  0.41262976  0.42252471  0.44279836  1
  O2-  O404  1  0.42549084  0.41487694  0.76601702  1
  O2-  O405  1  0.41487864  0.91407160  0.09740179  1
  O2-  O406  1  0.42016725  0.91491910  0.41455933  1
  O2-  O407  1  0.40827620  0.91551269  0.76962739  1
  O2-  O408  1  0.74219579  0.41664266  0.10823476  1
  O2-  O409  1  0.74999189  0.41612953  0.41872173  1
  O2-  O410  1  0.75686796  0.41875650  0.77100588  1
  O2-  O411  1  0.74270846  0.91806209  0.10127926  1
  O2-  O412  1  0.74776341  0.91513690  0.43241100  1
  O2-  O413  1  0.73700364  0.91729332  0.76751819  1
  O2-  O414  1  0.25510126  0.41732193  0.22307944  1
  O2-  O415  1  0.24592776  0.41821097  0.56260485  1
  O2-  O416  1  0.23883747  0.41760912  0.89845194  1
  O2-  O417  1  0.26231253  0.92313652  0.21588833  1
  O2-  O418  1  0.23679946  0.91991006  0.58284800  1
  O2-  O419  1  0.24005347  0.91922898  0.88781331  1
  O2-  O420  1  0.58346248  0.42483897  0.21962446  1
  O2-  O421  1  0.56572862  0.41680431  0.56588216  1
  O2-  O422  1  0.59505166  0.41869480  0.88315671  1
  O2-  O423  1  0.59971798  0.92294124  0.22017788  1
  O2-  O424  1  0.59589349  0.92006705  0.56585438  1
  O2-  O425  1  0.59145995  0.91436014  0.89455617  1
  O2-  O426  1  0.89997415  0.41545891  0.24851306  1
  O2-  O427  1  0.91308058  0.41478708  0.56459488  1
  O2-  O428  1  0.91372016  0.42149636  0.88663641  1
  O2-  O429  1  0.91645385  0.91672168  0.22923897  1
  O2-  O430  1  0.91186485  0.91954346  0.56848949  1
  O2-  O431  1  0.91629578  0.91519517  0.90717796  1
  O2-  O432  1  0.00072534  0.00498662  -0.00841396  1
  O2-  O433  1  -0.00230788  0.00475139  0.33433229  1
  O2-  O434  1  0.01120990  0.00238248  0.64863358  1
  O2-  O435  1  0.00550621  0.50455054  -0.00677346  1
  O2-  O436  1  -0.02944215  0.49479916  0.34863803  1
  O2-  O437  1  -0.00171137  0.49429489  0.65955885  1
  O2-  O438  1  0.32318062  -0.00241240  0.01865171  1
  O2-  O439  1  0.34589096  0.00592495  0.31280637  1
  O2-  O440  1  0.32132071  0.00216111  0.67957464  1
  O2-  O441  1  0.33128098  0.51648277  0.01525596  1
  O2-  O442  1  0.34185716  0.49394769  0.31964251  1
  O2-  O443  1  0.32575486  0.50572307  0.67905205  1
  O2-  O444  1  0.67012822  0.00778785  -0.00934853  1
  O2-  O445  1  0.66749503  -0.00616116  0.33216880  1
  O2-  O446  1  0.66866546  0.00850919  0.66129376  1
  O2-  O447  1  0.66227204  0.49880790  0.00790586  1
  O2-  O448  1  0.66946730  0.49948641  0.32835959  1
  O2-  O449  1  0.65445583  0.49752557  0.68929877  1
  O2-  O450  1  0.17016134  -0.00174465  0.00802166  1
  O2-  O451  1  0.15533125  0.00749982  0.32073636  1
  O2-  O452  1  0.16294183  0.00299736  0.66283863  1
  O2-  O453  1  0.17324318  0.50947507  0.01676328  1
  O2-  O454  1  0.18069041  0.49707114  0.34580282  1
  O2-  O455  1  0.16270519  0.50023127  0.67359000  1
  O2-  O456  1  0.50770786  -0.00188019  0.00617761  1
  O2-  O457  1  0.49733474  -0.00871762  0.31566300  1
  O2-  O458  1  0.50993318  0.00393452  0.67796020  1
  O2-  O459  1  0.50630002  0.51161280  0.00775910  1
  O2-  O460  1  0.50585530  0.49774860  0.33413118  1
  O2-  O461  1  0.49263421  0.49403819  0.66382244  1
  O2-  O462  1  0.82639065  0.00454902  -0.00861612  1
  O2-  O463  1  0.83433583  0.00310190  0.33764831  1
  O2-  O464  1  0.81950728  0.00524535  0.64459633  1
  O2-  O465  1  0.83048223  0.50269681  -0.00460739  1
  O2-  O466  1  0.82488030  0.49772864  0.32454494  1
  O2-  O467  1  0.82856905  0.50145697  0.66276796  1
  O2-  O468  1  0.58382063  0.75256379  0.25490555  1
  O2-  O469  1  0.08187473  0.24917064  0.73930559  1
  O2-  O470  1  0.40988735  0.74912719  0.07791348  1
  O2-  O471  1  0.42078896  0.75272925  0.72756786  1
  O2-  O472  1  0.57905649  0.74805547  0.59550573  1
  O2-  O473  1  0.91496547  0.75004408  0.93519941  1
  O2-  O474  1  0.07964985  0.24721424  0.40855533  1
  O2-  O475  1  0.91841957  0.75290179  0.58879250  1
  O2-  O476  1  0.76074708  0.75018018  0.07509266  1
  O2-  O477  1  0.42770589  0.75445231  0.40745781  1
  O2-  O478  1  0.75124706  0.25064995  0.06387030  1
  O2-  O479  1  0.08011055  0.75321004  0.74315939  1
  O2-  O480  1  0.24445791  0.25042299  0.59015549  1
  O2-  O481  1  0.75043582  0.74979092  0.40584196  1
  O2-  O482  1  0.40882611  0.25093513  0.41262302  1
  O2-  O483  1  0.91508365  0.24934887  0.92447552  1
  O2-  O484  1  0.58337297  0.25363469  0.93365786  1
  O2-  O485  1  0.07239845  0.75365058  0.41165194  1
  O2-  O486  1  0.25685508  0.25000280  0.26539381  1
  O2-  O487  1  0.93179696  0.25039282  0.59413411  1
  O2-  O488  1  0.40991049  0.25374869  0.06722547  1
  O2-  O489  1  0.91981277  0.24953272  0.26426374  1
  O2-  O490  1  0.90814696  0.75037155  0.25902170  1
  O2-  O491  1  0.25412731  0.25014431  0.93114184  1
  O2-  O492  1  0.58064255  0.25113401  0.59493720  1
