# generated using pymatgen
data_Ca108Mn108O277
_symmetry_space_group_name_H-M   'P 1'
_cell_length_a   16.00680786
_cell_length_b   22.27689314
_cell_length_c   16.37214924
_cell_angle_alpha   90.00016407
_cell_angle_beta   89.99991248
_cell_angle_gamma   90.00173371
_symmetry_Int_Tables_number   1
_chemical_formula_structural   Ca108Mn108O277
_chemical_formula_sum   'Ca108 Mn108 O277'
_cell_volume   5838.01287053
_cell_formula_units_Z   1
loop_
 _symmetry_equiv_pos_site_id
 _symmetry_equiv_pos_as_xyz
  1  'x, y, z'
loop_
 _atom_type_symbol
 _atom_type_oxidation_number
  Ca2+  2.0
  Mn3.34+  3.34
  O2-  -2.0
loop_
 _atom_site_type_symbol
 _atom_site_label
 _atom_site_symmetry_multiplicity
 _atom_site_fract_x
 _atom_site_fract_y
 _atom_site_fract_z
 _atom_site_occupancy
  Ca2+  Ca0  1  0.09033353  0.24524199  0.26238769  1
  Ca2+  Ca1  1  0.07345146  0.24413905  0.57193955  1
  Ca2+  Ca2  1  0.06923877  0.24807804  0.91536504  1
  Ca2+  Ca3  1  0.09667019  0.76185565  0.24986668  1
  Ca2+  Ca4  1  0.09101307  0.76028874  0.59013807  1
  Ca2+  Ca5  1  0.10577840  0.74809693  0.90918103  1
  Ca2+  Ca6  1  0.41753976  0.26443873  0.25169618  1
  Ca2+  Ca7  1  0.42245927  0.24791356  0.59784610  1
  Ca2+  Ca8  1  0.43409116  0.24767977  0.90347872  1
  Ca2+  Ca9  1  0.41110359  0.74765246  0.24848650  1
  Ca2+  Ca10  1  0.41042542  0.75135568  0.56258780  1
  Ca2+  Ca11  1  0.40842161  0.74913814  0.93898750  1
  Ca2+  Ca12  1  0.74330701  0.25738573  0.25657901  1
  Ca2+  Ca13  1  0.75573670  0.24420313  0.56556369  1
  Ca2+  Ca14  1  0.74142111  0.23569968  0.92205934  1
  Ca2+  Ca15  1  0.74579836  0.75967061  0.24552360  1
  Ca2+  Ca16  1  0.74901316  0.75657324  0.59228786  1
  Ca2+  Ca17  1  0.73955921  0.74985560  0.91320821  1
  Ca2+  Ca18  1  0.24485476  0.25490755  0.09670155  1
  Ca2+  Ca19  1  0.22722707  0.24627298  0.40893211  1
  Ca2+  Ca20  1  0.25737896  0.25018381  0.74839670  1
  Ca2+  Ca21  1  0.27570615  0.74797188  0.07923558  1
  Ca2+  Ca22  1  0.27091348  0.75368735  0.41175396  1
  Ca2+  Ca23  1  0.24884176  0.75750349  0.75801611  1
  Ca2+  Ca24  1  0.59317709  0.25431929  0.07965510  1
  Ca2+  Ca25  1  0.60227175  0.24782504  0.41287483  1
  Ca2+  Ca26  1  0.56788839  0.23957930  0.75985198  1
  Ca2+  Ca27  1  0.56725601  0.74697756  0.08009770  1
  Ca2+  Ca28  1  0.56194406  0.74688769  0.41604278  1
  Ca2+  Ca29  1  0.59446695  0.75216047  0.75968376  1
  Ca2+  Ca30  1  0.91298851  0.24376365  0.07345907  1
  Ca2+  Ca31  1  0.91753318  0.23785126  0.42741694  1
  Ca2+  Ca32  1  0.92800223  0.23585171  0.74615727  1
  Ca2+  Ca33  1  0.90075391  0.75452578  0.08425511  1
  Ca2+  Ca34  1  0.91097626  0.76650923  0.41559139  1
  Ca2+  Ca35  1  0.90636109  0.75171822  0.74995125  1
  Ca2+  Ca36  1  0.07011345  0.58175776  0.58764860  1
  Ca2+  Ca37  1  0.23684322  0.09651041  0.73797523  1
  Ca2+  Ca38  1  0.58305267  0.10709083  0.76471883  1
  Ca2+  Ca39  1  0.24805699  0.09645690  0.73850296  1
  Ca2+  Ca40  1  0.44404324  0.09014028  0.90973011  1
  Ca2+  Ca41  1  0.09032885  0.09117845  0.25192883  1
  Ca2+  Ca42  1  0.59176922  0.10429412  0.76044587  1
  Ca2+  Ca43  1  0.07007171  0.10174881  0.91686253  1
  Ca2+  Ca44  1  0.75453007  0.59576708  0.91374013  1
  Ca2+  Ca45  1  0.43353271  0.09019919  0.90932213  1
  Ca2+  Ca46  1  0.60829449  0.10198072  0.42719029  1
  Ca2+  Ca47  1  0.41509733  0.59486416  0.94296862  1
  Ca2+  Ca48  1  0.60036448  0.59673035  0.75299636  1
  Ca2+  Ca49  1  0.74950431  0.10407745  0.55783639  1
  Ca2+  Ca50  1  0.42363402  0.09802444  0.60010011  1
  Ca2+  Ca51  1  0.41854100  0.59886862  0.24164732  1
  Ca2+  Ca52  1  0.22732146  0.09036929  0.09058285  1
  Ca2+  Ca53  1  0.42407122  0.60682448  0.55562941  1
  Ca2+  Ca54  1  0.27992436  0.59453113  0.08765121  1
  Ca2+  Ca55  1  0.92302932  0.58656637  0.42521880  1
  Ca2+  Ca56  1  0.40516307  0.08767226  0.24337402  1
  Ca2+  Ca57  1  0.75751041  0.10133421  0.56331413  1
  Ca2+  Ca58  1  0.75533876  0.09210175  0.26570633  1
  Ca2+  Ca59  1  0.90846446  0.58784203  0.06451907  1
  Ca2+  Ca60  1  0.10934119  0.57815325  0.25947703  1
  Ca2+  Ca61  1  0.26959946  0.59368445  0.08774079  1
  Ca2+  Ca62  1  0.23634276  0.59164356  0.76872127  1
  Ca2+  Ca63  1  0.58697712  0.09147474  0.05948782  1
  Ca2+  Ca64  1  0.26805660  0.59242828  0.40247346  1
  Ca2+  Ca65  1  0.74599415  0.09548581  0.26800908  1
  Ca2+  Ca66  1  0.07820798  0.10159752  0.56692390  1
  Ca2+  Ca67  1  0.08270804  0.58204233  0.58663558  1
  Ca2+  Ca68  1  0.56568537  0.59776989  0.08610848  1
  Ca2+  Ca69  1  0.40400550  0.59492808  0.94099261  1
  Ca2+  Ca70  1  0.43205401  0.10291373  0.60286941  1
  Ca2+  Ca71  1  0.73192595  0.59249502  0.23870297  1
  Ca2+  Ca72  1  0.92725896  0.40792220  0.74653930  1
  Ca2+  Ca73  1  0.24942285  0.90593834  0.74584151  1
  Ca2+  Ca74  1  0.07689779  0.40622144  0.57563485  1
  Ca2+  Ca75  1  0.92644935  0.40080560  0.42303222  1
  Ca2+  Ca76  1  0.23090907  0.40485687  0.75166157  1
  Ca2+  Ca77  1  0.73616858  0.90657357  0.91503284  1
  Ca2+  Ca78  1  0.59163666  0.90873495  0.75579224  1
  Ca2+  Ca79  1  0.08450226  0.91194302  0.56711305  1
  Ca2+  Ca80  1  0.42063391  0.41039105  0.93662668  1
  Ca2+  Ca81  1  0.91252801  0.90534133  0.73677315  1
  Ca2+  Ca82  1  0.41287112  0.39673429  0.57367446  1
  Ca2+  Ca83  1  0.58024559  0.90915237  0.75630610  1
  Ca2+  Ca84  1  0.57846447  0.39984586  0.40562373  1
  Ca2+  Ca85  1  0.92360936  0.90821445  0.09027277  1
  Ca2+  Ca86  1  0.24125086  0.41160041  0.40435597  1
  Ca2+  Ca87  1  0.76038921  0.40714345  0.92221964  1
  Ca2+  Ca88  1  0.74881083  0.40737169  0.92364158  1
  Ca2+  Ca89  1  0.09682486  0.90939041  0.92014648  1
  Ca2+  Ca90  1  0.08212144  0.40774646  0.90912543  1
  Ca2+  Ca91  1  0.09191426  0.40913344  0.25749073  1
  Ca2+  Ca92  1  0.42327303  0.91379950  0.93361910  1
  Ca2+  Ca93  1  0.09192593  0.91723088  0.26063020  1
  Ca2+  Ca94  1  0.26501624  0.41303045  0.09683404  1
  Ca2+  Ca95  1  0.40743907  0.41029685  0.93571612  1
  Ca2+  Ca96  1  0.75235345  0.90753504  0.26965634  1
  Ca2+  Ca97  1  0.08516686  0.90949952  0.91945922  1
  Ca2+  Ca98  1  0.91187344  0.40145888  0.08121140  1
  Ca2+  Ca99  1  0.41326935  0.89958922  0.58093552  1
  Ca2+  Ca100  1  0.10143636  0.41274593  0.25684643  1
  Ca2+  Ca101  1  0.75788850  0.39896778  0.58309774  1
  Ca2+  Ca102  1  0.59713888  0.40176214  0.75200790  1
  Ca2+  Ca103  1  0.58436613  0.40245750  0.75225274  1
  Ca2+  Ca104  1  0.26279716  0.90993595  0.09147274  1
  Ca2+  Ca105  1  0.56398137  0.90813886  0.07814673  1
  Ca2+  Ca106  1  0.93570255  0.91029037  0.09361366  1
  Ca2+  Ca107  1  0.59854656  0.90268268  0.42646080  1
  Mn3.34+  Mn108  1  0.08217992  0.33115158  0.08426126  1
  Mn3.34+  Mn109  1  0.08234224  0.33232973  0.41932913  1
  Mn3.34+  Mn110  1  0.08293751  0.33696761  0.74936862  1
  Mn3.34+  Mn111  1  0.08708704  0.83333866  0.08621116  1
  Mn3.34+  Mn112  1  0.08526766  0.84115680  0.41746091  1
  Mn3.34+  Mn113  1  0.08073846  0.83558427  0.74707923  1
  Mn3.34+  Mn114  1  0.42156707  0.33927525  0.09052401  1
  Mn3.34+  Mn115  1  0.41515887  0.33677868  0.41431247  1
  Mn3.34+  Mn116  1  0.41343691  0.32827395  0.75056929  1
  Mn3.34+  Mn117  1  0.41689250  0.83515706  0.08996631  1
  Mn3.34+  Mn118  1  0.41671282  0.82924160  0.41281236  1
  Mn3.34+  Mn119  1  0.41517821  0.83518107  0.75048666  1
  Mn3.34+  Mn120  1  0.74697670  0.33365080  0.09214234  1
  Mn3.34+  Mn121  1  0.75153350  0.32833873  0.41453890  1
  Mn3.34+  Mn122  1  0.75344913  0.32378775  0.74991017  1
  Mn3.34+  Mn123  1  0.74617919  0.83146627  0.08545424  1
  Mn3.34+  Mn124  1  0.75053639  0.83780282  0.42200085  1
  Mn3.34+  Mn125  1  0.75327062  0.83277304  0.74802720  1
  Mn3.34+  Mn126  1  0.25478045  0.33423161  0.24886936  1
  Mn3.34+  Mn127  1  0.24830899  0.32692560  0.58064222  1
  Mn3.34+  Mn128  1  0.24732773  0.33424807  0.91747686  1
  Mn3.34+  Mn129  1  0.25431060  0.83498511  0.25227628  1
  Mn3.34+  Mn130  1  0.24936260  0.83383492  0.57767810  1
  Mn3.34+  Mn131  1  0.25441250  0.83015808  0.91666314  1
  Mn3.34+  Mn132  1  0.58307628  0.33609385  0.24682547  1
  Mn3.34+  Mn133  1  0.58450086  0.32703206  0.58071047  1
  Mn3.34+  Mn134  1  0.58458739  0.32866512  0.91954961  1
  Mn3.34+  Mn135  1  0.58011517  0.83098876  0.25084363  1
  Mn3.34+  Mn136  1  0.58464566  0.83307927  0.58140270  1
  Mn3.34+  Mn137  1  0.58085815  0.83495604  0.91743548  1
  Mn3.34+  Mn138  1  0.91323514  0.33116121  0.24981835  1
  Mn3.34+  Mn139  1  0.91629998  0.33052138  0.58356808  1
  Mn3.34+  Mn140  1  0.91705707  0.33124173  0.91366811  1
  Mn3.34+  Mn141  1  0.91869232  0.83868805  0.25662114  1
  Mn3.34+  Mn142  1  0.91585646  0.83720824  0.57692301  1
  Mn3.34+  Mn143  1  0.91595392  0.82771238  0.91532693  1
  Mn3.34+  Mn144  1  0.92254283  0.16542242  0.58371336  1
  Mn3.34+  Mn145  1  0.42237208  0.67157286  0.74958065  1
  Mn3.34+  Mn146  1  0.41029026  0.66590860  0.74855207  1
  Mn3.34+  Mn147  1  0.58392546  0.67033727  0.58499993  1
  Mn3.34+  Mn148  1  0.09239309  0.67037415  0.08039648  1
  Mn3.34+  Mn149  1  0.91664298  0.16649876  0.24785134  1
  Mn3.34+  Mn150  1  0.74938760  0.16768781  0.07635446  1
  Mn3.34+  Mn151  1  0.08043958  0.66675397  0.41991869  1
  Mn3.34+  Mn152  1  0.91070568  0.66599710  0.58676503  1
  Mn3.34+  Mn153  1  0.58552247  0.66699981  0.91703485  1
  Mn3.34+  Mn154  1  0.73621472  0.66480157  0.42206079  1
  Mn3.34+  Mn155  1  0.92697191  0.16249946  0.24543493  1
  Mn3.34+  Mn156  1  0.08951603  0.67266646  0.41910940  1
  Mn3.34+  Mn157  1  0.57868532  0.66276125  0.24893097  1
  Mn3.34+  Mn158  1  0.08486022  0.66547800  0.75471950  1
  Mn3.34+  Mn159  1  0.40737610  0.16545301  0.41461055  1
  Mn3.34+  Mn160  1  0.24839412  0.16994728  0.91736160  1
  Mn3.34+  Mn161  1  0.75256639  0.66786228  0.74829216  1
  Mn3.34+  Mn162  1  0.91265061  0.66663231  0.91351790  1
  Mn3.34+  Mn163  1  0.90909561  0.67097147  0.24851585  1
  Mn3.34+  Mn164  1  0.24394496  0.16691546  0.57949163  1
  Mn3.34+  Mn165  1  0.41368514  0.16868512  0.08730749  1
  Mn3.34+  Mn166  1  0.58783682  0.16997253  0.24810204  1
  Mn3.34+  Mn167  1  0.07835456  0.67034456  0.07526500  1
  Mn3.34+  Mn168  1  0.74960639  0.67101708  0.42204971  1
  Mn3.34+  Mn169  1  0.75682144  0.16338357  0.75224804  1
  Mn3.34+  Mn170  1  0.07124203  0.65908385  0.75706226  1
  Mn3.34+  Mn171  1  0.41958126  0.17097842  0.41417813  1
  Mn3.34+  Mn172  1  0.23803359  0.16522264  0.91674868  1
  Mn3.34+  Mn173  1  0.74507553  0.66672960  0.08277961  1
  Mn3.34+  Mn174  1  0.42282310  0.16270409  0.08753262  1
  Mn3.34+  Mn175  1  0.91959049  0.66614436  0.24830279  1
  Mn3.34+  Mn176  1  0.25533218  0.66682642  0.24995702  1
  Mn3.34+  Mn177  1  0.91742732  0.17012519  0.91409345  1
  Mn3.34+  Mn178  1  0.25300785  0.67034648  0.57911199  1
  Mn3.34+  Mn179  1  0.24187894  0.16589345  0.24947447  1
  Mn3.34+  Mn180  1  0.24958539  -0.00080540  0.57934996  1
  Mn3.34+  Mn181  1  0.25136933  -0.00045141  0.93209214  1
  Mn3.34+  Mn182  1  0.40240977  -0.00159720  0.41802202  1
  Mn3.34+  Mn183  1  0.57808415  0.49586094  0.25105541  1
  Mn3.34+  Mn184  1  0.57798304  -0.00251591  0.24951311  1
  Mn3.34+  Mn185  1  0.57933700  0.49915735  0.57454534  1
  Mn3.34+  Mn186  1  0.75591525  0.00244974  0.74387017  1
  Mn3.34+  Mn187  1  0.24801215  0.50145326  0.92166545  1
  Mn3.34+  Mn188  1  0.91962407  0.50214258  0.91673496  1
  Mn3.34+  Mn189  1  0.59370985  0.50501979  0.57645896  1
  Mn3.34+  Mn190  1  0.73609042  0.50230045  0.41933772  1
  Mn3.34+  Mn191  1  0.58849728  0.00232077  0.24784653  1
  Mn3.34+  Mn192  1  0.58694582  -0.00016320  0.58685449  1
  Mn3.34+  Mn193  1  0.24305068  -0.00017512  0.26310375  1
  Mn3.34+  Mn194  1  0.75504584  0.50411989  0.74911297  1
  Mn3.34+  Mn195  1  0.73926947  -0.00131291  0.08379819  1
  Mn3.34+  Mn196  1  0.92349233  0.50069120  0.24839953  1
  Mn3.34+  Mn197  1  0.41178662  0.50053785  0.39823419  1
  Mn3.34+  Mn198  1  0.74971460  0.00363660  0.08227541  1
  Mn3.34+  Mn199  1  0.92200581  0.00646823  0.91287961  1
  Mn3.34+  Mn200  1  0.08176858  0.49988985  0.07656296  1
  Mn3.34+  Mn201  1  0.91460188  0.49925779  0.59380208  1
  Mn3.34+  Mn202  1  0.90864991  0.49498891  0.24769327  1
  Mn3.34+  Mn203  1  0.24400600  0.50266168  0.58031202  1
  Mn3.34+  Mn204  1  0.91663560  0.00103954  0.58594351  1
  Mn3.34+  Mn205  1  0.91862734  0.00095327  0.27799581  1
  Mn3.34+  Mn206  1  0.25491886  0.49834150  0.57840608  1
  Mn3.34+  Mn207  1  0.74868126  0.49589690  0.41902551  1
  Mn3.34+  Mn208  1  0.42061654  0.50032041  0.75544102  1
  Mn3.34+  Mn209  1  0.41340623  -0.00654842  0.41762154  1
  Mn3.34+  Mn210  1  0.41000656  0.49656171  0.75727724  1
  Mn3.34+  Mn211  1  0.08071285  0.00444508  0.74154650  1
  Mn3.34+  Mn212  1  0.91128838  0.00178888  0.91167518  1
  Mn3.34+  Mn213  1  0.58212780  0.50206490  0.92729460  1
  Mn3.34+  Mn214  1  0.74677191  0.49797358  0.08275129  1
  Mn3.34+  Mn215  1  0.41410055  -0.00045028  0.74998712  1
  O2-  O216  1  0.00068531  0.17344955  -0.00865594  1
  O2-  O217  1  0.00270220  0.16506077  0.32738705  1
  O2-  O218  1  0.00502093  0.17211902  0.66025679  1
  O2-  O219  1  -0.00415874  0.67944968  0.00015946  1
  O2-  O220  1  -0.00114796  0.66546110  0.33734466  1
  O2-  O221  1  0.00367188  0.66703085  0.66137227  1
  O2-  O222  1  0.33184739  0.15824694  -0.00209123  1
  O2-  O223  1  0.33714428  0.16256088  0.32561882  1
  O2-  O224  1  0.32985944  0.16277334  0.66286382  1
  O2-  O225  1  0.33328043  0.65864422  0.00323241  1
  O2-  O226  1  0.33154848  0.66180299  0.32813569  1
  O2-  O227  1  0.32941363  0.66012700  0.66446998  1
  O2-  O228  1  0.66312690  0.16789597  0.00912173  1
  O2-  O229  1  0.66739931  0.16180429  0.32682029  1
  O2-  O230  1  0.67233913  0.16953255  0.67399821  1
  O2-  O231  1  0.66664534  0.66069798  -0.00074895  1
  O2-  O232  1  0.67071446  0.67006818  0.32415060  1
  O2-  O233  1  0.66056259  0.67436279  0.67318692  1
  O2-  O234  1  0.16528446  0.16890727  0.00181913  1
  O2-  O235  1  0.16631283  0.16623792  0.32632348  1
  O2-  O236  1  0.17442269  0.17122205  0.66818075  1
  O2-  O237  1  0.17418920  0.66937123  0.00516017  1
  O2-  O238  1  0.16535256  0.66577111  0.32989227  1
  O2-  O239  1  0.16241113  0.65968373  0.66370763  1
  O2-  O240  1  0.49567532  0.16150798  -0.00248583  1
  O2-  O241  1  0.50183951  0.15900850  0.33182186  1
  O2-  O242  1  0.50361886  0.16098216  0.66678728  1
  O2-  O243  1  0.50177382  0.66186347  -0.00655163  1
  O2-  O244  1  0.50306213  0.67635985  0.32307738  1
  O2-  O245  1  0.50049400  0.66595104  0.66825057  1
  O2-  O246  1  0.83299991  0.17227669  0.00044822  1
  O2-  O247  1  0.83382690  0.16369577  0.32402579  1
  O2-  O248  1  0.82878637  0.17002200  0.66190595  1
  O2-  O249  1  0.83409144  0.66830367  0.00011525  1
  O2-  O250  1  0.83109676  0.65725431  0.33838577  1
  O2-  O251  1  0.83409829  0.68106698  0.66696407  1
  O2-  O252  1  -0.00073916  0.33301269  -0.00054431  1
  O2-  O253  1  0.00571477  0.34240186  0.32853424  1
  O2-  O254  1  0.00057553  0.33251924  0.66695216  1
  O2-  O255  1  0.00092501  0.82772404  0.00055652  1
  O2-  O256  1  0.00664146  0.82416875  0.33531755  1
  O2-  O257  1  -0.00395512  0.82776771  0.66398744  1
  O2-  O258  1  0.33340148  0.33847609  -0.00331358  1
  O2-  O259  1  0.32741132  0.33466611  0.33741723  1
  O2-  O260  1  0.33217986  0.32982387  0.66527254  1
  O2-  O261  1  0.33323981  0.83776390  -0.00006064  1
  O2-  O262  1  0.33422040  0.82825691  0.33323083  1
  O2-  O263  1  0.33239251  0.83774042  0.66765942  1
  O2-  O264  1  0.67377754  0.33742274  -0.00701387  1
  O2-  O265  1  0.66292043  0.33218791  0.33807955  1
  O2-  O266  1  0.66383134  0.33022827  0.67103349  1
  O2-  O267  1  0.66708466  0.83798318  -0.00292779  1
  O2-  O268  1  0.66611184  0.82726433  0.33095461  1
  O2-  O269  1  0.65962041  0.83094905  0.67253912  1
  O2-  O270  1  0.16557270  0.32944828  0.00103524  1
  O2-  O271  1  0.16494501  0.33769807  0.33082370  1
  O2-  O272  1  0.16758959  0.32221062  0.66882898  1
  O2-  O273  1  0.16237125  0.83579426  -0.00449054  1
  O2-  O274  1  0.16245312  0.82740071  0.33330854  1
  O2-  O275  1  0.16738637  0.83713990  0.66665409  1
  O2-  O276  1  0.49389401  0.33598031  -0.00738370  1
  O2-  O277  1  0.50326720  0.33201319  0.33642154  1
  O2-  O278  1  0.50383161  0.33454454  0.66896407  1
  O2-  O279  1  0.49905243  0.83566108  -0.00158367  1
  O2-  O280  1  0.50514202  0.82567905  0.33781477  1
  O2-  O281  1  0.50307116  0.83439424  0.66950675  1
  O2-  O282  1  0.83296765  0.34048272  -0.00449263  1
  O2-  O283  1  0.83975524  0.33377391  0.33882251  1
  O2-  O284  1  0.83379393  0.33432502  0.66680625  1
  O2-  O285  1  0.83867054  0.83540703  0.00361991  1
  O2-  O286  1  0.82904743  0.83309191  0.33200966  1
  O2-  O287  1  0.83904436  0.82664773  0.66757910  1
  O2-  O288  1  0.00381352  0.17395111  0.16848792  1
  O2-  O289  1  -0.00002276  0.16943690  0.50496622  1
  O2-  O290  1  0.00208562  0.17838681  0.83950690  1
  O2-  O291  1  0.00203035  0.67513381  0.15987783  1
  O2-  O292  1  -0.00086158  0.68008322  0.50424113  1
  O2-  O293  1  -0.00333097  0.68294125  0.83750113  1
  O2-  O294  1  0.33297160  0.16849977  0.16765386  1
  O2-  O295  1  0.33707735  0.17524478  0.50812636  1
  O2-  O296  1  0.32753215  0.16449402  0.83609691  1
  O2-  O297  1  0.32944912  0.66882983  0.16809105  1
  O2-  O298  1  0.32916116  0.67065578  0.50080439  1
  O2-  O299  1  0.33722837  0.66701846  0.83380992  1
  O2-  O300  1  0.67283295  0.16637508  0.17130837  1
  O2-  O301  1  0.66815910  0.17154368  0.50778648  1
  O2-  O302  1  0.66985129  0.17950560  0.82143324  1
  O2-  O303  1  0.66815278  0.67401474  0.16793572  1
  O2-  O304  1  0.66562956  0.68068483  0.50783704  1
  O2-  O305  1  0.66702396  0.66967567  0.83473758  1
  O2-  O306  1  0.17009282  0.17166869  0.16638411  1
  O2-  O307  1  0.16616871  0.17792630  0.50715132  1
  O2-  O308  1  0.16648226  0.17456072  0.82798743  1
  O2-  O309  1  0.16353991  0.67416910  0.16592923  1
  O2-  O310  1  0.16399389  0.67400789  0.50631528  1
  O2-  O311  1  0.16956197  0.67142308  0.82836311  1
  O2-  O312  1  0.50334742  0.16923737  0.17083151  1
  O2-  O313  1  0.49444028  0.17137514  0.50134770  1
  O2-  O314  1  0.49999398  0.16288963  0.83356246  1
  O2-  O315  1  0.50673912  0.67397121  0.16805822  1
  O2-  O316  1  0.50221415  0.68360363  0.51302487  1
  O2-  O317  1  0.50299095  0.66591914  0.83440880  1
  O2-  O318  1  0.83148599  0.16792373  0.17130690  1
  O2-  O319  1  0.83532120  0.17247075  0.50759506  1
  O2-  O320  1  0.83304964  0.18491974  0.83017954  1
  O2-  O321  1  0.83251989  0.66773226  0.15935027  1
  O2-  O322  1  0.83828615  0.67426795  0.49797511  1
  O2-  O323  1  0.82923160  0.67968074  0.83818418  1
  O2-  O324  1  0.00357922  0.32847708  0.16921797  1
  O2-  O325  1  -0.00072402  0.33209732  0.50156914  1
  O2-  O326  1  0.00070365  0.32615532  0.83181220  1
  O2-  O327  1  -0.00228309  0.82614435  0.16192903  1
  O2-  O328  1  0.00378062  0.81567220  0.50064536  1
  O2-  O329  1  0.00330030  0.82835810  0.83782234  1
  O2-  O330  1  0.32973751  0.32871260  0.16203990  1
  O2-  O331  1  0.33469976  0.32533860  0.50341993  1
  O2-  O332  1  0.33629054  0.33763083  0.83727575  1
  O2-  O333  1  0.32776263  0.82953504  0.16217140  1
  O2-  O334  1  0.33714730  0.82836515  0.50380989  1
  O2-  O335  1  0.33198774  0.83493089  0.83085472  1
  O2-  O336  1  0.66511539  0.32257920  0.16762640  1
  O2-  O337  1  0.66778874  0.32605296  0.50199735  1
  O2-  O338  1  0.66506011  0.33314000  0.83131961  1
  O2-  O339  1  0.66680359  0.82398240  0.16970656  1
  O2-  O340  1  0.66319805  0.81972972  0.49919742  1
  O2-  O341  1  0.66419058  0.83321672  0.83134561  1
  O2-  O342  1  0.16434074  0.32546442  0.16860844  1
  O2-  O343  1  0.16625808  0.32544695  0.50014201  1
  O2-  O344  1  0.16665017  0.32513461  0.83090353  1
  O2-  O345  1  0.16603428  0.82515316  0.16534060  1
  O2-  O346  1  0.16235753  0.82204432  0.50016280  1
  O2-  O347  1  0.16493153  0.83374247  0.83605393  1
  O2-  O348  1  0.50165897  0.32242613  0.16639987  1
  O2-  O349  1  0.49914197  0.32575100  0.50363943  1
  O2-  O350  1  0.50187423  0.33785486  0.83292872  1
  O2-  O351  1  0.50513017  0.82114571  0.16367578  1
  O2-  O352  1  0.50010706  0.82437058  0.50364433  1
  O2-  O353  1  0.50401582  0.83337559  0.82820065  1
  O2-  O354  1  0.83925294  0.32711080  0.16063685  1
  O2-  O355  1  0.83367955  0.33274775  0.50226968  1
  O2-  O356  1  0.82830780  0.33300415  0.83626921  1
  O2-  O357  1  0.83780292  0.83592093  0.16363506  1
  O2-  O358  1  0.83281030  0.81797517  0.50380024  1
  O2-  O359  1  0.83319980  0.82675098  0.83495134  1
  O2-  O360  1  0.09223028  0.07868844  0.09503836  1
  O2-  O361  1  0.08600783  0.08042500  0.42201648  1
  O2-  O362  1  0.10636676  0.07708945  0.77599847  1
  O2-  O363  1  0.07994480  0.58090327  0.10577037  1
  O2-  O364  1  0.07673366  0.57901195  0.45070177  1
  O2-  O365  1  0.08871673  0.57882835  0.75349409  1
  O2-  O366  1  0.41694760  0.08047346  0.10075470  1
  O2-  O367  1  0.41674409  0.08057312  0.44140404  1
  O2-  O368  1  0.40495136  0.07878515  0.77012670  1
  O2-  O369  1  0.40550989  0.57451739  0.09657202  1
  O2-  O370  1  0.40823258  0.57314942  0.43540111  1
  O2-  O371  1  0.42005424  0.58176729  0.76368405  1
  O2-  O372  1  0.74627649  0.08421795  0.10687567  1
  O2-  O373  1  0.73946210  0.07564337  0.43755893  1
  O2-  O374  1  0.73594975  0.08161290  0.76246901  1
  O2-  O375  1  0.75123514  0.58067596  0.10156180  1
  O2-  O376  1  0.75648219  0.58269975  0.43365610  1
  O2-  O377  1  0.74363121  0.58460128  0.77007457  1
  O2-  O378  1  0.25384688  0.07877115  0.22621042  1
  O2-  O379  1  0.25615161  0.08152282  0.57403175  1
  O2-  O380  1  0.24919298  0.07830934  0.89363374  1
  O2-  O381  1  0.24524513  0.58276576  0.22532304  1
  O2-  O382  1  0.24288994  0.58496398  0.56477485  1
  O2-  O383  1  0.26718040  0.57754850  0.89719595  1
  O2-  O384  1  0.58237084  0.08415126  0.22987801  1
  O2-  O385  1  0.57677034  0.07688002  0.56184425  1
  O2-  O386  1  0.56507090  0.06854297  0.88570488  1
  O2-  O387  1  0.58495890  0.57721397  0.22240474  1
  O2-  O388  1  0.57750217  0.58527916  0.57323104  1
  O2-  O389  1  0.58059152  0.58123759  0.89820381  1
  O2-  O390  1  0.91079647  0.07901533  0.23204651  1
  O2-  O391  1  0.90569105  0.08137508  0.56831999  1
  O2-  O392  1  0.92040248  0.08753190  0.90038622  1
  O2-  O393  1  0.91463242  0.58093488  0.22751275  1
  O2-  O394  1  0.93262094  0.57871147  0.55908058  1
  O2-  O395  1  0.90781832  0.58209838  0.91012339  1
  O2-  O396  1  0.08293416  0.42144964  0.10804783  1
  O2-  O397  1  0.08633787  0.41667905  0.43021251  1
  O2-  O398  1  0.08440167  0.41940653  0.76851680  1
  O2-  O399  1  0.06908609  0.91896208  0.09699427  1
  O2-  O400  1  0.08256917  0.91828143  0.42870315  1
  O2-  O401  1  0.08088449  0.92412042  0.77670157  1
  O2-  O402  1  0.40724240  0.41861927  0.07612337  1
  O2-  O403  1  0.41838405  0.42365870  0.43903179  1
  O2-  O404  1  0.42163557  0.41446195  0.75782392  1
  O2-  O405  1  0.41932872  0.91741455  0.08461625  1
  O2-  O406  1  0.42653400  0.91294537  0.43486078  1
  O2-  O407  1  0.42611033  0.91803334  0.76183433  1
  O2-  O408  1  0.75962150  0.41675071  0.08314699  1
  O2-  O409  1  0.74812083  0.41527650  0.43502662  1
  O2-  O410  1  0.73655497  0.42222390  0.77525546  1
  O2-  O411  1  0.75537637  0.91651650  0.09574341  1
  O2-  O412  1  0.73700870  0.91555647  0.41631361  1
  O2-  O413  1  0.74517194  0.91961153  0.76928762  1
  O2-  O414  1  0.23528504  0.41686910  0.23357498  1
  O2-  O415  1  0.25157366  0.41588718  0.57182619  1
  O2-  O416  1  0.25044319  0.41926089  0.89877125  1
  O2-  O417  1  0.23779307  0.92010065  0.22967734  1
  O2-  O418  1  0.24783504  0.91711537  0.57490058  1
  O2-  O419  1  0.23830680  0.91986602  0.90193987  1
  O2-  O420  1  0.58397480  0.41689468  0.24755199  1
  O2-  O421  1  0.58456546  0.41716648  0.57204910  1
  O2-  O422  1  0.58490288  0.42159623  0.89432046  1
  O2-  O423  1  0.58886467  0.91608485  0.23378261  1
  O2-  O424  1  0.57450805  0.91970207  0.56981044  1
  O2-  O425  1  0.58380268  0.91840497  0.89293286  1
  O2-  O426  1  0.92110369  0.41458990  0.23394384  1
  O2-  O427  1  0.91661386  0.41790683  0.57015284  1
  O2-  O428  1  0.90932940  0.41875953  0.89561783  1
  O2-  O429  1  0.91843528  0.92513003  0.22714256  1
  O2-  O430  1  0.93226201  0.91976517  0.57717233  1
  O2-  O431  1  0.92019574  0.91853925  0.90016863  1
  O2-  O432  1  0.00173213  -0.01029957  -0.00602097  1
  O2-  O433  1  0.01511944  0.00273171  0.31901884  1
  O2-  O434  1  0.00509149  -0.00102419  0.66088194  1
  O2-  O435  1  -0.00560180  0.49700028  0.00490065  1
  O2-  O436  1  0.00392861  0.50293966  0.32947535  1
  O2-  O437  1  0.01244243  0.50019566  0.64345326  1
  O2-  O438  1  0.34176747  0.00425488  -0.01218420  1
  O2-  O439  1  0.33831557  0.00695121  0.32237954  1
  O2-  O440  1  0.33327551  0.00673418  0.66669870  1
  O2-  O441  1  0.33549421  0.49955125  -0.01150358  1
  O2-  O442  1  0.32171815  0.50228425  0.34459053  1
  O2-  O443  1  0.33461938  0.50386783  0.66591347  1
  O2-  O444  1  0.65907725  -0.00191295  0.00451551  1
  O2-  O445  1  0.66777526  0.00708819  0.32860058  1
  O2-  O446  1  0.65632103  -0.00036821  0.68184137  1
  O2-  O447  1  0.67769584  0.50047596  -0.01438693  1
  O2-  O448  1  0.66686738  0.50492847  0.32756688  1
  O2-  O449  1  0.65895769  0.49662554  0.67597614  1
  O2-  O450  1  0.16041016  -0.00214809  -0.00949974  1
  O2-  O451  1  0.15301048  0.00416776  0.31711613  1
  O2-  O452  1  0.17306351  0.00303349  0.67196533  1
  O2-  O453  1  0.17490670  0.50151893  0.01010272  1
  O2-  O454  1  0.16033595  0.49799762  0.32037264  1
  O2-  O455  1  0.16492987  0.50500020  0.66184815  1
  O2-  O456  1  0.49460289  0.00872398  -0.00717269  1
  O2-  O457  1  0.49906010  0.00759835  0.33569504  1
  O2-  O458  1  0.49800675  0.00674706  0.66698855  1
  O2-  O459  1  0.48348291  0.50302664  -0.02332578  1
  O2-  O460  1  0.49935849  0.50323864  0.33578448  1
  O2-  O461  1  0.50016595  0.50041499  0.66672502  1
  O2-  O462  1  0.83289636  -0.00241799  -0.00066301  1
  O2-  O463  1  0.81546218  0.00455848  0.30820316  1
  O2-  O464  1  0.83267222  -0.00019451  0.66403782  1
  O2-  O465  1  0.83135694  0.49880775  -0.00413493  1
  O2-  O466  1  0.83594069  0.50621126  0.33918571  1
  O2-  O467  1  0.83074870  0.49110922  0.66543706  1
  O2-  O468  1  0.25891289  0.25311584  0.91756311  1
  O2-  O469  1  0.58506109  0.75017751  0.91771841  1
  O2-  O470  1  0.75079370  0.25055381  0.41255433  1
  O2-  O471  1  0.75431155  0.74974728  0.07932147  1
  O2-  O472  1  0.91159132  0.75432336  0.25120050  1
  O2-  O473  1  0.25371624  0.25015361  0.25399032  1
  O2-  O474  1  0.08639734  0.74760862  0.74593825  1
  O2-  O475  1  0.91526363  0.25055092  0.58294384  1
  O2-  O476  1  0.41646516  0.25341208  0.40956248  1
  O2-  O477  1  0.24952791  0.75085625  0.59341218  1
  O2-  O478  1  0.58362723  0.25035686  0.25723874  1
  O2-  O479  1  0.25263868  0.75225410  0.91672070  1
  O2-  O480  1  0.41415536  0.75395966  0.74832955  1
  O2-  O481  1  0.91616842  0.24929864  0.25334372  1
  O2-  O482  1  0.91266960  0.25280330  0.92403071  1
  O2-  O483  1  0.75041938  0.25099852  0.07986855  1
  O2-  O484  1  0.08040355  0.25317663  0.41045579  1
  O2-  O485  1  0.75523787  0.75182213  0.40817682  1
  O2-  O486  1  0.58029995  0.25119942  0.91863397  1
  O2-  O487  1  0.41392837  0.25046548  0.07645855  1
  O2-  O488  1  0.41631213  0.25034183  0.75148258  1
  O2-  O489  1  0.74570781  0.75080394  0.75153716  1
  O2-  O490  1  0.41359353  0.75092332  0.41624890  1
  O2-  O491  1  0.41574987  0.75375475  0.07677338  1
  O2-  O492  1  0.24897140  0.75031402  0.25338482  1
