# generated using pymatgen
data_Ca108Mn108O277
_symmetry_space_group_name_H-M   'P 1'
_cell_length_a   16.01019715
_cell_length_b   22.28177942
_cell_length_c   16.37559419
_cell_angle_alpha   89.99767566
_cell_angle_beta   89.99799638
_cell_angle_gamma   90.00022692
_symmetry_Int_Tables_number   1
_chemical_formula_structural   Ca108Mn108O277
_chemical_formula_sum   'Ca108 Mn108 O277'
_cell_volume   5841.75873924
_cell_formula_units_Z   1
loop_
 _symmetry_equiv_pos_site_id
 _symmetry_equiv_pos_as_xyz
  1  'x, y, z'
loop_
 _atom_type_symbol
 _atom_type_oxidation_number
  Ca2+  2.0
  Mn3.34+  3.34
  O2-  -2.0
loop_
 _atom_site_type_symbol
 _atom_site_label
 _atom_site_symmetry_multiplicity
 _atom_site_fract_x
 _atom_site_fract_y
 _atom_site_fract_z
 _atom_site_occupancy
  Ca2+  Ca0  1  0.09809126  0.25757251  0.24661528  1
  Ca2+  Ca1  1  0.09145976  0.24951122  0.60485568  1
  Ca2+  Ca2  1  0.09141359  0.25397154  0.89337396  1
  Ca2+  Ca3  1  0.05729930  0.74844796  0.25137528  1
  Ca2+  Ca4  1  0.08405265  0.72836788  0.59356880  1
  Ca2+  Ca5  1  0.07912405  0.75083179  0.90583443  1
  Ca2+  Ca6  1  0.41832043  0.25011457  0.23268660  1
  Ca2+  Ca7  1  0.41616133  0.24984216  0.59529419  1
  Ca2+  Ca8  1  0.42589524  0.25307303  0.92828575  1
  Ca2+  Ca9  1  0.41755538  0.75452678  0.25764034  1
  Ca2+  Ca10  1  0.40717220  0.74629094  0.58573432  1
  Ca2+  Ca11  1  0.42666888  0.75948457  0.91082734  1
  Ca2+  Ca12  1  0.73764699  0.25506176  0.26273565  1
  Ca2+  Ca13  1  0.74346663  0.24356027  0.57354064  1
  Ca2+  Ca14  1  0.73527114  0.25291864  0.90902688  1
  Ca2+  Ca15  1  0.76875284  0.75178714  0.23465859  1
  Ca2+  Ca16  1  0.76609261  0.75669904  0.58519666  1
  Ca2+  Ca17  1  0.74598475  0.75103802  0.93471789  1
  Ca2+  Ca18  1  0.27321265  0.25198317  0.09112637  1
  Ca2+  Ca19  1  0.26057551  0.25346828  0.40800762  1
  Ca2+  Ca20  1  0.24851032  0.25104119  0.74394721  1
  Ca2+  Ca21  1  0.23203668  0.75093740  0.08042113  1
  Ca2+  Ca22  1  0.23537299  0.74866080  0.42403905  1
  Ca2+  Ca23  1  0.23434866  0.74497865  0.74449735  1
  Ca2+  Ca24  1  0.56284510  0.25063631  0.08424153  1
  Ca2+  Ca25  1  0.59943561  0.25283000  0.41389818  1
  Ca2+  Ca26  1  0.57980019  0.25168177  0.74968741  1
  Ca2+  Ca27  1  0.60722700  0.74834120  0.07531977  1
  Ca2+  Ca28  1  0.58754333  0.75303730  0.41851893  1
  Ca2+  Ca29  1  0.58644067  0.75184741  0.76058441  1
  Ca2+  Ca30  1  0.90634539  0.25532376  0.09653210  1
  Ca2+  Ca31  1  0.89009071  0.25179151  0.41469880  1
  Ca2+  Ca32  1  0.92662387  0.24278787  0.74631975  1
  Ca2+  Ca33  1  0.89914084  0.72978821  0.10300922  1
  Ca2+  Ca34  1  0.92633981  0.74481408  0.40302691  1
  Ca2+  Ca35  1  0.93649483  0.74473827  0.74138757  1
  Ca2+  Ca36  1  0.91109536  0.08564569  0.42322438  1
  Ca2+  Ca37  1  0.55507861  0.10317996  0.08161532  1
  Ca2+  Ca38  1  0.07455090  0.59021924  0.91263133  1
  Ca2+  Ca39  1  0.77673780  0.57663683  0.57997872  1
  Ca2+  Ca40  1  0.75574497  0.60274842  0.23553239  1
  Ca2+  Ca41  1  0.06544929  0.59380090  0.91651106  1
  Ca2+  Ca42  1  0.07777295  0.09740881  0.59972365  1
  Ca2+  Ca43  1  0.58779760  0.57531016  0.40281756  1
  Ca2+  Ca44  1  0.73820053  0.09420088  0.90740169  1
  Ca2+  Ca45  1  0.90178197  0.08814947  0.41945673  1
  Ca2+  Ca46  1  0.23424836  0.60086091  0.72953235  1
  Ca2+  Ca47  1  0.08847293  0.08879572  0.26442305  1
  Ca2+  Ca48  1  0.58166353  0.09715981  0.73315754  1
  Ca2+  Ca49  1  0.75590838  0.09633459  0.25932000  1
  Ca2+  Ca50  1  0.58674045  0.59055373  0.08978985  1
  Ca2+  Ca51  1  0.91176852  0.08822780  0.08413758  1
  Ca2+  Ca52  1  0.06205714  0.59958108  0.25076841  1
  Ca2+  Ca53  1  0.44359900  0.09609698  0.59320265  1
  Ca2+  Ca54  1  0.07883889  0.08302965  0.26700664  1
  Ca2+  Ca55  1  0.22943235  0.59492748  0.43113290  1
  Ca2+  Ca56  1  0.40878346  0.59634831  0.59410310  1
  Ca2+  Ca57  1  0.74528095  0.09674805  0.25640172  1
  Ca2+  Ca58  1  0.60274125  0.10578388  0.43579854  1
  Ca2+  Ca59  1  0.24160980  0.59506686  0.42850169  1
  Ca2+  Ca60  1  0.57462343  0.58760789  0.09088503  1
  Ca2+  Ca61  1  0.07060225  0.10796587  0.88847103  1
  Ca2+  Ca62  1  0.89913076  0.08870920  0.08341703  1
  Ca2+  Ca63  1  0.06951581  0.59498364  0.24695216  1
  Ca2+  Ca64  1  0.76508451  0.60511352  0.23919630  1
  Ca2+  Ca65  1  0.42051596  0.58755108  0.91564810  1
  Ca2+  Ca66  1  0.75076062  0.09433976  0.90735441  1
  Ca2+  Ca67  1  0.93713949  0.58949764  0.73203508  1
  Ca2+  Ca68  1  0.75568517  0.60226224  0.93335298  1
  Ca2+  Ca69  1  0.23946167  0.57973150  0.08168171  1
  Ca2+  Ca70  1  0.72929418  0.10107173  0.57858804  1
  Ca2+  Ca71  1  0.24709008  0.09468610  0.41635769  1
  Ca2+  Ca72  1  0.58427905  0.91185698  0.75194162  1
  Ca2+  Ca73  1  0.90422496  0.90383168  0.09668279  1
  Ca2+  Ca74  1  0.58909999  0.90342652  0.07651535  1
  Ca2+  Ca75  1  0.07666987  0.89808116  0.91409398  1
  Ca2+  Ca76  1  0.92104335  0.40298543  0.07870371  1
  Ca2+  Ca77  1  0.56106224  0.40751856  0.09654229  1
  Ca2+  Ca78  1  0.58317302  0.90879501  0.42321262  1
  Ca2+  Ca79  1  0.24653791  0.91038432  0.41745809  1
  Ca2+  Ca80  1  0.74552222  0.90509820  0.91805912  1
  Ca2+  Ca81  1  0.91454066  0.40864268  0.73828492  1
  Ca2+  Ca82  1  0.24864369  0.40570894  0.41529351  1
  Ca2+  Ca83  1  0.26501861  0.90095886  0.08479685  1
  Ca2+  Ca84  1  0.74952425  0.39710135  0.90618593  1
  Ca2+  Ca85  1  0.43387191  0.91581885  0.59639908  1
  Ca2+  Ca86  1  0.06699576  0.41028282  0.58019548  1
  Ca2+  Ca87  1  0.06052695  0.91675329  0.26360165  1
  Ca2+  Ca88  1  0.05959090  0.91379306  0.57445901  1
  Ca2+  Ca89  1  0.08518207  0.41178082  0.91593811  1
  Ca2+  Ca90  1  0.23388939  0.90990587  0.41690378  1
  Ca2+  Ca91  1  0.90828689  0.90767795  0.74569025  1
  Ca2+  Ca92  1  0.75780967  0.40472536  0.57448383  1
  Ca2+  Ca93  1  0.93212598  0.40664438  0.08316153  1
  Ca2+  Ca94  1  0.59563011  0.90699301  0.42487238  1
  Ca2+  Ca95  1  0.25209085  0.90116330  0.08504941  1
  Ca2+  Ca96  1  0.72592255  0.41620491  0.27589508  1
  Ca2+  Ca97  1  0.25655769  0.89979910  0.74925991  1
  Ca2+  Ca98  1  0.26047710  0.40540620  0.41595662  1
  Ca2+  Ca99  1  0.90390576  0.41212692  0.42745395  1
  Ca2+  Ca100  1  0.07085433  0.91040601  0.57799979  1
  Ca2+  Ca101  1  0.42136387  0.91546066  0.59636858  1
  Ca2+  Ca102  1  0.76360567  0.91387163  0.58753945  1
  Ca2+  Ca103  1  0.09524666  0.40859445  0.91573301  1
  Ca2+  Ca104  1  0.91549136  0.91433814  0.40510517  1
  Ca2+  Ca105  1  0.42409037  0.39732889  0.58183262  1
  Ca2+  Ca106  1  0.08875452  0.40625997  0.24976881  1
  Ca2+  Ca107  1  0.42116101  0.90066839  0.24846339  1
  Mn3.34+  Mn108  1  0.09201522  0.33866922  0.08560717  1
  Mn3.34+  Mn109  1  0.08085721  0.33726357  0.42132262  1
  Mn3.34+  Mn110  1  0.08685465  0.33231049  0.74854358  1
  Mn3.34+  Mn111  1  0.07772471  0.82777836  0.08440652  1
  Mn3.34+  Mn112  1  0.08034198  0.83108780  0.41743450  1
  Mn3.34+  Mn113  1  0.08223587  0.82972004  0.75021701  1
  Mn3.34+  Mn114  1  0.41268080  0.34127254  0.08326740  1
  Mn3.34+  Mn115  1  0.42534167  0.34028309  0.41599507  1
  Mn3.34+  Mn116  1  0.41740692  0.33395938  0.75478040  1
  Mn3.34+  Mn117  1  0.42200120  0.83056425  0.08499437  1
  Mn3.34+  Mn118  1  0.41629363  0.83153478  0.41958409  1
  Mn3.34+  Mn119  1  0.41694674  0.83015183  0.75279526  1
  Mn3.34+  Mn120  1  0.74248009  0.33084766  0.08622733  1
  Mn3.34+  Mn121  1  0.74551492  0.33475622  0.41987266  1
  Mn3.34+  Mn122  1  0.74664096  0.33119248  0.74686925  1
  Mn3.34+  Mn123  1  0.75100524  0.83045313  0.08513969  1
  Mn3.34+  Mn124  1  0.75508835  0.83381383  0.41423799  1
  Mn3.34+  Mn125  1  0.75097183  0.83469994  0.75310540  1
  Mn3.34+  Mn126  1  0.25729002  0.32868396  0.24567700  1
  Mn3.34+  Mn127  1  0.25121649  0.32997172  0.58603590  1
  Mn3.34+  Mn128  1  0.26126233  0.33839955  0.91529261  1
  Mn3.34+  Mn129  1  0.24753322  0.82483303  0.24998736  1
  Mn3.34+  Mn130  1  0.24769199  0.82759110  0.58497545  1
  Mn3.34+  Mn131  1  0.25311117  0.83185174  0.91324341  1
  Mn3.34+  Mn132  1  0.57689558  0.34046194  0.25187574  1
  Mn3.34+  Mn133  1  0.58380071  0.33078214  0.58318646  1
  Mn3.34+  Mn134  1  0.57839741  0.33163123  0.91461272  1
  Mn3.34+  Mn135  1  0.58784241  0.82859402  0.24725444  1
  Mn3.34+  Mn136  1  0.58632827  0.83132541  0.58616935  1
  Mn3.34+  Mn137  1  0.58199106  0.83462033  0.91488667  1
  Mn3.34+  Mn138  1  0.91503722  0.33126016  0.25337913  1
  Mn3.34+  Mn139  1  0.91696826  0.33516131  0.58136800  1
  Mn3.34+  Mn140  1  0.91537838  0.32821897  0.91269805  1
  Mn3.34+  Mn141  1  0.91386406  0.83627208  0.24860149  1
  Mn3.34+  Mn142  1  0.91488242  0.83258618  0.57989722  1
  Mn3.34+  Mn143  1  0.91393302  0.83173070  0.91643589  1
  Mn3.34+  Mn144  1  0.25287432  0.16825875  0.90810489  1
  Mn3.34+  Mn145  1  0.08407239  0.17292190  0.08135495  1
  Mn3.34+  Mn146  1  0.24664015  0.67106572  0.24740732  1
  Mn3.34+  Mn147  1  0.42089366  0.66362040  0.74863664  1
  Mn3.34+  Mn148  1  0.41395302  0.66475801  0.41515324  1
  Mn3.34+  Mn149  1  0.91484782  0.17200951  0.91512604  1
  Mn3.34+  Mn150  1  0.07860383  0.66456116  0.42122754  1
  Mn3.34+  Mn151  1  0.75498892  0.66603752  0.75004896  1
  Mn3.34+  Mn152  1  0.07931213  0.66356116  0.08778972  1
  Mn3.34+  Mn153  1  0.07801824  0.17649265  0.42308456  1
  Mn3.34+  Mn154  1  0.09714338  0.16662308  0.08287438  1
  Mn3.34+  Mn155  1  0.91520425  0.66995140  0.91824461  1
  Mn3.34+  Mn156  1  0.08654752  0.17009384  0.42397009  1
  Mn3.34+  Mn157  1  0.74266910  0.16868453  0.08274174  1
  Mn3.34+  Mn158  1  0.57987055  0.66762532  0.91322368  1
  Mn3.34+  Mn159  1  0.75008911  0.16896783  0.74572952  1
  Mn3.34+  Mn160  1  0.91418152  0.15655895  0.58756643  1
  Mn3.34+  Mn161  1  0.58219491  0.66331896  0.24953360  1
  Mn3.34+  Mn162  1  0.57395230  0.16593507  0.91350234  1
  Mn3.34+  Mn163  1  0.58311682  0.66836726  0.58525594  1
  Mn3.34+  Mn164  1  0.25071277  0.16536783  0.59191786  1
  Mn3.34+  Mn165  1  0.40828350  0.66577303  0.09206587  1
  Mn3.34+  Mn166  1  0.41281015  0.16552793  0.41475638  1
  Mn3.34+  Mn167  1  0.24567501  0.66638819  0.91311870  1
  Mn3.34+  Mn168  1  0.25796251  0.66122172  0.91293020  1
  Mn3.34+  Mn169  1  0.26355959  0.16749065  0.91986678  1
  Mn3.34+  Mn170  1  0.92661606  0.65940957  0.58153539  1
  Mn3.34+  Mn171  1  0.41749518  0.67169360  0.09002575  1
  Mn3.34+  Mn172  1  0.42273921  0.17013056  0.41640259  1
  Mn3.34+  Mn173  1  0.75969082  0.65876068  0.42324184  1
  Mn3.34+  Mn174  1  0.74685111  0.66590611  0.42219293  1
  Mn3.34+  Mn175  1  0.91492281  0.16594414  0.24822092  1
  Mn3.34+  Mn176  1  0.42470134  0.66015594  0.41599221  1
  Mn3.34+  Mn177  1  0.41976385  0.16742866  0.74851140  1
  Mn3.34+  Mn178  1  0.74286165  0.66039730  0.74977915  1
  Mn3.34+  Mn179  1  0.57987438  0.17063376  0.24686938  1
  Mn3.34+  Mn180  1  0.41768282  0.00370454  0.74438678  1
  Mn3.34+  Mn181  1  0.26643517  0.00312472  0.91199673  1
  Mn3.34+  Mn182  1  0.74581856  0.49604209  0.08544241  1
  Mn3.34+  Mn183  1  0.56608403  0.49449658  0.91117163  1
  Mn3.34+  Mn184  1  0.91654505  0.49970477  0.91514781  1
  Mn3.34+  Mn185  1  0.26062280  0.49633970  0.24919675  1
  Mn3.34+  Mn186  1  0.90675536  0.50282035  0.25723455  1
  Mn3.34+  Mn187  1  0.27088576  0.50168747  0.25059835  1
  Mn3.34+  Mn188  1  0.07962332  0.00009453  0.08453149  1
  Mn3.34+  Mn189  1  0.58789896  0.50173785  0.58052086  1
  Mn3.34+  Mn190  1  0.08482421  0.00600049  0.75527615  1
  Mn3.34+  Mn191  1  0.24596854  0.50021267  0.58696918  1
  Mn3.34+  Mn192  1  0.26445549  0.00209088  0.24550389  1
  Mn3.34+  Mn193  1  0.74215823  -0.00302425  0.08109044  1
  Mn3.34+  Mn194  1  0.91419749  0.00110970  0.91473219  1
  Mn3.34+  Mn195  1  0.09031661  -0.00358518  0.08610676  1
  Mn3.34+  Mn196  1  0.75161808  0.00168467  0.73134347  1
  Mn3.34+  Mn197  1  0.91897171  0.49801235  0.26292026  1
  Mn3.34+  Mn198  1  0.75252196  0.00137034  0.41711760  1
  Mn3.34+  Mn199  1  0.57199271  0.00101489  0.92340731  1
  Mn3.34+  Mn200  1  0.41572415  0.00542437  0.08209661  1
  Mn3.34+  Mn201  1  0.57682501  0.49924416  0.90808303  1
  Mn3.34+  Mn202  1  0.25602621  0.49485144  0.58840352  1
  Mn3.34+  Mn203  1  0.57099587  0.00421713  0.24599959  1
  Mn3.34+  Mn204  1  0.25498069  -0.00177757  0.90984411  1
  Mn3.34+  Mn205  1  0.07658959  0.49841486  0.73922672  1
  Mn3.34+  Mn206  1  0.41921633  0.49592422  0.75063314  1
  Mn3.34+  Mn207  1  0.25320929  0.00676641  0.24536733  1
  Mn3.34+  Mn208  1  0.57772977  0.49699221  0.58298221  1
  Mn3.34+  Mn209  1  0.25960718  0.49751679  0.93506863  1
  Mn3.34+  Mn210  1  0.07615303  0.00051028  0.74366855  1
  Mn3.34+  Mn211  1  0.58510709  -0.00220391  0.24493265  1
  Mn3.34+  Mn212  1  0.75606809  0.50177257  0.08624956  1
  Mn3.34+  Mn213  1  0.75611373  0.49742532  0.74164127  1
  Mn3.34+  Mn214  1  0.25090013  0.00463539  0.58336606  1
  Mn3.34+  Mn215  1  0.42016013  0.00097154  0.42424294  1
  O2-  O216  1  -0.00323586  0.15947808  0.00511099  1
  O2-  O217  1  0.00083668  0.16357086  0.33357347  1
  O2-  O218  1  -0.00370439  0.17833803  0.65339764  1
  O2-  O219  1  0.00702095  0.66395815  -0.00380726  1
  O2-  O220  1  0.00956740  0.66437315  0.33037310  1
  O2-  O221  1  -0.00401718  0.66604688  0.66553404  1
  O2-  O222  1  0.33118025  0.17031982  0.00113556  1
  O2-  O223  1  0.33005627  0.16259507  0.34248267  1
  O2-  O224  1  0.34048130  0.16216659  0.66084780  1
  O2-  O225  1  0.32956168  0.66561677  0.00266128  1
  O2-  O226  1  0.32581583  0.67060410  0.33290418  1
  O2-  O227  1  0.33891968  0.67576581  0.67169376  1
  O2-  O228  1  0.66967651  0.15467863  -0.00632551  1
  O2-  O229  1  0.66937578  0.15823184  0.32499956  1
  O2-  O230  1  0.66939132  0.16566861  0.67059553  1
  O2-  O231  1  0.65177826  0.65394935  0.00046195  1
  O2-  O232  1  0.66480066  0.66457847  0.33608317  1
  O2-  O233  1  0.66811148  0.67042948  0.66267669  1
  O2-  O234  1  0.16205203  0.15912084  -0.01332220  1
  O2-  O235  1  0.16033466  0.16509623  0.33629126  1
  O2-  O236  1  0.16617494  0.16530969  0.65805992  1
  O2-  O237  1  0.16843452  0.65318237  0.00267592  1
  O2-  O238  1  0.16782370  0.66499242  0.33106991  1
  O2-  O239  1  0.17874590  0.67784042  0.66587366  1
  O2-  O240  1  0.50460373  0.16954435  -0.00376996  1
  O2-  O241  1  0.50590137  0.16134562  0.33874586  1
  O2-  O242  1  0.50014161  0.16905519  0.66965844  1
  O2-  O243  1  0.49374838  0.66558550  -0.00315284  1
  O2-  O244  1  0.50383936  0.67425578  0.33361757  1
  O2-  O245  1  0.49910708  0.68463428  0.66357330  1
  O2-  O246  1  0.83405029  0.15855840  0.00341549  1
  O2-  O247  1  0.84002541  0.15389741  0.33324359  1
  O2-  O248  1  0.83190011  0.17098476  0.66238482  1
  O2-  O249  1  0.83106358  0.67677400  -0.00997096  1
  O2-  O250  1  0.82893627  0.66040606  0.33513281  1
  O2-  O251  1  0.83234267  0.66072613  0.66477941  1
  O2-  O252  1  -0.00218162  0.33734550  -0.00005115  1
  O2-  O253  1  0.00332218  0.33101471  0.33289481  1
  O2-  O254  1  -0.00177042  0.33406597  0.66671722  1
  O2-  O255  1  0.00183590  0.83242436  -0.00448524  1
  O2-  O256  1  0.00003681  0.84139855  0.33492750  1
  O2-  O257  1  0.00068868  0.84401613  0.66477822  1
  O2-  O258  1  0.33358662  0.32762900  0.00002387  1
  O2-  O259  1  0.32678845  0.33820613  0.34090661  1
  O2-  O260  1  0.33754508  0.33490932  0.66013759  1
  O2-  O261  1  0.33082828  0.83115258  0.00938207  1
  O2-  O262  1  0.33110306  0.83744963  0.33338521  1
  O2-  O263  1  0.33568922  0.82831872  0.66384084  1
  O2-  O264  1  0.67098970  0.33701324  -0.00267167  1
  O2-  O265  1  0.66895219  0.33478711  0.33210978  1
  O2-  O266  1  0.67012792  0.32387476  0.66117157  1
  O2-  O267  1  0.66745722  0.83891680  -0.00060866  1
  O2-  O268  1  0.65923049  0.83321165  0.34109442  1
  O2-  O269  1  0.66661224  0.83543478  0.66793017  1
  O2-  O270  1  0.15976187  0.34047232  -0.00727125  1
  O2-  O271  1  0.16592186  0.33251213  0.33743237  1
  O2-  O272  1  0.16063181  0.33791215  0.65931645  1
  O2-  O273  1  0.17030659  0.84366825  0.00303702  1
  O2-  O274  1  0.16930962  0.84017011  0.33712491  1
  O2-  O275  1  0.16569049  0.84248742  0.66576814  1
  O2-  O276  1  0.50477781  0.33108146  0.00408886  1
  O2-  O277  1  0.49990290  0.32769594  0.33363708  1
  O2-  O278  1  0.49981248  0.32376632  0.66244523  1
  O2-  O279  1  0.50337152  0.82685412  0.00444135  1
  O2-  O280  1  0.50327094  0.83422049  0.33357175  1
  O2-  O281  1  0.49686113  0.82851512  0.66419586  1
  O2-  O282  1  0.83931250  0.33613437  0.00354421  1
  O2-  O283  1  0.83381455  0.33891666  0.33470026  1
  O2-  O284  1  0.83607769  0.33261702  0.66505004  1
  O2-  O285  1  0.83149947  0.83458397  -0.00152045  1
  O2-  O286  1  0.83959075  0.83766157  0.33837540  1
  O2-  O287  1  0.83309890  0.84205738  0.66579924  1
  O2-  O288  1  -0.00378387  0.16569136  0.16612003  1
  O2-  O289  1  -0.00371498  0.18159234  0.50185476  1
  O2-  O290  1  -0.00325440  0.18684351  0.84498554  1
  O2-  O291  1  0.00586053  0.67150448  0.16824235  1
  O2-  O292  1  -0.00138976  0.67686284  0.49733736  1
  O2-  O293  1  0.00068679  0.67621149  0.84411803  1
  O2-  O294  1  0.33931664  0.17447500  0.16362646  1
  O2-  O295  1  0.33311708  0.17029134  0.49807647  1
  O2-  O296  1  0.33562553  0.17480211  0.82975775  1
  O2-  O297  1  0.32689229  0.69320109  0.16914295  1
  O2-  O298  1  0.33355934  0.67317516  0.49813794  1
  O2-  O299  1  0.33597707  0.67938964  0.83122428  1
  O2-  O300  1  0.67035047  0.16705079  0.16936511  1
  O2-  O301  1  0.66268830  0.17688297  0.50653665  1
  O2-  O302  1  0.67126433  0.16697046  0.83402424  1
  O2-  O303  1  0.66027636  0.67425796  0.17334954  1
  O2-  O304  1  0.66481726  0.68002044  0.50077145  1
  O2-  O305  1  0.66997146  0.67193999  0.83760733  1
  O2-  O306  1  0.15610744  0.17303954  0.17628917  1
  O2-  O307  1  0.17186758  0.17854687  0.49948842  1
  O2-  O308  1  0.17022735  0.17392413  0.83655859  1
  O2-  O309  1  0.16426693  0.67849870  0.16884990  1
  O2-  O310  1  0.17214433  0.67594870  0.48948483  1
  O2-  O311  1  0.16287026  0.66708939  0.83576329  1
  O2-  O312  1  0.50407886  0.17575132  0.16807219  1
  O2-  O313  1  0.49746117  0.17449300  0.49784913  1
  O2-  O314  1  0.50552468  0.17427626  0.82652107  1
  O2-  O315  1  0.50244131  0.68739280  0.16956050  1
  O2-  O316  1  0.50247345  0.68260570  0.50385071  1
  O2-  O317  1  0.49541386  0.68361180  0.83496582  1
  O2-  O318  1  0.83197518  0.16787448  0.16386181  1
  O2-  O319  1  0.84552673  0.17333318  0.50233074  1
  O2-  O320  1  0.82552909  0.17489647  0.84244950  1
  O2-  O321  1  0.82085816  0.67295862  0.17716815  1
  O2-  O322  1  0.83127601  0.67092007  0.50804285  1
  O2-  O323  1  0.83506734  0.67488951  0.83095136  1
  O2-  O324  1  -0.00234881  0.33075090  0.16415724  1
  O2-  O325  1  0.00026342  0.31537015  0.50139024  1
  O2-  O326  1  0.00246639  0.32757848  0.83627508  1
  O2-  O327  1  0.00195776  0.82870409  0.16853356  1
  O2-  O328  1  0.00351724  0.83109331  0.50179286  1
  O2-  O329  1  -0.00106269  0.82299590  0.83306373  1
  O2-  O330  1  0.33536960  0.32595011  0.16759507  1
  O2-  O331  1  0.32795145  0.33026314  0.49753947  1
  O2-  O332  1  0.33208064  0.32155385  0.83107024  1
  O2-  O333  1  0.33300686  0.81850163  0.16662296  1
  O2-  O334  1  0.32837976  0.82499136  0.50116107  1
  O2-  O335  1  0.33092266  0.81599264  0.82672206  1
  O2-  O336  1  0.66807637  0.32898139  0.16881424  1
  O2-  O337  1  0.66887001  0.32067927  0.50483757  1
  O2-  O338  1  0.67092711  0.32710090  0.83583625  1
  O2-  O339  1  0.66388374  0.82206305  0.16286636  1
  O2-  O340  1  0.66249185  0.82570152  0.49904538  1
  O2-  O341  1  0.66637794  0.83073016  0.83307824  1
  O2-  O342  1  0.16315060  0.32986551  0.17303590  1
  O2-  O343  1  0.16938964  0.32238727  0.49327205  1
  O2-  O344  1  0.16092197  0.33427403  0.83769869  1
  O2-  O345  1  0.17156970  0.82774437  0.16167090  1
  O2-  O346  1  0.16874026  0.82642600  0.49910059  1
  O2-  O347  1  0.16377216  0.83064918  0.83264954  1
  O2-  O348  1  0.50341694  0.32741719  0.16462381  1
  O2-  O349  1  0.49728619  0.32012353  0.50498847  1
  O2-  O350  1  0.50029442  0.31997213  0.83365379  1
  O2-  O351  1  0.49766181  0.81506489  0.17168196  1
  O2-  O352  1  0.50243819  0.82217168  0.50268302  1
  O2-  O353  1  0.50305420  0.82094179  0.82778450  1
  O2-  O354  1  0.84014613  0.33371781  0.16150393  1
  O2-  O355  1  0.83476855  0.32266002  0.50219266  1
  O2-  O356  1  0.83336196  0.32222386  0.83464621  1
  O2-  O357  1  0.83732877  0.82766657  0.16188247  1
  O2-  O358  1  0.83067614  0.83319209  0.50226191  1
  O2-  O359  1  0.83334781  0.82382966  0.83460097  1
  O2-  O360  1  0.07405247  0.08172967  0.10469408  1
  O2-  O361  1  0.07828535  0.08307969  0.44128405  1
  O2-  O362  1  0.07861888  0.08518116  0.75860692  1
  O2-  O363  1  0.09422405  0.58114709  0.11192672  1
  O2-  O364  1  0.09955724  0.58373457  0.42043509  1
  O2-  O365  1  0.08320893  0.57270895  0.78152406  1
  O2-  O366  1  0.42061477  0.07847815  0.11002727  1
  O2-  O367  1  0.41618742  0.08371262  0.43899158  1
  O2-  O368  1  0.42760001  0.08283074  0.75930719  1
  O2-  O369  1  0.43532643  0.58356481  0.10665985  1
  O2-  O370  1  0.42160086  0.57967962  0.44337281  1
  O2-  O371  1  0.41007145  0.57672630  0.77949408  1
  O2-  O372  1  0.76071438  0.07748762  0.11383987  1
  O2-  O373  1  0.75810685  0.08032864  0.44116326  1
  O2-  O374  1  0.74910694  0.07821707  0.77195651  1
  O2-  O375  1  0.73286305  0.58280494  0.10245159  1
  O2-  O376  1  0.73741101  0.57926668  0.43991126  1
  O2-  O377  1  0.75493348  0.57758237  0.77950040  1
  O2-  O378  1  0.23054798  0.08585217  0.24216379  1
  O2-  O379  1  0.24362113  0.08348605  0.55808845  1
  O2-  O380  1  0.24389914  0.08377742  0.89723228  1
  O2-  O381  1  0.24980944  0.58261339  0.22102986  1
  O2-  O382  1  0.26226109  0.58121890  0.56131247  1
  O2-  O383  1  0.25421932  0.57668738  0.88553664  1
  O2-  O384  1  0.59371715  0.08401912  0.22688441  1
  O2-  O385  1  0.58685902  0.07684259  0.56436965  1
  O2-  O386  1  0.59467486  0.08034168  0.89165878  1
  O2-  O387  1  0.59780956  0.57838760  0.22251638  1
  O2-  O388  1  0.57897493  0.58297680  0.55389780  1
  O2-  O389  1  0.57184265  0.58296924  0.89346906  1
  O2-  O390  1  0.90985243  0.08043207  0.21904559  1
  O2-  O391  1  0.92670727  0.07842995  0.55688225  1
  O2-  O392  1  0.90991602  0.08282054  0.90421771  1
  O2-  O393  1  0.91499831  0.58305325  0.23309998  1
  O2-  O394  1  0.91216408  0.58168074  0.58121968  1
  O2-  O395  1  0.92408734  0.58036501  0.89206479  1
  O2-  O396  1  0.06792632  0.42092987  0.09783609  1
  O2-  O397  1  0.09346305  0.41818544  0.43954206  1
  O2-  O398  1  0.07203633  0.42078159  0.77583501  1
  O2-  O399  1  0.08832711  0.91384882  0.09689417  1
  O2-  O400  1  0.09713033  0.92019784  0.44230512  1
  O2-  O401  1  0.08123520  0.91889866  0.77017432  1
  O2-  O402  1  0.42310220  0.41789934  0.09132003  1
  O2-  O403  1  0.39796437  0.41951499  0.44227508  1
  O2-  O404  1  0.42171079  0.41646981  0.75298052  1
  O2-  O405  1  0.40050403  0.92226275  0.11470558  1
  O2-  O406  1  0.41985427  0.91657050  0.44510389  1
  O2-  O407  1  0.41426233  0.91895250  0.75334767  1
  O2-  O408  1  0.75955513  0.41526946  0.09517242  1
  O2-  O409  1  0.76270042  0.41711584  0.43675809  1
  O2-  O410  1  0.76238913  0.41671851  0.76626792  1
  O2-  O411  1  0.74779753  0.91594117  0.08962201  1
  O2-  O412  1  0.73247615  0.92072238  0.44092290  1
  O2-  O413  1  0.74973599  0.92380830  0.77130408  1
  O2-  O414  1  0.24215903  0.41400584  0.24893772  1
  O2-  O415  1  0.24323736  0.41482948  0.56006205  1
  O2-  O416  1  0.23643159  0.42202799  0.90168020  1
  O2-  O417  1  0.25995500  0.91897397  0.22441324  1
  O2-  O418  1  0.25226204  0.92255597  0.55276945  1
  O2-  O419  1  0.25259616  0.91582417  0.89667227  1
  O2-  O420  1  0.59126159  0.41931453  0.23149292  1
  O2-  O421  1  0.58291333  0.41513586  0.57052791  1
  O2-  O422  1  0.59395376  0.41424981  0.90528138  1
  O2-  O423  1  0.57051451  0.91645699  0.22468861  1
  O2-  O424  1  0.56389990  0.92234554  0.55370799  1
  O2-  O425  1  0.58671478  0.91972590  0.89654224  1
  O2-  O426  1  0.92260087  0.41757407  0.23141413  1
  O2-  O427  1  0.91992731  0.41686072  0.56372759  1
  O2-  O428  1  0.91711065  0.41854222  0.90076685  1
  O2-  O429  1  0.92609888  0.91936315  0.23203559  1
  O2-  O430  1  0.92502816  0.91835972  0.55772696  1
  O2-  O431  1  0.91840539  0.92060747  0.89419945  1
  O2-  O432  1  -0.00429242  0.00523697  0.00411625  1
  O2-  O433  1  0.00601591  0.01882688  0.32407512  1
  O2-  O434  1  0.00497032  -0.00837319  0.65871393  1
  O2-  O435  1  0.00739151  0.49565963  -0.02075527  1
  O2-  O436  1  0.01595611  0.50269173  0.31702657  1
  O2-  O437  1  -0.00780623  0.49594598  0.67777411  1
  O2-  O438  1  0.32484726  -0.00881233  0.01209537  1
  O2-  O439  1  0.32641103  -0.00865276  0.34750256  1
  O2-  O440  1  0.33899942  -0.00941213  0.65510916  1
  O2-  O441  1  0.33593918  0.52018761  0.00121404  1
  O2-  O442  1  0.32265391  0.50554993  0.35372610  1
  O2-  O443  1  0.33402651  0.51077786  0.67066289  1
  O2-  O444  1  0.67739865  0.00509855  -0.01706247  1
  O2-  O445  1  0.66667648  0.00609117  0.33339789  1
  O2-  O446  1  0.66284100  -0.00088894  0.67398042  1
  O2-  O447  1  0.66947698  0.50743569  -0.00836309  1
  O2-  O448  1  0.65989164  0.51129479  0.32307541  1
  O2-  O449  1  0.67670915  0.50355344  0.65601660  1
  O2-  O450  1  0.16440001  -0.00252182  -0.00694062  1
  O2-  O451  1  0.17066777  -0.00461187  0.33290881  1
  O2-  O452  1  0.16644171  -0.00471819  0.66536488  1
  O2-  O453  1  0.15593478  0.50950721  -0.02669963  1
  O2-  O454  1  0.17163964  0.50320260  0.32517017  1
  O2-  O455  1  0.16603059  0.50388893  0.67125749  1
  O2-  O456  1  0.51435757  -0.00223272  0.02582471  1
  O2-  O457  1  0.50472853  -0.01077875  0.34185953  1
  O2-  O458  1  0.49493623  -0.00563577  0.66471351  1
  O2-  O459  1  0.51124146  0.51098526  0.00985881  1
  O2-  O460  1  0.51637049  0.50796950  0.33571480  1
  O2-  O461  1  0.49150514  0.50835909  0.65733402  1
  O2-  O462  1  0.83863745  0.00805799  0.00927379  1
  O2-  O463  1  0.83875306  0.01299426  0.34603073  1
  O2-  O464  1  0.83020683  -0.00849114  0.66324556  1
  O2-  O465  1  0.83419836  0.50096190  -0.00118989  1
  O2-  O466  1  0.81268306  0.50218501  0.31963897  1
  O2-  O467  1  0.83622832  0.50144962  0.67262082  1
  O2-  O468  1  0.08956467  0.74787819  0.06934251  1
  O2-  O469  1  0.08531378  0.75187554  0.74166356  1
  O2-  O470  1  0.74887977  0.25260421  0.40712313  1
  O2-  O471  1  0.08072158  0.75068130  0.40407756  1
  O2-  O472  1  0.59005663  0.24882050  0.92291149  1
  O2-  O473  1  0.24177866  0.25251009  0.92322621  1
  O2-  O474  1  0.75357052  0.74735199  0.41278720  1
  O2-  O475  1  0.41033650  0.25154415  0.40950460  1
  O2-  O476  1  0.08939554  0.25366758  0.74614030  1
  O2-  O477  1  0.91606923  0.75457222  0.25761580  1
  O2-  O478  1  0.91354200  0.75062208  0.59256244  1
  O2-  O479  1  0.75629655  0.25045782  0.07697781  1
  O2-  O480  1  0.58938771  0.25070959  0.25724575  1
  O2-  O481  1  0.74780194  0.74980752  0.74010834  1
  O2-  O482  1  0.74845203  0.75209937  0.07725995  1
  O2-  O483  1  0.41523879  0.25409451  0.08359285  1
  O2-  O484  1  0.91244288  0.24875793  0.25150343  1
  O2-  O485  1  0.41533462  0.74828280  0.40731200  1
  O2-  O486  1  0.25419736  0.24897665  0.59151473  1
  O2-  O487  1  0.59180610  0.74957601  0.92501365  1
  O2-  O488  1  0.75026225  0.24950935  0.75033898  1
  O2-  O489  1  0.41097173  0.25007371  0.74161732  1
  O2-  O490  1  0.24086987  0.74969343  0.93076748  1
  O2-  O491  1  0.08118433  0.25452153  0.07999964  1
  O2-  O492  1  0.25310099  0.25093896  0.25300174  1
