# generated using pymatgen
data_Ca108Mn108O277
_symmetry_space_group_name_H-M   'P 1'
_cell_length_a   16.03324420
_cell_length_b   22.31384117
_cell_length_c   16.39282616
_cell_angle_alpha   90.00084468
_cell_angle_beta   89.99989690
_cell_angle_gamma   89.99905150
_symmetry_Int_Tables_number   1
_chemical_formula_structural   Ca108Mn108O277
_chemical_formula_sum   'Ca108 Mn108 O277'
_cell_volume   5864.75099971
_cell_formula_units_Z   1
loop_
 _symmetry_equiv_pos_site_id
 _symmetry_equiv_pos_as_xyz
  1  'x, y, z'
loop_
 _atom_type_symbol
 _atom_type_oxidation_number
  Ca2+  2.0
  Mn3.34+  3.34
  O2-  -2.0
loop_
 _atom_site_type_symbol
 _atom_site_label
 _atom_site_symmetry_multiplicity
 _atom_site_fract_x
 _atom_site_fract_y
 _atom_site_fract_z
 _atom_site_occupancy
  Ca2+  Ca0  1  0.05127524  0.24584927  0.25738396  1
  Ca2+  Ca1  1  0.05884363  0.25578579  0.57578763  1
  Ca2+  Ca2  1  0.05486581  0.25259560  0.91893453  1
  Ca2+  Ca3  1  0.08285641  0.74521593  0.24822385  1
  Ca2+  Ca4  1  0.10652655  0.74725533  0.59157257  1
  Ca2+  Ca5  1  0.10334995  0.73904534  0.92275036  1
  Ca2+  Ca6  1  0.42654691  0.25946215  0.25995545  1
  Ca2+  Ca7  1  0.43139219  0.26024118  0.57338912  1
  Ca2+  Ca8  1  0.44297883  0.24984091  0.91008607  1
  Ca2+  Ca9  1  0.42524640  0.74521986  0.24106401  1
  Ca2+  Ca10  1  0.41830045  0.74901123  0.59532800  1
  Ca2+  Ca11  1  0.39629148  0.73959662  0.91521214  1
  Ca2+  Ca12  1  0.76626860  0.25005818  0.26678985  1
  Ca2+  Ca13  1  0.75914110  0.25335741  0.56334437  1
  Ca2+  Ca14  1  0.75223203  0.25169131  0.91314015  1
  Ca2+  Ca15  1  0.73888802  0.76015947  0.24996926  1
  Ca2+  Ca16  1  0.73927318  0.75555537  0.58596926  1
  Ca2+  Ca17  1  0.75048200  0.75961050  0.91071299  1
  Ca2+  Ca18  1  0.24329271  0.27052191  0.07809701  1
  Ca2+  Ca19  1  0.24496831  0.25819732  0.41784679  1
  Ca2+  Ca20  1  0.24409287  0.26522754  0.75800382  1
  Ca2+  Ca21  1  0.26808575  0.74375684  0.07160050  1
  Ca2+  Ca22  1  0.26014350  0.72519595  0.43560460  1
  Ca2+  Ca23  1  0.26440972  0.73254425  0.75229161  1
  Ca2+  Ca24  1  0.59189938  0.26730604  0.07109654  1
  Ca2+  Ca25  1  0.60235392  0.24447679  0.42238972  1
  Ca2+  Ca26  1  0.58978417  0.26164095  0.75744946  1
  Ca2+  Ca27  1  0.56343116  0.75125478  0.09145781  1
  Ca2+  Ca28  1  0.58600431  0.74628713  0.41119565  1
  Ca2+  Ca29  1  0.56314579  0.74677362  0.74862921  1
  Ca2+  Ca30  1  0.91811295  0.25882166  0.08298011  1
  Ca2+  Ca31  1  0.90227105  0.22379072  0.41516050  1
  Ca2+  Ca32  1  0.91493511  0.25592825  0.75179551  1
  Ca2+  Ca33  1  0.92406544  0.75616038  0.08153796  1
  Ca2+  Ca34  1  0.91462582  0.75371426  0.41325042  1
  Ca2+  Ca35  1  0.91910584  0.75552669  0.76270672  1
  Ca2+  Ca36  1  0.55212437  0.59959294  0.10147087  1
  Ca2+  Ca37  1  0.53437805  0.59437030  0.73783126  1
  Ca2+  Ca38  1  0.56839298  0.10633325  0.77373500  1
  Ca2+  Ca39  1  0.93210615  0.57024726  0.39126187  1
  Ca2+  Ca40  1  0.91012507  0.07828500  0.73293506  1
  Ca2+  Ca41  1  0.93843855  0.10710225  0.08110365  1
  Ca2+  Ca42  1  0.78526046  0.09721462  0.27498014  1
  Ca2+  Ca43  1  0.26560237  0.07697616  0.06391482  1
  Ca2+  Ca44  1  0.37585964  0.59742340  0.89363391  1
  Ca2+  Ca45  1  0.77553909  0.57433547  0.92626253  1
  Ca2+  Ca46  1  0.77881581  0.10437579  0.55793620  1
  Ca2+  Ca47  1  0.25026202  0.07772834  0.73789762  1
  Ca2+  Ca48  1  0.92967983  0.59727089  0.76143593  1
  Ca2+  Ca49  1  0.92902437  0.10462495  0.07652290  1
  Ca2+  Ca50  1  0.75690027  0.09003186  0.91683261  1
  Ca2+  Ca51  1  0.42527156  0.07854107  0.26454454  1
  Ca2+  Ca52  1  0.43123096  0.07816425  0.57768528  1
  Ca2+  Ca53  1  0.76382990  0.57755690  0.92922499  1
  Ca2+  Ca54  1  0.59226160  0.09680841  0.41551058  1
  Ca2+  Ca55  1  0.00814520  0.08719994  0.55913580  1
  Ca2+  Ca56  1  0.56982710  0.08393763  0.05505993  1
  Ca2+  Ca57  1  0.23268839  0.60958568  0.05657264  1
  Ca2+  Ca58  1  0.26381862  0.07756192  0.73714494  1
  Ca2+  Ca59  1  0.38833082  0.59969529  0.59492961  1
  Ca2+  Ca60  1  0.04004647  0.09537062  0.26503771  1
  Ca2+  Ca61  1  0.57878044  0.08586635  0.05017448  1
  Ca2+  Ca62  1  0.76929453  0.10727068  0.55621404  1
  Ca2+  Ca63  1  0.77492714  0.09516271  0.27796127  1
  Ca2+  Ca64  1  0.55513456  0.60082688  0.41470530  1
  Ca2+  Ca65  1  0.41082981  0.61288003  0.25703382  1
  Ca2+  Ca66  1  0.94074337  0.59559524  0.76513886  1
  Ca2+  Ca67  1  0.73008446  0.59596947  0.57924408  1
  Ca2+  Ca68  1  0.44192984  0.07884409  0.57843459  1
  Ca2+  Ca69  1  0.09546287  0.60400098  0.23377704  1
  Ca2+  Ca70  1  0.92073506  0.57013786  0.39087745  1
  Ca2+  Ca71  1  0.15895232  0.59330161  0.58740450  1
  Ca2+  Ca72  1  0.41898620  0.40882753  0.25820525  1
  Ca2+  Ca73  1  0.76506860  0.41542873  0.92254399  1
  Ca2+  Ca74  1  0.24657651  0.90050948  0.74845042  1
  Ca2+  Ca75  1  0.41085190  0.90759092  0.91744659  1
  Ca2+  Ca76  1  0.74709513  0.91481070  0.59826535  1
  Ca2+  Ca77  1  0.91062753  0.90826242  0.73997285  1
  Ca2+  Ca78  1  0.91404543  0.42022969  0.07986298  1
  Ca2+  Ca79  1  0.93169387  0.91402701  0.42159991  1
  Ca2+  Ca80  1  0.25161429  0.40801740  0.43486430  1
  Ca2+  Ca81  1  0.75036431  0.41258219  0.25309352  1
  Ca2+  Ca82  1  0.08007024  0.90281816  0.24909479  1
  Ca2+  Ca83  1  0.08414756  0.91259898  0.59504511  1
  Ca2+  Ca84  1  0.74456340  0.40252251  0.57852897  1
  Ca2+  Ca85  1  0.40656929  0.40041559  0.90566435  1
  Ca2+  Ca86  1  0.54986621  0.41339624  0.74144510  1
  Ca2+  Ca87  1  0.27563492  0.43993383  0.71330612  1
  Ca2+  Ca88  1  0.42398901  0.90390281  0.25291790  1
  Ca2+  Ca89  1  0.24969521  0.90656089  0.42235258  1
  Ca2+  Ca90  1  0.09237579  0.90509040  0.25012133  1
  Ca2+  Ca91  1  0.57111922  0.40826681  0.41673991  1
  Ca2+  Ca92  1  0.25138502  0.91145020  0.06916774  1
  Ca2+  Ca93  1  0.91942747  0.91258762  0.41941969  1
  Ca2+  Ca94  1  0.58241274  0.40858178  0.41629457  1
  Ca2+  Ca95  1  0.41153697  0.90537444  0.25455165  1
  Ca2+  Ca96  1  0.56846331  0.90292642  0.42028172  1
  Ca2+  Ca97  1  0.40025691  0.90624642  0.91434663  1
  Ca2+  Ca98  1  0.58964129  0.90411005  0.73814977  1
  Ca2+  Ca99  1  0.06921636  0.42118675  0.26298354  1
  Ca2+  Ca100  1  0.91774495  0.40286115  0.41270232  1
  Ca2+  Ca101  1  0.76157856  0.90499820  0.91929859  1
  Ca2+  Ca102  1  0.59566927  0.90684138  0.08339545  1
  Ca2+  Ca103  1  0.06028432  0.41827696  0.25926841  1
  Ca2+  Ca104  1  0.92889274  0.40602665  0.75830742  1
  Ca2+  Ca105  1  0.26179962  0.90548681  0.42541850  1
  Ca2+  Ca106  1  0.75538628  0.41160865  0.92411740  1
  Ca2+  Ca107  1  0.07696262  0.40705346  0.91733608  1
  Mn3.34+  Mn108  1  0.08428546  0.34332985  0.08742848  1
  Mn3.34+  Mn109  1  0.08513947  0.33371579  0.42261467  1
  Mn3.34+  Mn110  1  0.08781000  0.34005644  0.74546840  1
  Mn3.34+  Mn111  1  0.08586990  0.82618801  0.08092316  1
  Mn3.34+  Mn112  1  0.08504709  0.82735874  0.42454388  1
  Mn3.34+  Mn113  1  0.08105603  0.82733751  0.75286934  1
  Mn3.34+  Mn114  1  0.41603612  0.33568618  0.08553396  1
  Mn3.34+  Mn115  1  0.41322176  0.33329622  0.42004125  1
  Mn3.34+  Mn116  1  0.41056803  0.33464058  0.74782675  1
  Mn3.34+  Mn117  1  0.41716802  0.83145063  0.08370712  1
  Mn3.34+  Mn118  1  0.41593564  0.82266431  0.42372965  1
  Mn3.34+  Mn119  1  0.41670946  0.82630803  0.74977386  1
  Mn3.34+  Mn120  1  0.74903860  0.33817580  0.08893952  1
  Mn3.34+  Mn121  1  0.75121131  0.33545380  0.41592228  1
  Mn3.34+  Mn122  1  0.74963060  0.33734439  0.74743899  1
  Mn3.34+  Mn123  1  0.75333283  0.83311157  0.08138623  1
  Mn3.34+  Mn124  1  0.74942779  0.82959623  0.41914801  1
  Mn3.34+  Mn125  1  0.75052069  0.83092534  0.75157817  1
  Mn3.34+  Mn126  1  0.24894758  0.33352143  0.24788363  1
  Mn3.34+  Mn127  1  0.25205073  0.33703754  0.58523773  1
  Mn3.34+  Mn128  1  0.24667375  0.33680375  0.91431393  1
  Mn3.34+  Mn129  1  0.25017651  0.82525312  0.24733649  1
  Mn3.34+  Mn130  1  0.25292319  0.83906788  0.58549450  1
  Mn3.34+  Mn131  1  0.24193540  0.83420360  0.91260252  1
  Mn3.34+  Mn132  1  0.58565450  0.33273893  0.24388416  1
  Mn3.34+  Mn133  1  0.58209195  0.33331725  0.58690904  1
  Mn3.34+  Mn134  1  0.58358186  0.33629849  0.91607058  1
  Mn3.34+  Mn135  1  0.59073039  0.83567522  0.24929273  1
  Mn3.34+  Mn136  1  0.58165480  0.84075922  0.57806841  1
  Mn3.34+  Mn137  1  0.58295310  0.83441568  0.91512681  1
  Mn3.34+  Mn138  1  0.91368018  0.33530931  0.24675116  1
  Mn3.34+  Mn139  1  0.91787080  0.33376009  0.58389102  1
  Mn3.34+  Mn140  1  0.91502104  0.33456478  0.91698518  1
  Mn3.34+  Mn141  1  0.91171791  0.83167439  0.24327979  1
  Mn3.34+  Mn142  1  0.91511444  0.83560917  0.58213238  1
  Mn3.34+  Mn143  1  0.93056805  0.84199885  0.92157027  1
  Mn3.34+  Mn144  1  0.73985973  0.16831339  0.74930002  1
  Mn3.34+  Mn145  1  0.75471846  0.66254421  0.08874598  1
  Mn3.34+  Mn146  1  0.41414590  0.17664805  0.74794076  1
  Mn3.34+  Mn147  1  0.74736006  0.66652451  0.41572671  1
  Mn3.34+  Mn148  1  0.58275898  0.66779587  0.25531331  1
  Mn3.34+  Mn149  1  0.41785926  0.16838209  0.41452643  1
  Mn3.34+  Mn150  1  0.41699232  0.17939628  0.08341401  1
  Mn3.34+  Mn151  1  0.07841698  0.16872237  0.41936763  1
  Mn3.34+  Mn152  1  0.07144626  0.16262464  0.74995350  1
  Mn3.34+  Mn153  1  0.23953937  0.16132931  0.24954820  1
  Mn3.34+  Mn154  1  0.57852952  0.66624677  0.57714865  1
  Mn3.34+  Mn155  1  0.09876807  0.66819173  0.75523377  1
  Mn3.34+  Mn156  1  0.24329982  0.16576842  0.91433901  1
  Mn3.34+  Mn157  1  0.24372733  0.16258558  0.57461342  1
  Mn3.34+  Mn158  1  0.91152760  0.65977081  0.24444770  1
  Mn3.34+  Mn159  1  0.92106104  0.66551810  0.24645768  1
  Mn3.34+  Mn160  1  0.74838085  0.66964219  0.75157010  1
  Mn3.34+  Mn161  1  0.25682969  0.16018687  0.91199235  1
  Mn3.34+  Mn162  1  0.08117325  0.16785625  0.74713778  1
  Mn3.34+  Mn163  1  0.92475461  0.66697503  0.57775504  1
  Mn3.34+  Mn164  1  0.74158514  0.66840250  0.08645628  1
  Mn3.34+  Mn165  1  0.92822949  0.66111567  0.92490541  1
  Mn3.34+  Mn166  1  0.75221754  0.17126699  0.08491237  1
  Mn3.34+  Mn167  1  0.25230106  0.16774458  0.25339340  1
  Mn3.34+  Mn168  1  0.75334434  0.16192288  0.75233695  1
  Mn3.34+  Mn169  1  0.25108736  0.16957964  0.57699409  1
  Mn3.34+  Mn170  1  0.58461734  0.16618192  0.58133006  1
  Mn3.34+  Mn171  1  0.09040747  0.66691913  0.42087612  1
  Mn3.34+  Mn172  1  0.41684765  0.17432015  0.09321788  1
  Mn3.34+  Mn173  1  0.58390077  0.66659923  0.91788316  1
  Mn3.34+  Mn174  1  0.91500561  0.67226681  0.58056312  1
  Mn3.34+  Mn175  1  0.25322387  0.67228163  0.24769933  1
  Mn3.34+  Mn176  1  0.58163428  0.16908221  0.24791691  1
  Mn3.34+  Mn177  1  0.74274717  0.16569040  0.08717894  1
  Mn3.34+  Mn178  1  0.09221736  0.17195799  0.08554755  1
  Mn3.34+  Mn179  1  0.57444184  0.65682981  0.91441077  1
  Mn3.34+  Mn180  1  0.56992663  0.50040442  0.91494259  1
  Mn3.34+  Mn181  1  0.41348358  -0.00156007  0.08320853  1
  Mn3.34+  Mn182  1  0.91220507  0.00106152  0.91921439  1
  Mn3.34+  Mn183  1  0.74457030  0.50172820  0.73771428  1
  Mn3.34+  Mn184  1  0.43260184  0.00229125  0.75822789  1
  Mn3.34+  Mn185  1  0.58791196  0.00284939  0.24347138  1
  Mn3.34+  Mn186  1  0.74271453  -0.00894413  0.42042106  1
  Mn3.34+  Mn187  1  0.09678609  0.50259967  0.74506672  1
  Mn3.34+  Mn188  1  0.09081109  0.00349716  0.41541847  1
  Mn3.34+  Mn189  1  0.07132809  0.00034144  0.76973748  1
  Mn3.34+  Mn190  1  0.93742943  0.50311220  0.58766684  1
  Mn3.34+  Mn191  1  0.41422112  -0.00059203  0.41218519  1
  Mn3.34+  Mn192  1  0.08651425  0.00029233  0.06802986  1
  Mn3.34+  Mn193  1  0.75902545  -0.00221673  0.08851269  1
  Mn3.34+  Mn194  1  0.24409844  0.49659716  0.91692145  1
  Mn3.34+  Mn195  1  0.24831780  0.50360995  0.23657263  1
  Mn3.34+  Mn196  1  0.73225125  0.50603899  0.73737433  1
  Mn3.34+  Mn197  1  0.41824444  0.49509711  0.07454327  1
  Mn3.34+  Mn198  1  0.92344456  0.49713022  0.58614206  1
  Mn3.34+  Mn199  1  0.74505846  -0.00229162  0.74489065  1
  Mn3.34+  Mn200  1  0.09978707  0.50130125  0.42519047  1
  Mn3.34+  Mn201  1  0.73907471  0.49841108  0.08251718  1
  Mn3.34+  Mn202  1  0.08062659  0.50009456  0.06130029  1
  Mn3.34+  Mn203  1  0.25852993  0.49891089  0.23939153  1
  Mn3.34+  Mn204  1  0.08124494  -0.00524739  0.77083605  1
  Mn3.34+  Mn205  1  0.07821978  -0.00626302  0.06415300  1
  Mn3.34+  Mn206  1  0.24114210  0.00104939  0.24883355  1
  Mn3.34+  Mn207  1  0.57786224  0.49959062  0.25460109  1
  Mn3.34+  Mn208  1  0.91435564  -0.00952594  0.24011176  1
  Mn3.34+  Mn209  1  0.42263494  -0.00280764  0.75598810  1
  Mn3.34+  Mn210  1  0.56261525  0.50228579  0.58422526  1
  Mn3.34+  Mn211  1  0.74580197  0.50268452  0.41292106  1
  Mn3.34+  Mn212  1  0.40764947  0.50054342  0.07343857  1
  Mn3.34+  Mn213  1  0.40621267  0.50042850  0.42311935  1
  Mn3.34+  Mn214  1  0.75282223  -0.00339872  0.42178978  1
  Mn3.34+  Mn215  1  0.58828569  -0.00328030  0.91894734  1
  O2-  O216  1  0.00852952  0.17525964  0.00816402  1
  O2-  O217  1  -0.00082774  0.16494027  0.34254952  1
  O2-  O218  1  -0.00583384  0.14828633  0.66901016  1
  O2-  O219  1  -0.00551418  0.69548177  -0.00331025  1
  O2-  O220  1  0.00194717  0.65178228  0.33694816  1
  O2-  O221  1  0.00118137  0.65264781  0.66384444  1
  O2-  O222  1  0.33897414  0.15994143  0.00142255  1
  O2-  O223  1  0.33407417  0.14549404  0.32712523  1
  O2-  O224  1  0.31642646  0.17472978  0.67946620  1
  O2-  O225  1  0.33146581  0.66277468  -0.00652486  1
  O2-  O226  1  0.33071981  0.69708607  0.32504311  1
  O2-  O227  1  0.31818187  0.68239664  0.64211335  1
  O2-  O228  1  0.67028281  0.14777111  0.00250447  1
  O2-  O229  1  0.66446175  0.14688226  0.31564176  1
  O2-  O230  1  0.66334253  0.13960029  0.66961753  1
  O2-  O231  1  0.66445536  0.63678590  -0.00503409  1
  O2-  O232  1  0.66077602  0.65356720  0.34364068  1
  O2-  O233  1  0.66449571  0.65991781  0.66748386  1
  O2-  O234  1  0.17697861  0.14884836  0.00793711  1
  O2-  O235  1  0.15913379  0.14671978  0.32777130  1
  O2-  O236  1  0.16057734  0.14251282  0.66524137  1
  O2-  O237  1  0.16364111  0.68774193  0.02148307  1
  O2-  O238  1  0.16762732  0.66144383  0.33409620  1
  O2-  O239  1  0.16818139  0.67169160  0.67126601  1
  O2-  O240  1  0.50683279  0.17125305  0.01141117  1
  O2-  O241  1  0.50255840  0.14839077  0.33033444  1
  O2-  O242  1  0.48544576  0.15441232  0.65643358  1
  O2-  O243  1  0.49596584  0.64976346  -0.00504245  1
  O2-  O244  1  0.49958478  0.67077488  0.33104748  1
  O2-  O245  1  0.50260640  0.67234433  0.65681814  1
  O2-  O246  1  0.83148913  0.14870504  0.00433499  1
  O2-  O247  1  0.83001358  0.16984061  0.32719161  1
  O2-  O248  1  0.83123203  0.14814712  0.67317840  1
  O2-  O249  1  0.82764464  0.65620486  -0.00550152  1
  O2-  O250  1  0.84183491  0.64939570  0.33707209  1
  O2-  O251  1  0.84135300  0.64401522  0.66516526  1
  O2-  O252  1  -0.00287240  0.34592322  0.00381648  1
  O2-  O253  1  0.00290094  0.34746088  0.32994570  1
  O2-  O254  1  -0.00040540  0.34700608  0.66773545  1
  O2-  O255  1  0.00679412  0.81491935  -0.00046455  1
  O2-  O256  1  0.00443969  0.84891726  0.33964748  1
  O2-  O257  1  -0.00523014  0.83816548  0.66577255  1
  O2-  O258  1  0.33467562  0.33119178  -0.00076958  1
  O2-  O259  1  0.33107875  0.34978517  0.33658743  1
  O2-  O260  1  0.33438794  0.30824226  0.66485319  1
  O2-  O261  1  0.33415492  0.84747858  0.00122002  1
  O2-  O262  1  0.33195481  0.83922035  0.33385568  1
  O2-  O263  1  0.32833702  0.83336260  0.67294482  1
  O2-  O264  1  0.66864548  0.35607460  0.00002805  1
  O2-  O265  1  0.66375912  0.35196638  0.33487551  1
  O2-  O266  1  0.65987567  0.35792773  0.67320324  1
  O2-  O267  1  0.67040289  0.84912126  -0.00919396  1
  O2-  O268  1  0.66454468  0.85076715  0.34158221  1
  O2-  O269  1  0.66851467  0.83894723  0.66106894  1
  O2-  O270  1  0.15803159  0.33517682  -0.00068891  1
  O2-  O271  1  0.16722692  0.35551356  0.33113590  1
  O2-  O272  1  0.17811189  0.33360142  0.67009846  1
  O2-  O273  1  0.17254710  0.83871121  0.00628073  1
  O2-  O274  1  0.16867328  0.84718593  0.33780249  1
  O2-  O275  1  0.16107207  0.83798246  0.66138859  1
  O2-  O276  1  0.49417700  0.33349789  -0.00500501  1
  O2-  O277  1  0.49908041  0.34690101  0.33084998  1
  O2-  O278  1  0.49641073  0.33059025  0.66834570  1
  O2-  O279  1  0.49909325  0.85812859  0.00312256  1
  O2-  O280  1  0.49343605  0.83863833  0.33395908  1
  O2-  O281  1  0.50713186  0.82935227  0.66987045  1
  O2-  O282  1  0.83250537  0.35158930  0.00362846  1
  O2-  O283  1  0.82913004  0.35157948  0.32890250  1
  O2-  O284  1  0.83402132  0.35601112  0.66754513  1
  O2-  O285  1  0.83728654  0.83019463  -0.00516648  1
  O2-  O286  1  0.84317237  0.84890478  0.34459563  1
  O2-  O287  1  0.83228209  0.84125287  0.66555281  1
  O2-  O288  1  0.00304236  0.17690447  0.15941253  1
  O2-  O289  1  0.00661993  0.18039535  0.50052847  1
  O2-  O290  1  -0.00444153  0.18345533  0.82792383  1
  O2-  O291  1  0.00168487  0.67816112  0.16923954  1
  O2-  O292  1  -0.00036212  0.69357896  0.49900502  1
  O2-  O293  1  -0.00273151  0.67426594  0.83106736  1
  O2-  O294  1  0.32669109  0.18627589  0.16443984  1
  O2-  O295  1  0.33787458  0.18947657  0.50327734  1
  O2-  O296  1  0.33557645  0.18981808  0.83469122  1
  O2-  O297  1  0.33025022  0.68545558  0.17273797  1
  O2-  O298  1  0.33988338  0.68278464  0.52583147  1
  O2-  O299  1  0.33574452  0.67504034  0.83077784  1
  O2-  O300  1  0.65957946  0.18876807  0.16029486  1
  O2-  O301  1  0.66916435  0.17185610  0.50911794  1
  O2-  O302  1  0.66498257  0.17745416  0.83017655  1
  O2-  O303  1  0.66249153  0.67793515  0.16662713  1
  O2-  O304  1  0.67221308  0.68136055  0.50586816  1
  O2-  O305  1  0.66726819  0.68574087  0.84291451  1
  O2-  O306  1  0.16836714  0.19132622  0.16887745  1
  O2-  O307  1  0.16561804  0.19085634  0.49917588  1
  O2-  O308  1  0.17246962  0.17918481  0.81685678  1
  O2-  O309  1  0.17004101  0.68771142  0.17681703  1
  O2-  O310  1  0.16099242  0.67754981  0.50437384  1
  O2-  O311  1  0.16822489  0.67977763  0.83133371  1
  O2-  O312  1  0.49328564  0.19154820  0.17562127  1
  O2-  O313  1  0.50508218  0.18245717  0.49937240  1
  O2-  O314  1  0.50213299  0.19215843  0.81136377  1
  O2-  O315  1  0.50532245  0.67848218  0.17331351  1
  O2-  O316  1  0.51025278  0.68973903  0.49892452  1
  O2-  O317  1  0.49998982  0.67346190  0.83280088  1
  O2-  O318  1  0.83645937  0.17700647  0.16054443  1
  O2-  O319  1  0.83232624  0.18158154  0.51320609  1
  O2-  O320  1  0.82543462  0.18152969  0.83248412  1
  O2-  O321  1  0.82979826  0.69102459  0.17213433  1
  O2-  O322  1  0.83126601  0.68710152  0.50394503  1
  O2-  O323  1  0.83987608  0.67893980  0.83113028  1
  O2-  O324  1  0.00045273  0.32115061  0.16583695  1
  O2-  O325  1  -0.00785996  0.32078736  0.49148985  1
  O2-  O326  1  -0.00352923  0.32662836  0.83433187  1
  O2-  O327  1  0.00680849  0.81362490  0.17034246  1
  O2-  O328  1  -0.00413605  0.81741168  0.49894233  1
  O2-  O329  1  -0.00106928  0.81794317  0.83471039  1
  O2-  O330  1  0.33780796  0.30976937  0.16957853  1
  O2-  O331  1  0.33002179  0.31772688  0.50007323  1
  O2-  O332  1  0.33995561  0.31531602  0.83550070  1
  O2-  O333  1  0.33883581  0.81829079  0.17185138  1
  O2-  O334  1  0.32805455  0.81311053  0.49842973  1
  O2-  O335  1  0.34054123  0.82850028  0.84012068  1
  O2-  O336  1  0.67476205  0.31803977  0.17306229  1
  O2-  O337  1  0.66543418  0.32892676  0.49975102  1
  O2-  O338  1  0.67465674  0.33058579  0.83886205  1
  O2-  O339  1  0.66081423  0.82307819  0.15470557  1
  O2-  O340  1  0.66412752  0.81320434  0.49979336  1
  O2-  O341  1  0.66420201  0.82275284  0.82800927  1
  O2-  O342  1  0.16018812  0.31807842  0.17105727  1
  O2-  O343  1  0.16977530  0.31894516  0.50453521  1
  O2-  O344  1  0.15827647  0.32290794  0.83777619  1
  O2-  O345  1  0.16111511  0.81483740  0.17497027  1
  O2-  O346  1  0.17203233  0.81463781  0.49831865  1
  O2-  O347  1  0.17288808  0.82162566  0.82220427  1
  O2-  O348  1  0.50228390  0.31393416  0.16437634  1
  O2-  O349  1  0.50997461  0.32166592  0.48933953  1
  O2-  O350  1  0.50076311  0.32279964  0.82843352  1
  O2-  O351  1  0.49619887  0.82382219  0.17003928  1
  O2-  O352  1  0.50464535  0.81531290  0.49738895  1
  O2-  O353  1  0.49578458  0.82066347  0.84128944  1
  O2-  O354  1  0.83462618  0.32072377  0.16301250  1
  O2-  O355  1  0.82913958  0.33114931  0.50113292  1
  O2-  O356  1  0.83121576  0.32096008  0.83334054  1
  O2-  O357  1  0.82702523  0.81335574  0.16476443  1
  O2-  O358  1  0.83411561  0.81044733  0.50464695  1
  O2-  O359  1  0.83349001  0.82097522  0.83368596  1
  O2-  O360  1  0.07470687  0.07607184  0.12335374  1
  O2-  O361  1  0.08463311  0.08458847  0.44401828  1
  O2-  O362  1  0.09279896  0.08170835  0.79585024  1
  O2-  O363  1  0.11117040  0.56362927  0.11292293  1
  O2-  O364  1  0.06554699  0.58201559  0.45179339  1
  O2-  O365  1  0.07707884  0.58308216  0.77078629  1
  O2-  O366  1  0.41842670  0.08244096  0.10973036  1
  O2-  O367  1  0.42140396  0.08199135  0.44287716  1
  O2-  O368  1  0.40585000  0.08470944  0.77828236  1
  O2-  O369  1  0.40996613  0.57032586  0.13608713  1
  O2-  O370  1  0.42774223  0.57355617  0.45526138  1
  O2-  O371  1  0.40657866  0.56641039  0.76526923  1
  O2-  O372  1  0.74242923  0.07966069  0.13598029  1
  O2-  O373  1  0.73886521  0.08014651  0.42880055  1
  O2-  O374  1  0.74600378  0.07900366  0.78158747  1
  O2-  O375  1  0.74390731  0.58139645  0.10873776  1
  O2-  O376  1  0.76824354  0.58125476  0.44741084  1
  O2-  O377  1  0.75547271  0.58182518  0.78910383  1
  O2-  O378  1  0.25810475  0.08215899  0.20482654  1
  O2-  O379  1  0.29327471  0.08197864  0.58215787  1
  O2-  O380  1  0.25329228  0.08103955  0.87629040  1
  O2-  O381  1  0.25536703  0.58730306  0.22510218  1
  O2-  O382  1  0.27465958  0.55439091  0.54434864  1
  O2-  O383  1  0.23991079  0.57376477  0.91739255  1
  O2-  O384  1  0.56875160  0.08364697  0.19386800  1
  O2-  O385  1  0.57116625  0.08342090  0.54886665  1
  O2-  O386  1  0.58712841  0.07745449  0.90379314  1
  O2-  O387  1  0.56707865  0.58184330  0.23726043  1
  O2-  O388  1  0.58282527  0.58212129  0.55325866  1
  O2-  O389  1  0.59862401  0.57962675  0.86710910  1
  O2-  O390  1  0.90625077  0.07341766  0.20659735  1
  O2-  O391  1  0.88286118  0.05478358  0.53759462  1
  O2-  O392  1  0.90680750  0.06955715  0.86862686  1
  O2-  O393  1  0.93430151  0.57727778  0.24450642  1
  O2-  O394  1  0.92049773  0.57993734  0.53564882  1
  O2-  O395  1  0.90410403  0.57646840  0.88837748  1
  O2-  O396  1  0.08075221  0.43348408  0.12700196  1
  O2-  O397  1  0.10218881  0.41829330  0.44337863  1
  O2-  O398  1  0.08221886  0.42431237  0.77931002  1
  O2-  O399  1  0.09100891  0.91794239  0.11497946  1
  O2-  O400  1  0.06792562  0.91845208  0.45541652  1
  O2-  O401  1  0.07028992  0.91238016  0.76327158  1
  O2-  O402  1  0.41089605  0.41981141  0.12341124  1
  O2-  O403  1  0.42473560  0.41835779  0.44580950  1
  O2-  O404  1  0.40792242  0.41449713  0.76652830  1
  O2-  O405  1  0.40814688  0.92001550  0.12083515  1
  O2-  O406  1  0.40097660  0.91657075  0.43685543  1
  O2-  O407  1  0.43182637  0.91421436  0.77268889  1
  O2-  O408  1  0.76123399  0.41952211  0.11825418  1
  O2-  O409  1  0.73317801  0.42350782  0.44605149  1
  O2-  O410  1  0.75978669  0.42686271  0.78598400  1
  O2-  O411  1  0.74948076  0.91539060  0.09378187  1
  O2-  O412  1  0.76622583  0.91299582  0.45726816  1
  O2-  O413  1  0.75110550  0.91729577  0.77526353  1
  O2-  O414  1  0.25556691  0.41732051  0.21261503  1
  O2-  O415  1  0.26288791  0.41412504  0.57427399  1
  O2-  O416  1  0.25710705  0.42127079  0.87044272  1
  O2-  O417  1  0.24545157  0.91796892  0.20869823  1
  O2-  O418  1  0.22537419  0.92396418  0.55020341  1
  O2-  O419  1  0.26787175  0.91991740  0.88398074  1
  O2-  O420  1  0.58136971  0.41875398  0.22435432  1
  O2-  O421  1  0.57872709  0.42184834  0.55451859  1
  O2-  O422  1  0.56860292  0.41991875  0.88005495  1
  O2-  O423  1  0.56136309  0.91889968  0.22061369  1
  O2-  O424  1  0.60083792  0.91840819  0.55207137  1
  O2-  O425  1  0.57203837  0.92003787  0.87921455  1
  O2-  O426  1  0.92852315  0.42066047  0.22137806  1
  O2-  O427  1  0.91677600  0.42054407  0.54996652  1
  O2-  O428  1  0.90037606  0.41825897  0.88930876  1
  O2-  O429  1  0.94255422  0.91055628  0.21982015  1
  O2-  O430  1  0.91329805  0.91741080  0.55361562  1
  O2-  O431  1  0.90380323  0.92401262  0.88154348  1
  O2-  O432  1  -0.01749273  0.02168799  0.00936403  1
  O2-  O433  1  0.00783229  -0.00905936  0.32367927  1
  O2-  O434  1  0.00739938  0.00819967  0.67211232  1
  O2-  O435  1  -0.00277461  0.48439063  0.00314501  1
  O2-  O436  1  -0.00049126  0.48783216  0.36033753  1
  O2-  O437  1  -0.01727258  0.50348329  0.69735366  1
  O2-  O438  1  0.34863055  -0.01261838  -0.00136729  1
  O2-  O439  1  0.34363673  -0.01172636  0.31446056  1
  O2-  O440  1  0.32982533  -0.00218613  0.68701346  1
  O2-  O441  1  0.35075110  0.49062317  -0.02853256  1
  O2-  O442  1  0.32829464  0.49346352  0.33435257  1
  O2-  O443  1  0.33938429  0.52018516  0.66434127  1
  O2-  O444  1  0.66174644  0.00762857  0.01556692  1
  O2-  O445  1  0.66858154  0.00853031  0.33197333  1
  O2-  O446  1  0.66330933  -0.01193662  0.67979720  1
  O2-  O447  1  0.68229144  0.49754100  -0.03732578  1
  O2-  O448  1  0.65673577  0.49134725  0.34421623  1
  O2-  O449  1  0.67592419  0.50202354  0.63648075  1
  O2-  O450  1  0.19360881  0.00012201  0.02750498  1
  O2-  O451  1  0.17445511  -0.03255097  0.34093985  1
  O2-  O452  1  0.17713643  0.00046630  0.70236449  1
  O2-  O453  1  0.15834553  0.47868110  -0.00994359  1
  O2-  O454  1  0.14814094  0.50051703  0.30441861  1
  O2-  O455  1  0.17410455  0.50709861  0.67122485  1
  O2-  O456  1  0.51061060  -0.00292598  0.01563897  1
  O2-  O457  1  0.50031441  -0.00315050  0.33112378  1
  O2-  O458  1  0.50167802  0.01873166  0.66782108  1
  O2-  O459  1  0.51623419  0.51983406  0.01897226  1
  O2-  O460  1  0.49904848  0.49006269  0.34556530  1
  O2-  O461  1  0.51486645  0.50196634  0.68077332  1
  O2-  O462  1  0.82376208  0.01566538  -0.00991823  1
  O2-  O463  1  0.83682142  -0.00245997  0.33581958  1
  O2-  O464  1  0.83747479  -0.00367365  0.68752942  1
  O2-  O465  1  0.82397917  0.49587029  -0.00702395  1
  O2-  O466  1  0.84595856  0.48986714  0.36773309  1
  O2-  O467  1  0.83061985  0.51778064  0.65596768  1
  O2-  O468  1  0.73973469  0.74668992  0.05181847  1
  O2-  O469  1  0.58530360  0.74868219  0.94901834  1
  O2-  O470  1  0.91220097  0.25783428  0.61064003  1
  O2-  O471  1  0.59707177  0.25806805  0.93291384  1
  O2-  O472  1  0.74569128  0.25734384  0.40298500  1
  O2-  O473  1  0.74461638  0.24765519  0.71687292  1
  O2-  O474  1  0.74788835  0.25467205  0.05187086  1
  O2-  O475  1  0.91649891  0.74772148  0.27670912  1
  O2-  O476  1  0.23712195  0.24556475  0.93509578  1
  O2-  O477  1  0.06805843  0.74795739  0.72949701  1
  O2-  O478  1  0.41552258  0.74870035  0.74332308  1
  O2-  O479  1  0.08141616  0.25138099  0.72291468  1
  O2-  O480  1  0.91040975  0.25703627  0.94133134  1
  O2-  O481  1  0.75655706  0.75012749  0.72533441  1
  O2-  O482  1  0.25383850  0.75551577  0.92818503  1
  O2-  O483  1  0.75467605  0.74910950  0.38495827  1
  O2-  O484  1  0.25131178  0.24871514  0.28370316  1
  O2-  O485  1  0.08044437  0.74993465  0.38801040  1
  O2-  O486  1  0.58615033  0.24948037  0.28331952  1
  O2-  O487  1  0.59402308  0.24806122  0.61088782  1
  O2-  O488  1  0.42332065  0.75562792  0.05638338  1
  O2-  O489  1  0.41674707  0.24998968  0.39248641  1
  O2-  O490  1  0.09438031  0.25312213  0.38971158  1
  O2-  O491  1  0.59567906  0.75289220  0.27007454  1
  O2-  O492  1  0.91180700  0.25838851  0.27046506  1
