# generated using pymatgen
data_Ca108Mn108O277
_symmetry_space_group_name_H-M   'P 1'
_cell_length_a   16.03578126
_cell_length_b   22.31772503
_cell_length_c   16.39834648
_cell_angle_alpha   90.00061815
_cell_angle_beta   89.99852893
_cell_angle_gamma   89.99780752
_symmetry_Int_Tables_number   1
_chemical_formula_structural   Ca108Mn108O277
_chemical_formula_sum   'Ca108 Mn108 O277'
_cell_volume   5868.67560117
_cell_formula_units_Z   1
loop_
 _symmetry_equiv_pos_site_id
 _symmetry_equiv_pos_as_xyz
  1  'x, y, z'
loop_
 _atom_type_symbol
 _atom_type_oxidation_number
  Ca2+  2.0
  Mn3.34+  3.34
  O2-  -2.0
loop_
 _atom_site_type_symbol
 _atom_site_label
 _atom_site_symmetry_multiplicity
 _atom_site_fract_x
 _atom_site_fract_y
 _atom_site_fract_z
 _atom_site_occupancy
  Ca2+  Ca0  1  0.09152082  0.24856309  0.23171506  1
  Ca2+  Ca1  1  0.08544216  0.24093007  0.58817600  1
  Ca2+  Ca2  1  0.08360275  0.24345248  0.92496794  1
  Ca2+  Ca3  1  0.07927898  0.76746316  0.25829071  1
  Ca2+  Ca4  1  0.08783561  0.76009823  0.58510743  1
  Ca2+  Ca5  1  0.06039451  0.75546691  0.90511394  1
  Ca2+  Ca6  1  0.41187259  0.25326021  0.25723948  1
  Ca2+  Ca7  1  0.41779437  0.24475694  0.57974863  1
  Ca2+  Ca8  1  0.44041363  0.24348833  0.90941748  1
  Ca2+  Ca9  1  0.44985417  0.74586109  0.26143119  1
  Ca2+  Ca10  1  0.41188014  0.75189763  0.58517826  1
  Ca2+  Ca11  1  0.42572094  0.76866621  0.90341859  1
  Ca2+  Ca12  1  0.74219674  0.24682608  0.25979844  1
  Ca2+  Ca13  1  0.75066078  0.23290827  0.58729014  1
  Ca2+  Ca14  1  0.73290592  0.24304932  0.90665524  1
  Ca2+  Ca15  1  0.73633301  0.75765597  0.24360819  1
  Ca2+  Ca16  1  0.75158737  0.75191145  0.59072448  1
  Ca2+  Ca17  1  0.77288875  0.75157380  0.91161752  1
  Ca2+  Ca18  1  0.23486550  0.25359145  0.08831429  1
  Ca2+  Ca19  1  0.25913720  0.23494792  0.41773136  1
  Ca2+  Ca20  1  0.25020804  0.24335384  0.74898116  1
  Ca2+  Ca21  1  0.23771640  0.77168770  0.08282479  1
  Ca2+  Ca22  1  0.25343402  0.75390995  0.43117451  1
  Ca2+  Ca23  1  0.25404319  0.76469195  0.73500133  1
  Ca2+  Ca24  1  0.59085506  0.23999119  0.06521558  1
  Ca2+  Ca25  1  0.59445706  0.25780369  0.41782129  1
  Ca2+  Ca26  1  0.59733394  0.24516342  0.76327260  1
  Ca2+  Ca27  1  0.59618746  0.76071118  0.08966221  1
  Ca2+  Ca28  1  0.57087994  0.74931255  0.41308342  1
  Ca2+  Ca29  1  0.57385918  0.75333924  0.74290877  1
  Ca2+  Ca30  1  0.93683846  0.23314550  0.08338720  1
  Ca2+  Ca31  1  0.89081459  0.24336263  0.41619266  1
  Ca2+  Ca32  1  0.89438026  0.24059763  0.75407889  1
  Ca2+  Ca33  1  0.91485833  0.77138019  0.07160528  1
  Ca2+  Ca34  1  0.93239411  0.75632302  0.41991020  1
  Ca2+  Ca35  1  0.92488965  0.75573163  0.75662415  1
  Ca2+  Ca36  1  0.06687238  0.10172911  0.90911219  1
  Ca2+  Ca37  1  0.35420281  0.10787121  0.60854920  1
  Ca2+  Ca38  1  0.58831860  0.58596846  0.08825532  1
  Ca2+  Ca39  1  0.57256991  0.59966956  0.41980733  1
  Ca2+  Ca40  1  0.59425196  0.59717433  0.73201837  1
  Ca2+  Ca41  1  0.12430713  0.10403123  0.59981556  1
  Ca2+  Ca42  1  0.09420744  0.09613624  0.24551040  1
  Ca2+  Ca43  1  0.70654393  0.58954453  0.25274411  1
  Ca2+  Ca44  1  0.58996971  0.08592984  0.06461412  1
  Ca2+  Ca45  1  0.58633340  0.58764137  0.07843818  1
  Ca2+  Ca46  1  0.41515884  0.58504539  0.91195764  1
  Ca2+  Ca47  1  0.26765156  0.57582121  0.06927325  1
  Ca2+  Ca48  1  0.06449081  0.58080905  0.26815301  1
  Ca2+  Ca49  1  0.25894599  0.59249763  0.42600826  1
  Ca2+  Ca50  1  0.42803038  0.58480562  0.91195412  1
  Ca2+  Ca51  1  0.09142981  0.59601373  0.58107315  1
  Ca2+  Ca52  1  0.46625340  0.10617905  0.90899934  1
  Ca2+  Ca53  1  0.57504049  0.10582771  0.76547467  1
  Ca2+  Ca54  1  0.62313184  0.09298477  0.40544126  1
  Ca2+  Ca55  1  0.07338834  0.58321787  0.27297410  1
  Ca2+  Ca56  1  0.05855623  0.59444017  0.90518988  1
  Ca2+  Ca57  1  0.92285730  0.58564673  0.41444088  1
  Ca2+  Ca58  1  0.72770376  0.59689552  0.59698929  1
  Ca2+  Ca59  1  0.08558704  0.09327115  0.24102898  1
  Ca2+  Ca60  1  0.88883890  0.59178496  0.74422975  1
  Ca2+  Ca61  1  0.23564981  0.10300366  0.09034969  1
  Ca2+  Ca62  1  0.76217043  0.59767514  0.90284060  1
  Ca2+  Ca63  1  0.89837544  0.59589205  0.74327071  1
  Ca2+  Ca64  1  0.46329610  0.58857318  0.26047873  1
  Ca2+  Ca65  1  0.92177118  0.10317691  0.74428348  1
  Ca2+  Ca66  1  0.73271633  0.10024188  0.90418032  1
  Ca2+  Ca67  1  0.72253429  0.10027847  0.90504831  1
  Ca2+  Ca68  1  0.44445319  0.60610103  0.58150020  1
  Ca2+  Ca69  1  0.04563229  0.59517355  0.90516299  1
  Ca2+  Ca70  1  0.89000415  0.08945508  0.42582717  1
  Ca2+  Ca71  1  0.25599448  0.57386746  0.06773453  1
  Ca2+  Ca72  1  0.24583605  0.40279506  0.40921561  1
  Ca2+  Ca73  1  0.90720931  0.40974988  0.73873918  1
  Ca2+  Ca74  1  0.73149406  0.41010853  0.25479714  1
  Ca2+  Ca75  1  0.91163354  0.91094668  0.74346649  1
  Ca2+  Ca76  1  0.24780837  0.92665641  0.72027087  1
  Ca2+  Ca77  1  0.39495710  0.40024624  0.92150957  1
  Ca2+  Ca78  1  0.57131109  0.39899478  0.08944277  1
  Ca2+  Ca79  1  0.91253755  0.91607043  0.40625891  1
  Ca2+  Ca80  1  0.74335437  0.91240793  0.91428395  1
  Ca2+  Ca81  1  0.74682759  0.41283757  0.60767822  1
  Ca2+  Ca82  1  0.91653331  0.39722032  0.08604428  1
  Ca2+  Ca83  1  0.06510330  0.91947953  0.25466682  1
  Ca2+  Ca84  1  0.58128343  0.40143982  0.08777658  1
  Ca2+  Ca85  1  0.75563565  0.90764648  0.59045410  1
  Ca2+  Ca86  1  0.41154686  0.39614124  0.57912121  1
  Ca2+  Ca87  1  0.07977694  0.91084938  0.91151850  1
  Ca2+  Ca88  1  0.24709233  0.91477180  0.07785164  1
  Ca2+  Ca89  1  0.58806022  0.92176586  0.06084217  1
  Ca2+  Ca90  1  0.40571462  0.91084156  0.59433541  1
  Ca2+  Ca91  1  0.43519906  0.90947072  0.25090753  1
  Ca2+  Ca92  1  0.10177896  0.39630727  0.90796086  1
  Ca2+  Ca93  1  0.42251409  0.90866151  0.25170400  1
  Ca2+  Ca94  1  0.92368938  0.91612384  0.40532064  1
  Ca2+  Ca95  1  0.90359776  0.39766012  0.08621264  1
  Ca2+  Ca96  1  0.75657037  0.92024084  0.25374942  1
  Ca2+  Ca97  1  0.74139994  0.40603675  0.90250385  1
  Ca2+  Ca98  1  0.59471342  0.91793534  0.06697029  1
  Ca2+  Ca99  1  0.08521317  0.40097420  0.25507435  1
  Ca2+  Ca100  1  0.42416186  0.39572034  0.57768586  1
  Ca2+  Ca101  1  0.25840426  0.40335968  0.41022197  1
  Ca2+  Ca102  1  0.91485134  0.40102837  0.42052909  1
  Ca2+  Ca103  1  0.09576940  0.39403434  0.57831195  1
  Ca2+  Ca104  1  0.09130604  0.91066693  0.91099898  1
  Ca2+  Ca105  1  0.75408784  0.40597157  0.90334856  1
  Ca2+  Ca106  1  0.08267213  0.39408550  0.57743535  1
  Ca2+  Ca107  1  0.24537017  0.91172743  0.42972057  1
  Mn3.34+  Mn108  1  0.08635065  0.32968730  0.08262756  1
  Mn3.34+  Mn109  1  0.08110044  0.31800286  0.41506882  1
  Mn3.34+  Mn110  1  0.08069013  0.31997324  0.75447685  1
  Mn3.34+  Mn111  1  0.07757175  0.84292067  0.08797366  1
  Mn3.34+  Mn112  1  0.08880358  0.83846259  0.41983216  1
  Mn3.34+  Mn113  1  0.08307325  0.83840468  0.74333653  1
  Mn3.34+  Mn114  1  0.40902628  0.33156808  0.08599153  1
  Mn3.34+  Mn115  1  0.42439449  0.32977590  0.41169934  1
  Mn3.34+  Mn116  1  0.41465691  0.32967627  0.75470778  1
  Mn3.34+  Mn117  1  0.41631370  0.83106225  0.08474848  1
  Mn3.34+  Mn118  1  0.41878165  0.83522899  0.42289521  1
  Mn3.34+  Mn119  1  0.41993181  0.84028626  0.75124988  1
  Mn3.34+  Mn120  1  0.74854048  0.32631168  0.08579766  1
  Mn3.34+  Mn121  1  0.74632913  0.33328546  0.42222686  1
  Mn3.34+  Mn122  1  0.74708353  0.33060436  0.74619405  1
  Mn3.34+  Mn123  1  0.75762581  0.84173853  0.08495265  1
  Mn3.34+  Mn124  1  0.74306000  0.83583378  0.42145717  1
  Mn3.34+  Mn125  1  0.74280779  0.83535070  0.75180978  1
  Mn3.34+  Mn126  1  0.25366475  0.33117499  0.24596866  1
  Mn3.34+  Mn127  1  0.25091942  0.31435138  0.58587503  1
  Mn3.34+  Mn128  1  0.25094338  0.33029404  0.91432066  1
  Mn3.34+  Mn129  1  0.25144433  0.83881235  0.25305426  1
  Mn3.34+  Mn130  1  0.24984759  0.83961182  0.58185778  1
  Mn3.34+  Mn131  1  0.25244393  0.83783083  0.91125189  1
  Mn3.34+  Mn132  1  0.58026072  0.33528592  0.25378616  1
  Mn3.34+  Mn133  1  0.58784293  0.33339196  0.58825128  1
  Mn3.34+  Mn134  1  0.57966260  0.33257755  0.90984730  1
  Mn3.34+  Mn135  1  0.58913303  0.83662700  0.25028866  1
  Mn3.34+  Mn136  1  0.58372560  0.82991837  0.57796797  1
  Mn3.34+  Mn137  1  0.58679098  0.83462426  0.91294060  1
  Mn3.34+  Mn138  1  0.91238663  0.33158964  0.25357931  1
  Mn3.34+  Mn139  1  0.91404106  0.32666979  0.58260466  1
  Mn3.34+  Mn140  1  0.91753212  0.32568397  0.91008794  1
  Mn3.34+  Mn141  1  0.91244891  0.83511230  0.24902771  1
  Mn3.34+  Mn142  1  0.91773410  0.83406151  0.58253460  1
  Mn3.34+  Mn143  1  0.91285532  0.83954675  0.91407257  1
  Mn3.34+  Mn144  1  0.91355214  0.16221406  0.91332823  1
  Mn3.34+  Mn145  1  0.91775428  0.66976513  0.57960173  1
  Mn3.34+  Mn146  1  0.75327910  0.16512908  0.08290138  1
  Mn3.34+  Mn147  1  0.57458249  0.16327146  0.24559341  1
  Mn3.34+  Mn148  1  0.92238484  0.16354202  0.57963653  1
  Mn3.34+  Mn149  1  0.58488486  0.15867866  0.24353734  1
  Mn3.34+  Mn150  1  0.76555769  0.66306953  0.08254318  1
  Mn3.34+  Mn151  1  0.24959621  0.67085970  0.25206492  1
  Mn3.34+  Mn152  1  0.08149712  0.66731823  0.74082198  1
  Mn3.34+  Mn153  1  0.25708339  0.16788965  0.90964951  1
  Mn3.34+  Mn154  1  0.26085416  0.66644240  0.24890324  1
  Mn3.34+  Mn155  1  0.08414641  0.67451640  0.08448246  1
  Mn3.34+  Mn156  1  0.91553043  0.16139563  0.25165886  1
  Mn3.34+  Mn157  1  0.41796925  0.67160708  0.74628017  1
  Mn3.34+  Mn158  1  0.75616337  0.66837614  0.42112516  1
  Mn3.34+  Mn159  1  0.25502673  0.16758583  0.25210060  1
  Mn3.34+  Mn160  1  0.75542664  0.66803607  0.08016323  1
  Mn3.34+  Mn161  1  0.90358890  0.15369218  0.24765081  1
  Mn3.34+  Mn162  1  0.41742967  0.67995487  0.07642835  1
  Mn3.34+  Mn163  1  0.57505707  0.16463144  0.57839152  1
  Mn3.34+  Mn164  1  0.41697583  0.66885927  0.41996063  1
  Mn3.34+  Mn165  1  0.41431802  0.16338646  0.41910861  1
  Mn3.34+  Mn166  1  0.07016821  0.66860183  0.08709085  1
  Mn3.34+  Mn167  1  0.24133239  0.67202818  0.89987222  1
  Mn3.34+  Mn168  1  0.58501667  0.15977380  0.57940418  1
  Mn3.34+  Mn169  1  0.25247802  0.66699187  0.58665331  1
  Mn3.34+  Mn170  1  0.08497744  0.67003953  0.42357544  1
  Mn3.34+  Mn171  1  0.08325304  0.16195061  0.42512225  1
  Mn3.34+  Mn172  1  0.91524827  0.67070490  0.25412076  1
  Mn3.34+  Mn173  1  0.25121579  0.66630379  0.90269429  1
  Mn3.34+  Mn174  1  0.74481199  0.67380886  0.74886904  1
  Mn3.34+  Mn175  1  0.41225524  0.17123803  0.08859063  1
  Mn3.34+  Mn176  1  0.74535102  0.67540601  0.41848188  1
  Mn3.34+  Mn177  1  0.58539705  0.67086641  0.90927013  1
  Mn3.34+  Mn178  1  0.24861274  0.15960810  0.90648576  1
  Mn3.34+  Mn179  1  0.42179340  0.68353050  0.08574261  1
  Mn3.34+  Mn180  1  0.41809783  0.50180905  0.09238209  1
  Mn3.34+  Mn181  1  0.58632080  0.50310781  0.91304739  1
  Mn3.34+  Mn182  1  0.91092815  0.00293450  0.92562309  1
  Mn3.34+  Mn183  1  0.42144236  0.50174810  0.40851138  1
  Mn3.34+  Mn184  1  0.42707575  0.00275810  0.41392418  1
  Mn3.34+  Mn185  1  0.25248719  0.00198727  0.25831212  1
  Mn3.34+  Mn186  1  0.41780474  0.49476980  0.74085850  1
  Mn3.34+  Mn187  1  0.41695469  -0.00044109  0.73675390  1
  Mn3.34+  Mn188  1  0.58495746  -0.00613357  0.57645248  1
  Mn3.34+  Mn189  1  0.09653444  0.49635480  0.74768536  1
  Mn3.34+  Mn190  1  0.76770921  0.00712170  0.07693078  1
  Mn3.34+  Mn191  1  0.58559471  0.49977930  0.58609831  1
  Mn3.34+  Mn192  1  0.08505286  0.49860996  0.41842423  1
  Mn3.34+  Mn193  1  0.59419691  0.00014236  0.57737093  1
  Mn3.34+  Mn194  1  0.41689823  0.00815791  0.41397013  1
  Mn3.34+  Mn195  1  0.41381783  0.00869352  0.08555812  1
  Mn3.34+  Mn196  1  0.74360967  0.50180040  0.42355454  1
  Mn3.34+  Mn197  1  0.91757792  0.00076738  0.58536035  1
  Mn3.34+  Mn198  1  0.10730847  0.49064393  0.74489609  1
  Mn3.34+  Mn199  1  0.09177077  0.49352902  0.07407168  1
  Mn3.34+  Mn200  1  0.73244843  0.49383508  0.42049200  1
  Mn3.34+  Mn201  1  0.08527896  0.00379333  0.73229044  1
  Mn3.34+  Mn202  1  0.07269638  0.00011297  0.06531636  1
  Mn3.34+  Mn203  1  0.08977010  0.00560466  0.41802367  1
  Mn3.34+  Mn204  1  0.91298035  0.50410651  0.58732911  1
  Mn3.34+  Mn205  1  0.90074196  0.50259877  0.25335243  1
  Mn3.34+  Mn206  1  0.25436644  0.00039960  0.91233052  1
  Mn3.34+  Mn207  1  0.91176256  0.49155111  0.90874001  1
  Mn3.34+  Mn208  1  0.26425028  0.49925842  0.25593826  1
  Mn3.34+  Mn209  1  0.74348787  -0.00349548  0.40555331  1
  Mn3.34+  Mn210  1  0.75906230  0.49863542  0.08475372  1
  Mn3.34+  Mn211  1  0.25175989  0.49929758  0.57338696  1
  Mn3.34+  Mn212  1  0.75352561  -0.00052585  0.74255427  1
  Mn3.34+  Mn213  1  0.40437799  0.50029979  0.73936346  1
  Mn3.34+  Mn214  1  0.08060509  0.49877390  0.07557300  1
  Mn3.34+  Mn215  1  0.40377842  0.00370901  0.08764072  1
  O2-  O216  1  -0.00601861  0.17736823  -0.01274162  1
  O2-  O217  1  -0.00344096  0.15388843  0.33682292  1
  O2-  O218  1  0.00699554  0.17310414  0.65442995  1
  O2-  O219  1  0.00587207  0.65756237  -0.00607395  1
  O2-  O220  1  -0.00174545  0.65372135  0.34276954  1
  O2-  O221  1  -0.00728235  0.64041215  0.66106531  1
  O2-  O222  1  0.33381132  0.15390614  -0.00348467  1
  O2-  O223  1  0.33906959  0.16248508  0.33144306  1
  O2-  O224  1  0.32155604  0.20027718  0.65363848  1
  O2-  O225  1  0.33426898  0.65216064  -0.00244897  1
  O2-  O226  1  0.34064906  0.64087259  0.32980891  1
  O2-  O227  1  0.33945612  0.65455962  0.66261127  1
  O2-  O228  1  0.66974485  0.15596329  0.00693465  1
  O2-  O229  1  0.66989831  0.15677917  0.31796589  1
  O2-  O230  1  0.65659178  0.14984137  0.66232682  1
  O2-  O231  1  0.66739004  0.64294677  -0.00448005  1
  O2-  O232  1  0.66679701  0.66013337  0.33960406  1
  O2-  O233  1  0.66464742  0.67688854  0.67123955  1
  O2-  O234  1  0.16729135  0.14570779  -0.01284153  1
  O2-  O235  1  0.15840712  0.15732971  0.33161341  1
  O2-  O236  1  0.18087715  0.18782346  0.65758489  1
  O2-  O237  1  0.17161255  0.63729567  0.00468208  1
  O2-  O238  1  0.16431146  0.64172182  0.33332509  1
  O2-  O239  1  0.16237095  0.66443578  0.66052635  1
  O2-  O240  1  0.49496916  0.17254328  0.01226220  1
  O2-  O241  1  0.50906895  0.14541777  0.33810834  1
  O2-  O242  1  0.48927503  0.14998792  0.64930480  1
  O2-  O243  1  0.49914707  0.64570723  -0.00209824  1
  O2-  O244  1  0.49907567  0.66382721  0.34161561  1
  O2-  O245  1  0.50346601  0.66434500  0.67652831  1
  O2-  O246  1  0.82907095  0.15657396  -0.00159376  1
  O2-  O247  1  0.83092598  0.14935479  0.33173986  1
  O2-  O248  1  0.84976894  0.17167426  0.66163215  1
  O2-  O249  1  0.83317372  0.65337326  -0.00550222  1
  O2-  O250  1  0.82896371  0.64754076  0.33699591  1
  O2-  O251  1  0.82600932  0.66141267  0.65736180  1
  O2-  O252  1  -0.00227848  0.34248178  -0.00257567  1
  O2-  O253  1  -0.00119795  0.34225538  0.33653553  1
  O2-  O254  1  -0.00131178  0.32920276  0.66652964  1
  O2-  O255  1  0.00157514  0.85380853  -0.00417721  1
  O2-  O256  1  0.00161017  0.84616092  0.33546796  1
  O2-  O257  1  -0.00464051  0.85116903  0.66762934  1
  O2-  O258  1  0.33690950  0.32592391  -0.00260218  1
  O2-  O259  1  0.33185689  0.34083602  0.33679462  1
  O2-  O260  1  0.33628991  0.33049449  0.66256277  1
  O2-  O261  1  0.33269948  0.82936197  0.00402319  1
  O2-  O262  1  0.33647973  0.85736948  0.33874452  1
  O2-  O263  1  0.33059713  0.84499291  0.66876632  1
  O2-  O264  1  0.66768792  0.35219666  0.00346571  1
  O2-  O265  1  0.66477926  0.34504618  0.33471716  1
  O2-  O266  1  0.66258630  0.35006819  0.67248380  1
  O2-  O267  1  0.66918109  0.84363701  0.00638544  1
  O2-  O268  1  0.67758304  0.84830243  0.32360645  1
  O2-  O269  1  0.66571533  0.81363596  0.66555326  1
  O2-  O270  1  0.16609098  0.34338048  0.00120445  1
  O2-  O271  1  0.16476981  0.33611720  0.33756555  1
  O2-  O272  1  0.15898438  0.32634601  0.66178705  1
  O2-  O273  1  0.16722772  0.85464148  0.00163934  1
  O2-  O274  1  0.16555639  0.85919140  0.33053435  1
  O2-  O275  1  0.17147568  0.84227972  0.67031703  1
  O2-  O276  1  0.49997195  0.34000081  -0.00381852  1
  O2-  O277  1  0.49713606  0.33884014  0.32853772  1
  O2-  O278  1  0.49108464  0.33599457  0.66354476  1
  O2-  O279  1  0.50539644  0.84035637  0.00820857  1
  O2-  O280  1  0.49859792  0.84339414  0.33021022  1
  O2-  O281  1  0.49688218  0.83418046  0.65603251  1
  O2-  O282  1  0.83090266  0.34497217  -0.00553912  1
  O2-  O283  1  0.82766215  0.35310774  0.33362257  1
  O2-  O284  1  0.83371949  0.34001076  0.66516343  1
  O2-  O285  1  0.83057661  0.84851189  -0.00628808  1
  O2-  O286  1  0.83547149  0.84239429  0.34375014  1
  O2-  O287  1  0.82716155  0.83889080  0.66564293  1
  O2-  O288  1  0.00166081  0.17484298  0.17910380  1
  O2-  O289  1  -0.00214215  0.19255969  0.49057844  1
  O2-  O290  1  -0.01496269  0.17939029  0.83242526  1
  O2-  O291  1  0.01266109  0.68467558  0.18563343  1
  O2-  O292  1  0.00527116  0.68337676  0.50551303  1
  O2-  O293  1  -0.00666933  0.66016232  0.81469250  1
  O2-  O294  1  0.32313702  0.18704666  0.15986327  1
  O2-  O295  1  0.34179049  0.18005113  0.49940415  1
  O2-  O296  1  0.34010028  0.18302892  0.83733615  1
  O2-  O297  1  0.32729229  0.69892396  0.15465419  1
  O2-  O298  1  0.32924202  0.67545038  0.49837556  1
  O2-  O299  1  0.34956996  0.68331623  0.84423051  1
  O2-  O300  1  0.66280107  0.18401198  0.16300963  1
  O2-  O301  1  0.66129546  0.17509826  0.49887216  1
  O2-  O302  1  0.66289760  0.17073806  0.83308211  1
  O2-  O303  1  0.67022020  0.67581768  0.15596379  1
  O2-  O304  1  0.66910623  0.68712107  0.49888441  1
  O2-  O305  1  0.67301082  0.68672085  0.83897270  1
  O2-  O306  1  0.16670990  0.17225653  0.17611481  1
  O2-  O307  1  0.15909340  0.18882485  0.49269280  1
  O2-  O308  1  0.16381665  0.17911911  0.83555743  1
  O2-  O309  1  0.16879287  0.68353487  0.16235073  1
  O2-  O310  1  0.16969871  0.68011746  0.49825703  1
  O2-  O311  1  0.13727574  0.67483662  0.85291709  1
  O2-  O312  1  0.49491170  0.19182626  0.17228747  1
  O2-  O313  1  0.50687153  0.18610327  0.49361580  1
  O2-  O314  1  0.50448017  0.18097339  0.82359426  1
  O2-  O315  1  0.50954360  0.67936354  0.15953710  1
  O2-  O316  1  0.49328216  0.68219321  0.49880889  1
  O2-  O317  1  0.49739468  0.68417784  0.83724183  1
  O2-  O318  1  0.83499708  0.18302654  0.16575849  1
  O2-  O319  1  0.84268998  0.17982176  0.50579222  1
  O2-  O320  1  0.82501351  0.17825038  0.84822943  1
  O2-  O321  1  0.83358034  0.68716150  0.17276210  1
  O2-  O322  1  0.83846697  0.69274632  0.49378725  1
  O2-  O323  1  0.83462622  0.68132032  0.81664266  1
  O2-  O324  1  -0.00506427  0.31988525  0.16383493  1
  O2-  O325  1  0.00520080  0.31892762  0.50580475  1
  O2-  O326  1  -0.00138291  0.30179617  0.83505221  1
  O2-  O327  1  -0.00333674  0.82134673  0.16823589  1
  O2-  O328  1  -0.00354123  0.82676880  0.49366745  1
  O2-  O329  1  0.00101127  0.83557243  0.83338285  1
  O2-  O330  1  0.33235609  0.31104802  0.16649901  1
  O2-  O331  1  0.33327459  0.32254166  0.49961374  1
  O2-  O332  1  0.33695389  0.30861706  0.83729981  1
  O2-  O333  1  0.33717489  0.81670407  0.17218843  1
  O2-  O334  1  0.33422357  0.82312315  0.50197861  1
  O2-  O335  1  0.32942409  0.81896735  0.83059903  1
  O2-  O336  1  0.66492884  0.32053448  0.16345342  1
  O2-  O337  1  0.67224385  0.32079920  0.51058487  1
  O2-  O338  1  0.67470180  0.32807947  0.84033788  1
  O2-  O339  1  0.66663493  0.82830403  0.16256960  1
  O2-  O340  1  0.66510177  0.80502832  0.49607122  1
  O2-  O341  1  0.67309137  0.81317067  0.83991722  1
  O2-  O342  1  0.16089666  0.32697591  0.17229370  1
  O2-  O343  1  0.16725185  0.31187630  0.49983311  1
  O2-  O344  1  0.16167837  0.31199534  0.83661261  1
  O2-  O345  1  0.16422181  0.82835656  0.16882150  1
  O2-  O346  1  0.17036084  0.82263368  0.49800890  1
  O2-  O347  1  0.15504570  0.82324304  0.84039896  1
  O2-  O348  1  0.50627618  0.31972404  0.15398812  1
  O2-  O349  1  0.49639766  0.32338210  0.50439416  1
  O2-  O350  1  0.50135372  0.31675958  0.83017240  1
  O2-  O351  1  0.49680074  0.81432836  0.16825921  1
  O2-  O352  1  0.49847513  0.81081665  0.50031358  1
  O2-  O353  1  0.50795746  0.82480101  0.82820070  1
  O2-  O354  1  0.83735615  0.31768275  0.15830128  1
  O2-  O355  1  0.84014200  0.31930438  0.49621376  1
  O2-  O356  1  0.82807537  0.31284315  0.83737250  1
  O2-  O357  1  0.82907131  0.82002777  0.17217811  1
  O2-  O358  1  0.82915550  0.81567341  0.50160651  1
  O2-  O359  1  0.83649273  0.82133057  0.82667870  1
  O2-  O360  1  0.09812627  0.07050174  0.11350074  1
  O2-  O361  1  0.08114368  0.08288722  0.45954967  1
  O2-  O362  1  0.06408147  0.06967486  0.78026501  1
  O2-  O363  1  0.08988653  0.57493347  0.13257661  1
  O2-  O364  1  0.07292615  0.58259384  0.44612998  1
  O2-  O365  1  0.11051200  0.57550198  0.78240908  1
  O2-  O366  1  0.40929549  0.08765010  0.11545756  1
  O2-  O367  1  0.42124606  0.08268674  0.46353045  1
  O2-  O368  1  0.43583031  0.06375586  0.78920411  1
  O2-  O369  1  0.40147248  0.58690613  0.12624823  1
  O2-  O370  1  0.41644860  0.58033511  0.45015691  1
  O2-  O371  1  0.41445185  0.58118690  0.77844954  1
  O2-  O372  1  0.75295977  0.08439235  0.11009152  1
  O2-  O373  1  0.74767692  0.05936421  0.46455720  1
  O2-  O374  1  0.77477606  0.07182026  0.77995765  1
  O2-  O375  1  0.74667876  0.58136392  0.11990423  1
  O2-  O376  1  0.74086829  0.58308301  0.45963821  1
  O2-  O377  1  0.74823352  0.58594059  0.76769664  1
  O2-  O378  1  0.24236740  0.08282380  0.22661242  1
  O2-  O379  1  0.24254040  0.07036622  0.55043188  1
  O2-  O380  1  0.24903773  0.08178285  0.87923130  1
  O2-  O381  1  0.25000284  0.57984173  0.20255363  1
  O2-  O382  1  0.23783243  0.58309526  0.56022452  1
  O2-  O383  1  0.26970328  0.58688304  0.88055845  1
  O2-  O384  1  0.57652374  0.08203262  0.20583885  1
  O2-  O385  1  0.57619913  0.07911982  0.53848960  1
  O2-  O386  1  0.59997346  0.07155021  0.89605120  1
  O2-  O387  1  0.58251593  0.56391746  0.20459580  1
  O2-  O388  1  0.58688552  0.57597227  0.55061478  1
  O2-  O389  1  0.56882276  0.58419774  0.86986497  1
  O2-  O390  1  0.94408162  0.07665951  0.23361030  1
  O2-  O391  1  0.92835899  0.08153745  0.56148899  1
  O2-  O392  1  0.91909725  0.08125768  0.88867067  1
  O2-  O393  1  0.93188717  0.58591299  0.22857100  1
  O2-  O394  1  0.90019997  0.58419370  0.54782436  1
  O2-  O395  1  0.91579127  0.57298263  0.87624365  1
  O2-  O396  1  0.05778502  0.41719114  0.11364345  1
  O2-  O397  1  0.10478497  0.41563314  0.44585256  1
  O2-  O398  1  0.06602061  0.41292180  0.77455650  1
  O2-  O399  1  0.08247481  0.92691464  0.11898439  1
  O2-  O400  1  0.08565698  0.92259017  0.44209867  1
  O2-  O401  1  0.09116611  0.92952732  0.77598457  1
  O2-  O402  1  0.43568348  0.41964731  0.08850769  1
  O2-  O403  1  0.39858713  0.42141407  0.44818428  1
  O2-  O404  1  0.41179179  0.41905892  0.78756323  1
  O2-  O405  1  0.41456502  0.92104733  0.11605328  1
  O2-  O406  1  0.42284301  0.92299241  0.46030442  1
  O2-  O407  1  0.40097018  0.92581710  0.77143649  1
  O2-  O408  1  0.76027807  0.41427742  0.11758920  1
  O2-  O409  1  0.76010658  0.41989313  0.46597850  1
  O2-  O410  1  0.76665683  0.41679007  0.77308223  1
  O2-  O411  1  0.74782890  0.92636021  0.11609498  1
  O2-  O412  1  0.76318106  0.92553816  0.45223683  1
  O2-  O413  1  0.75405522  0.92235052  0.77789121  1
  O2-  O414  1  0.23831493  0.41565789  0.25079648  1
  O2-  O415  1  0.23808560  0.41373795  0.54498858  1
  O2-  O416  1  0.25068405  0.40905216  0.89447352  1
  O2-  O417  1  0.27926315  0.92430076  0.21436790  1
  O2-  O418  1  0.26106486  0.91861738  0.56589224  1
  O2-  O419  1  0.23043713  0.92298428  0.87222116  1
  O2-  O420  1  0.59126804  0.41510493  0.21869472  1
  O2-  O421  1  0.55832770  0.42014102  0.56742421  1
  O2-  O422  1  0.59766564  0.41926158  0.90122805  1
  O2-  O423  1  0.56420439  0.91814078  0.20207594  1
  O2-  O424  1  0.61012381  0.91413990  0.55265442  1
  O2-  O425  1  0.59878806  0.91511459  0.91759813  1
  O2-  O426  1  0.91476426  0.42096906  0.21607243  1
  O2-  O427  1  0.94669001  0.42275231  0.56175600  1
  O2-  O428  1  0.91277045  0.41150908  0.87611859  1
  O2-  O429  1  0.91194297  0.91673860  0.25121543  1
  O2-  O430  1  0.90314781  0.92099074  0.54577075  1
  O2-  O431  1  0.91936929  0.92514727  0.88335468  1
  O2-  O432  1  0.02425312  0.00140462  -0.04324394  1
  O2-  O433  1  -0.01474443  0.00129826  0.37611375  1
  O2-  O434  1  -0.00460282  -0.00566435  0.67416251  1
  O2-  O435  1  0.00716772  0.50593218  -0.01643830  1
  O2-  O436  1  0.00355272  0.49988359  0.32521157  1
  O2-  O437  1  -0.00257246  0.51663191  0.68438149  1
  O2-  O438  1  0.32755376  -0.01008426  0.00344807  1
  O2-  O439  1  0.31622738  -0.01291257  0.35601397  1
  O2-  O440  1  0.33647502  0.00483944  0.66887149  1
  O2-  O441  1  0.34576405  0.52212783  -0.00605369  1
  O2-  O442  1  0.30862915  0.50019208  0.37454854  1
  O2-  O443  1  0.35240922  0.48222959  0.63584063  1
  O2-  O444  1  0.66398242  0.00258715  0.03792585  1
  O2-  O445  1  0.66760176  -0.00262271  0.33566811  1
  O2-  O446  1  0.67181832  -0.00246987  0.66349165  1
  O2-  O447  1  0.66173082  0.50989646  0.01178446  1
  O2-  O448  1  0.68280680  0.50289333  0.31942674  1
  O2-  O449  1  0.68851935  0.50211900  0.62449527  1
  O2-  O450  1  0.16856097  -0.01420693  0.00178111  1
  O2-  O451  1  0.13544346  0.00449975  0.29783661  1
  O2-  O452  1  0.16658786  0.01050684  0.66945761  1
  O2-  O453  1  0.16843907  0.52135137  -0.00474177  1
  O2-  O454  1  0.15824332  0.51311085  0.31747879  1
  O2-  O455  1  0.14580280  0.48594639  0.63410322  1
  O2-  O456  1  0.51312087  0.00086283  0.02737640  1
  O2-  O457  1  0.48429048  -0.01427546  0.31760934  1
  O2-  O458  1  0.49516385  -0.00749632  0.65389894  1
  O2-  O459  1  0.50449549  0.52651014  0.00702578  1
  O2-  O460  1  0.51165417  0.51846035  0.35198578  1
  O2-  O461  1  0.51042700  0.52097331  0.67307391  1
  O2-  O462  1  0.79832383  0.00536348  -0.04673460  1
  O2-  O463  1  0.83390675  -0.00474251  0.34881560  1
  O2-  O464  1  0.83692653  -0.01353961  0.66897152  1
  O2-  O465  1  0.83186110  0.47364347  -0.00605980  1
  O2-  O466  1  0.84604449  0.50033752  0.36384345  1
  O2-  O467  1  0.84419089  0.50658732  0.67647581  1
  O2-  O468  1  0.07346754  0.75389074  0.73195479  1
  O2-  O469  1  0.58492817  0.24654979  0.60977623  1
  O2-  O470  1  0.42131464  0.24762289  0.39509033  1
  O2-  O471  1  0.24326161  0.24939971  0.27500024  1
  O2-  O472  1  0.23892759  0.24432583  0.94740478  1
  O2-  O473  1  0.23162744  0.74674356  0.94513297  1
  O2-  O474  1  0.08739610  0.75171917  0.39364309  1
  O2-  O475  1  0.08149595  0.75715014  0.05294152  1
  O2-  O476  1  0.08894148  0.25153140  0.07068902  1
  O2-  O477  1  0.23810659  0.75348709  0.28710521  1
  O2-  O478  1  0.74565299  0.25603741  0.39654209  1
  O2-  O479  1  0.57523145  0.74723101  0.95103743  1
  O2-  O480  1  0.92100611  0.75979211  0.93349238  1
  O2-  O481  1  0.74520952  0.24916192  0.05207911  1
  O2-  O482  1  0.59469075  0.75773662  0.27120235  1
  O2-  O483  1  0.91644625  0.75078679  0.28333789  1
  O2-  O484  1  0.59090565  0.25551982  0.93002396  1
  O2-  O485  1  0.74063057  0.25285978  0.72753841  1
  O2-  O486  1  0.75368968  0.75104358  0.05648793  1
  O2-  O487  1  0.58414576  0.24641711  0.27618654  1
  O2-  O488  1  0.93064314  0.74971859  0.61309679  1
  O2-  O489  1  0.41112692  0.75268255  0.72966498  1
  O2-  O490  1  0.90690635  0.24334628  0.27640116  1
  O2-  O491  1  0.25408400  0.75068758  0.60045710  1
  O2-  O492  1  0.40094508  0.75117131  0.39070046  1
