# generated using pymatgen
data_Ca108Mn108O277
_symmetry_space_group_name_H-M   'P 1'
_cell_length_a   16.03223704
_cell_length_b   22.31319973
_cell_length_c   16.39364969
_cell_angle_alpha   89.98860426
_cell_angle_beta   89.99746021
_cell_angle_gamma   89.99745372
_symmetry_Int_Tables_number   1
_chemical_formula_structural   Ca108Mn108O277
_chemical_formula_sum   'Ca108 Mn108 O277'
_cell_volume   5864.50849017
_cell_formula_units_Z   1
loop_
 _symmetry_equiv_pos_site_id
 _symmetry_equiv_pos_as_xyz
  1  'x, y, z'
loop_
 _atom_type_symbol
 _atom_type_oxidation_number
  Ca2+  2.0
  Mn3.34+  3.34
  O2-  -2.0
loop_
 _atom_site_type_symbol
 _atom_site_label
 _atom_site_symmetry_multiplicity
 _atom_site_fract_x
 _atom_site_fract_y
 _atom_site_fract_z
 _atom_site_occupancy
  Ca2+  Ca0  1  0.07066089  0.24487616  0.21724540  1
  Ca2+  Ca1  1  0.09520236  0.25902035  0.59919513  1
  Ca2+  Ca2  1  0.09969965  0.22722162  0.92914324  1
  Ca2+  Ca3  1  0.07957960  0.74479999  0.25851178  1
  Ca2+  Ca4  1  0.09839104  0.73793654  0.58000278  1
  Ca2+  Ca5  1  0.08725520  0.75649322  0.91424799  1
  Ca2+  Ca6  1  0.42950199  0.24494810  0.23759266  1
  Ca2+  Ca7  1  0.41971516  0.25259589  0.58937241  1
  Ca2+  Ca8  1  0.39946516  0.25071203  0.92786342  1
  Ca2+  Ca9  1  0.43775338  0.74973183  0.25728075  1
  Ca2+  Ca10  1  0.42046469  0.75202032  0.56057695  1
  Ca2+  Ca11  1  0.41213614  0.76472605  0.91351415  1
  Ca2+  Ca12  1  0.74128985  0.24917920  0.23973521  1
  Ca2+  Ca13  1  0.73325033  0.25878151  0.58842711  1
  Ca2+  Ca14  1  0.76492069  0.25037333  0.91825059  1
  Ca2+  Ca15  1  0.73542391  0.75007677  0.25045679  1
  Ca2+  Ca16  1  0.73118657  0.76212517  0.56976710  1
  Ca2+  Ca17  1  0.74780033  0.76606986  0.92524956  1
  Ca2+  Ca18  1  0.26230517  0.24497274  0.07336645  1
  Ca2+  Ca19  1  0.26543997  0.25351256  0.42154695  1
  Ca2+  Ca20  1  0.25049112  0.24385522  0.76995679  1
  Ca2+  Ca21  1  0.24935377  0.74663998  0.09721902  1
  Ca2+  Ca22  1  0.26696525  0.73798444  0.41557691  1
  Ca2+  Ca23  1  0.24424045  0.74997870  0.74827808  1
  Ca2+  Ca24  1  0.57261099  0.24792702  0.09409619  1
  Ca2+  Ca25  1  0.57536574  0.25727094  0.41061339  1
  Ca2+  Ca26  1  0.58420103  0.25759397  0.74679121  1
  Ca2+  Ca27  1  0.59189767  0.75857536  0.09817806  1
  Ca2+  Ca28  1  0.56785379  0.71781640  0.39756573  1
  Ca2+  Ca29  1  0.58245917  0.75816423  0.74383414  1
  Ca2+  Ca30  1  0.93212162  0.23485229  0.07452788  1
  Ca2+  Ca31  1  0.91361961  0.25534913  0.40481906  1
  Ca2+  Ca32  1  0.92981570  0.25061309  0.77054529  1
  Ca2+  Ca33  1  0.90809466  0.75447838  0.08924674  1
  Ca2+  Ca34  1  0.90482998  0.75034355  0.40713250  1
  Ca2+  Ca35  1  0.92308306  0.75475344  0.75421392  1
  Ca2+  Ca36  1  0.39139653  0.10137115  0.94113489  1
  Ca2+  Ca37  1  0.75629722  0.08627329  0.58563273  1
  Ca2+  Ca38  1  0.57023389  0.61059412  0.10339583  1
  Ca2+  Ca39  1  0.40826754  0.10078655  0.23589262  1
  Ca2+  Ca40  1  0.39790539  0.09570330  0.93943712  1
  Ca2+  Ca41  1  0.39237042  0.60708806  0.27361323  1
  Ca2+  Ca42  1  0.74343591  0.08671368  0.58506585  1
  Ca2+  Ca43  1  0.54506395  0.07850897  0.08560104  1
  Ca2+  Ca44  1  0.21527677  0.57867769  0.73836468  1
  Ca2+  Ca45  1  0.40080035  0.60933423  0.27866458  1
  Ca2+  Ca46  1  0.55910959  0.08502430  0.40220664  1
  Ca2+  Ca47  1  0.21929510  0.60551801  0.41735729  1
  Ca2+  Ca48  1  0.58163724  0.61235981  0.10317640  1
  Ca2+  Ca49  1  0.74769957  0.09570218  0.25610024  1
  Ca2+  Ca50  1  0.58527044  0.09012828  0.75250783  1
  Ca2+  Ca51  1  0.91207284  0.08252871  0.39791316  1
  Ca2+  Ca52  1  0.07599286  0.59543587  0.91728096  1
  Ca2+  Ca53  1  0.73376552  0.60023349  0.25564720  1
  Ca2+  Ca54  1  0.28005317  0.08181228  0.41430723  1
  Ca2+  Ca55  1  0.26850016  0.07914875  0.41032260  1
  Ca2+  Ca56  1  0.12326642  0.60675770  0.25971530  1
  Ca2+  Ca57  1  0.57274731  0.08975503  0.75435533  1
  Ca2+  Ca58  1  0.55472380  0.07617882  0.08357185  1
  Ca2+  Ca59  1  0.92880826  0.60113988  0.09041178  1
  Ca2+  Ca60  1  0.24436180  0.10857723  0.08869346  1
  Ca2+  Ca61  1  0.08550627  0.09853755  0.23473495  1
  Ca2+  Ca62  1  0.94224781  0.58475341  0.74657969  1
  Ca2+  Ca63  1  0.74919117  0.59921559  0.93217143  1
  Ca2+  Ca64  1  0.95558156  0.58730680  0.40100304  1
  Ca2+  Ca65  1  0.77872147  0.08054365  0.92249526  1
  Ca2+  Ca66  1  0.96542370  0.58938400  0.40154253  1
  Ca2+  Ca67  1  0.10530279  0.08689898  0.60516396  1
  Ca2+  Ca68  1  0.94032911  0.08556416  0.06202646  1
  Ca2+  Ca69  1  0.41920266  0.60055011  0.54452310  1
  Ca2+  Ca70  1  0.42405010  0.59645804  0.93176073  1
  Ca2+  Ca71  1  0.73356361  0.58206590  0.57718422  1
  Ca2+  Ca72  1  0.08006499  0.91628789  0.57893621  1
  Ca2+  Ca73  1  0.57839494  0.39810368  0.09348096  1
  Ca2+  Ca74  1  0.57043960  0.90740012  0.41314628  1
  Ca2+  Ca75  1  0.42132997  0.91355621  0.23886544  1
  Ca2+  Ca76  1  0.92135254  0.40093346  0.08780264  1
  Ca2+  Ca77  1  0.91247739  0.91548881  0.40914827  1
  Ca2+  Ca78  1  0.92534264  0.91675485  0.40778764  1
  Ca2+  Ca79  1  0.93015207  0.40351011  0.74211052  1
  Ca2+  Ca80  1  0.58274037  0.40292526  0.74172336  1
  Ca2+  Ca81  1  0.08222987  0.41160896  0.25452404  1
  Ca2+  Ca82  1  0.08186051  0.91366589  0.26265296  1
  Ca2+  Ca83  1  0.41819828  0.39982243  0.25518357  1
  Ca2+  Ca84  1  0.06560159  0.91006451  0.93216100  1
  Ca2+  Ca85  1  0.44276330  0.93375107  0.95132043  1
  Ca2+  Ca86  1  0.74471298  0.39798949  0.25301854  1
  Ca2+  Ca87  1  0.24888883  0.90329703  0.75317697  1
  Ca2+  Ca88  1  0.09122333  0.40404697  0.90413151  1
  Ca2+  Ca89  1  0.26753609  0.91503310  0.40647566  1
  Ca2+  Ca90  1  0.10169376  0.40181369  0.90180612  1
  Ca2+  Ca91  1  0.59043673  0.91109166  0.07593183  1
  Ca2+  Ca92  1  0.08993438  0.91266601  0.57742425  1
  Ca2+  Ca93  1  0.26020237  0.90336038  0.75407054  1
  Ca2+  Ca94  1  0.91812125  0.91859389  0.75669535  1
  Ca2+  Ca95  1  0.90024720  0.91504001  0.06816541  1
  Ca2+  Ca96  1  0.09342296  0.41204391  0.25405272  1
  Ca2+  Ca97  1  0.23934932  0.41174036  0.42155526  1
  Ca2+  Ca98  1  0.25166397  0.40926371  0.42342387  1
  Ca2+  Ca99  1  0.09095167  0.91765133  0.26430601  1
  Ca2+  Ca100  1  0.55982097  0.90536709  0.41205508  1
  Ca2+  Ca101  1  0.90572993  0.91620195  0.75739245  1
  Ca2+  Ca102  1  0.93453275  0.41528178  0.41851457  1
  Ca2+  Ca103  1  0.74590843  0.41291089  0.58816691  1
  Ca2+  Ca104  1  0.74918850  0.39584086  0.90698406  1
  Ca2+  Ca105  1  0.58219841  0.90462153  0.76554467  1
  Ca2+  Ca106  1  0.92217192  0.41754855  0.41698944  1
  Ca2+  Ca107  1  0.27923401  0.91224527  0.40955427  1
  Mn3.34+  Mn108  1  0.08916823  0.33625663  0.08207309  1
  Mn3.34+  Mn109  1  0.08602632  0.33000644  0.42160338  1
  Mn3.34+  Mn110  1  0.08935458  0.33309129  0.74799654  1
  Mn3.34+  Mn111  1  0.08306838  0.83155407  0.09024257  1
  Mn3.34+  Mn112  1  0.08421910  0.82624197  0.42286517  1
  Mn3.34+  Mn113  1  0.08119037  0.83439970  0.75372486  1
  Mn3.34+  Mn114  1  0.41448666  0.33102473  0.08186613  1
  Mn3.34+  Mn115  1  0.41936051  0.33373743  0.42212436  1
  Mn3.34+  Mn116  1  0.41610233  0.32959765  0.75343714  1
  Mn3.34+  Mn117  1  0.41739163  0.83699691  0.08724134  1
  Mn3.34+  Mn118  1  0.41748470  0.82794323  0.41319016  1
  Mn3.34+  Mn119  1  0.41999235  0.83480248  0.74938734  1
  Mn3.34+  Mn120  1  0.74825240  0.32747937  0.08143941  1
  Mn3.34+  Mn121  1  0.74724912  0.33718316  0.42340276  1
  Mn3.34+  Mn122  1  0.75234426  0.33185197  0.74980073  1
  Mn3.34+  Mn123  1  0.74931355  0.83838480  0.08479861  1
  Mn3.34+  Mn124  1  0.74871239  0.83527624  0.41480493  1
  Mn3.34+  Mn125  1  0.74869465  0.83358847  0.74954782  1
  Mn3.34+  Mn126  1  0.25278062  0.33194920  0.24340414  1
  Mn3.34+  Mn127  1  0.25687204  0.34512776  0.59537139  1
  Mn3.34+  Mn128  1  0.25869098  0.33345771  0.91696515  1
  Mn3.34+  Mn129  1  0.25283808  0.82845610  0.24343744  1
  Mn3.34+  Mn130  1  0.25469252  0.83237952  0.58007133  1
  Mn3.34+  Mn131  1  0.25012322  0.83471959  0.92626790  1
  Mn3.34+  Mn132  1  0.58297270  0.33268116  0.25520139  1
  Mn3.34+  Mn133  1  0.57696957  0.33690059  0.57820061  1
  Mn3.34+  Mn134  1  0.57981475  0.33355031  0.91832261  1
  Mn3.34+  Mn135  1  0.58763631  0.83700089  0.24683878  1
  Mn3.34+  Mn136  1  0.58137859  0.83337769  0.58424278  1
  Mn3.34+  Mn137  1  0.58312499  0.83806058  0.91708558  1
  Mn3.34+  Mn138  1  0.91246183  0.33098627  0.24594440  1
  Mn3.34+  Mn139  1  0.91661610  0.33391314  0.58210252  1
  Mn3.34+  Mn140  1  0.91894817  0.33063382  0.91806367  1
  Mn3.34+  Mn141  1  0.91176695  0.83288756  0.24281692  1
  Mn3.34+  Mn142  1  0.91417464  0.83259078  0.57930308  1
  Mn3.34+  Mn143  1  0.91292390  0.83683562  0.91723473  1
  Mn3.34+  Mn144  1  0.57758201  0.16788700  0.57840093  1
  Mn3.34+  Mn145  1  0.75624770  0.16685829  0.75631237  1
  Mn3.34+  Mn146  1  0.42710600  0.65819144  0.74804371  1
  Mn3.34+  Mn147  1  0.09158865  0.16970169  0.41861706  1
  Mn3.34+  Mn148  1  0.91398154  0.16512532  0.24512279  1
  Mn3.34+  Mn149  1  0.07839218  0.16305253  0.42170889  1
  Mn3.34+  Mn150  1  0.41402913  0.16755216  0.74945998  1
  Mn3.34+  Mn151  1  0.58356237  0.16485438  0.24912997  1
  Mn3.34+  Mn152  1  0.75179113  0.66677771  0.75222679  1
  Mn3.34+  Mn153  1  0.41349199  0.66392537  0.74556447  1
  Mn3.34+  Mn154  1  0.25117597  0.16954752  0.25158400  1
  Mn3.34+  Mn155  1  0.08324472  0.66900638  0.75087421  1
  Mn3.34+  Mn156  1  0.41973625  0.16967940  0.41957870  1
  Mn3.34+  Mn157  1  0.92105033  0.17005111  0.58179515  1
  Mn3.34+  Mn158  1  0.58347273  0.66314981  0.57725014  1
  Mn3.34+  Mn159  1  0.91160566  0.66286446  0.57766592  1
  Mn3.34+  Mn160  1  0.57999917  0.67587179  0.91679893  1
  Mn3.34+  Mn161  1  0.91073108  0.17627585  0.58429709  1
  Mn3.34+  Mn162  1  0.58852167  0.16763983  0.91984015  1
  Mn3.34+  Mn163  1  0.75137072  0.67241113  0.08709970  1
  Mn3.34+  Mn164  1  0.74679225  0.16857709  0.41983845  1
  Mn3.34+  Mn165  1  0.74734896  0.66647061  0.41753586  1
  Mn3.34+  Mn166  1  0.92224813  0.66875955  0.57902273  1
  Mn3.34+  Mn167  1  0.41104117  0.67726632  0.08964651  1
  Mn3.34+  Mn168  1  0.08251996  0.66601576  0.09236800  1
  Mn3.34+  Mn169  1  0.25727276  0.16307490  0.58758861  1
  Mn3.34+  Mn170  1  0.92839424  0.15723617  0.91225280  1
  Mn3.34+  Mn171  1  0.25003759  0.66490770  0.58239694  1
  Mn3.34+  Mn172  1  0.24343196  0.65847451  0.91930643  1
  Mn3.34+  Mn173  1  0.09088798  0.16607105  0.75585979  1
  Mn3.34+  Mn174  1  0.91503834  0.66893882  0.24924192  1
  Mn3.34+  Mn175  1  0.25608176  0.66524761  0.92071903  1
  Mn3.34+  Mn176  1  0.74097682  0.66199699  0.75487111  1
  Mn3.34+  Mn177  1  0.59948852  0.16326920  0.91829618  1
  Mn3.34+  Mn178  1  0.91858473  0.67405596  0.91711255  1
  Mn3.34+  Mn179  1  0.75403321  0.16164353  0.08730360  1
  Mn3.34+  Mn180  1  0.40520005  0.49078671  0.74297492  1
  Mn3.34+  Mn181  1  0.25108844  -0.00086327  0.24343293  1
  Mn3.34+  Mn182  1  0.57839520  0.49796125  0.57894174  1
  Mn3.34+  Mn183  1  0.56375663  0.00274333  0.58858283  1
  Mn3.34+  Mn184  1  0.26927589  0.00029568  0.59806850  1
  Mn3.34+  Mn185  1  0.58684150  0.49564364  0.27635786  1
  Mn3.34+  Mn186  1  0.74685928  0.50170662  0.73998892  1
  Mn3.34+  Mn187  1  0.23453929  0.00790454  0.91545577  1
  Mn3.34+  Mn188  1  0.74766488  0.50267438  0.40612509  1
  Mn3.34+  Mn189  1  0.09912048  0.50390798  0.07169309  1
  Mn3.34+  Mn190  1  0.23260897  0.50539800  0.59509826  1
  Mn3.34+  Mn191  1  0.74952843  -0.00385884  0.41986237  1
  Mn3.34+  Mn192  1  0.93231432  0.50216263  0.60295551  1
  Mn3.34+  Mn193  1  0.41375102  -0.00021254  0.76344824  1
  Mn3.34+  Mn194  1  0.90901388  -0.00308945  0.24560262  1
  Mn3.34+  Mn195  1  0.08264853  -0.00473594  0.08038612  1
  Mn3.34+  Mn196  1  0.58465744  0.50529868  0.90875095  1
  Mn3.34+  Mn197  1  0.57553197  -0.00408603  0.58812001  1
  Mn3.34+  Mn198  1  0.91446600  0.00239730  0.58704829  1
  Mn3.34+  Mn199  1  0.41652561  0.49829806  0.74434169  1
  Mn3.34+  Mn200  1  0.74790765  0.00064807  0.75677536  1
  Mn3.34+  Mn201  1  0.40672475  0.49653871  0.08342454  1
  Mn3.34+  Mn202  1  0.23255583  0.00500234  0.90366472  1
  Mn3.34+  Mn203  1  0.58472386  -0.00390422  0.25974811  1
  Mn3.34+  Mn204  1  0.57152315  0.49828852  0.91067527  1
  Mn3.34+  Mn205  1  0.92289430  0.50273468  0.91708708  1
  Mn3.34+  Mn206  1  0.91022208  0.49993809  0.25060013  1
  Mn3.34+  Mn207  1  0.25298365  0.49760278  0.25313589  1
  Mn3.34+  Mn208  1  0.24926306  0.49777080  0.91639478  1
  Mn3.34+  Mn209  1  0.39408822  0.50059272  0.08317158  1
  Mn3.34+  Mn210  1  0.73904027  0.49631037  0.09111775  1
  Mn3.34+  Mn211  1  0.08232469  0.00234106  0.75272216  1
  Mn3.34+  Mn212  1  0.74804906  0.00203618  0.07733614  1
  Mn3.34+  Mn213  1  0.90779779  0.49817066  0.91437112  1
  Mn3.34+  Mn214  1  0.75311311  0.50264770  0.09208585  1
  Mn3.34+  Mn215  1  0.42056102  0.49412257  0.40359218  1
  O2-  O216  1  0.00167984  0.16064359  -0.00668279  1
  O2-  O217  1  0.00189185  0.14620426  0.33336508  1
  O2-  O218  1  0.00408635  0.16408680  0.65873662  1
  O2-  O219  1  0.00259743  0.67546550  -0.00053622  1
  O2-  O220  1  0.00355749  0.66519896  0.31959302  1
  O2-  O221  1  -0.00395823  0.66500391  0.66639376  1
  O2-  O222  1  0.33176029  0.16355182  0.01112347  1
  O2-  O223  1  0.32731883  0.16064411  0.34238336  1
  O2-  O224  1  0.33211335  0.17916041  0.67002565  1
  O2-  O225  1  0.33376828  0.65966515  0.00489366  1
  O2-  O226  1  0.30580099  0.66444878  0.33585402  1
  O2-  O227  1  0.33298870  0.63676370  0.67202296  1
  O2-  O228  1  0.66918054  0.13630119  0.00827634  1
  O2-  O229  1  0.66156523  0.15633809  0.34146769  1
  O2-  O230  1  0.66467657  0.14577867  0.66683174  1
  O2-  O231  1  0.66177144  0.66013664  0.00427872  1
  O2-  O232  1  0.67453007  0.66165551  0.33737636  1
  O2-  O233  1  0.66890823  0.64499875  0.66676647  1
  O2-  O234  1  0.17470845  0.17333147  0.01626634  1
  O2-  O235  1  0.17243871  0.14459695  0.33926926  1
  O2-  O236  1  0.16695670  0.17100938  0.65911438  1
  O2-  O237  1  0.16174423  0.66410204  0.00450222  1
  O2-  O238  1  0.16964344  0.68894454  0.33561408  1
  O2-  O239  1  0.16784121  0.65921297  0.67265634  1
  O2-  O240  1  0.50367106  0.15367187  -0.00209948  1
  O2-  O241  1  0.49333665  0.15390312  0.32548419  1
  O2-  O242  1  0.50112470  0.14297923  0.66317903  1
  O2-  O243  1  0.49581362  0.67114592  0.00056552  1
  O2-  O244  1  0.49268954  0.66310960  0.31344933  1
  O2-  O245  1  0.50178155  0.64965136  0.66461545  1
  O2-  O246  1  0.83757129  0.15297148  0.00753221  1
  O2-  O247  1  0.83229369  0.16194980  0.33851914  1
  O2-  O248  1  0.83034417  0.15227810  0.66290213  1
  O2-  O249  1  0.83678411  0.65999037  0.00284513  1
  O2-  O250  1  0.84599468  0.64844948  0.34465320  1
  O2-  O251  1  0.84094812  0.64634274  0.66857814  1
  O2-  O252  1  0.00519727  0.35717638  -0.00413532  1
  O2-  O253  1  0.00100212  0.34978674  0.33033387  1
  O2-  O254  1  -0.00400370  0.32828191  0.66739170  1
  O2-  O255  1  -0.00468840  0.82971241  0.00533717  1
  O2-  O256  1  0.00470556  0.84085819  0.33172850  1
  O2-  O257  1  0.00010742  0.85126526  0.66520872  1
  O2-  O258  1  0.33296849  0.33769081  0.00383808  1
  O2-  O259  1  0.32615173  0.34269557  0.33737976  1
  O2-  O260  1  0.33466758  0.31791771  0.66866138  1
  O2-  O261  1  0.33807700  0.82716496  0.00440219  1
  O2-  O262  1  0.33477834  0.84338629  0.32634334  1
  O2-  O263  1  0.33296048  0.85239015  0.66510876  1
  O2-  O264  1  0.66593370  0.35266686  0.00119661  1
  O2-  O265  1  0.67737546  0.32639670  0.33020217  1
  O2-  O266  1  0.66764998  0.34290752  0.66553518  1
  O2-  O267  1  0.66039390  0.83326447  0.00303827  1
  O2-  O268  1  0.66323083  0.86005441  0.33392596  1
  O2-  O269  1  0.66620636  0.85009010  0.67092592  1
  O2-  O270  1  0.16791262  0.35006649  -0.00051795  1
  O2-  O271  1  0.16938600  0.34446017  0.33393813  1
  O2-  O272  1  0.17132623  0.32800868  0.66852291  1
  O2-  O273  1  0.15590596  0.82941906  -0.00113945  1
  O2-  O274  1  0.17102574  0.84023653  0.33932815  1
  O2-  O275  1  0.16716719  0.85635494  0.66629693  1
  O2-  O276  1  0.50113633  0.34754745  0.00497029  1
  O2-  O277  1  0.50058159  0.34460741  0.33698083  1
  O2-  O278  1  0.50091098  0.34580786  0.66646801  1
  O2-  O279  1  0.50025851  0.82126676  0.00100733  1
  O2-  O280  1  0.49584402  0.84748187  0.32449587  1
  O2-  O281  1  0.50730235  0.84643360  0.67618892  1
  O2-  O282  1  0.83481218  0.34597848  -0.00004544  1
  O2-  O283  1  0.84056384  0.34377200  0.34314262  1
  O2-  O284  1  0.83247171  0.34615069  0.66290243  1
  O2-  O285  1  0.83334230  0.83453582  -0.00046068  1
  O2-  O286  1  0.84291056  0.85020907  0.33655795  1
  O2-  O287  1  0.84478719  0.83866917  0.67426460  1
  O2-  O288  1  -0.00707630  0.16584922  0.16697863  1
  O2-  O289  1  -0.00353249  0.19279114  0.49818237  1
  O2-  O290  1  0.00187927  0.17652971  0.83053553  1
  O2-  O291  1  -0.01076771  0.68603857  0.15962659  1
  O2-  O292  1  -0.00808229  0.68254402  0.49091154  1
  O2-  O293  1  -0.00038346  0.68981584  0.83482543  1
  O2-  O294  1  0.33253852  0.18354215  0.18146340  1
  O2-  O295  1  0.33318456  0.18334289  0.50000763  1
  O2-  O296  1  0.35194080  0.17679711  0.83907639  1
  O2-  O297  1  0.34366485  0.68894014  0.17540190  1
  O2-  O298  1  0.33590181  0.67689654  0.51435612  1
  O2-  O299  1  0.33744756  0.67429095  0.83303623  1
  O2-  O300  1  0.67049619  0.17550617  0.17204634  1
  O2-  O301  1  0.67822422  0.17824608  0.51364510  1
  O2-  O302  1  0.66479474  0.18730393  0.82848462  1
  O2-  O303  1  0.66688907  0.67664507  0.16279159  1
  O2-  O304  1  0.66977722  0.68146093  0.50337432  1
  O2-  O305  1  0.66856871  0.69152010  0.84359737  1
  O2-  O306  1  0.16986266  0.17975142  0.17870616  1
  O2-  O307  1  0.16666542  0.19082177  0.50281396  1
  O2-  O308  1  0.16632068  0.17400175  0.82797619  1
  O2-  O309  1  0.15530934  0.68793516  0.16769673  1
  O2-  O310  1  0.17674826  0.68153317  0.50254114  1
  O2-  O311  1  0.16586717  0.68001689  0.83621484  1
  O2-  O312  1  0.50992959  0.16638949  0.16522032  1
  O2-  O313  1  0.50991848  0.18203422  0.48814640  1
  O2-  O314  1  0.51350418  0.17448912  0.82604445  1
  O2-  O315  1  0.50450446  0.68786989  0.15199944  1
  O2-  O316  1  0.50097189  0.67749321  0.50842387  1
  O2-  O317  1  0.49720626  0.68967099  0.83368306  1
  O2-  O318  1  0.82923458  0.18368590  0.17068818  1
  O2-  O319  1  0.83346718  0.19357542  0.50022684  1
  O2-  O320  1  0.83015783  0.17732081  0.84043803  1
  O2-  O321  1  0.82801932  0.67546032  0.17049188  1
  O2-  O322  1  0.82675688  0.68763196  0.50853528  1
  O2-  O323  1  0.83121139  0.68796494  0.83607035  1
  O2-  O324  1  -0.00480462  0.32827069  0.16418358  1
  O2-  O325  1  -0.00778638  0.31990184  0.49089785  1
  O2-  O326  1  0.00346720  0.32676470  0.83832789  1
  O2-  O327  1  0.00210088  0.81245970  0.17142149  1
  O2-  O328  1  -0.00107353  0.80538036  0.50180411  1
  O2-  O329  1  -0.00192483  0.81686339  0.83879002  1
  O2-  O330  1  0.33829825  0.31271439  0.17309448  1
  O2-  O331  1  0.32809583  0.32278097  0.49973521  1
  O2-  O332  1  0.33675125  0.31366390  0.83400076  1
  O2-  O333  1  0.33882681  0.81290363  0.16809105  1
  O2-  O334  1  0.32474979  0.82380404  0.48634704  1
  O2-  O335  1  0.32783737  0.82614959  0.82628123  1
  O2-  O336  1  0.66251506  0.32141392  0.16463599  1
  O2-  O337  1  0.66334792  0.31510066  0.49757627  1
  O2-  O338  1  0.67273005  0.31910035  0.83555087  1
  O2-  O339  1  0.66714665  0.82917193  0.16446630  1
  O2-  O340  1  0.65881816  0.83004136  0.48907343  1
  O2-  O341  1  0.66341351  0.82013931  0.83319436  1
  O2-  O342  1  0.15795586  0.32075054  0.17695729  1
  O2-  O343  1  0.17104039  0.31797959  0.49712670  1
  O2-  O344  1  0.16292756  0.32348639  0.83812583  1
  O2-  O345  1  0.16441613  0.80928707  0.17302235  1
  O2-  O346  1  0.15806572  0.81876133  0.51220811  1
  O2-  O347  1  0.17071034  0.82626676  0.82744960  1
  O2-  O348  1  0.50094235  0.32573883  0.17171949  1
  O2-  O349  1  0.49698332  0.31552774  0.50137706  1
  O2-  O350  1  0.50724443  0.31805366  0.83181838  1
  O2-  O351  1  0.50021314  0.81938405  0.16620144  1
  O2-  O352  1  0.50283442  0.82261378  0.48891246  1
  O2-  O353  1  0.50335428  0.81662361  0.83494824  1
  O2-  O354  1  0.82741344  0.31626254  0.17099151  1
  O2-  O355  1  0.83055685  0.31286626  0.50319416  1
  O2-  O356  1  0.83590888  0.31910660  0.83289832  1
  O2-  O357  1  0.83492532  0.82481181  0.16042170  1
  O2-  O358  1  0.83462918  0.81473947  0.49883141  1
  O2-  O359  1  0.83673486  0.81439498  0.83217345  1
  O2-  O360  1  0.09523991  0.07000830  0.10749961  1
  O2-  O361  1  0.08540645  0.08478506  0.45692887  1
  O2-  O362  1  0.08959909  0.08237771  0.74270378  1
  O2-  O363  1  0.07333781  0.58302461  0.12001480  1
  O2-  O364  1  0.08836522  0.57882342  0.40202347  1
  O2-  O365  1  0.07757275  0.58898796  0.78271469  1
  O2-  O366  1  0.42001651  0.06464995  0.11579904  1
  O2-  O367  1  0.41253229  0.08639439  0.43631156  1
  O2-  O368  1  0.43406757  0.08061899  0.79142718  1
  O2-  O369  1  0.43163402  0.58163386  0.12152903  1
  O2-  O370  1  0.40590541  0.57426346  0.41340714  1
  O2-  O371  1  0.41778831  0.57302630  0.80042108  1
  O2-  O372  1  0.75596280  0.07759171  0.12269236  1
  O2-  O373  1  0.75603014  0.07830654  0.44998456  1
  O2-  O374  1  0.72801668  0.08349910  0.78662587  1
  O2-  O375  1  0.73893891  0.58506004  0.10658064  1
  O2-  O376  1  0.74788762  0.58303685  0.44270948  1
  O2-  O377  1  0.75439317  0.58136703  0.79802389  1
  O2-  O378  1  0.25745753  0.08149479  0.22885211  1
  O2-  O379  1  0.23940028  0.07742150  0.54423758  1
  O2-  O380  1  0.24997503  0.08919728  0.91040587  1
  O2-  O381  1  0.26811984  0.57381555  0.22572489  1
  O2-  O382  1  0.24955647  0.57753152  0.54932652  1
  O2-  O383  1  0.24807437  0.58013317  0.87936450  1
  O2-  O384  1  0.59316521  0.07655716  0.22744307  1
  O2-  O385  1  0.59238695  0.07747806  0.53949603  1
  O2-  O386  1  0.60080568  0.08274002  0.88501392  1
  O2-  O387  1  0.59540244  0.56523993  0.21496752  1
  O2-  O388  1  0.57989551  0.57831415  0.54764121  1
  O2-  O389  1  0.57062466  0.58674345  0.89720218  1
  O2-  O390  1  0.90132869  0.07993584  0.23017514  1
  O2-  O391  1  0.89513910  0.08401650  0.54167904  1
  O2-  O392  1  0.91708524  0.07994390  0.90346428  1
  O2-  O393  1  0.91574975  0.58304155  0.22607761  1
  O2-  O394  1  0.92708378  0.57535955  0.53727076  1
  O2-  O395  1  0.92432820  0.58458580  0.88633306  1
  O2-  O396  1  0.07850631  0.42425154  0.12077890  1
  O2-  O397  1  0.09174453  0.41330961  0.43271912  1
  O2-  O398  1  0.07360133  0.41427377  0.77149172  1
  O2-  O399  1  0.08545104  0.91985459  0.12527697  1
  O2-  O400  1  0.06564825  0.91749226  0.44318726  1
  O2-  O401  1  0.07064274  0.92130797  0.79074682  1
  O2-  O402  1  0.41982080  0.41872435  0.11987362  1
  O2-  O403  1  0.39778438  0.41682582  0.44086192  1
  O2-  O404  1  0.42247072  0.41456190  0.78162136  1
  O2-  O405  1  0.43558119  0.91682428  0.09320152  1
  O2-  O406  1  0.41544695  0.91430005  0.43134114  1
  O2-  O407  1  0.41710390  0.91995826  0.79556850  1
  O2-  O408  1  0.75596764  0.41611716  0.11425193  1
  O2-  O409  1  0.77290332  0.42351960  0.44785348  1
  O2-  O410  1  0.75183079  0.41799001  0.77254154  1
  O2-  O411  1  0.75372764  0.92131759  0.09999951  1
  O2-  O412  1  0.77304166  0.91761942  0.44923436  1
  O2-  O413  1  0.76846856  0.91701159  0.77751878  1
  O2-  O414  1  0.24516086  0.42007212  0.21744060  1
  O2-  O415  1  0.24488490  0.43048323  0.55430047  1
  O2-  O416  1  0.24070354  0.41850147  0.88733377  1
  O2-  O417  1  0.24022694  0.91693882  0.22940330  1
  O2-  O418  1  0.23198578  0.92361777  0.53629836  1
  O2-  O419  1  0.23382478  0.92165366  0.88637131  1
  O2-  O420  1  0.59099874  0.41717837  0.23150321  1
  O2-  O421  1  0.59670573  0.41772756  0.55466956  1
  O2-  O422  1  0.59668947  0.42057937  0.87935680  1
  O2-  O423  1  0.56882621  0.92286016  0.21343930  1
  O2-  O424  1  0.56760011  0.92102212  0.54664596  1
  O2-  O425  1  0.57502865  0.91831725  0.90483510  1
  O2-  O426  1  0.89814283  0.41729688  0.22276894  1
  O2-  O427  1  0.91694868  0.42702194  0.55241391  1
  O2-  O428  1  0.90764411  0.41792016  0.88377586  1
  O2-  O429  1  0.93279048  0.91625341  0.21319466  1
  O2-  O430  1  0.93670933  0.92126777  0.54157737  1
  O2-  O431  1  0.92825072  0.92064521  0.88883585  1
  O2-  O432  1  -0.01064852  -0.01249373  0.02863446  1
  O2-  O433  1  0.00120844  -0.01297383  0.31879795  1
  O2-  O434  1  -0.00500794  -0.02161499  0.67243090  1
  O2-  O435  1  -0.01944854  0.50096658  0.01948441  1
  O2-  O436  1  0.00127753  0.47702855  0.32052347  1
  O2-  O437  1  -0.02005985  0.49540447  0.69844759  1
  O2-  O438  1  0.34369407  0.00046689  -0.04562489  1
  O2-  O439  1  0.31718437  -0.00192942  0.34758659  1
  O2-  O440  1  0.31125819  -0.00904373  0.71092555  1
  O2-  O441  1  0.34695248  0.51580344  -0.01995099  1
  O2-  O442  1  0.30613138  0.48702345  0.35468116  1
  O2-  O443  1  0.31949718  0.51184437  0.66959339  1
  O2-  O444  1  0.63987900  0.00424469  0.04883741  1
  O2-  O445  1  0.65501176  0.00409141  0.35334080  1
  O2-  O446  1  0.66684497  0.01564124  0.66127350  1
  O2-  O447  1  0.67037855  0.50291598  -0.00701018  1
  O2-  O448  1  0.70716358  0.49645973  0.28755841  1
  O2-  O449  1  0.67555235  0.49855741  0.64247910  1
  O2-  O450  1  0.14655123  -0.01096601  -0.01311853  1
  O2-  O451  1  0.16086491  -0.00567860  0.31775857  1
  O2-  O452  1  0.15482467  -0.01581406  0.65493128  1
  O2-  O453  1  0.13106546  0.50056163  -0.05140712  1
  O2-  O454  1  0.15618804  0.49551399  0.30075039  1
  O2-  O455  1  0.15332132  0.50873394  0.66053802  1
  O2-  O456  1  0.49101872  0.03247016  -0.02388364  1
  O2-  O457  1  0.50103206  -0.01164202  0.33097471  1
  O2-  O458  1  0.51250109  0.00034588  0.69646892  1
  O2-  O459  1  0.51044803  0.50409227  0.01677617  1
  O2-  O460  1  0.46761154  0.49941427  0.28984177  1
  O2-  O461  1  0.50482126  0.49413793  0.67041941  1
  O2-  O462  1  0.83154315  0.00761310  0.01067243  1
  O2-  O463  1  0.84917769  -0.00212558  0.35475592  1
  O2-  O464  1  0.83067738  0.01264910  0.67070326  1
  O2-  O465  1  0.82380478  0.51031744  -0.00344347  1
  O2-  O466  1  0.86687283  0.50812618  0.37557160  1
  O2-  O467  1  0.83150756  0.51589129  0.65193010  1
  O2-  O468  1  0.58601866  0.74815752  0.60790608  1
  O2-  O469  1  0.07784385  0.24697283  0.37870869  1
  O2-  O470  1  0.42799026  0.25367899  0.06714961  1
  O2-  O471  1  0.09033137  0.75373499  0.72336350  1
  O2-  O472  1  0.89799167  0.75128877  0.27027124  1
  O2-  O473  1  0.40837350  0.74881716  0.72057762  1
  O2-  O474  1  0.92749805  0.24898101  0.26944453  1
  O2-  O475  1  0.74009647  0.24466545  0.05662247  1
  O2-  O476  1  0.58008061  0.24874328  0.60877455  1
  O2-  O477  1  0.91640131  0.25054676  0.93658780  1
  O2-  O478  1  0.75426941  0.75246654  0.38923250  1
  O2-  O479  1  0.24736566  0.25446452  0.93132189  1
  O2-  O480  1  0.59300356  0.76001397  0.26901900  1
  O2-  O481  1  0.57870317  0.24762558  0.26773858  1
  O2-  O482  1  0.07859759  0.24922682  0.73857462  1
  O2-  O483  1  0.44001571  0.24761986  0.72974590  1
  O2-  O484  1  0.59557399  0.24636589  0.95284446  1
  O2-  O485  1  0.41723706  0.25204032  0.38900291  1
  O2-  O486  1  0.74954015  0.75235708  0.06746122  1
  O2-  O487  1  0.25661457  0.74973272  0.61267374  1
  O2-  O488  1  0.41697221  0.75007857  0.39826073  1
  O2-  O489  1  0.07676506  0.25801122  0.06616678  1
  O2-  O490  1  0.74464915  0.74726141  0.71434524  1
  O2-  O491  1  0.75408913  0.24780824  0.72385102  1
  O2-  O492  1  0.25171780  0.74725040  0.92582118  1
