# generated using pymatgen
data_Ca108Mn108O277
_symmetry_space_group_name_H-M   'P 1'
_cell_length_a   16.03245271
_cell_length_b   22.31320263
_cell_length_c   16.39347082
_cell_angle_alpha   90.00014033
_cell_angle_beta   89.99898739
_cell_angle_gamma   90.00264777
_symmetry_Int_Tables_number   1
_chemical_formula_structural   Ca108Mn108O277
_chemical_formula_sum   'Ca108 Mn108 O277'
_cell_volume   5864.52427852
_cell_formula_units_Z   1
loop_
 _symmetry_equiv_pos_site_id
 _symmetry_equiv_pos_as_xyz
  1  'x, y, z'
loop_
 _atom_type_symbol
 _atom_type_oxidation_number
  Ca2+  2.0
  Mn3.34+  3.34
  O2-  -2.0
loop_
 _atom_site_type_symbol
 _atom_site_label
 _atom_site_symmetry_multiplicity
 _atom_site_fract_x
 _atom_site_fract_y
 _atom_site_fract_z
 _atom_site_occupancy
  Ca2+  Ca0  1  0.08038522  0.25679193  0.24231175  1
  Ca2+  Ca1  1  0.09070852  0.24664979  0.59100349  1
  Ca2+  Ca2  1  0.07373939  0.25245587  0.90566329  1
  Ca2+  Ca3  1  0.10244744  0.73831774  0.22930827  1
  Ca2+  Ca4  1  0.07879006  0.75166384  0.58441875  1
  Ca2+  Ca5  1  0.08943567  0.73986013  0.93069622  1
  Ca2+  Ca6  1  0.42073115  0.25793782  0.24768933  1
  Ca2+  Ca7  1  0.39215054  0.25382310  0.57895972  1
  Ca2+  Ca8  1  0.42891582  0.26123089  0.92308874  1
  Ca2+  Ca9  1  0.40977905  0.74856023  0.24401008  1
  Ca2+  Ca10  1  0.42040654  0.76198377  0.56452080  1
  Ca2+  Ca11  1  0.41385897  0.76467770  0.92746955  1
  Ca2+  Ca12  1  0.74934499  0.25189573  0.26814460  1
  Ca2+  Ca13  1  0.75486804  0.24580823  0.55875674  1
  Ca2+  Ca14  1  0.74623730  0.25480597  0.92264909  1
  Ca2+  Ca15  1  0.73942672  0.74679326  0.24016243  1
  Ca2+  Ca16  1  0.75627818  0.74864185  0.58777703  1
  Ca2+  Ca17  1  0.75194739  0.74968621  0.92345466  1
  Ca2+  Ca18  1  0.25124469  0.26375055  0.08505853  1
  Ca2+  Ca19  1  0.25670177  0.26280278  0.43205114  1
  Ca2+  Ca20  1  0.23172598  0.23477542  0.73003442  1
  Ca2+  Ca21  1  0.24602023  0.73427338  0.09496335  1
  Ca2+  Ca22  1  0.24776579  0.72393864  0.38491756  1
  Ca2+  Ca23  1  0.23631211  0.75060691  0.76196400  1
  Ca2+  Ca24  1  0.57516808  0.26036472  0.08528008  1
  Ca2+  Ca25  1  0.58870439  0.26157728  0.41600037  1
  Ca2+  Ca26  1  0.57751383  0.26105887  0.75553230  1
  Ca2+  Ca27  1  0.59693330  0.75148511  0.09173167  1
  Ca2+  Ca28  1  0.60854926  0.73789714  0.40462525  1
  Ca2+  Ca29  1  0.61200588  0.75374792  0.75336227  1
  Ca2+  Ca30  1  0.92389939  0.25168133  0.07426629  1
  Ca2+  Ca31  1  0.89760407  0.23703953  0.42265686  1
  Ca2+  Ca32  1  0.94477437  0.25413162  0.74685171  1
  Ca2+  Ca33  1  0.90349950  0.74273494  0.08085694  1
  Ca2+  Ca34  1  0.89551188  0.73877656  0.41796124  1
  Ca2+  Ca35  1  0.90500321  0.75565977  0.74976776  1
  Ca2+  Ca36  1  0.39634931  0.58843824  0.24492501  1
  Ca2+  Ca37  1  0.61193494  0.09839335  0.41229108  1
  Ca2+  Ca38  1  0.90154343  0.61688734  0.75583561  1
  Ca2+  Ca39  1  0.58306095  0.59077295  0.09418134  1
  Ca2+  Ca40  1  0.13541575  0.58836345  0.23373243  1
  Ca2+  Ca41  1  0.72978926  0.59409123  0.25449525  1
  Ca2+  Ca42  1  0.77246854  0.09436641  0.28256099  1
  Ca2+  Ca43  1  0.93408156  0.10984990  0.73225153  1
  Ca2+  Ca44  1  0.77166188  0.60375668  0.58064365  1
  Ca2+  Ca45  1  0.75408327  0.08385133  0.92275542  1
  Ca2+  Ca46  1  0.40395837  0.57497376  0.58754438  1
  Ca2+  Ca47  1  0.80287748  0.09778593  0.55993212  1
  Ca2+  Ca48  1  0.71956570  0.59289077  0.25621302  1
  Ca2+  Ca49  1  0.06297099  0.09840188  0.24552564  1
  Ca2+  Ca50  1  0.38607857  0.58943867  0.24394810  1
  Ca2+  Ca51  1  0.05583475  0.11408922  0.57711187  1
  Ca2+  Ca52  1  0.24039937  0.58523874  0.75271085  1
  Ca2+  Ca53  1  0.12523696  0.58807741  0.23117381  1
  Ca2+  Ca54  1  0.24574337  0.59400583  0.08322525  1
  Ca2+  Ca55  1  0.42849272  0.07633639  0.92806773  1
  Ca2+  Ca56  1  0.06564248  0.10351189  0.90862779  1
  Ca2+  Ca57  1  0.60015624  0.09745297  0.41101148  1
  Ca2+  Ca58  1  0.92306098  0.09069400  0.07203408  1
  Ca2+  Ca59  1  0.24769216  0.07695614  0.06144828  1
  Ca2+  Ca60  1  0.41253569  0.57623377  0.95086207  1
  Ca2+  Ca61  1  0.41690194  0.57519594  0.58850909  1
  Ca2+  Ca62  1  0.57246543  0.07097176  0.75283119  1
  Ca2+  Ca63  1  0.93997539  0.11589383  0.73000529  1
  Ca2+  Ca64  1  0.05820351  0.10978352  0.90552261  1
  Ca2+  Ca65  1  0.06673196  0.58874007  0.98505401  1
  Ca2+  Ca66  1  0.58510285  0.07119437  0.75304998  1
  Ca2+  Ca67  1  0.38063114  0.10115511  0.60240412  1
  Ca2+  Ca68  1  0.57922829  0.07626691  0.05791488  1
  Ca2+  Ca69  1  0.24657268  0.11277601  0.44519139  1
  Ca2+  Ca70  1  0.06334879  0.58861072  0.58878478  1
  Ca2+  Ca71  1  0.23437820  0.11182027  0.44486188  1
  Ca2+  Ca72  1  0.27185811  0.91156236  0.06953218  1
  Ca2+  Ca73  1  0.07936351  0.40679024  0.58580729  1
  Ca2+  Ca74  1  0.25730481  0.41321595  0.73875199  1
  Ca2+  Ca75  1  0.07863788  0.90947539  0.92755573  1
  Ca2+  Ca76  1  0.25949884  0.41820505  0.08263912  1
  Ca2+  Ca77  1  0.75752764  0.92011864  0.59298988  1
  Ca2+  Ca78  1  0.58626751  0.91196965  0.75210755  1
  Ca2+  Ca79  1  0.06343946  0.90178235  0.23935317  1
  Ca2+  Ca80  1  0.40991727  0.40994085  0.59511193  1
  Ca2+  Ca81  1  0.08386709  0.40600257  0.92430059  1
  Ca2+  Ca82  1  0.08770090  0.41567172  0.24273871  1
  Ca2+  Ca83  1  0.76676987  0.39800529  0.58370604  1
  Ca2+  Ca84  1  0.57001564  0.40955631  0.74003705  1
  Ca2+  Ca85  1  0.73417887  0.91104315  0.91890950  1
  Ca2+  Ca86  1  0.75041327  0.40383656  0.92162319  1
  Ca2+  Ca87  1  0.26051064  0.89282637  0.42122128  1
  Ca2+  Ca88  1  0.43551657  0.91614676  0.60015879  1
  Ca2+  Ca89  1  0.41877132  0.41795518  0.25047960  1
  Ca2+  Ca90  1  0.24890840  0.89235619  0.42108921  1
  Ca2+  Ca91  1  0.26668818  0.90558452  0.75944515  1
  Ca2+  Ca92  1  0.42721046  0.42058047  0.24554039  1
  Ca2+  Ca93  1  0.25108448  0.41959955  0.40917454  1
  Ca2+  Ca94  1  0.90712620  0.90611431  0.41702296  1
  Ca2+  Ca95  1  0.09102271  0.91200514  0.92733366  1
  Ca2+  Ca96  1  0.25442047  0.90658644  0.75619373  1
  Ca2+  Ca97  1  0.75539023  0.39902504  0.58366081  1
  Ca2+  Ca98  1  0.59215669  0.89993328  0.42340946  1
  Ca2+  Ca99  1  0.06972578  0.90133824  0.58642557  1
  Ca2+  Ca100  1  0.91569286  0.40685321  0.41125951  1
  Ca2+  Ca101  1  0.07506074  0.90266424  0.24045657  1
  Ca2+  Ca102  1  0.74877233  0.91607619  0.59132286  1
  Ca2+  Ca103  1  0.57646412  0.41498826  0.08142254  1
  Ca2+  Ca104  1  0.26144282  0.91033343  0.06970070  1
  Ca2+  Ca105  1  0.92101813  0.40473028  0.07831115  1
  Ca2+  Ca106  1  0.09632505  0.41880119  0.24698091  1
  Ca2+  Ca107  1  0.75031965  0.89971267  0.24172979  1
  Mn3.34+  Mn108  1  0.08477009  0.33391930  0.08107129  1
  Mn3.34+  Mn109  1  0.08037849  0.33683342  0.41923808  1
  Mn3.34+  Mn110  1  0.08769001  0.33618300  0.75297438  1
  Mn3.34+  Mn111  1  0.07868729  0.82729811  0.08443299  1
  Mn3.34+  Mn112  1  0.07564058  0.82601304  0.41650965  1
  Mn3.34+  Mn113  1  0.07485104  0.82693011  0.75395790  1
  Mn3.34+  Mn114  1  0.41716184  0.33592248  0.08217544  1
  Mn3.34+  Mn115  1  0.42227606  0.33972755  0.42035554  1
  Mn3.34+  Mn116  1  0.41074335  0.33833870  0.75681087  1
  Mn3.34+  Mn117  1  0.42727833  0.83431705  0.08530031  1
  Mn3.34+  Mn118  1  0.42373614  0.82849898  0.41106695  1
  Mn3.34+  Mn119  1  0.42539974  0.83051885  0.75444157  1
  Mn3.34+  Mn120  1  0.74979045  0.33264627  0.09076086  1
  Mn3.34+  Mn121  1  0.74841378  0.33261130  0.41252075  1
  Mn3.34+  Mn122  1  0.75577487  0.33393415  0.75578419  1
  Mn3.34+  Mn123  1  0.74843337  0.83321751  0.08136555  1
  Mn3.34+  Mn124  1  0.75075536  0.82886902  0.41444110  1
  Mn3.34+  Mn125  1  0.75499036  0.83441192  0.75540179  1
  Mn3.34+  Mn126  1  0.25228414  0.33806074  0.25013539  1
  Mn3.34+  Mn127  1  0.24481546  0.33520901  0.58272524  1
  Mn3.34+  Mn128  1  0.25420281  0.33433981  0.91208940  1
  Mn3.34+  Mn129  1  0.25420266  0.83228833  0.24222140  1
  Mn3.34+  Mn130  1  0.24910586  0.83204589  0.58641293  1
  Mn3.34+  Mn131  1  0.25250610  0.83216400  0.91619600  1
  Mn3.34+  Mn132  1  0.59209986  0.34928556  0.24997606  1
  Mn3.34+  Mn133  1  0.58049098  0.32884927  0.58404486  1
  Mn3.34+  Mn134  1  0.58322074  0.33435081  0.91686598  1
  Mn3.34+  Mn135  1  0.57895261  0.83223443  0.24805706  1
  Mn3.34+  Mn136  1  0.58758624  0.83934939  0.58317907  1
  Mn3.34+  Mn137  1  0.58107667  0.84192753  0.91966491  1
  Mn3.34+  Mn138  1  0.91293000  0.33400763  0.24521879  1
  Mn3.34+  Mn139  1  0.92329035  0.32812902  0.58116431  1
  Mn3.34+  Mn140  1  0.91439654  0.33153252  0.90887202  1
  Mn3.34+  Mn141  1  0.91028368  0.82977253  0.24772307  1
  Mn3.34+  Mn142  1  0.91348490  0.83895832  0.57950404  1
  Mn3.34+  Mn143  1  0.91477447  0.83349776  0.91634228  1
  Mn3.34+  Mn144  1  0.58236685  0.67189831  0.58226826  1
  Mn3.34+  Mn145  1  0.08224500  0.17145492  0.08467458  1
  Mn3.34+  Mn146  1  0.23973591  0.66229009  0.57747495  1
  Mn3.34+  Mn147  1  0.58890145  0.16483234  0.58434137  1
  Mn3.34+  Mn148  1  0.25008829  0.16553888  0.91283861  1
  Mn3.34+  Mn149  1  0.07942919  0.66464943  0.75794449  1
  Mn3.34+  Mn150  1  0.59193581  0.66424259  0.58023291  1
  Mn3.34+  Mn151  1  0.41774393  0.17031722  0.75751057  1
  Mn3.34+  Mn152  1  0.41805242  0.66192081  0.41411335  1
  Mn3.34+  Mn153  1  0.25898067  0.16396098  0.24567731  1
  Mn3.34+  Mn154  1  0.07714253  0.66455072  0.41595893  1
  Mn3.34+  Mn155  1  0.57448758  0.15945854  0.58337744  1
  Mn3.34+  Mn156  1  0.57975324  0.16506240  0.24375072  1
  Mn3.34+  Mn157  1  0.41738627  0.17323140  0.41405537  1
  Mn3.34+  Mn158  1  0.57982518  0.16804388  0.91725433  1
  Mn3.34+  Mn159  1  0.59594182  0.66151548  0.91433290  1
  Mn3.34+  Mn160  1  0.75414094  0.16140260  0.09058845  1
  Mn3.34+  Mn161  1  0.74023715  0.16753086  0.08846647  1
  Mn3.34+  Mn162  1  0.25823174  0.15913061  0.91001672  1
  Mn3.34+  Mn163  1  0.74689041  0.16983210  0.75821505  1
  Mn3.34+  Mn164  1  0.42216152  0.16608939  0.08744937  1
  Mn3.34+  Mn165  1  0.42528498  0.65483575  0.76446828  1
  Mn3.34+  Mn166  1  0.91016742  0.66709451  0.92121700  1
  Mn3.34+  Mn167  1  0.75169212  0.18113408  0.75336473  1
  Mn3.34+  Mn168  1  0.41683033  0.66065916  0.76018949  1
  Mn3.34+  Mn169  1  0.24624039  0.17107678  0.24887915  1
  Mn3.34+  Mn170  1  0.91992539  0.65732635  0.24993762  1
  Mn3.34+  Mn171  1  0.25050515  0.66896298  0.58004203  1
  Mn3.34+  Mn172  1  0.91724614  0.17149961  0.24628434  1
  Mn3.34+  Mn173  1  0.41794589  0.66712821  0.08494511  1
  Mn3.34+  Mn174  1  0.07503823  0.17995837  0.41217033  1
  Mn3.34+  Mn175  1  0.92060245  0.66771760  0.57947824  1
  Mn3.34+  Mn176  1  0.25168522  0.66806803  0.91756409  1
  Mn3.34+  Mn177  1  0.91204160  0.66379661  0.25143048  1
  Mn3.34+  Mn178  1  0.57603175  0.66641473  0.24870173  1
  Mn3.34+  Mn179  1  0.58535872  0.66853609  0.91646234  1
  Mn3.34+  Mn180  1  0.40944583  0.00130716  0.75465685  1
  Mn3.34+  Mn181  1  0.24691316  -0.00138513  0.58665921  1
  Mn3.34+  Mn182  1  0.06848348  0.00628631  0.41616039  1
  Mn3.34+  Mn183  1  0.08202281  -0.00019492  0.41889448  1
  Mn3.34+  Mn184  1  0.08036866  0.50623894  0.40785701  1
  Mn3.34+  Mn185  1  0.07000703  -0.00779085  0.73866067  1
  Mn3.34+  Mn186  1  0.59117453  0.49781330  0.56579772  1
  Mn3.34+  Mn187  1  0.42993272  -0.00098824  0.42994528  1
  Mn3.34+  Mn188  1  0.76387431  0.00122517  0.74660976  1
  Mn3.34+  Mn189  1  0.91155077  -0.00118843  0.23926901  1
  Mn3.34+  Mn190  1  0.74342507  0.49439004  0.39874705  1
  Mn3.34+  Mn191  1  0.75059743  -0.00064214  0.07523142  1
  Mn3.34+  Mn192  1  0.23712779  0.50014911  0.58454841  1
  Mn3.34+  Mn193  1  0.60027063  0.50391622  0.56886106  1
  Mn3.34+  Mn194  1  0.07665106  0.49950351  0.74633512  1
  Mn3.34+  Mn195  1  0.91408339  0.49809143  0.90553689  1
  Mn3.34+  Mn196  1  0.24769818  0.50237845  0.91841457  1
  Mn3.34+  Mn197  1  0.27639277  0.00018555  0.24230868  1
  Mn3.34+  Mn198  1  0.07707019  0.00270351  0.08014125  1
  Mn3.34+  Mn199  1  0.57890022  0.49807151  0.91538325  1
  Mn3.34+  Mn200  1  0.91057566  0.49673093  0.25031353  1
  Mn3.34+  Mn201  1  0.56721893  0.00164066  0.24018166  1
  Mn3.34+  Mn202  1  0.75458618  0.49323912  0.08449221  1
  Mn3.34+  Mn203  1  0.42540892  -0.00081093  0.08235068  1
  Mn3.34+  Mn204  1  0.90237364  0.50526471  0.90781578  1
  Mn3.34+  Mn205  1  0.26750162  0.00518895  0.25433711  1
  Mn3.34+  Mn206  1  0.58940221  0.50319240  0.91574064  1
  Mn3.34+  Mn207  1  0.26093764  0.49634335  0.91946757  1
  Mn3.34+  Mn208  1  0.75014725  0.49939776  0.74106611  1
  Mn3.34+  Mn209  1  0.41683769  0.00611120  0.43103139  1
  Mn3.34+  Mn210  1  0.58058013  -0.00421933  0.24192453  1
  Mn3.34+  Mn211  1  0.91524859  0.49955632  0.59119516  1
  Mn3.34+  Mn212  1  0.08312413  -0.00152805  0.74059275  1
  Mn3.34+  Mn213  1  0.91232684  -0.00203306  0.91340298  1
  Mn3.34+  Mn214  1  0.75510220  -0.00248986  0.41205685  1
  Mn3.34+  Mn215  1  0.42211089  0.50075762  0.40005148  1
  O2-  O216  1  0.00056470  0.16127446  0.00465697  1
  O2-  O217  1  0.00324100  0.18608309  0.32304556  1
  O2-  O218  1  0.00042500  0.18123465  0.66507761  1
  O2-  O219  1  -0.00618763  0.68179448  -0.00998621  1
  O2-  O220  1  -0.01139123  0.64819761  0.34006167  1
  O2-  O221  1  0.00524514  0.66208493  0.66553122  1
  O2-  O222  1  0.33606303  0.14825255  -0.00605864  1
  O2-  O223  1  0.32974701  0.14224642  0.33594878  1
  O2-  O224  1  0.34679883  0.18066971  0.67286736  1
  O2-  O225  1  0.33480208  0.65309678  -0.00006658  1
  O2-  O226  1  0.33310376  0.65033498  0.34152455  1
  O2-  O227  1  0.33382862  0.64940274  0.66883692  1
  O2-  O228  1  0.66782492  0.14525000  0.00203840  1
  O2-  O229  1  0.66445866  0.15640653  0.32173417  1
  O2-  O230  1  0.66625625  0.14467715  0.67687551  1
  O2-  O231  1  0.66174977  0.64757300  0.00121254  1
  O2-  O232  1  0.65658065  0.65991997  0.32960776  1
  O2-  O233  1  0.66941820  0.65520073  0.65939786  1
  O2-  O234  1  0.16954274  0.15622020  0.00220406  1
  O2-  O235  1  0.16209937  0.14936956  0.32837097  1
  O2-  O236  1  0.15488730  0.16311567  0.65597814  1
  O2-  O237  1  0.17191056  0.65355741  -0.00996460  1
  O2-  O238  1  0.15491741  0.65256056  0.33614468  1
  O2-  O239  1  0.16601728  0.64205321  0.66319953  1
  O2-  O240  1  0.49904819  0.14987593  -0.00175256  1
  O2-  O241  1  0.50917453  0.16177351  0.34157913  1
  O2-  O242  1  0.50424702  0.14657341  0.67404395  1
  O2-  O243  1  0.50034283  0.65077019  -0.00728735  1
  O2-  O244  1  0.48530538  0.64898966  0.32348055  1
  O2-  O245  1  0.49540470  0.65192494  0.66062348  1
  O2-  O246  1  0.82980124  0.15410493  0.00548851  1
  O2-  O247  1  0.83749362  0.17713284  0.32176020  1
  O2-  O248  1  0.83264362  0.17396810  0.67315802  1
  O2-  O249  1  0.83593721  0.67972291  -0.00702117  1
  O2-  O250  1  0.82714030  0.64970865  0.32500410  1
  O2-  O251  1  0.84736198  0.67913815  0.66229763  1
  O2-  O252  1  -0.00253808  0.33616042  -0.00364933  1
  O2-  O253  1  0.00844028  0.33749872  0.32322297  1
  O2-  O254  1  0.00499067  0.33594877  0.66117979  1
  O2-  O255  1  0.00786877  0.83276557  -0.00628308  1
  O2-  O256  1  -0.00394979  0.85095839  0.33450428  1
  O2-  O257  1  -0.00135014  0.83007568  0.66081284  1
  O2-  O258  1  0.32989421  0.33491486  0.00252931  1
  O2-  O259  1  0.33918358  0.36047863  0.32749627  1
  O2-  O260  1  0.33302287  0.33918545  0.66583234  1
  O2-  O261  1  0.33887964  0.84908535  -0.00969515  1
  O2-  O262  1  0.33011664  0.84255044  0.33075813  1
  O2-  O263  1  0.34112554  0.84089489  0.66427447  1
  O2-  O264  1  0.66723736  0.34970639  0.00277396  1
  O2-  O265  1  0.66432407  0.32585670  0.33189536  1
  O2-  O266  1  0.66955697  0.34502585  0.67289134  1
  O2-  O267  1  0.66963029  0.84603862  -0.00296488  1
  O2-  O268  1  0.66839648  0.84829576  0.33489225  1
  O2-  O269  1  0.67107313  0.85335272  0.66856638  1
  O2-  O270  1  0.17293956  0.34655653  0.00261577  1
  O2-  O271  1  0.16777871  0.34888138  0.33517803  1
  O2-  O272  1  0.16834752  0.35325414  0.66910611  1
  O2-  O273  1  0.16776430  0.85236344  0.00466350  1
  O2-  O274  1  0.16227582  0.85693341  0.33179986  1
  O2-  O275  1  0.16680862  0.85439565  0.67550835  1
  O2-  O276  1  0.50317276  0.34621965  0.00528155  1
  O2-  O277  1  0.50031414  0.33913575  0.32719173  1
  O2-  O278  1  0.49629663  0.33159780  0.67135002  1
  O2-  O279  1  0.50094616  0.83887572  0.00011575  1
  O2-  O280  1  0.50626731  0.84801257  0.33814836  1
  O2-  O281  1  0.50543737  0.84657963  0.67013109  1
  O2-  O282  1  0.83467071  0.33156009  -0.00359261  1
  O2-  O283  1  0.83977839  0.33497533  0.33700806  1
  O2-  O284  1  0.82942007  0.32057398  0.65923563  1
  O2-  O285  1  0.83341600  0.83124422  -0.00280005  1
  O2-  O286  1  0.83224633  0.84957301  0.33330098  1
  O2-  O287  1  0.82899798  0.84320310  0.65842828  1
  O2-  O288  1  0.00122996  0.18539956  0.16446620  1
  O2-  O289  1  0.00704649  0.19286935  0.49513784  1
  O2-  O290  1  -0.00380426  0.17587481  0.83648289  1
  O2-  O291  1  0.00448283  0.67119795  0.17876842  1
  O2-  O292  1  0.00304108  0.68833503  0.50274143  1
  O2-  O293  1  -0.00103950  0.68431685  0.82978963  1
  O2-  O294  1  0.32778920  0.18297226  0.15838183  1
  O2-  O295  1  0.33320434  0.17716803  0.49332412  1
  O2-  O296  1  0.33625833  0.19251085  0.83863733  1
  O2-  O297  1  0.34250671  0.67205037  0.16686279  1
  O2-  O298  1  0.33930353  0.67962950  0.50680040  1
  O2-  O299  1  0.33647268  0.69325300  0.83414731  1
  O2-  O300  1  0.66894760  0.18846247  0.17144457  1
  O2-  O301  1  0.65786537  0.17440447  0.49433986  1
  O2-  O302  1  0.66731733  0.18758619  0.83830780  1
  O2-  O303  1  0.66230407  0.67335436  0.17510482  1
  O2-  O304  1  0.67199585  0.67811808  0.50439890  1
  O2-  O305  1  0.67185201  0.68293443  0.83884222  1
  O2-  O306  1  0.16356523  0.18553651  0.16906882  1
  O2-  O307  1  0.16825635  0.18955391  0.47844481  1
  O2-  O308  1  0.16311388  0.18153957  0.84329284  1
  O2-  O309  1  0.17560401  0.66584506  0.16808164  1
  O2-  O310  1  0.16246105  0.68367173  0.49503953  1
  O2-  O311  1  0.17351211  0.67466112  0.82823359  1
  O2-  O312  1  0.50134073  0.19247276  0.17007918  1
  O2-  O313  1  0.49643533  0.18807503  0.50041223  1
  O2-  O314  1  0.50257799  0.19101796  0.83075737  1
  O2-  O315  1  0.50134799  0.68400079  0.16065971  1
  O2-  O316  1  0.50066548  0.68263607  0.50172894  1
  O2-  O317  1  0.50879684  0.69150707  0.83288177  1
  O2-  O318  1  0.83617489  0.18732090  0.16255815  1
  O2-  O319  1  0.84029345  0.18279890  0.51257389  1
  O2-  O320  1  0.83282478  0.18551283  0.83459128  1
  O2-  O321  1  0.83394023  0.67745182  0.17231498  1
  O2-  O322  1  0.83620090  0.68203982  0.51182419  1
  O2-  O323  1  0.84758906  0.69372924  0.84037242  1
  O2-  O324  1  -0.00324064  0.31394750  0.16233834  1
  O2-  O325  1  -0.00425873  0.31384652  0.49259666  1
  O2-  O326  1  0.00339650  0.32176292  0.83544493  1
  O2-  O327  1  0.00584095  0.81663941  0.17674926  1
  O2-  O328  1  -0.00463488  0.81698955  0.50156129  1
  O2-  O329  1  0.00186357  0.80979469  0.84026514  1
  O2-  O330  1  0.33336771  0.32177514  0.16963875  1
  O2-  O331  1  0.33104392  0.33203755  0.50068938  1
  O2-  O332  1  0.33170060  0.30871773  0.82889947  1
  O2-  O333  1  0.32173586  0.82529765  0.14954622  1
  O2-  O334  1  0.32797972  0.82059407  0.49256061  1
  O2-  O335  1  0.32766738  0.81878749  0.82342986  1
  O2-  O336  1  0.66315312  0.32017340  0.16731033  1
  O2-  O337  1  0.67354443  0.32624473  0.50875647  1
  O2-  O338  1  0.67063978  0.31432041  0.83415730  1
  O2-  O339  1  0.66829154  0.82318991  0.17307834  1
  O2-  O340  1  0.67027338  0.82074685  0.50323780  1
  O2-  O341  1  0.67058260  0.82622944  0.83372765  1
  O2-  O342  1  0.16466873  0.32146821  0.17312447  1
  O2-  O343  1  0.16029509  0.32336974  0.50096935  1
  O2-  O344  1  0.16662032  0.31760372  0.84025113  1
  O2-  O345  1  0.15999057  0.83660078  0.17076278  1
  O2-  O346  1  0.16263569  0.82818625  0.50003891  1
  O2-  O347  1  0.16449296  0.82554891  0.83615701  1
  O2-  O348  1  0.49703410  0.32248263  0.16852869  1
  O2-  O349  1  0.49824831  0.31452000  0.50426476  1
  O2-  O350  1  0.49894178  0.32098468  0.83130662  1
  O2-  O351  1  0.49636898  0.81435033  0.17060932  1
  O2-  O352  1  0.49926585  0.83448834  0.50573358  1
  O2-  O353  1  0.50564157  0.81330578  0.83242368  1
  O2-  O354  1  0.83518361  0.30853513  0.16652318  1
  O2-  O355  1  0.83230401  0.32564611  0.50237351  1
  O2-  O356  1  0.83439381  0.30436819  0.83110958  1
  O2-  O357  1  0.82871252  0.81869560  0.17133336  1
  O2-  O358  1  0.83412984  0.81533348  0.49896737  1
  O2-  O359  1  0.83300623  0.81963575  0.83702523  1
  O2-  O360  1  0.08020999  0.08541403  0.11009822  1
  O2-  O361  1  0.09249955  0.08713992  0.44427528  1
  O2-  O362  1  0.06805277  0.07651858  0.77949748  1
  O2-  O363  1  0.10157050  0.56345851  0.10992160  1
  O2-  O364  1  0.07839419  0.58117387  0.45305684  1
  O2-  O365  1  0.07461757  0.57958086  0.78122958  1
  O2-  O366  1  0.41777729  0.07922048  0.11322994  1
  O2-  O367  1  0.42201791  0.08595718  0.45754333  1
  O2-  O368  1  0.43214840  0.08092930  0.78775232  1
  O2-  O369  1  0.42745091  0.58510556  0.11040415  1
  O2-  O370  1  0.41957288  0.57468075  0.45393038  1
  O2-  O371  1  0.39423427  0.57382490  0.78328492  1
  O2-  O372  1  0.75017006  0.08009947  0.12995559  1
  O2-  O373  1  0.74288710  0.07871894  0.43400402  1
  O2-  O374  1  0.74827903  0.08238024  0.78439735  1
  O2-  O375  1  0.72785884  0.56469741  0.12591622  1
  O2-  O376  1  0.73434381  0.55064739  0.47030987  1
  O2-  O377  1  0.78236831  0.57004819  0.77037922  1
  O2-  O378  1  0.22836401  0.07960425  0.20862609  1
  O2-  O379  1  0.24705497  0.08006455  0.56750313  1
  O2-  O380  1  0.22549480  0.07767769  0.90379979  1
  O2-  O381  1  0.26399100  0.56394868  0.21399779  1
  O2-  O382  1  0.26436041  0.58118164  0.55338395  1
  O2-  O383  1  0.26226508  0.58078777  0.88674084  1
  O2-  O384  1  0.58367728  0.07924760  0.20040457  1
  O2-  O385  1  0.58014900  0.07863762  0.54722795  1
  O2-  O386  1  0.58140361  0.08578252  0.88402633  1
  O2-  O387  1  0.58391945  0.58453765  0.22687324  1
  O2-  O388  1  0.56503650  0.58375544  0.54816591  1
  O2-  O389  1  0.57300694  0.58283125  0.87239275  1
  O2-  O390  1  0.91840465  0.08226659  0.21584243  1
  O2-  O391  1  0.92820184  0.08646854  0.59634567  1
  O2-  O392  1  0.91731697  0.07153588  0.86098518  1
  O2-  O393  1  0.90119777  0.57711509  0.21992182  1
  O2-  O394  1  0.91505787  0.58222627  0.57347780  1
  O2-  O395  1  0.92456495  0.58489845  0.89367329  1
  O2-  O396  1  0.07671428  0.41397107  0.10893066  1
  O2-  O397  1  0.07237559  0.42749506  0.44837159  1
  O2-  O398  1  0.09170644  0.42178519  0.78452357  1
  O2-  O399  1  0.06453565  0.92007720  0.10646114  1
  O2-  O400  1  0.06640182  0.92072557  0.45174368  1
  O2-  O401  1  0.07335093  0.91777283  0.79208790  1
  O2-  O402  1  0.40873007  0.41703142  0.11258142  1
  O2-  O403  1  0.42140160  0.42894032  0.45492283  1
  O2-  O404  1  0.41518767  0.41666010  0.75962400  1
  O2-  O405  1  0.40618565  0.92088612  0.11597468  1
  O2-  O406  1  0.40147638  0.91927070  0.44641909  1
  O2-  O407  1  0.40011337  0.92006944  0.77594154  1
  O2-  O408  1  0.77105423  0.41408937  0.11177610  1
  O2-  O409  1  0.75333586  0.42240191  0.44908612  1
  O2-  O410  1  0.74704260  0.42251326  0.78203942  1
  O2-  O411  1  0.75457690  0.92160834  0.10603463  1
  O2-  O412  1  0.75221997  0.91805596  0.45138932  1
  O2-  O413  1  0.76116824  0.92254601  0.77630209  1
  O2-  O414  1  0.23811453  0.41758007  0.21850787  1
  O2-  O415  1  0.23612908  0.42108839  0.55348594  1
  O2-  O416  1  0.25319714  0.42154167  0.87460637  1
  O2-  O417  1  0.24626525  0.92174941  0.21710146  1
  O2-  O418  1  0.25249839  0.92036663  0.54851838  1
  O2-  O419  1  0.22979134  0.92071540  0.88605649  1
  O2-  O420  1  0.55816862  0.42514115  0.21444170  1
  O2-  O421  1  0.59408103  0.41448824  0.56743265  1
  O2-  O422  1  0.59258748  0.41912515  0.87459500  1
  O2-  O423  1  0.58740316  0.91586027  0.22567222  1
  O2-  O424  1  0.60111765  0.92198090  0.56001992  1
  O2-  O425  1  0.59219345  0.91873852  0.88759678  1
  O2-  O426  1  0.93888467  0.42018357  0.21315988  1
  O2-  O427  1  0.90642319  0.41998626  0.55300422  1
  O2-  O428  1  0.89848843  0.41882993  0.88659802  1
  O2-  O429  1  0.92581458  0.91598970  0.22127215  1
  O2-  O430  1  0.90121760  0.91861831  0.55296009  1
  O2-  O431  1  0.93967148  0.91849225  0.90083434  1
  O2-  O432  1  0.02132576  0.01671569  -0.03090716  1
  O2-  O433  1  0.01596041  -0.00212569  0.30802631  1
  O2-  O434  1  0.00973536  0.00823021  0.64670491  1
  O2-  O435  1  0.00637669  0.48994221  -0.03055182  1
  O2-  O436  1  0.00364234  0.48743583  0.32124011  1
  O2-  O437  1  0.02462831  0.49560707  0.63494870  1
  O2-  O438  1  0.32787275  0.00006240  0.02687788  1
  O2-  O439  1  0.32755131  0.00376809  0.35356535  1
  O2-  O440  1  0.34259575  -0.00515508  0.65564108  1
  O2-  O441  1  0.32357839  0.50756281  0.01334632  1
  O2-  O442  1  0.33396261  0.48623812  0.33680725  1
  O2-  O443  1  0.33734901  0.49696065  0.63570910  1
  O2-  O444  1  0.67741023  0.01249958  -0.00299812  1
  O2-  O445  1  0.65475721  0.00904382  0.33800187  1
  O2-  O446  1  0.65868579  -0.00218420  0.70394157  1
  O2-  O447  1  0.66769951  0.48382525  0.00294416  1
  O2-  O448  1  0.67725185  0.50785989  0.32003978  1
  O2-  O449  1  0.64939678  0.49618622  0.67876127  1
  O2-  O450  1  0.17423805  -0.01857975  0.02440211  1
  O2-  O451  1  0.17391878  0.00046590  0.33603704  1
  O2-  O452  1  0.17717819  -0.02505199  0.67739908  1
  O2-  O453  1  0.16219205  0.48805713  -0.01301531  1
  O2-  O454  1  0.15673976  0.49056840  0.32378193  1
  O2-  O455  1  0.18358812  0.50298976  0.69220493  1
  O2-  O456  1  0.49542168  0.00760927  0.00227524  1
  O2-  O457  1  0.49702310  0.00931862  0.33601999  1
  O2-  O458  1  0.50482584  -0.00402924  0.69236285  1
  O2-  O459  1  0.50389201  0.50830462  0.00142764  1
  O2-  O460  1  0.47693424  0.50846169  0.30348308  1
  O2-  O461  1  0.48856227  0.49730993  0.62697920  1
  O2-  O462  1  0.84141481  0.02033990  0.00306387  1
  O2-  O463  1  0.82485469  -0.00621626  0.31816385  1
  O2-  O464  1  0.80891054  0.00337119  0.64390114  1
  O2-  O465  1  0.83784161  0.49229492  0.00247938  1
  O2-  O466  1  0.83960083  0.48946712  0.34600468  1
  O2-  O467  1  0.80514132  0.49125230  0.63339643  1
  O2-  O468  1  0.59054073  0.74866323  0.94767838  1
  O2-  O469  1  0.25888437  0.25310342  0.28356510  1
  O2-  O470  1  0.09424260  0.25089816  0.05408511  1
  O2-  O471  1  0.41718642  0.74483459  0.39478090  1
  O2-  O472  1  0.23799857  0.74685721  0.61690890  1
  O2-  O473  1  0.41670953  0.24917731  0.05904690  1
  O2-  O474  1  0.58390403  0.24974372  0.94813658  1
  O2-  O475  1  0.57609273  0.75208192  0.60996684  1
  O2-  O476  1  0.59561405  0.24436374  0.61551087  1
  O2-  O477  1  0.57905579  0.75144188  0.27292682  1
  O2-  O478  1  0.91596279  0.74617285  0.27904479  1
  O2-  O479  1  0.74913272  0.75835888  0.72709948  1
  O2-  O480  1  0.09803794  0.74676579  0.72465152  1
  O2-  O481  1  0.74126885  0.75432947  0.07131685  1
  O2-  O482  1  0.73893089  0.24793109  0.05690639  1
  O2-  O483  1  0.74502556  0.25327545  0.41093367  1
  O2-  O484  1  0.24857069  0.75418237  0.25540825  1
  O2-  O485  1  0.24496218  0.25660607  0.59416540  1
  O2-  O486  1  0.75106415  0.75309831  0.38630896  1
  O2-  O487  1  0.40211416  0.25344545  0.38887366  1
  O2-  O488  1  0.09321551  0.25858179  0.73325922  1
  O2-  O489  1  0.24533170  0.75107983  0.94489152  1
  O2-  O490  1  0.10122337  0.75160877  0.07457325  1
  O2-  O491  1  0.08892965  0.74792766  0.38074875  1
  O2-  O492  1  0.40961850  0.75120223  0.06163536  1
