# generated using pymatgen
data_Ca108Mn108O277
_symmetry_space_group_name_H-M   'P 1'
_cell_length_a   16.01793722
_cell_length_b   22.29459509
_cell_length_c   16.38148943
_cell_angle_alpha   89.99693087
_cell_angle_beta   89.99785174
_cell_angle_gamma   90.00325505
_symmetry_Int_Tables_number   1
_chemical_formula_structural   Ca108Mn108O277
_chemical_formula_sum   'Ca108 Mn108 O277'
_cell_volume   5850.04976722
_cell_formula_units_Z   1
loop_
 _symmetry_equiv_pos_site_id
 _symmetry_equiv_pos_as_xyz
  1  'x, y, z'
loop_
 _atom_type_symbol
 _atom_type_oxidation_number
  Ca2+  2.0
  Mn3.34+  3.34
  O2-  -2.0
loop_
 _atom_site_type_symbol
 _atom_site_label
 _atom_site_symmetry_multiplicity
 _atom_site_fract_x
 _atom_site_fract_y
 _atom_site_fract_z
 _atom_site_occupancy
  Ca2+  Ca0  1  0.07915455  0.25010829  0.25266507  1
  Ca2+  Ca1  1  0.07281775  0.22871384  0.57601933  1
  Ca2+  Ca2  1  0.07610583  0.24077683  0.92965521  1
  Ca2+  Ca3  1  0.08416158  0.76384939  0.25578147  1
  Ca2+  Ca4  1  0.07791356  0.75296844  0.60141075  1
  Ca2+  Ca5  1  0.08509171  0.74945099  0.88621655  1
  Ca2+  Ca6  1  0.41207747  0.26034581  0.26428025  1
  Ca2+  Ca7  1  0.42424171  0.24760609  0.56686546  1
  Ca2+  Ca8  1  0.42409393  0.24552907  0.92325501  1
  Ca2+  Ca9  1  0.41556700  0.75749812  0.23475023  1
  Ca2+  Ca10  1  0.43527371  0.75094339  0.57950805  1
  Ca2+  Ca11  1  0.42499832  0.75327718  0.93345343  1
  Ca2+  Ca12  1  0.76006268  0.25246287  0.24579145  1
  Ca2+  Ca13  1  0.74439507  0.23755404  0.59971164  1
  Ca2+  Ca14  1  0.74783002  0.25321031  0.90277016  1
  Ca2+  Ca15  1  0.74990359  0.75995998  0.25189991  1
  Ca2+  Ca16  1  0.74311698  0.75305963  0.59644608  1
  Ca2+  Ca17  1  0.73691944  0.75405834  0.90064918  1
  Ca2+  Ca18  1  0.23575652  0.24626278  0.08154903  1
  Ca2+  Ca19  1  0.25027964  0.24883639  0.42603968  1
  Ca2+  Ca20  1  0.23816041  0.25062279  0.74106145  1
  Ca2+  Ca21  1  0.27131041  0.75433461  0.07775469  1
  Ca2+  Ca22  1  0.25485904  0.75881400  0.42121822  1
  Ca2+  Ca23  1  0.22835812  0.76024923  0.74435758  1
  Ca2+  Ca24  1  0.58241243  0.24965625  0.06962849  1
  Ca2+  Ca25  1  0.56259792  0.24685997  0.43698911  1
  Ca2+  Ca26  1  0.58862047  0.24412175  0.73575244  1
  Ca2+  Ca27  1  0.55854656  0.73573705  0.07662950  1
  Ca2+  Ca28  1  0.57902636  0.75040083  0.43679437  1
  Ca2+  Ca29  1  0.59715392  0.74683887  0.73777878  1
  Ca2+  Ca30  1  0.93068252  0.25240999  0.08033361  1
  Ca2+  Ca31  1  0.94144563  0.24598263  0.42708388  1
  Ca2+  Ca32  1  0.91503270  0.23104390  0.73441062  1
  Ca2+  Ca33  1  0.91240453  0.75639340  0.08104144  1
  Ca2+  Ca34  1  0.91731411  0.76056463  0.42576089  1
  Ca2+  Ca35  1  0.92269510  0.74506147  0.73939863  1
  Ca2+  Ca36  1  0.90359481  0.58880990  0.06912821  1
  Ca2+  Ca37  1  0.73397169  0.09822224  0.91742418  1
  Ca2+  Ca38  1  0.92191445  0.58896329  0.43379931  1
  Ca2+  Ca39  1  0.74328435  0.10102464  0.91394582  1
  Ca2+  Ca40  1  0.55957390  0.08969001  0.06105137  1
  Ca2+  Ca41  1  0.73901144  0.59669678  0.91941220  1
  Ca2+  Ca42  1  0.95040976  0.10006535  0.08746760  1
  Ca2+  Ca43  1  0.41800979  0.57009631  0.58524258  1
  Ca2+  Ca44  1  0.97387312  0.09348247  0.44706425  1
  Ca2+  Ca45  1  0.55145093  0.08628254  0.06562708  1
  Ca2+  Ca46  1  0.75553143  0.60510357  0.59633242  1
  Ca2+  Ca47  1  0.07476008  0.09334772  0.25615095  1
  Ca2+  Ca48  1  0.56292996  0.59724310  0.42749112  1
  Ca2+  Ca49  1  0.94269628  0.10228941  0.08117372  1
  Ca2+  Ca50  1  0.24262145  0.09878858  0.06917653  1
  Ca2+  Ca51  1  0.55384355  0.10311217  0.43623883  1
  Ca2+  Ca52  1  0.09154066  0.09626114  0.92810347  1
  Ca2+  Ca53  1  0.73426410  0.59511145  0.23608135  1
  Ca2+  Ca54  1  0.72725970  0.59619563  0.91933241  1
  Ca2+  Ca55  1  0.93277682  0.58731965  0.43649682  1
  Ca2+  Ca56  1  0.58479115  0.09655375  0.73543088  1
  Ca2+  Ca57  1  0.43097667  0.60771328  0.23938658  1
  Ca2+  Ca58  1  0.96374111  0.09280510  0.44777593  1
  Ca2+  Ca59  1  0.24948665  0.09706087  0.75479153  1
  Ca2+  Ca60  1  0.23805580  0.09704284  0.75547718  1
  Ca2+  Ca61  1  0.22506357  0.10252984  0.42806429  1
  Ca2+  Ca62  1  0.75021970  0.09801362  0.23795729  1
  Ca2+  Ca63  1  0.23286526  0.57884095  0.73487626  1
  Ca2+  Ca64  1  0.07746999  0.57288986  0.26653016  1
  Ca2+  Ca65  1  0.41800035  0.09433109  0.24020612  1
  Ca2+  Ca66  1  0.76305774  0.09855709  0.23770715  1
  Ca2+  Ca67  1  0.27463108  0.58621413  0.07535146  1
  Ca2+  Ca68  1  0.40925982  0.09218122  0.93199120  1
  Ca2+  Ca69  1  0.42615588  0.11030495  0.57784022  1
  Ca2+  Ca70  1  0.44494392  0.58043140  0.93191943  1
  Ca2+  Ca71  1  0.58363271  0.59141412  0.74261125  1
  Ca2+  Ca72  1  0.41743709  0.90073846  0.58259451  1
  Ca2+  Ca73  1  0.54879204  0.40870382  0.43075673  1
  Ca2+  Ca74  1  0.27121703  0.42285880  0.72599633  1
  Ca2+  Ca75  1  0.76141593  0.40347213  0.23831802  1
  Ca2+  Ca76  1  0.55957774  0.40758605  0.42698700  1
  Ca2+  Ca77  1  0.43039449  0.41204782  0.91827753  1
  Ca2+  Ca78  1  0.93731836  0.91436843  0.42662992  1
  Ca2+  Ca79  1  0.93456616  0.90436064  0.07772487  1
  Ca2+  Ca80  1  0.08346666  0.91762214  0.25816203  1
  Ca2+  Ca81  1  0.23942613  0.90391201  0.41833521  1
  Ca2+  Ca82  1  0.55415381  0.91688678  0.07590679  1
  Ca2+  Ca83  1  0.56525421  0.91386298  0.07289461  1
  Ca2+  Ca84  1  0.25670034  0.91052560  0.07188411  1
  Ca2+  Ca85  1  0.74876765  0.40282404  0.23998512  1
  Ca2+  Ca86  1  0.72949137  0.40561023  0.92166735  1
  Ca2+  Ca87  1  0.07084795  0.91787931  0.25856912  1
  Ca2+  Ca88  1  0.93948215  0.40851839  0.41453588  1
  Ca2+  Ca89  1  0.74327986  0.90175420  0.25257455  1
  Ca2+  Ca90  1  0.91295476  0.40217972  0.74851047  1
  Ca2+  Ca91  1  0.10031299  0.41370884  0.57569164  1
  Ca2+  Ca92  1  0.41426626  0.91823553  0.92880848  1
  Ca2+  Ca93  1  0.09241372  0.90303985  0.91241110  1
  Ca2+  Ca94  1  0.09080611  0.41218663  0.58076812  1
  Ca2+  Ca95  1  0.56054636  0.40714367  0.75355018  1
  Ca2+  Ca96  1  0.28053149  0.42501917  0.72967516  1
  Ca2+  Ca97  1  0.25197319  0.39819181  0.08394960  1
  Ca2+  Ca98  1  0.57710169  0.89837843  0.42175082  1
  Ca2+  Ca99  1  0.57669594  0.41163764  0.05971728  1
  Ca2+  Ca100  1  0.10125461  0.40421054  0.92527852  1
  Ca2+  Ca101  1  0.74519007  0.90167715  0.91278493  1
  Ca2+  Ca102  1  0.27257130  0.41168810  0.43045864  1
  Ca2+  Ca103  1  0.92438704  0.40146897  0.74733093  1
  Ca2+  Ca104  1  0.59070133  0.91085984  0.75634764  1
  Ca2+  Ca105  1  0.92722833  0.40871055  0.41466148  1
  Ca2+  Ca106  1  0.09047548  0.40454110  0.92837910  1
  Ca2+  Ca107  1  0.57925414  0.91070572  0.75645918  1
  Mn3.34+  Mn108  1  0.08230561  0.32965447  0.09014399  1
  Mn3.34+  Mn109  1  0.09163635  0.33263640  0.41375518  1
  Mn3.34+  Mn110  1  0.08682975  0.33051894  0.75199236  1
  Mn3.34+  Mn111  1  0.08573007  0.83686409  0.08456355  1
  Mn3.34+  Mn112  1  0.08316471  0.83681674  0.42530597  1
  Mn3.34+  Mn113  1  0.07700568  0.83918855  0.74530605  1
  Mn3.34+  Mn114  1  0.41563793  0.33178531  0.08850751  1
  Mn3.34+  Mn115  1  0.41038100  0.33241330  0.41715351  1
  Mn3.34+  Mn116  1  0.41647456  0.33158651  0.75213221  1
  Mn3.34+  Mn117  1  0.41368130  0.83402274  0.08494980  1
  Mn3.34+  Mn118  1  0.41691898  0.83435729  0.41454782  1
  Mn3.34+  Mn119  1  0.41200862  0.83421786  0.75322350  1
  Mn3.34+  Mn120  1  0.75048452  0.33135438  0.08008572  1
  Mn3.34+  Mn121  1  0.74697927  0.33280085  0.42137249  1
  Mn3.34+  Mn122  1  0.74683946  0.33092182  0.74833041  1
  Mn3.34+  Mn123  1  0.74549287  0.82597283  0.08255012  1
  Mn3.34+  Mn124  1  0.75384546  0.83388654  0.42358242  1
  Mn3.34+  Mn125  1  0.76179344  0.83918719  0.74585557  1
  Mn3.34+  Mn126  1  0.24911159  0.33597650  0.25054558  1
  Mn3.34+  Mn127  1  0.25375474  0.33371861  0.58221530  1
  Mn3.34+  Mn128  1  0.25726659  0.32660130  0.91229302  1
  Mn3.34+  Mn129  1  0.25207928  0.83403654  0.24724863  1
  Mn3.34+  Mn130  1  0.24817588  0.83207344  0.58600219  1
  Mn3.34+  Mn131  1  0.25152522  0.83478164  0.91038497  1
  Mn3.34+  Mn132  1  0.57893244  0.33427171  0.24484575  1
  Mn3.34+  Mn133  1  0.58361970  0.33136116  0.58750658  1
  Mn3.34+  Mn134  1  0.58044464  0.33141551  0.91197261  1
  Mn3.34+  Mn135  1  0.57981544  0.83294398  0.24771372  1
  Mn3.34+  Mn136  1  0.58744140  0.83426977  0.58420409  1
  Mn3.34+  Mn137  1  0.58045825  0.83377190  0.91255365  1
  Mn3.34+  Mn138  1  0.92132074  0.33215092  0.24691421  1
  Mn3.34+  Mn139  1  0.91481015  0.32956168  0.57951211  1
  Mn3.34+  Mn140  1  0.91456102  0.33057859  0.91822546  1
  Mn3.34+  Mn141  1  0.91400321  0.83360669  0.24913325  1
  Mn3.34+  Mn142  1  0.91521154  0.84716012  0.58701244  1
  Mn3.34+  Mn143  1  0.91728854  0.82613571  0.91319304  1
  Mn3.34+  Mn144  1  0.91445398  0.67377983  0.91110226  1
  Mn3.34+  Mn145  1  0.90711078  0.66191263  0.24408797  1
  Mn3.34+  Mn146  1  0.24698800  0.17033697  0.57928127  1
  Mn3.34+  Mn147  1  0.25696472  0.16598321  0.24779142  1
  Mn3.34+  Mn148  1  0.57962019  0.16794577  0.91159752  1
  Mn3.34+  Mn149  1  0.24639088  0.16976183  0.24647013  1
  Mn3.34+  Mn150  1  0.91611404  0.16644095  0.91136225  1
  Mn3.34+  Mn151  1  0.74554841  0.16630245  0.42527136  1
  Mn3.34+  Mn152  1  0.24660825  0.65775209  0.58071041  1
  Mn3.34+  Mn153  1  0.75647764  0.17064868  0.42423594  1
  Mn3.34+  Mn154  1  0.91720940  0.17082186  0.25092546  1
  Mn3.34+  Mn155  1  0.58201635  0.67515484  0.24867014  1
  Mn3.34+  Mn156  1  0.75141054  0.67166057  0.42052528  1
  Mn3.34+  Mn157  1  0.75322754  0.16062685  0.74306703  1
  Mn3.34+  Mn158  1  0.91780817  0.66702517  0.24581068  1
  Mn3.34+  Mn159  1  0.57950367  0.66808780  0.91571705  1
  Mn3.34+  Mn160  1  0.08627580  0.66851763  0.07880217  1
  Mn3.34+  Mn161  1  0.25583380  0.66358038  0.58064561  1
  Mn3.34+  Mn162  1  0.09176599  0.66144380  0.42278992  1
  Mn3.34+  Mn163  1  0.57570504  0.16780649  0.24530713  1
  Mn3.34+  Mn164  1  0.25667432  0.66079284  0.25122608  1
  Mn3.34+  Mn165  1  0.07706395  0.66292174  0.07984875  1
  Mn3.34+  Mn166  1  0.42447082  0.66084833  0.75137964  1
  Mn3.34+  Mn167  1  0.07983593  0.66882456  0.42054458  1
  Mn3.34+  Mn168  1  0.07494349  0.16301413  0.74881325  1
  Mn3.34+  Mn169  1  0.25244001  0.17351949  0.91629797  1
  Mn3.34+  Mn170  1  0.25599969  0.66697268  0.91145408  1
  Mn3.34+  Mn171  1  0.58530432  0.17328801  0.24741734  1
  Mn3.34+  Mn172  1  0.24361340  0.66726173  0.25254753  1
  Mn3.34+  Mn173  1  0.75477502  0.67228643  0.74800126  1
  Mn3.34+  Mn174  1  0.73857824  0.66650141  0.42112932  1
  Mn3.34+  Mn175  1  0.74266132  0.67296850  0.08357920  1
  Mn3.34+  Mn176  1  0.41725611  0.66068473  0.42097192  1
  Mn3.34+  Mn177  1  0.24595837  0.66223423  0.90890161  1
  Mn3.34+  Mn178  1  0.41556331  0.16872107  0.75282477  1
  Mn3.34+  Mn179  1  0.41637180  0.66723277  0.75104926  1
  Mn3.34+  Mn180  1  0.74445686  0.49750993  0.75222383  1
  Mn3.34+  Mn181  1  0.91225400  0.50050855  0.91531496  1
  Mn3.34+  Mn182  1  0.75535093  0.50256130  0.75278546  1
  Mn3.34+  Mn183  1  0.58547984  -0.00065557  0.59252502  1
  Mn3.34+  Mn184  1  0.57360829  0.50408505  0.24806704  1
  Mn3.34+  Mn185  1  0.75610916  -0.00333236  0.42996696  1
  Mn3.34+  Mn186  1  0.25100599  0.00251035  0.24641625  1
  Mn3.34+  Mn187  1  0.93220715  0.49689308  0.24948852  1
  Mn3.34+  Mn188  1  0.92608940  0.50708845  0.91377166  1
  Mn3.34+  Mn189  1  0.24322717  0.00025816  0.58492258  1
  Mn3.34+  Mn190  1  0.42308357  0.49770166  0.07427638  1
  Mn3.34+  Mn191  1  0.23257989  -0.00344212  0.58572337  1
  Mn3.34+  Mn192  1  0.41829764  0.00132216  0.41587945  1
  Mn3.34+  Mn193  1  0.08536775  0.49633881  0.08563656  1
  Mn3.34+  Mn194  1  0.24990592  0.49394625  0.26671928  1
  Mn3.34+  Mn195  1  0.74506878  -0.00005074  0.08263484  1
  Mn3.34+  Mn196  1  0.25092864  0.50077210  0.91668275  1
  Mn3.34+  Mn197  1  0.73960320  0.49670701  0.42198957  1
  Mn3.34+  Mn198  1  0.74433773  0.00183327  0.42951110  1
  Mn3.34+  Mn199  1  0.56212938  0.49662762  0.25054933  1
  Mn3.34+  Mn200  1  0.57584563  0.49810554  0.59923525  1
  Mn3.34+  Mn201  1  0.41275656  0.00060010  0.75025002  1
  Mn3.34+  Mn202  1  0.24939646  0.00036430  0.92741367  1
  Mn3.34+  Mn203  1  0.91633293  -0.00493439  0.89961614  1
  Mn3.34+  Mn204  1  0.73785970  0.50260014  0.07463238  1
  Mn3.34+  Mn205  1  0.91916336  0.49953995  0.58988912  1
  Mn3.34+  Mn206  1  0.92794441  0.00069935  0.90079941  1
  Mn3.34+  Mn207  1  0.75012624  0.50064277  0.42179237  1
  Mn3.34+  Mn208  1  0.57567422  -0.00224848  0.25467544  1
  Mn3.34+  Mn209  1  0.06744412  0.00124132  0.73467855  1
  Mn3.34+  Mn210  1  0.76341786  0.00083371  0.72543343  1
  Mn3.34+  Mn211  1  0.76065646  -0.00500528  0.08259835  1
  Mn3.34+  Mn212  1  0.91532158  0.00034430  0.24778851  1
  Mn3.34+  Mn213  1  0.26107928  -0.00296630  0.24726744  1
  Mn3.34+  Mn214  1  0.07898860  0.50569763  0.74369460  1
  Mn3.34+  Mn215  1  0.26099111  0.50001750  0.26536678  1
  O2-  O216  1  -0.00131914  0.16112714  -0.00716928  1
  O2-  O217  1  -0.00948365  0.15421526  0.33281410  1
  O2-  O218  1  0.00173322  0.16429424  0.67137363  1
  O2-  O219  1  -0.00877790  0.67926463  0.00205919  1
  O2-  O220  1  -0.00072548  0.64842296  0.33261339  1
  O2-  O221  1  -0.00158976  0.68060728  0.66153539  1
  O2-  O222  1  0.33272867  0.17446733  -0.00503972  1
  O2-  O223  1  0.33097313  0.15558241  0.32802236  1
  O2-  O224  1  0.32725910  0.15876014  0.67367400  1
  O2-  O225  1  0.33182068  0.65591942  -0.00775720  1
  O2-  O226  1  0.33819312  0.67155332  0.33489548  1
  O2-  O227  1  0.33930778  0.66966547  0.66694870  1
  O2-  O228  1  0.65809693  0.15657051  0.00088050  1
  O2-  O229  1  0.66857403  0.14957877  0.33278877  1
  O2-  O230  1  0.66676569  0.16392303  0.67607939  1
  O2-  O231  1  0.66653033  0.66565651  -0.00226693  1
  O2-  O232  1  0.66890439  0.66296546  0.33020952  1
  O2-  O233  1  0.67060090  0.65777153  0.67722016  1
  O2-  O234  1  0.17038117  0.16672533  -0.00603446  1
  O2-  O235  1  0.16671033  0.15664944  0.32397090  1
  O2-  O236  1  0.16832908  0.15692265  0.67409058  1
  O2-  O237  1  0.17089162  0.65455927  0.00154313  1
  O2-  O238  1  0.16032884  0.65064642  0.32612599  1
  O2-  O239  1  0.17189953  0.65939692  0.66470702  1
  O2-  O240  1  0.49857940  0.16466978  -0.00693060  1
  O2-  O241  1  0.49965428  0.15660306  0.32619206  1
  O2-  O242  1  0.49355641  0.17047066  0.67428561  1
  O2-  O243  1  0.49720089  0.66299111  -0.01204817  1
  O2-  O244  1  0.50189737  0.67118469  0.33848155  1
  O2-  O245  1  0.49903930  0.66103276  0.66598286  1
  O2-  O246  1  0.83918076  0.14977704  -0.00256007  1
  O2-  O247  1  0.82399030  0.15428568  0.33038065  1
  O2-  O248  1  0.82885642  0.16763088  0.66835029  1
  O2-  O249  1  0.82706678  0.67078479  0.00005178  1
  O2-  O250  1  0.82959822  0.64357116  0.33832049  1
  O2-  O251  1  0.83003393  0.67616042  0.66694513  1
  O2-  O252  1  0.00582851  0.33935647  -0.00750738  1
  O2-  O253  1  -0.00213785  0.34180819  0.33775727  1
  O2-  O254  1  0.00722776  0.35170873  0.66336016  1
  O2-  O255  1  -0.00010106  0.82203045  0.00256455  1
  O2-  O256  1  0.00204983  0.84271430  0.33072732  1
  O2-  O257  1  -0.00551653  0.82745249  0.66326394  1
  O2-  O258  1  0.33428204  0.32335524  -0.00000050  1
  O2-  O259  1  0.33202671  0.33882423  0.33306556  1
  O2-  O260  1  0.33106757  0.33598985  0.67277075  1
  O2-  O261  1  0.33504961  0.84289886  -0.00195373  1
  O2-  O262  1  0.32939017  0.82965953  0.33895548  1
  O2-  O263  1  0.34033837  0.82423657  0.66247894  1
  O2-  O264  1  0.66152900  0.33586596  0.00231260  1
  O2-  O265  1  0.66607185  0.35609117  0.32657495  1
  O2-  O266  1  0.66213334  0.33931966  0.67292386  1
  O2-  O267  1  0.66135836  0.84622325  0.00149330  1
  O2-  O268  1  0.66432103  0.83632425  0.32931247  1
  O2-  O269  1  0.66266016  0.84771058  0.67255136  1
  O2-  O270  1  0.17311707  0.33365116  -0.00419990  1
  O2-  O271  1  0.17505769  0.34552796  0.33943986  1
  O2-  O272  1  0.17288735  0.35343691  0.67478306  1
  O2-  O273  1  0.16866392  0.84052421  0.00306886  1
  O2-  O274  1  0.16312061  0.84583370  0.32721276  1
  O2-  O275  1  0.16473906  0.83569383  0.66426544  1
  O2-  O276  1  0.49712103  0.33252766  -0.00060966  1
  O2-  O277  1  0.50313786  0.34108861  0.33888784  1
  O2-  O278  1  0.50130398  0.33028085  0.67423848  1
  O2-  O279  1  0.49800754  0.84299353  -0.00227294  1
  O2-  O280  1  0.50281841  0.81337186  0.33568389  1
  O2-  O281  1  0.50147073  0.84211854  0.66974505  1
  O2-  O282  1  0.82620889  0.32697901  -0.00601623  1
  O2-  O283  1  0.83074471  0.34695669  0.33010741  1
  O2-  O284  1  0.83941194  0.34159102  0.67031513  1
  O2-  O285  1  0.82991771  0.81760044  -0.00088095  1
  O2-  O286  1  0.83499577  0.84838321  0.33457638  1
  O2-  O287  1  0.83640226  0.82105721  0.66133132  1
  O2-  O288  1  -0.00589212  0.17646603  0.17097583  1
  O2-  O289  1  0.00133718  0.17566323  0.49657318  1
  O2-  O290  1  0.00437712  0.17485796  0.83779325  1
  O2-  O291  1  0.00330166  0.68918834  0.16483188  1
  O2-  O292  1  -0.00867037  0.67854073  0.49353806  1
  O2-  O293  1  -0.01160513  0.69121798  0.83696705  1
  O2-  O294  1  0.33400574  0.17879101  0.16827625  1
  O2-  O295  1  0.33020653  0.17740708  0.50837279  1
  O2-  O296  1  0.32815076  0.18520190  0.82835256  1
  O2-  O297  1  0.33006293  0.67170004  0.16707612  1
  O2-  O298  1  0.33575834  0.68149461  0.50047932  1
  O2-  O299  1  0.34096253  0.68794814  0.83064316  1
  O2-  O300  1  0.67131105  0.17961058  0.17344836  1
  O2-  O301  1  0.66111157  0.17836170  0.49536459  1
  O2-  O302  1  0.66889889  0.17085122  0.83658668  1
  O2-  O303  1  0.66933880  0.68997376  0.17090932  1
  O2-  O304  1  0.66429755  0.67255618  0.50446650  1
  O2-  O305  1  0.66979093  0.67368505  0.83805003  1
  O2-  O306  1  0.16950882  0.17156244  0.16735311  1
  O2-  O307  1  0.17257796  0.17935259  0.50067600  1
  O2-  O308  1  0.17032059  0.17277096  0.83094286  1
  O2-  O309  1  0.16716446  0.67755101  0.16346823  1
  O2-  O310  1  0.17749127  0.67945459  0.49116735  1
  O2-  O311  1  0.17491140  0.67668528  0.82721600  1
  O2-  O312  1  0.50179787  0.18170931  0.15982199  1
  O2-  O313  1  0.49502943  0.17642279  0.50204585  1
  O2-  O314  1  0.49879193  0.18007522  0.83182308  1
  O2-  O315  1  0.49792032  0.68630449  0.17986802  1
  O2-  O316  1  0.49361533  0.68320292  0.49225238  1
  O2-  O317  1  0.50759768  0.68399932  0.82543484  1
  O2-  O318  1  0.83073389  0.17586355  0.17335518  1
  O2-  O319  1  0.84345747  0.17223691  0.49282474  1
  O2-  O320  1  0.82306606  0.17121966  0.84286600  1
  O2-  O321  1  0.82969041  0.68619400  0.15959127  1
  O2-  O322  1  0.83622560  0.67481732  0.49459907  1
  O2-  O323  1  0.82267753  0.68010738  0.84379063  1
  O2-  O324  1  0.00035849  0.31908143  0.16845701  1
  O2-  O325  1  0.00407830  0.32892445  0.50076456  1
  O2-  O326  1  -0.00106267  0.33516001  0.83058628  1
  O2-  O327  1  -0.00097943  0.81779332  0.16508384  1
  O2-  O328  1  -0.00261287  0.82167283  0.50200639  1
  O2-  O329  1  0.00166766  0.82391135  0.83684643  1
  O2-  O330  1  0.33054172  0.31523549  0.16379008  1
  O2-  O331  1  0.32645877  0.32371034  0.49709094  1
  O2-  O332  1  0.33384864  0.30781350  0.83009473  1
  O2-  O333  1  0.32903901  0.82527826  0.16220440  1
  O2-  O334  1  0.33883315  0.81858005  0.49975557  1
  O2-  O335  1  0.33700131  0.81442377  0.83583039  1
  O2-  O336  1  0.67392677  0.31937786  0.16839159  1
  O2-  O337  1  0.65177517  0.33136886  0.48764303  1
  O2-  O338  1  0.66938277  0.32787583  0.83717031  1
  O2-  O339  1  0.66744402  0.81333687  0.16739903  1
  O2-  O340  1  0.66206237  0.82444052  0.49559348  1
  O2-  O341  1  0.66392789  0.83362570  0.83201494  1
  O2-  O342  1  0.17126816  0.32273451  0.16303572  1
  O2-  O343  1  0.16412509  0.33215918  0.50643311  1
  O2-  O344  1  0.16132131  0.32336529  0.84182562  1
  O2-  O345  1  0.16294022  0.81724724  0.16526704  1
  O2-  O346  1  0.17428172  0.82556015  0.49312078  1
  O2-  O347  1  0.16267683  0.82994671  0.83497724  1
  O2-  O348  1  0.50306324  0.31222605  0.16254250  1
  O2-  O349  1  0.49795704  0.32785689  0.50091668  1
  O2-  O350  1  0.49830948  0.31924118  0.83231276  1
  O2-  O351  1  0.50429270  0.82261711  0.16051836  1
  O2-  O352  1  0.49986109  0.82376342  0.50023315  1
  O2-  O353  1  0.50409649  0.81786875  0.82687617  1
  O2-  O354  1  0.83031818  0.32114089  0.16782191  1
  O2-  O355  1  0.84546553  0.32861037  0.48680300  1
  O2-  O356  1  0.83758410  0.33238750  0.83006284  1
  O2-  O357  1  0.83113259  0.81933853  0.16578695  1
  O2-  O358  1  0.83705144  0.81777018  0.50537438  1
  O2-  O359  1  0.82810039  0.82199361  0.83946814  1
  O2-  O360  1  0.06270563  0.07001516  0.12567058  1
  O2-  O361  1  0.09312512  0.07072777  0.43359624  1
  O2-  O362  1  0.09425385  0.07514753  0.78505108  1
  O2-  O363  1  0.07533020  0.57782507  0.12023283  1
  O2-  O364  1  0.06889362  0.58073437  0.44011536  1
  O2-  O365  1  0.09132861  0.57481862  0.78014665  1
  O2-  O366  1  0.43665968  0.07248370  0.11526911  1
  O2-  O367  1  0.41458069  0.07354409  0.45248208  1
  O2-  O368  1  0.39607288  0.07956121  0.78602482  1
  O2-  O369  1  0.40800678  0.56816492  0.11973830  1
  O2-  O370  1  0.42609158  0.58400774  0.44462356  1
  O2-  O371  1  0.42567409  0.58250622  0.78664649  1
  O2-  O372  1  0.74790080  0.08035564  0.10782860  1
  O2-  O373  1  0.74463024  0.08298269  0.44592620  1
  O2-  O374  1  0.74591920  0.07436709  0.77908665  1
  O2-  O375  1  0.75647552  0.58315966  0.10355653  1
  O2-  O376  1  0.74849101  0.58148882  0.44783816  1
  O2-  O377  1  0.75023846  0.58372103  0.78159683  1
  O2-  O378  1  0.26433251  0.08243486  0.21236690  1
  O2-  O379  1  0.24998292  0.08302746  0.56286786  1
  O2-  O380  1  0.25387813  0.07908232  0.89071636  1
  O2-  O381  1  0.23835428  0.57672499  0.21540775  1
  O2-  O382  1  0.27127490  0.57835195  0.57632189  1
  O2-  O383  1  0.26191508  0.58066887  0.88196843  1
  O2-  O384  1  0.59705943  0.08162777  0.21224648  1
  O2-  O385  1  0.57064263  0.07385336  0.56516086  1
  O2-  O386  1  0.58865701  0.08437390  0.90158149  1
  O2-  O387  1  0.58197231  0.58396367  0.22676352  1
  O2-  O388  1  0.57633872  0.56783937  0.55248697  1
  O2-  O389  1  0.59194316  0.58524868  0.88873040  1
  O2-  O390  1  0.90142298  0.08224679  0.22045529  1
  O2-  O391  1  0.91256258  0.06111125  0.56091604  1
  O2-  O392  1  0.91376958  0.08193418  0.88821100  1
  O2-  O393  1  0.91891893  0.57813579  0.20660134  1
  O2-  O394  1  0.89196373  0.57542985  0.55997747  1
  O2-  O395  1  0.90139231  0.58725281  0.90823226  1
  O2-  O396  1  0.09732158  0.41455354  0.07959354  1
  O2-  O397  1  0.07029374  0.42300740  0.44681232  1
  O2-  O398  1  0.07386670  0.43083882  0.79538710  1
  O2-  O399  1  0.07713218  0.92021120  0.12149096  1
  O2-  O400  1  0.08162959  0.91669211  0.42348250  1
  O2-  O401  1  0.07082816  0.92739308  0.77812960  1
  O2-  O402  1  0.41879370  0.41978370  0.09943226  1
  O2-  O403  1  0.41735978  0.41631773  0.43746647  1
  O2-  O404  1  0.40654727  0.41679957  0.78309918  1
  O2-  O405  1  0.41983583  0.91627657  0.09424950  1
  O2-  O406  1  0.42345660  0.92152725  0.44340268  1
  O2-  O407  1  0.43494871  0.92165756  0.78330732  1
  O2-  O408  1  0.73558391  0.42177410  0.10643848  1
  O2-  O409  1  0.75298526  0.41563369  0.43593745  1
  O2-  O410  1  0.75406385  0.41647070  0.77690255  1
  O2-  O411  1  0.75614976  0.91435652  0.10508428  1
  O2-  O412  1  0.74488205  0.91509862  0.43459013  1
  O2-  O413  1  0.74458821  0.92645034  0.77791991  1
  O2-  O414  1  0.25326548  0.41895295  0.21837958  1
  O2-  O415  1  0.24118191  0.41927444  0.56919695  1
  O2-  O416  1  0.24230087  0.41901985  0.88516811  1
  O2-  O417  1  0.23940775  0.91751710  0.21450584  1
  O2-  O418  1  0.26306437  0.91637513  0.55545492  1
  O2-  O419  1  0.24951028  0.92063309  0.90505705  1
  O2-  O420  1  0.59040145  0.42036861  0.20893251  1
  O2-  O421  1  0.58202512  0.42176626  0.56289336  1
  O2-  O422  1  0.57720634  0.41365634  0.89883465  1
  O2-  O423  1  0.59877922  0.91980322  0.20653113  1
  O2-  O424  1  0.57172302  0.92082400  0.55827639  1
  O2-  O425  1  0.57687810  0.91743661  0.89393841  1
  O2-  O426  1  0.89914105  0.41623451  0.23495038  1
  O2-  O427  1  0.92740712  0.42073669  0.55150415  1
  O2-  O428  1  0.92191350  0.41963324  0.89291243  1
  O2-  O429  1  0.92624981  0.91881647  0.21982512  1
  O2-  O430  1  0.91285400  0.92087272  0.55931166  1
  O2-  O431  1  0.91921664  0.91402014  0.91813261  1
  O2-  O432  1  -0.00596818  0.00603333  -0.00435052  1
  O2-  O433  1  0.00171694  -0.00115370  0.31735933  1
  O2-  O434  1  -0.00583854  0.00624221  0.66620056  1
  O2-  O435  1  0.00269820  0.50137399  0.00067595  1
  O2-  O436  1  -0.02567937  0.50760791  0.36252333  1
  O2-  O437  1  0.00429000  0.47798648  0.66683076  1
  O2-  O438  1  0.33952264  0.00428803  -0.01286692  1
  O2-  O439  1  0.33023460  0.00589592  0.33944794  1
  O2-  O440  1  0.33750465  0.00073911  0.65923261  1
  O2-  O441  1  0.33575737  0.50310221  0.00065034  1
  O2-  O442  1  0.34940391  0.50818659  0.32983228  1
  O2-  O443  1  0.32045425  0.50823983  0.69609875  1
  O2-  O444  1  0.67373239  0.00253056  -0.00745647  1
  O2-  O445  1  0.67585639  0.00227236  0.32810633  1
  O2-  O446  1  0.65517294  -0.00273345  0.68968311  1
  O2-  O447  1  0.68193285  0.50297598  -0.02213367  1
  O2-  O448  1  0.67381925  0.50157233  0.31975003  1
  O2-  O449  1  0.66672342  0.51371444  0.66682017  1
  O2-  O450  1  0.16817246  0.00714128  -0.00502735  1
  O2-  O451  1  0.15960927  -0.00856286  0.31468982  1
  O2-  O452  1  0.17136988  0.00874052  0.68580602  1
  O2-  O453  1  0.16907441  0.49602234  -0.00051557  1
  O2-  O454  1  0.15031130  0.50081224  0.31698728  1
  O2-  O455  1  0.16340468  0.48658178  0.67904158  1
  O2-  O456  1  0.51944605  -0.00199685  0.02312920  1
  O2-  O457  1  0.50459249  0.01226968  0.34542385  1
  O2-  O458  1  0.50540966  -0.00229077  0.68064217  1
  O2-  O459  1  0.49830295  0.49487474  -0.00228554  1
  O2-  O460  1  0.52030233  0.49797608  0.35774496  1
  O2-  O461  1  0.50195911  0.50704888  0.67370856  1
  O2-  O462  1  0.82931124  0.00331245  -0.01329982  1
  O2-  O463  1  0.83345308  0.00423387  0.33659642  1
  O2-  O464  1  0.83911096  0.00402030  0.65803511  1
  O2-  O465  1  0.83837467  0.50543322  0.00656951  1
  O2-  O466  1  0.82516792  0.50628685  0.32975269  1
  O2-  O467  1  0.84171918  0.48797976  0.67603243  1
  O2-  O468  1  0.91209020  0.74981534  0.27997615  1
  O2-  O469  1  0.74691058  0.25164639  0.39128222  1
  O2-  O470  1  0.73754182  0.75444633  0.74290692  1
  O2-  O471  1  0.75865653  0.75280242  0.39330881  1
  O2-  O472  1  0.41558414  0.25265490  0.40606472  1
  O2-  O473  1  0.59057898  0.24967569  0.92935615  1
  O2-  O474  1  0.58628705  0.75201571  0.93304042  1
  O2-  O475  1  0.24218867  0.75054073  0.26573614  1
  O2-  O476  1  0.24605979  0.74975558  0.93593048  1
  O2-  O477  1  0.58858009  0.25330788  0.59014189  1
  O2-  O478  1  0.59464304  0.25290471  0.28108749  1
  O2-  O479  1  0.08091564  0.25246124  0.07089174  1
  O2-  O480  1  0.24274095  0.25250136  0.60312184  1
  O2-  O481  1  0.75197516  0.24948018  0.74602806  1
  O2-  O482  1  0.41242896  0.75334074  0.07048781  1
  O2-  O483  1  0.24336519  0.25156645  0.26939576  1
  O2-  O484  1  0.08976292  0.74984662  0.39459635  1
  O2-  O485  1  0.91323877  0.25122174  0.27636959  1
  O2-  O486  1  0.91602114  0.25275780  0.59390086  1
  O2-  O487  1  0.08370602  0.24895156  0.73535293  1
  O2-  O488  1  0.92037352  0.24889861  0.92576477  1
  O2-  O489  1  0.08514800  0.75648240  0.74067803  1
  O2-  O490  1  0.08830184  0.25442018  0.40075914  1
  O2-  O491  1  0.24113490  0.74560992  0.59262471  1
  O2-  O492  1  0.58880350  0.75571045  0.59758038  1
