# generated using pymatgen
data_Ca108Mn108O277
_symmetry_space_group_name_H-M   'P 1'
_cell_length_a   16.02926627
_cell_length_b   22.30964336
_cell_length_c   16.39138565
_cell_angle_alpha   89.99309025
_cell_angle_beta   89.99679281
_cell_angle_gamma   89.99296453
_symmetry_Int_Tables_number   1
_chemical_formula_structural   Ca108Mn108O277
_chemical_formula_sum   'Ca108 Mn108 O277'
_cell_volume   5861.67765715
_cell_formula_units_Z   1
loop_
 _symmetry_equiv_pos_site_id
 _symmetry_equiv_pos_as_xyz
  1  'x, y, z'
loop_
 _atom_type_symbol
 _atom_type_oxidation_number
  Ca2+  2.0
  Mn3.34+  3.34
  O2-  -2.0
loop_
 _atom_site_type_symbol
 _atom_site_label
 _atom_site_symmetry_multiplicity
 _atom_site_fract_x
 _atom_site_fract_y
 _atom_site_fract_z
 _atom_site_occupancy
  Ca2+  Ca0  1  0.10976317  0.25329162  0.25366458  1
  Ca2+  Ca1  1  0.09759514  0.25305485  0.58154977  1
  Ca2+  Ca2  1  0.08304528  0.25919937  0.91004237  1
  Ca2+  Ca3  1  0.08055421  0.74021913  0.24262923  1
  Ca2+  Ca4  1  0.10528260  0.74507863  0.59847578  1
  Ca2+  Ca5  1  0.10924257  0.74661479  0.90365933  1
  Ca2+  Ca6  1  0.40692665  0.24948825  0.25537652  1
  Ca2+  Ca7  1  0.39208842  0.25079789  0.56806324  1
  Ca2+  Ca8  1  0.41743125  0.25814477  0.92028403  1
  Ca2+  Ca9  1  0.40494987  0.73955406  0.27049740  1
  Ca2+  Ca10  1  0.40703271  0.74056461  0.58870166  1
  Ca2+  Ca11  1  0.39019717  0.73579420  0.89237852  1
  Ca2+  Ca12  1  0.73698143  0.25784950  0.26042492  1
  Ca2+  Ca13  1  0.76758705  0.24919162  0.57421883  1
  Ca2+  Ca14  1  0.75391977  0.26349128  0.91452687  1
  Ca2+  Ca15  1  0.76820369  0.74370759  0.24665974  1
  Ca2+  Ca16  1  0.73421802  0.75513782  0.58755605  1
  Ca2+  Ca17  1  0.75307875  0.75735543  0.90578779  1
  Ca2+  Ca18  1  0.25732220  0.25420510  0.09651696  1
  Ca2+  Ca19  1  0.26149901  0.24416418  0.41628479  1
  Ca2+  Ca20  1  0.24042009  0.24529153  0.73237068  1
  Ca2+  Ca21  1  0.23778408  0.73252119  0.07780392  1
  Ca2+  Ca22  1  0.26498229  0.74017883  0.42109134  1
  Ca2+  Ca23  1  0.25191866  0.74782306  0.74307513  1
  Ca2+  Ca24  1  0.57781101  0.26602499  0.08677557  1
  Ca2+  Ca25  1  0.57901217  0.25405504  0.40405419  1
  Ca2+  Ca26  1  0.59523926  0.25723278  0.76563514  1
  Ca2+  Ca27  1  0.58534008  0.75158750  0.09354861  1
  Ca2+  Ca28  1  0.55931806  0.73934428  0.42008594  1
  Ca2+  Ca29  1  0.56202205  0.73727038  0.73917827  1
  Ca2+  Ca30  1  0.91391834  0.26752771  0.07522405  1
  Ca2+  Ca31  1  0.90947714  0.25240812  0.42312782  1
  Ca2+  Ca32  1  0.91644614  0.25451991  0.75187083  1
  Ca2+  Ca33  1  0.93140301  0.75322011  0.10201137  1
  Ca2+  Ca34  1  0.91584724  0.74446085  0.40069164  1
  Ca2+  Ca35  1  0.92885697  0.75139473  0.74109472  1
  Ca2+  Ca36  1  0.08544930  0.06609885  0.26388538  1
  Ca2+  Ca37  1  0.10041551  0.60282192  0.91446799  1
  Ca2+  Ca38  1  0.07379044  0.08241534  0.93724462  1
  Ca2+  Ca39  1  0.90586604  0.08223426  0.41364728  1
  Ca2+  Ca40  1  0.91566814  0.59327230  0.10625241  1
  Ca2+  Ca41  1  0.58230876  0.07770630  0.74797712  1
  Ca2+  Ca42  1  0.09387152  0.09234128  0.58726403  1
  Ca2+  Ca43  1  0.74356905  0.08199764  0.26263912  1
  Ca2+  Ca44  1  0.61210739  0.58467224  0.09341244  1
  Ca2+  Ca45  1  0.74214706  0.59320564  0.25636916  1
  Ca2+  Ca46  1  0.95241906  0.60569972  0.73959660  1
  Ca2+  Ca47  1  0.74025477  0.60288696  0.57884083  1
  Ca2+  Ca48  1  0.58976929  0.09514427  0.40010828  1
  Ca2+  Ca49  1  0.26320220  0.61005235  0.41729585  1
  Ca2+  Ca50  1  0.24276341  0.09641656  0.72607074  1
  Ca2+  Ca51  1  0.92533307  0.59588492  0.10831129  1
  Ca2+  Ca52  1  0.74174503  0.58967269  0.93077361  1
  Ca2+  Ca53  1  0.24205365  0.60846641  0.75120649  1
  Ca2+  Ca54  1  0.40088722  0.08770298  0.26108447  1
  Ca2+  Ca55  1  0.91523209  0.07964046  0.41958171  1
  Ca2+  Ca56  1  0.25910906  0.09524664  0.41554802  1
  Ca2+  Ca57  1  0.11195182  0.60385629  0.24696079  1
  Ca2+  Ca58  1  0.41511990  0.60392090  0.58203240  1
  Ca2+  Ca59  1  0.90989139  0.60092545  0.38720294  1
  Ca2+  Ca60  1  0.42679887  0.06927736  0.93714107  1
  Ca2+  Ca61  1  0.56450896  0.59183909  0.40722275  1
  Ca2+  Ca62  1  0.10381897  0.61318105  0.58697903  1
  Ca2+  Ca63  1  0.75270172  0.06771241  0.94349539  1
  Ca2+  Ca64  1  0.76613678  0.08476407  0.58121337  1
  Ca2+  Ca65  1  0.38839791  0.09561852  0.57549468  1
  Ca2+  Ca66  1  0.25070115  0.61135419  0.75466801  1
  Ca2+  Ca67  1  0.06255760  0.07918289  0.93265120  1
  Ca2+  Ca68  1  0.92153063  0.08245416  0.73086201  1
  Ca2+  Ca69  1  0.39817949  0.59892696  0.26965300  1
  Ca2+  Ca70  1  0.58583273  0.07399811  0.07930862  1
  Ca2+  Ca71  1  0.24795709  0.08135375  0.09116750  1
  Ca2+  Ca72  1  0.58851394  0.42267204  0.38962761  1
  Ca2+  Ca73  1  0.07364151  0.41079785  0.24217712  1
  Ca2+  Ca74  1  0.26236347  0.40179166  0.74632620  1
  Ca2+  Ca75  1  0.43462865  0.41053843  0.26123192  1
  Ca2+  Ca76  1  0.93330859  0.91638924  0.40903133  1
  Ca2+  Ca77  1  0.90252364  0.40149364  0.41018622  1
  Ca2+  Ca78  1  0.24942202  0.90547902  0.42013882  1
  Ca2+  Ca79  1  0.92363667  0.40024266  0.75401617  1
  Ca2+  Ca80  1  0.24752080  0.90642510  0.08745064  1
  Ca2+  Ca81  1  0.93645996  0.92748917  0.08284536  1
  Ca2+  Ca82  1  0.23704596  0.40644161  0.08167300  1
  Ca2+  Ca83  1  0.41933025  0.40148598  0.91290464  1
  Ca2+  Ca84  1  0.27371191  0.40314818  0.74610252  1
  Ca2+  Ca85  1  0.42266927  0.89950871  0.91429945  1
  Ca2+  Ca86  1  0.25756240  0.40123648  0.41471618  1
  Ca2+  Ca87  1  0.08567346  0.41339931  0.24259880  1
  Ca2+  Ca88  1  0.23639428  0.90637808  0.08834523  1
  Ca2+  Ca89  1  0.58703873  0.89214809  0.42141218  1
  Ca2+  Ca90  1  0.57663035  0.91433686  0.08058787  1
  Ca2+  Ca91  1  0.75510525  0.90530287  0.24659764  1
  Ca2+  Ca92  1  0.42084096  0.90743337  0.24980057  1
  Ca2+  Ca93  1  0.25444497  0.89674808  0.75042066  1
  Ca2+  Ca94  1  0.92538850  0.92697879  0.08463938  1
  Ca2+  Ca95  1  0.74056883  0.40431804  0.58068285  1
  Ca2+  Ca96  1  0.91224211  0.90195115  0.74050511  1
  Ca2+  Ca97  1  0.55788713  0.40597821  0.73561056  1
  Ca2+  Ca98  1  0.23837124  0.90523754  0.41950422  1
  Ca2+  Ca99  1  0.07511311  0.90398503  0.58187754  1
  Ca2+  Ca100  1  0.94513134  0.91898452  0.41148094  1
  Ca2+  Ca101  1  0.58451048  0.89978006  0.74941622  1
  Ca2+  Ca102  1  0.75097481  0.90903325  0.92016520  1
  Ca2+  Ca103  1  0.54626139  0.40926194  0.73832355  1
  Ca2+  Ca104  1  0.76328798  0.42149143  0.95423192  1
  Ca2+  Ca105  1  0.06711089  0.41830083  0.94517409  1
  Ca2+  Ca106  1  0.58935503  0.91446827  0.08073004  1
  Ca2+  Ca107  1  0.08012537  0.91009165  0.25101898  1
  Mn3.34+  Mn108  1  0.08141805  0.33584089  0.08545797  1
  Mn3.34+  Mn109  1  0.08097493  0.33459138  0.42000825  1
  Mn3.34+  Mn110  1  0.08638784  0.33815302  0.75146697  1
  Mn3.34+  Mn111  1  0.08116938  0.83452813  0.08022255  1
  Mn3.34+  Mn112  1  0.08355030  0.82674802  0.41944480  1
  Mn3.34+  Mn113  1  0.08333250  0.82847500  0.75084978  1
  Mn3.34+  Mn114  1  0.41659871  0.33551640  0.08656735  1
  Mn3.34+  Mn115  1  0.42172153  0.33402785  0.41933304  1
  Mn3.34+  Mn116  1  0.41562520  0.32046063  0.74869445  1
  Mn3.34+  Mn117  1  0.41871165  0.83964482  0.08652296  1
  Mn3.34+  Mn118  1  0.41719566  0.83463439  0.42020015  1
  Mn3.34+  Mn119  1  0.41793113  0.83165728  0.74507462  1
  Mn3.34+  Mn120  1  0.74938080  0.34460169  0.09428937  1
  Mn3.34+  Mn121  1  0.74474244  0.33622306  0.41902724  1
  Mn3.34+  Mn122  1  0.75004129  0.33824196  0.75112846  1
  Mn3.34+  Mn123  1  0.75158728  0.83745023  0.08556494  1
  Mn3.34+  Mn124  1  0.75075477  0.82577722  0.41954081  1
  Mn3.34+  Mn125  1  0.74963078  0.83192140  0.74617993  1
  Mn3.34+  Mn126  1  0.25421603  0.33483018  0.25125617  1
  Mn3.34+  Mn127  1  0.24864586  0.33111955  0.57556156  1
  Mn3.34+  Mn128  1  0.24879136  0.32748645  0.91870998  1
  Mn3.34+  Mn129  1  0.24971770  0.82857158  0.24957345  1
  Mn3.34+  Mn130  1  0.25366015  0.83171936  0.58494194  1
  Mn3.34+  Mn131  1  0.25004385  0.83333136  0.91516988  1
  Mn3.34+  Mn132  1  0.58450408  0.33764046  0.24637988  1
  Mn3.34+  Mn133  1  0.57843171  0.33421498  0.57468247  1
  Mn3.34+  Mn134  1  0.58688996  0.33346842  0.92387552  1
  Mn3.34+  Mn135  1  0.58568183  0.82901241  0.25125609  1
  Mn3.34+  Mn136  1  0.58159006  0.83366585  0.58239897  1
  Mn3.34+  Mn137  1  0.58279327  0.82707526  0.91174055  1
  Mn3.34+  Mn138  1  0.91156306  0.33025559  0.24730524  1
  Mn3.34+  Mn139  1  0.92048725  0.33206747  0.58259540  1
  Mn3.34+  Mn140  1  0.91614634  0.33485211  0.91802288  1
  Mn3.34+  Mn141  1  0.91719695  0.83491859  0.24807136  1
  Mn3.34+  Mn142  1  0.91262929  0.83510755  0.57496783  1
  Mn3.34+  Mn143  1  0.92060309  0.83651662  0.91449097  1
  Mn3.34+  Mn144  1  0.92155820  0.66402611  0.91405416  1
  Mn3.34+  Mn145  1  0.08211110  0.66996447  0.41986198  1
  Mn3.34+  Mn146  1  0.40870175  0.15703845  0.08658780  1
  Mn3.34+  Mn147  1  0.58477916  0.16893643  0.24763579  1
  Mn3.34+  Mn148  1  0.58480092  0.66494904  0.25026961  1
  Mn3.34+  Mn149  1  0.41687177  0.16706719  0.41323951  1
  Mn3.34+  Mn150  1  0.91901375  0.16610255  0.58030733  1
  Mn3.34+  Mn151  1  0.41433161  0.17159117  0.74969479  1
  Mn3.34+  Mn152  1  0.75585209  0.15874071  0.08716885  1
  Mn3.34+  Mn153  1  0.08642282  0.66204701  0.08620174  1
  Mn3.34+  Mn154  1  0.42178397  0.16396844  0.08402481  1
  Mn3.34+  Mn155  1  0.08315908  0.16667028  0.41691995  1
  Mn3.34+  Mn156  1  0.91413539  0.67045295  0.57434660  1
  Mn3.34+  Mn157  1  0.91036026  0.16186820  0.24338211  1
  Mn3.34+  Mn158  1  0.74346440  0.16579069  0.08394602  1
  Mn3.34+  Mn159  1  0.75469064  0.16198031  0.75186985  1
  Mn3.34+  Mn160  1  0.24980422  0.16776480  0.91271519  1
  Mn3.34+  Mn161  1  0.91591724  0.16855971  0.91498226  1
  Mn3.34+  Mn162  1  0.58261146  0.16452250  0.91804597  1
  Mn3.34+  Mn163  1  0.58658771  0.67161077  0.91262736  1
  Mn3.34+  Mn164  1  0.91236829  0.66996051  0.91557397  1
  Mn3.34+  Mn165  1  0.09269944  0.16101979  0.41827899  1
  Mn3.34+  Mn166  1  0.59018594  0.17140175  0.57604474  1
  Mn3.34+  Mn167  1  0.08394480  0.15710922  0.09367670  1
  Mn3.34+  Mn168  1  0.42221490  0.16502585  0.75211844  1
  Mn3.34+  Mn169  1  0.74523623  0.15622713  0.75432325  1
  Mn3.34+  Mn170  1  0.74681256  0.66978018  0.74883806  1
  Mn3.34+  Mn171  1  0.74501986  0.66780862  0.42064448  1
  Mn3.34+  Mn172  1  0.41267685  0.66750246  0.07832637  1
  Mn3.34+  Mn173  1  0.07996205  0.16838982  0.75343759  1
  Mn3.34+  Mn174  1  0.75016260  0.66650802  0.08568450  1
  Mn3.34+  Mn175  1  0.58156207  0.16544318  0.57298268  1
  Mn3.34+  Mn176  1  0.42584795  0.67125525  0.08153116  1
  Mn3.34+  Mn177  1  0.92326928  0.16811468  0.24596142  1
  Mn3.34+  Mn178  1  0.07954204  0.16861725  0.08937660  1
  Mn3.34+  Mn179  1  0.57843993  0.66577179  0.58185021  1
  Mn3.34+  Mn180  1  0.41463169  0.49441289  0.40965943  1
  Mn3.34+  Mn181  1  0.25506976  -0.00304527  0.59013784  1
  Mn3.34+  Mn182  1  0.74879903  0.50265823  0.41205296  1
  Mn3.34+  Mn183  1  0.25658352  0.00292214  0.91233896  1
  Mn3.34+  Mn184  1  0.73455924  -0.00736238  0.42930043  1
  Mn3.34+  Mn185  1  0.41681496  0.50299345  0.09702643  1
  Mn3.34+  Mn186  1  0.58398988  0.50226992  0.91375955  1
  Mn3.34+  Mn187  1  0.57396227  0.50791678  0.91415231  1
  Mn3.34+  Mn188  1  0.24636435  0.49443198  0.58449196  1
  Mn3.34+  Mn189  1  0.24728540  -0.00020176  0.26425912  1
  Mn3.34+  Mn190  1  0.91991046  0.50453425  0.92344036  1
  Mn3.34+  Mn191  1  0.25255625  0.50055306  0.24907735  1
  Mn3.34+  Mn192  1  0.57947211  0.00204196  0.24943183  1
  Mn3.34+  Mn193  1  0.58152184  -0.00188240  0.58566998  1
  Mn3.34+  Mn194  1  0.74077520  0.51022988  0.74681547  1
  Mn3.34+  Mn195  1  0.90198157  0.49216056  0.25523702  1
  Mn3.34+  Mn196  1  0.07467961  0.50496974  0.41987814  1
  Mn3.34+  Mn197  1  0.58335919  -0.00145638  0.91813369  1
  Mn3.34+  Mn198  1  0.42285381  -0.00000192  0.42133358  1
  Mn3.34+  Mn199  1  0.08729014  0.49965046  0.75228145  1
  Mn3.34+  Mn200  1  0.57443141  0.50137847  0.58607848  1
  Mn3.34+  Mn201  1  0.93214348  0.49806418  0.58347060  1
  Mn3.34+  Mn202  1  0.91484319  -0.00200002  0.91642863  1
  Mn3.34+  Mn203  1  0.74528377  -0.00272914  0.43097306  1
  Mn3.34+  Mn204  1  0.75194478  -0.00460930  0.73668964  1
  Mn3.34+  Mn205  1  0.08969772  0.49956634  0.42171452  1
  Mn3.34+  Mn206  1  0.75428163  0.50402126  0.74860987  1
  Mn3.34+  Mn207  1  0.09035094  -0.00666352  0.75311116  1
  Mn3.34+  Mn208  1  0.24967674  0.50386444  0.92631748  1
  Mn3.34+  Mn209  1  0.26443223  0.49925056  0.92441747  1
  Mn3.34+  Mn210  1  0.24005154  0.00189406  0.90915948  1
  Mn3.34+  Mn211  1  0.07649146  -0.00025179  0.75489736  1
  Mn3.34+  Mn212  1  0.41625560  -0.00037274  0.74765285  1
  Mn3.34+  Mn213  1  0.25870079  0.50123106  0.58689926  1
  Mn3.34+  Mn214  1  0.91934944  0.50478557  0.58110818  1
  Mn3.34+  Mn215  1  0.42661680  0.49740548  0.09692188  1
  O2-  O216  1  0.00501654  0.15981982  -0.00036101  1
  O2-  O217  1  -0.00097792  0.14238876  0.33983104  1
  O2-  O218  1  -0.00058959  0.15286151  0.66830917  1
  O2-  O219  1  -0.00788003  0.64566080  0.00324011  1
  O2-  O220  1  0.00605735  0.66499716  0.33634498  1
  O2-  O221  1  -0.00294406  0.67358030  0.65190027  1
  O2-  O222  1  0.33466084  0.13835200  -0.00025868  1
  O2-  O223  1  0.33757763  0.15578861  0.33759553  1
  O2-  O224  1  0.33573201  0.16295654  0.66658229  1
  O2-  O225  1  0.33598280  0.66251462  0.00424811  1
  O2-  O226  1  0.33744211  0.66756721  0.34220530  1
  O2-  O227  1  0.33393849  0.65589630  0.66129570  1
  O2-  O228  1  0.66761059  0.14241849  0.00296988  1
  O2-  O229  1  0.66784413  0.16220341  0.32185907  1
  O2-  O230  1  0.66307102  0.14927509  0.66722375  1
  O2-  O231  1  0.67048535  0.67991767  0.00144846  1
  O2-  O232  1  0.66196440  0.66277983  0.33663262  1
  O2-  O233  1  0.66948071  0.66052275  0.66606214  1
  O2-  O234  1  0.16223497  0.14521754  0.00328901  1
  O2-  O235  1  0.16080314  0.14545388  0.32947762  1
  O2-  O236  1  0.15852840  0.16624102  0.67189447  1
  O2-  O237  1  0.15563882  0.66574022  0.00047221  1
  O2-  O238  1  0.16284314  0.66948193  0.34289044  1
  O2-  O239  1  0.17357697  0.66435027  0.66968611  1
  O2-  O240  1  0.49756898  0.14384164  0.00295747  1
  O2-  O241  1  0.50032016  0.15147490  0.32693990  1
  O2-  O242  1  0.50177351  0.16152547  0.66318397  1
  O2-  O243  1  0.51053060  0.65980939  0.00522916  1
  O2-  O244  1  0.49965996  0.65491848  0.32150437  1
  O2-  O245  1  0.50290770  0.65965213  0.65937651  1
  O2-  O246  1  0.82911376  0.15619464  -0.00433507  1
  O2-  O247  1  0.83775720  0.14993533  0.33241133  1
  O2-  O248  1  0.83114494  0.14810884  0.66467510  1
  O2-  O249  1  0.83172100  0.65017298  -0.00455261  1
  O2-  O250  1  0.82169619  0.67186241  0.33751474  1
  O2-  O251  1  0.83640338  0.65094877  0.66691458  1
  O2-  O252  1  0.00423700  0.32948174  -0.00051416  1
  O2-  O253  1  0.00088339  0.34963392  0.33302709  1
  O2-  O254  1  0.00166688  0.33199793  0.67200777  1
  O2-  O255  1  -0.00739972  0.85452195  0.00778101  1
  O2-  O256  1  0.00128121  0.84606848  0.33405232  1
  O2-  O257  1  -0.00233644  0.83411221  0.66071544  1
  O2-  O258  1  0.33205961  0.35063292  -0.00004909  1
  O2-  O259  1  0.34046563  0.35181791  0.32890501  1
  O2-  O260  1  0.33368118  0.33289831  0.66617442  1
  O2-  O261  1  0.33248880  0.85716574  0.00464760  1
  O2-  O262  1  0.32984602  0.85057185  0.33134534  1
  O2-  O263  1  0.33434174  0.84939687  0.66510724  1
  O2-  O264  1  0.67412967  0.33168773  0.00639071  1
  O2-  O265  1  0.66333480  0.33017865  0.33900585  1
  O2-  O266  1  0.65599870  0.35007609  0.67272843  1
  O2-  O267  1  0.66838877  0.82807113  0.00006790  1
  O2-  O268  1  0.67478785  0.83761689  0.32716601  1
  O2-  O269  1  0.66787522  0.84278747  0.66534187  1
  O2-  O270  1  0.16123203  0.34050988  -0.00318818  1
  O2-  O271  1  0.16225666  0.35346747  0.32890752  1
  O2-  O272  1  0.17359881  0.34276645  0.67072719  1
  O2-  O273  1  0.16804432  0.84990096  0.00148186  1
  O2-  O274  1  0.16561669  0.84571292  0.33263034  1
  O2-  O275  1  0.16484699  0.84475598  0.66294501  1
  O2-  O276  1  0.49622709  0.34214359  -0.00164036  1
  O2-  O277  1  0.50546807  0.34322347  0.34134859  1
  O2-  O278  1  0.50424572  0.31833472  0.67037094  1
  O2-  O279  1  0.50803754  0.84759628  0.00371573  1
  O2-  O280  1  0.49972904  0.84982126  0.33228415  1
  O2-  O281  1  0.50620026  0.84280541  0.67083824  1
  O2-  O282  1  0.82805103  0.33457673  0.00382802  1
  O2-  O283  1  0.83058142  0.32798024  0.33931368  1
  O2-  O284  1  0.83240759  0.35179551  0.66492254  1
  O2-  O285  1  0.83493375  0.85391779  0.00564303  1
  O2-  O286  1  0.84047803  0.84681575  0.33890342  1
  O2-  O287  1  0.83957982  0.83413609  0.66702598  1
  O2-  O288  1  -0.00469405  0.19331093  0.16022426  1
  O2-  O289  1  0.00954220  0.18461805  0.50363304  1
  O2-  O290  1  0.00111258  0.18578563  0.83655614  1
  O2-  O291  1  -0.00365219  0.67289609  0.16010554  1
  O2-  O292  1  -0.00600871  0.69167486  0.49435743  1
  O2-  O293  1  0.00506217  0.67721463  0.83952355  1
  O2-  O294  1  0.33233036  0.17422495  0.16335326  1
  O2-  O295  1  0.33971453  0.17319761  0.49331092  1
  O2-  O296  1  0.33281323  0.19072983  0.82668397  1
  O2-  O297  1  0.34349653  0.67637352  0.16660865  1
  O2-  O298  1  0.33873635  0.67476833  0.50261746  1
  O2-  O299  1  0.32128006  0.67536968  0.81807833  1
  O2-  O300  1  0.66565681  0.19317875  0.16030826  1
  O2-  O301  1  0.67128780  0.19210251  0.50051336  1
  O2-  O302  1  0.66705895  0.18023630  0.83370147  1
  O2-  O303  1  0.67490143  0.68572218  0.16842014  1
  O2-  O304  1  0.66495920  0.68015621  0.50061047  1
  O2-  O305  1  0.67246276  0.69048064  0.83773397  1
  O2-  O306  1  0.16675514  0.19076428  0.15982375  1
  O2-  O307  1  0.17159961  0.17569170  0.49625870  1
  O2-  O308  1  0.16159588  0.18838982  0.83377730  1
  O2-  O309  1  0.15913314  0.67670661  0.16450033  1
  O2-  O310  1  0.15947511  0.68597442  0.49662116  1
  O2-  O311  1  0.17558751  0.67882144  0.83044170  1
  O2-  O312  1  0.49992852  0.18085342  0.16205885  1
  O2-  O313  1  0.50132456  0.18633974  0.49461275  1
  O2-  O314  1  0.50132450  0.18971299  0.82918175  1
  O2-  O315  1  0.50881511  0.67826005  0.15813984  1
  O2-  O316  1  0.50098337  0.66921884  0.50230212  1
  O2-  O317  1  0.50731682  0.69413992  0.84868259  1
  O2-  O318  1  0.83259951  0.19273567  0.15993564  1
  O2-  O319  1  0.84457868  0.17742786  0.49790518  1
  O2-  O320  1  0.83785543  0.17582133  0.82813776  1
  O2-  O321  1  0.83782533  0.68370620  0.14755364  1
  O2-  O322  1  0.82500660  0.68805723  0.50261295  1
  O2-  O323  1  0.83933974  0.68516337  0.82885744  1
  O2-  O324  1  0.00736220  0.31411985  0.17051083  1
  O2-  O325  1  -0.00201059  0.31348733  0.49737177  1
  O2-  O326  1  0.00211882  0.32169001  0.83010506  1
  O2-  O327  1  0.00190249  0.83076797  0.16750767  1
  O2-  O328  1  -0.00092839  0.81163150  0.49598997  1
  O2-  O329  1  -0.00466255  0.81857306  0.82962953  1
  O2-  O330  1  0.33140663  0.32036370  0.16674195  1
  O2-  O331  1  0.32856211  0.32205351  0.48868542  1
  O2-  O332  1  0.33157282  0.31598320  0.83019247  1
  O2-  O333  1  0.33082127  0.83433099  0.16324492  1
  O2-  O334  1  0.32175542  0.82876089  0.48878241  1
  O2-  O335  1  0.33564274  0.82569120  0.83498238  1
  O2-  O336  1  0.66711264  0.31973742  0.16760196  1
  O2-  O337  1  0.66986416  0.31341318  0.50727991  1
  O2-  O338  1  0.66740951  0.32519567  0.83662448  1
  O2-  O339  1  0.67046748  0.81431067  0.16470684  1
  O2-  O340  1  0.65915417  0.81113907  0.48925367  1
  O2-  O341  1  0.66764457  0.82151837  0.83210581  1
  O2-  O342  1  0.16767449  0.32077185  0.16472477  1
  O2-  O343  1  0.16997822  0.31817601  0.49024646  1
  O2-  O344  1  0.17290594  0.31490813  0.82662689  1
  O2-  O345  1  0.16976417  0.82658635  0.16169521  1
  O2-  O346  1  0.16989859  0.81902733  0.49526089  1
  O2-  O347  1  0.17525202  0.82488503  0.82583824  1
  O2-  O348  1  0.49336729  0.32043997  0.17315308  1
  O2-  O349  1  0.49786603  0.30834993  0.50100895  1
  O2-  O350  1  0.50008367  0.31825632  0.83109414  1
  O2-  O351  1  0.50808675  0.82954809  0.16204549  1
  O2-  O352  1  0.50079914  0.82469842  0.49697348  1
  O2-  O353  1  0.49814452  0.82127861  0.83487968  1
  O2-  O354  1  0.82764383  0.31201346  0.16729245  1
  O2-  O355  1  0.83178410  0.32067479  0.49792352  1
  O2-  O356  1  0.83757429  0.32616708  0.82872120  1
  O2-  O357  1  0.83221561  0.82335155  0.16647373  1
  O2-  O358  1  0.83370172  0.80744726  0.49770150  1
  O2-  O359  1  0.83289535  0.82447598  0.83499610  1
  O2-  O360  1  0.10023037  0.07878383  0.12483929  1
  O2-  O361  1  0.07761553  0.08057071  0.45067405  1
  O2-  O362  1  0.09045364  0.07792514  0.79842426  1
  O2-  O363  1  0.06356333  0.58050073  0.11644134  1
  O2-  O364  1  0.08032510  0.58475596  0.45040885  1
  O2-  O365  1  0.09471264  0.57811947  0.77708217  1
  O2-  O366  1  0.42131676  0.07808187  0.11805010  1
  O2-  O367  1  0.43041042  0.08216464  0.44494218  1
  O2-  O368  1  0.42309968  0.08035271  0.79368260  1
  O2-  O369  1  0.43162656  0.58428940  0.11466311  1
  O2-  O370  1  0.40473173  0.56510659  0.45139789  1
  O2-  O371  1  0.38894431  0.58509483  0.75134281  1
  O2-  O372  1  0.73467211  0.07765824  0.12333347  1
  O2-  O373  1  0.74679480  0.07999679  0.44681773  1
  O2-  O374  1  0.74284370  0.07086382  0.79964804  1
  O2-  O375  1  0.75784500  0.58552022  0.11134652  1
  O2-  O376  1  0.76464658  0.57988986  0.44563545  1
  O2-  O377  1  0.74918116  0.58696221  0.78967174  1
  O2-  O378  1  0.24912251  0.07181779  0.22432959  1
  O2-  O379  1  0.25253752  0.07166941  0.54909287  1
  O2-  O380  1  0.24680930  0.08374495  0.87029371  1
  O2-  O381  1  0.25727257  0.57837212  0.24501546  1
  O2-  O382  1  0.24463672  0.57560422  0.54398340  1
  O2-  O383  1  0.23750753  0.57918956  0.88618047  1
  O2-  O384  1  0.58798616  0.08384086  0.21893059  1
  O2-  O385  1  0.59073656  0.07948125  0.54038005  1
  O2-  O386  1  0.57708717  0.07984316  0.88776305  1
  O2-  O387  1  0.60070942  0.58515476  0.22462999  1
  O2-  O388  1  0.59122611  0.57901208  0.55081296  1
  O2-  O389  1  0.59522388  0.58797713  0.88853102  1
  O2-  O390  1  0.92279426  0.08199381  0.22500078  1
  O2-  O391  1  0.91691103  0.08312786  0.55108123  1
  O2-  O392  1  0.93059336  0.07954498  0.88256220  1
  O2-  O393  1  0.88846185  0.57356544  0.23603262  1
  O2-  O394  1  0.92409437  0.58078177  0.53828525  1
  O2-  O395  1  0.91306816  0.57898890  0.87060841  1
  O2-  O396  1  0.08705532  0.41903266  0.11004015  1
  O2-  O397  1  0.07843275  0.42025463  0.45144255  1
  O2-  O398  1  0.10348516  0.42273403  0.79271594  1
  O2-  O399  1  0.08553910  0.92181589  0.11115280  1
  O2-  O400  1  0.08225547  0.91609809  0.44522971  1
  O2-  O401  1  0.07194703  0.91313929  0.76294695  1
  O2-  O402  1  0.40428606  0.41907549  0.12783561  1
  O2-  O403  1  0.42706578  0.41831453  0.44385209  1
  O2-  O404  1  0.41314973  0.41220794  0.77588962  1
  O2-  O405  1  0.43241727  0.92161796  0.11101131  1
  O2-  O406  1  0.39367235  0.92095511  0.43739096  1
  O2-  O407  1  0.42083279  0.91992991  0.77831641  1
  O2-  O408  1  0.75493242  0.41993176  0.09450332  1
  O2-  O409  1  0.74470782  0.42352103  0.44639487  1
  O2-  O410  1  0.74862537  0.42619191  0.78826755  1
  O2-  O411  1  0.72850195  0.91832953  0.10907072  1
  O2-  O412  1  0.74300914  0.91141503  0.44111298  1
  O2-  O413  1  0.74895825  0.91876452  0.77694981  1
  O2-  O414  1  0.22993739  0.42120656  0.21718553  1
  O2-  O415  1  0.25549803  0.41653524  0.55379100  1
  O2-  O416  1  0.26626051  0.42119862  0.87746147  1
  O2-  O417  1  0.25207928  0.92327056  0.22137551  1
  O2-  O418  1  0.23258740  0.91959484  0.55549494  1
  O2-  O419  1  0.25847781  0.92009877  0.88600888  1
  O2-  O420  1  0.57650610  0.41661045  0.24295374  1
  O2-  O421  1  0.58855243  0.42241907  0.55007864  1
  O2-  O422  1  0.56677108  0.42329367  0.87220947  1
  O2-  O423  1  0.59377796  0.92012000  0.21721768  1
  O2-  O424  1  0.58811300  0.91829393  0.55477922  1
  O2-  O425  1  0.58690370  0.91990256  0.89020367  1
  O2-  O426  1  0.93223806  0.41454807  0.22618274  1
  O2-  O427  1  0.91374566  0.41900125  0.54909174  1
  O2-  O428  1  0.92150497  0.42384665  0.89459082  1
  O2-  O429  1  0.91357878  0.92279609  0.22065585  1
  O2-  O430  1  0.92791482  0.91758372  0.54521056  1
  O2-  O431  1  0.90911417  0.92134456  0.87983372  1
  O2-  O432  1  -0.00108863  0.00443150  -0.00516493  1
  O2-  O433  1  -0.02005733  0.00427375  0.37037801  1
  O2-  O434  1  -0.00032112  0.00810577  0.67119077  1
  O2-  O435  1  0.00616770  0.51461523  -0.01762025  1
  O2-  O436  1  0.00578063  0.49872467  0.32177393  1
  O2-  O437  1  -0.01447676  0.50292101  0.69016525  1
  O2-  O438  1  0.32959949  0.00294369  -0.00046401  1
  O2-  O439  1  0.32078762  0.00949369  0.35086876  1
  O2-  O440  1  0.32643068  0.01812479  0.67778278  1
  O2-  O441  1  0.32901129  0.49548275  0.02075704  1
  O2-  O442  1  0.33169762  0.48481578  0.33423601  1
  O2-  O443  1  0.31380810  0.48806659  0.68808086  1
  O2-  O444  1  0.66431803  -0.00351105  -0.00515884  1
  O2-  O445  1  0.66384403  0.00817081  0.33491193  1
  O2-  O446  1  0.66897567  0.01738332  0.66526132  1
  O2-  O447  1  0.66905528  0.50820796  -0.00768639  1
  O2-  O448  1  0.65610912  0.51268442  0.35893207  1
  O2-  O449  1  0.67627887  0.49554158  0.65199161  1
  O2-  O450  1  0.16419139  0.01920598  -0.00849553  1
  O2-  O451  1  0.15567911  -0.01259641  0.32268703  1
  O2-  O452  1  0.16341309  0.01414831  0.66304880  1
  O2-  O453  1  0.16458490  0.47946575  -0.00773069  1
  O2-  O454  1  0.16148748  0.49534626  0.32705845  1
  O2-  O455  1  0.15200275  0.50666351  0.65438419  1
  O2-  O456  1  0.50686633  -0.00333651  0.00021147  1
  O2-  O457  1  0.48972230  -0.00053486  0.32412647  1
  O2-  O458  1  0.50456700  0.01304690  0.67402367  1
  O2-  O459  1  0.49490459  0.49267582  0.00064662  1
  O2-  O460  1  0.49352260  0.50366181  0.33937474  1
  O2-  O461  1  0.51223322  0.48852826  0.67757300  1
  O2-  O462  1  0.83473095  -0.01096059  -0.00722653  1
  O2-  O463  1  0.82713573  0.00496663  0.34510274  1
  O2-  O464  1  0.83711882  0.01199471  0.67734420  1
  O2-  O465  1  0.82950873  0.51160267  -0.01971033  1
  O2-  O466  1  0.84857353  0.49517140  0.35914554  1
  O2-  O467  1  0.83137052  0.50162686  0.65946253  1
  O2-  O468  1  0.75900773  0.75000708  0.72628964  1
  O2-  O469  1  0.74923589  0.24806733  0.72604477  1
  O2-  O470  1  0.57339107  0.24985939  0.26728964  1
  O2-  O471  1  0.41343447  0.25128993  0.39121108  1
  O2-  O472  1  0.25122071  0.75728354  0.94076916  1
  O2-  O473  1  0.91154685  0.75202569  0.95034629  1
  O2-  O474  1  0.08306160  0.24704768  0.38623222  1
  O2-  O475  1  0.92096459  0.24517471  0.28262908  1
  O2-  O476  1  0.41573163  0.75664544  0.40355787  1
  O2-  O477  1  0.25928405  0.75483114  0.60239623  1
  O2-  O478  1  0.58485600  0.24443732  0.94528481  1
  O2-  O479  1  0.08802016  0.75182963  0.73951737  1
  O2-  O480  1  0.56656966  0.75025131  0.27051535  1
  O2-  O481  1  0.25310385  0.25774515  0.27819557  1
  O2-  O482  1  0.90959535  0.24790537  0.61156706  1
  O2-  O483  1  0.41171584  0.24423118  0.05661703  1
  O2-  O484  1  0.25243783  0.75294737  0.26835316  1
  O2-  O485  1  0.42132094  0.75520847  0.06364215  1
  O2-  O486  1  0.41086921  0.75407113  0.72968328  1
  O2-  O487  1  0.58025447  0.75081198  0.60144859  1
  O2-  O488  1  0.07486325  0.75242565  0.06328858  1
  O2-  O489  1  0.92130207  0.75640087  0.26110179  1
  O2-  O490  1  0.24699423  0.25358451  0.59403185  1
  O2-  O491  1  0.90551452  0.24969408  0.93517625  1
  O2-  O492  1  0.25756309  0.24364958  0.95706785  1
