# generated using pymatgen
data_Ca108Mn108O277
_symmetry_space_group_name_H-M   'P 1'
_cell_length_a   16.01721491
_cell_length_b   22.29356124
_cell_length_c   16.38042758
_cell_angle_alpha   89.99676001
_cell_angle_beta   90.00110958
_cell_angle_gamma   89.99643478
_symmetry_Int_Tables_number   1
_chemical_formula_structural   Ca108Mn108O277
_chemical_formula_sum   'Ca108 Mn108 O277'
_cell_volume   5849.13553053
_cell_formula_units_Z   1
loop_
 _symmetry_equiv_pos_site_id
 _symmetry_equiv_pos_as_xyz
  1  'x, y, z'
loop_
 _atom_type_symbol
 _atom_type_oxidation_number
  Ca2+  2.0
  Mn3.34+  3.34
  O2-  -2.0
loop_
 _atom_site_type_symbol
 _atom_site_label
 _atom_site_symmetry_multiplicity
 _atom_site_fract_x
 _atom_site_fract_y
 _atom_site_fract_z
 _atom_site_occupancy
  Ca2+  Ca0  1  0.07451995  0.25309835  0.25437731  1
  Ca2+  Ca1  1  0.08221715  0.25351969  0.57188922  1
  Ca2+  Ca2  1  0.07171644  0.25409144  0.92213629  1
  Ca2+  Ca3  1  0.10008623  0.75245288  0.23748380  1
  Ca2+  Ca4  1  0.10581820  0.73839993  0.58657604  1
  Ca2+  Ca5  1  0.09398250  0.75082103  0.92949856  1
  Ca2+  Ca6  1  0.41010953  0.25358310  0.25733128  1
  Ca2+  Ca7  1  0.44023243  0.23705608  0.59808113  1
  Ca2+  Ca8  1  0.43259935  0.24822403  0.89167610  1
  Ca2+  Ca9  1  0.42975668  0.75238227  0.23862969  1
  Ca2+  Ca10  1  0.39450644  0.74442293  0.59225176  1
  Ca2+  Ca11  1  0.41521629  0.75885326  0.92282853  1
  Ca2+  Ca12  1  0.76837907  0.25140681  0.24139935  1
  Ca2+  Ca13  1  0.72757256  0.24390871  0.59262041  1
  Ca2+  Ca14  1  0.74498962  0.25405150  0.91157212  1
  Ca2+  Ca15  1  0.72868151  0.74689096  0.25797859  1
  Ca2+  Ca16  1  0.74855287  0.75033753  0.56905694  1
  Ca2+  Ca17  1  0.73909854  0.75657498  0.91813410  1
  Ca2+  Ca18  1  0.24222586  0.25142647  0.08334181  1
  Ca2+  Ca19  1  0.24347357  0.25598361  0.42127247  1
  Ca2+  Ca20  1  0.27366153  0.25508492  0.74433889  1
  Ca2+  Ca21  1  0.24046309  0.74716761  0.08009944  1
  Ca2+  Ca22  1  0.24349713  0.74735061  0.42628331  1
  Ca2+  Ca23  1  0.25051626  0.74693440  0.74836946  1
  Ca2+  Ca24  1  0.59249254  0.25472617  0.06409697  1
  Ca2+  Ca25  1  0.57800214  0.25483394  0.44144437  1
  Ca2+  Ca26  1  0.57738522  0.24200107  0.74471931  1
  Ca2+  Ca27  1  0.57401712  0.75470808  0.08823884  1
  Ca2+  Ca28  1  0.59688218  0.73546506  0.40791999  1
  Ca2+  Ca29  1  0.57521468  0.74906534  0.75820280  1
  Ca2+  Ca30  1  0.91538130  0.24853625  0.08593061  1
  Ca2+  Ca31  1  0.92742847  0.25491081  0.41020766  1
  Ca2+  Ca32  1  0.90330151  0.25082282  0.75567055  1
  Ca2+  Ca33  1  0.94595987  0.74729367  0.07825117  1
  Ca2+  Ca34  1  0.90387576  0.74596622  0.42677894  1
  Ca2+  Ca35  1  0.92339946  0.74481411  0.74872166  1
  Ca2+  Ca36  1  0.90119752  0.09193411  0.74218570  1
  Ca2+  Ca37  1  0.10019895  0.59305261  0.25360159  1
  Ca2+  Ca38  1  0.73577240  0.08399234  0.60486644  1
  Ca2+  Ca39  1  0.25785415  0.59416146  0.72536837  1
  Ca2+  Ca40  1  0.92287006  0.09332362  0.40898858  1
  Ca2+  Ca41  1  0.58561862  0.10347641  0.45156183  1
  Ca2+  Ca42  1  0.07652841  0.60633473  0.93474592  1
  Ca2+  Ca43  1  0.06576324  0.09067665  0.25618130  1
  Ca2+  Ca44  1  0.40947494  0.08891556  0.25606205  1
  Ca2+  Ca45  1  0.23742442  0.59941672  0.08150894  1
  Ca2+  Ca46  1  0.43684394  0.09381049  0.92316380  1
  Ca2+  Ca47  1  0.57449980  0.10185411  0.45278788  1
  Ca2+  Ca48  1  0.75488387  0.59971288  0.57154439  1
  Ca2+  Ca49  1  0.23709045  0.58956903  0.44191856  1
  Ca2+  Ca50  1  0.43368864  0.59879870  0.24487415  1
  Ca2+  Ca51  1  0.73081678  0.59094603  0.90462832  1
  Ca2+  Ca52  1  0.73874301  0.08913673  0.91005965  1
  Ca2+  Ca53  1  0.42603492  0.59158288  0.91500872  1
  Ca2+  Ca54  1  0.57803710  0.08974145  0.71487015  1
  Ca2+  Ca55  1  0.91725057  0.08960502  0.08778028  1
  Ca2+  Ca56  1  0.92018830  0.58748619  0.42974156  1
  Ca2+  Ca57  1  0.77679779  0.08580749  0.25031833  1
  Ca2+  Ca58  1  0.57522435  0.59120145  0.08241667  1
  Ca2+  Ca59  1  0.07262510  0.09834900  0.57854572  1
  Ca2+  Ca60  1  0.26771444  0.09827186  0.74290930  1
  Ca2+  Ca61  1  0.06789007  0.08932591  0.92592241  1
  Ca2+  Ca62  1  0.25091852  0.59178590  0.73276889  1
  Ca2+  Ca63  1  0.25825426  0.09079106  0.08527994  1
  Ca2+  Ca64  1  0.56613405  0.59387491  0.07758393  1
  Ca2+  Ca65  1  0.42178938  0.08702982  0.25444659  1
  Ca2+  Ca66  1  0.74999137  0.08858629  0.91014810  1
  Ca2+  Ca67  1  0.39801389  0.58689673  0.58891170  1
  Ca2+  Ca68  1  0.10654015  0.59271591  0.57798097  1
  Ca2+  Ca69  1  0.74464663  0.59999588  0.57352005  1
  Ca2+  Ca70  1  0.58343014  0.58456403  0.74091727  1
  Ca2+  Ca71  1  0.09130032  0.58988457  0.24942498  1
  Ca2+  Ca72  1  0.25656434  0.41183746  0.74053188  1
  Ca2+  Ca73  1  0.42460675  0.90290932  0.58800274  1
  Ca2+  Ca74  1  0.74779286  0.90898304  0.91200178  1
  Ca2+  Ca75  1  0.59035001  0.90884702  0.74964442  1
  Ca2+  Ca76  1  0.90543125  0.40703926  0.72965182  1
  Ca2+  Ca77  1  0.07275228  0.90419644  0.24830436  1
  Ca2+  Ca78  1  0.72904031  0.40721980  0.91257342  1
  Ca2+  Ca79  1  0.74241305  0.39681674  0.25763519  1
  Ca2+  Ca80  1  0.08855012  0.90184945  0.57919042  1
  Ca2+  Ca81  1  0.43002353  0.41094710  0.58471501  1
  Ca2+  Ca82  1  0.25374614  0.41285160  0.08067168  1
  Ca2+  Ca83  1  0.08318109  0.41360365  0.56909266  1
  Ca2+  Ca84  1  0.90659928  0.90183004  0.75226234  1
  Ca2+  Ca85  1  0.72807552  0.92344715  0.60684262  1
  Ca2+  Ca86  1  0.07072124  0.41435415  0.56759194  1
  Ca2+  Ca87  1  0.92062242  0.90456630  0.08465036  1
  Ca2+  Ca88  1  0.41730170  0.41252276  0.25383000  1
  Ca2+  Ca89  1  0.25111608  0.89489496  0.75323528  1
  Ca2+  Ca90  1  0.74024178  0.41409435  0.58614620  1
  Ca2+  Ca91  1  0.57922573  0.90580665  0.41830396  1
  Ca2+  Ca92  1  0.92221218  0.91113211  0.39990935  1
  Ca2+  Ca93  1  0.58361018  0.41409219  0.74356616  1
  Ca2+  Ca94  1  0.07575794  0.90141630  0.57942531  1
  Ca2+  Ca95  1  0.42981993  0.40986300  0.25293622  1
  Ca2+  Ca96  1  0.26225289  0.89895850  0.08482219  1
  Ca2+  Ca97  1  0.58876568  0.40697612  0.42618466  1
  Ca2+  Ca98  1  0.08501610  0.40201360  0.91733502  1
  Ca2+  Ca99  1  0.73966293  0.92204728  0.60885912  1
  Ca2+  Ca100  1  0.43574677  0.40968868  0.91659158  1
  Ca2+  Ca101  1  0.24126055  0.41046556  0.08160124  1
  Ca2+  Ca102  1  0.56799880  0.90504475  0.42008610  1
  Ca2+  Ca103  1  0.23966783  0.41355606  0.42003514  1
  Ca2+  Ca104  1  0.75642166  0.90434356  0.24427034  1
  Ca2+  Ca105  1  0.55915958  0.91182110  0.08334988  1
  Ca2+  Ca106  1  0.91762168  0.39614147  0.08582173  1
  Ca2+  Ca107  1  0.24620241  0.90082577  0.41698364  1
  Mn3.34+  Mn108  1  0.08180099  0.33145923  0.08633039  1
  Mn3.34+  Mn109  1  0.08128758  0.33771898  0.41080984  1
  Mn3.34+  Mn110  1  0.08069175  0.32739068  0.74976793  1
  Mn3.34+  Mn111  1  0.08649394  0.83256129  0.08185568  1
  Mn3.34+  Mn112  1  0.08110285  0.82732498  0.41276435  1
  Mn3.34+  Mn113  1  0.08195006  0.82878014  0.75822002  1
  Mn3.34+  Mn114  1  0.42020748  0.32974804  0.08365672  1
  Mn3.34+  Mn115  1  0.41538260  0.33401419  0.42255575  1
  Mn3.34+  Mn116  1  0.41954253  0.33459297  0.74812294  1
  Mn3.34+  Mn117  1  0.41426449  0.83832954  0.08454145  1
  Mn3.34+  Mn118  1  0.41267164  0.83371302  0.41462365  1
  Mn3.34+  Mn119  1  0.41791900  0.83041240  0.75453186  1
  Mn3.34+  Mn120  1  0.74789033  0.33076627  0.08232362  1
  Mn3.34+  Mn121  1  0.75339708  0.33286233  0.42204521  1
  Mn3.34+  Mn122  1  0.74733322  0.33342318  0.74975936  1
  Mn3.34+  Mn123  1  0.74971840  0.83563771  0.08358144  1
  Mn3.34+  Mn124  1  0.75105072  0.82882198  0.41656389  1
  Mn3.34+  Mn125  1  0.75064796  0.82971793  0.75396323  1
  Mn3.34+  Mn126  1  0.24780158  0.33352693  0.24925745  1
  Mn3.34+  Mn127  1  0.24911448  0.33997812  0.58111274  1
  Mn3.34+  Mn128  1  0.25150363  0.33499436  0.91097820  1
  Mn3.34+  Mn129  1  0.25399378  0.83057139  0.24984943  1
  Mn3.34+  Mn130  1  0.25157831  0.83184644  0.58311468  1
  Mn3.34+  Mn131  1  0.25070653  0.83132189  0.91692998  1
  Mn3.34+  Mn132  1  0.58540066  0.32818414  0.24831324  1
  Mn3.34+  Mn133  1  0.58439236  0.33627323  0.58468478  1
  Mn3.34+  Mn134  1  0.58302685  0.33721620  0.91304105  1
  Mn3.34+  Mn135  1  0.58215564  0.83412584  0.24701425  1
  Mn3.34+  Mn136  1  0.58206448  0.82880586  0.58255559  1
  Mn3.34+  Mn137  1  0.57987691  0.83532088  0.91877858  1
  Mn3.34+  Mn138  1  0.91825562  0.33310093  0.25184643  1
  Mn3.34+  Mn139  1  0.91141050  0.33373928  0.57722780  1
  Mn3.34+  Mn140  1  0.91361892  0.33243955  0.91427715  1
  Mn3.34+  Mn141  1  0.91497652  0.83606060  0.24523297  1
  Mn3.34+  Mn142  1  0.91506361  0.83013887  0.58152700  1
  Mn3.34+  Mn143  1  0.91864433  0.83419615  0.91612479  1
  Mn3.34+  Mn144  1  0.75901908  0.66539498  0.08341761  1
  Mn3.34+  Mn145  1  0.41942568  0.66762899  0.75162424  1
  Mn3.34+  Mn146  1  0.25868691  0.16404245  0.57991309  1
  Mn3.34+  Mn147  1  0.08325862  0.16590582  0.08827500  1
  Mn3.34+  Mn148  1  0.25182890  0.66499997  0.91352443  1
  Mn3.34+  Mn149  1  0.24854633  0.16893247  0.58037677  1
  Mn3.34+  Mn150  1  0.91941951  0.66044403  0.58655101  1
  Mn3.34+  Mn151  1  0.41508480  0.66671850  0.41837124  1
  Mn3.34+  Mn152  1  0.08465898  0.16832744  0.41450785  1
  Mn3.34+  Mn153  1  0.91754744  0.16691541  0.91569784  1
  Mn3.34+  Mn154  1  0.24434997  0.16402069  0.91304666  1
  Mn3.34+  Mn155  1  0.58404380  0.17004105  0.24438192  1
  Mn3.34+  Mn156  1  0.75385441  0.66974583  0.75309215  1
  Mn3.34+  Mn157  1  0.59318587  0.17582004  0.24550029  1
  Mn3.34+  Mn158  1  0.08079622  0.66923197  0.75189933  1
  Mn3.34+  Mn159  1  0.25390718  0.16964540  0.91491756  1
  Mn3.34+  Mn160  1  0.58335343  0.66199838  0.58466345  1
  Mn3.34+  Mn161  1  0.24903430  0.17257761  0.24780579  1
  Mn3.34+  Mn162  1  0.91704766  0.16586529  0.24651808  1
  Mn3.34+  Mn163  1  0.25372178  0.66700868  0.25006540  1
  Mn3.34+  Mn164  1  0.91589013  0.67234217  0.90937964  1
  Mn3.34+  Mn165  1  0.41492553  0.17119238  0.41756267  1
  Mn3.34+  Mn166  1  0.92084445  0.67256045  0.25289077  1
  Mn3.34+  Mn167  1  0.42004570  0.16377622  0.08628674  1
  Mn3.34+  Mn168  1  0.74833080  0.66998512  0.08255986  1
  Mn3.34+  Mn169  1  0.75534248  0.17500781  0.41885101  1
  Mn3.34+  Mn170  1  0.41283214  0.66949863  0.08203031  1
  Mn3.34+  Mn171  1  0.07825948  0.17157155  0.75062197  1
  Mn3.34+  Mn172  1  0.42558449  0.66230535  0.41905416  1
  Mn3.34+  Mn173  1  0.74781340  0.16573647  0.75068748  1
  Mn3.34+  Mn174  1  0.90870450  0.66676931  0.25208686  1
  Mn3.34+  Mn175  1  0.08371962  0.66477453  0.42419366  1
  Mn3.34+  Mn176  1  0.58227111  0.16732701  0.91380606  1
  Mn3.34+  Mn177  1  0.58173985  0.66643483  0.90889211  1
  Mn3.34+  Mn178  1  0.91298661  0.17106078  0.57990102  1
  Mn3.34+  Mn179  1  0.75213285  0.16426629  0.08072454  1
  Mn3.34+  Mn180  1  0.25107302  -0.00241151  0.92100070  1
  Mn3.34+  Mn181  1  0.40992299  -0.00157389  0.75287016  1
  Mn3.34+  Mn182  1  0.75275297  0.50086552  0.73506628  1
  Mn3.34+  Mn183  1  0.42120735  0.49919869  0.07618761  1
  Mn3.34+  Mn184  1  0.57633592  -0.00131057  0.92663869  1
  Mn3.34+  Mn185  1  0.42586335  -0.00386093  0.75601638  1
  Mn3.34+  Mn186  1  0.07665504  0.00164049  0.75798148  1
  Mn3.34+  Mn187  1  0.91645052  0.00103802  0.57950286  1
  Mn3.34+  Mn188  1  0.75503480  0.50098990  0.08693596  1
  Mn3.34+  Mn189  1  0.91126887  0.50289965  0.25241209  1
  Mn3.34+  Mn190  1  0.74767211  0.00080091  0.07777460  1
  Mn3.34+  Mn191  1  0.26547957  -0.00535253  0.92640634  1
  Mn3.34+  Mn192  1  0.92078721  0.49962242  0.90963790  1
  Mn3.34+  Mn193  1  0.06259315  0.50047872  0.75420256  1
  Mn3.34+  Mn194  1  0.92181050  -0.00058500  0.91972413  1
  Mn3.34+  Mn195  1  0.07738501  0.50541480  0.75091872  1
  Mn3.34+  Mn196  1  0.90938110  0.50409146  0.90898521  1
  Mn3.34+  Mn197  1  0.74064937  0.49545983  0.08590531  1
  Mn3.34+  Mn198  1  0.58835637  0.49837811  0.25462866  1
  Mn3.34+  Mn199  1  0.25646787  -0.00475511  0.24724120  1
  Mn3.34+  Mn200  1  0.24838546  0.50052035  0.26022361  1
  Mn3.34+  Mn201  1  0.24638020  0.00078485  0.24673649  1
  Mn3.34+  Mn202  1  0.41338498  0.00306396  0.42344353  1
  Mn3.34+  Mn203  1  0.75874774  0.00327530  0.41833117  1
  Mn3.34+  Mn204  1  0.57832109  -0.00113415  0.25077598  1
  Mn3.34+  Mn205  1  0.07912319  0.49819221  0.08371028  1
  Mn3.34+  Mn206  1  0.74806199  -0.00180326  0.41811400  1
  Mn3.34+  Mn207  1  0.74634653  0.49951776  0.40990475  1
  Mn3.34+  Mn208  1  0.07984542  0.00174361  0.41248592  1
  Mn3.34+  Mn209  1  0.25438098  -0.00010138  0.57937881  1
  Mn3.34+  Mn210  1  0.08296290  -0.00022449  0.08434289  1
  Mn3.34+  Mn211  1  0.42097127  0.50017382  0.74336434  1
  Mn3.34+  Mn212  1  0.09103928  -0.00429035  0.75630213  1
  Mn3.34+  Mn213  1  0.24780277  0.50042596  0.91783381  1
  Mn3.34+  Mn214  1  0.42229465  0.50020284  0.41416284  1
  Mn3.34+  Mn215  1  0.92420603  0.49628843  0.25341956  1
  O2-  O216  1  -0.00102280  0.15520389  0.00177421  1
  O2-  O217  1  -0.00260625  0.16014564  0.33286489  1
  O2-  O218  1  -0.00232225  0.17573835  0.66530899  1
  O2-  O219  1  -0.00484067  0.67996766  -0.01267204  1
  O2-  O220  1  -0.00072100  0.65431689  0.33612939  1
  O2-  O221  1  0.00373377  0.67168077  0.66335580  1
  O2-  O222  1  0.33327359  0.15765097  0.00223888  1
  O2-  O223  1  0.34282689  0.16245895  0.32077571  1
  O2-  O224  1  0.33212486  0.16502403  0.66465445  1
  O2-  O225  1  0.33501002  0.65152346  -0.00529245  1
  O2-  O226  1  0.33433089  0.64722523  0.33525628  1
  O2-  O227  1  0.34092027  0.65791996  0.66953161  1
  O2-  O228  1  0.67371386  0.15488902  -0.00515969  1
  O2-  O229  1  0.66967148  0.16819497  0.33383133  1
  O2-  O230  1  0.66984227  0.16079795  0.67310380  1
  O2-  O231  1  0.66420039  0.64997726  -0.00295700  1
  O2-  O232  1  0.66938983  0.67084728  0.32936358  1
  O2-  O233  1  0.66793663  0.67411651  0.66898369  1
  O2-  O234  1  0.16739317  0.15082134  -0.00248127  1
  O2-  O235  1  0.16429300  0.17044982  0.32661027  1
  O2-  O236  1  0.16389799  0.16277210  0.66840399  1
  O2-  O237  1  0.17265791  0.66002020  -0.00642729  1
  O2-  O238  1  0.16698016  0.65256178  0.33471302  1
  O2-  O239  1  0.16226682  0.65450427  0.67337461  1
  O2-  O240  1  0.49705080  0.17239348  -0.00160802  1
  O2-  O241  1  0.50309602  0.16639509  0.33269536  1
  O2-  O242  1  0.50881464  0.16965353  0.67272319  1
  O2-  O243  1  0.50015713  0.65512957  -0.00249494  1
  O2-  O244  1  0.49887027  0.66225607  0.33501035  1
  O2-  O245  1  0.50378609  0.66111616  0.67164358  1
  O2-  O246  1  0.83372073  0.14527041  -0.00316656  1
  O2-  O247  1  0.83348469  0.16354696  0.33198564  1
  O2-  O248  1  0.83350525  0.16443715  0.66761749  1
  O2-  O249  1  0.82844557  0.66890918  -0.00606375  1
  O2-  O250  1  0.83811840  0.67242160  0.33743150  1
  O2-  O251  1  0.83188234  0.67785749  0.66560746  1
  O2-  O252  1  0.00243266  0.34377264  -0.00271050  1
  O2-  O253  1  0.00049887  0.33217327  0.33093967  1
  O2-  O254  1  -0.00460343  0.31852420  0.66646280  1
  O2-  O255  1  -0.00352092  0.83172859  0.00421376  1
  O2-  O256  1  -0.00434523  0.83679714  0.33306663  1
  O2-  O257  1  -0.00142986  0.84021584  0.66568905  1
  O2-  O258  1  0.33036338  0.34693566  0.00596436  1
  O2-  O259  1  0.33857372  0.34464921  0.32670273  1
  O2-  O260  1  0.33353438  0.34824750  0.66514229  1
  O2-  O261  1  0.33185339  0.83556945  0.00024362  1
  O2-  O262  1  0.32686213  0.84339897  0.33829779  1
  O2-  O263  1  0.33447650  0.84479396  0.66457081  1
  O2-  O264  1  0.66785704  0.33781926  -0.00426465  1
  O2-  O265  1  0.66508820  0.32153014  0.33673266  1
  O2-  O266  1  0.66761376  0.34689860  0.66694616  1
  O2-  O267  1  0.66743790  0.85129402  -0.00046955  1
  O2-  O268  1  0.66610043  0.85152054  0.33688505  1
  O2-  O269  1  0.66943173  0.82758705  0.66562137  1
  O2-  O270  1  0.16913458  0.34541103  0.00016199  1
  O2-  O271  1  0.17577533  0.33044076  0.33802460  1
  O2-  O272  1  0.16077930  0.34039069  0.66442709  1
  O2-  O273  1  0.17221675  0.84075943  0.00397540  1
  O2-  O274  1  0.16212587  0.84684577  0.33174559  1
  O2-  O275  1  0.16295857  0.84644262  0.66395172  1
  O2-  O276  1  0.49407278  0.32761483  -0.00579584  1
  O2-  O277  1  0.50005550  0.34002391  0.33336149  1
  O2-  O278  1  0.50119979  0.34834387  0.66720571  1
  O2-  O279  1  0.50274724  0.83850952  0.00498587  1
  O2-  O280  1  0.50266041  0.84355368  0.33680104  1
  O2-  O281  1  0.50289453  0.83788931  0.66784042  1
  O2-  O282  1  0.83178499  0.34991183  -0.00274808  1
  O2-  O283  1  0.82687192  0.32887799  0.33045881  1
  O2-  O284  1  0.83069551  0.33680300  0.66366409  1
  O2-  O285  1  0.83318821  0.83558659  -0.00234957  1
  O2-  O286  1  0.83420424  0.83830220  0.33258184  1
  O2-  O287  1  0.83234225  0.82737093  0.66722308  1
  O2-  O288  1  0.00134757  0.17634867  0.16872299  1
  O2-  O289  1  0.00013478  0.18083061  0.50271405  1
  O2-  O290  1  -0.00104700  0.18433999  0.83344893  1
  O2-  O291  1  0.00489433  0.68056631  0.17980635  1
  O2-  O292  1  -0.00300997  0.67981913  0.50156955  1
  O2-  O293  1  0.00476038  0.68605542  0.83482789  1
  O2-  O294  1  0.33360258  0.19071185  0.16424753  1
  O2-  O295  1  0.32920640  0.17779017  0.48978524  1
  O2-  O296  1  0.33255033  0.17611178  0.83432257  1
  O2-  O297  1  0.33401711  0.67505238  0.16699637  1
  O2-  O298  1  0.33538169  0.67323581  0.49582324  1
  O2-  O299  1  0.33028267  0.67063236  0.82446385  1
  O2-  O300  1  0.67246815  0.18211074  0.16298408  1
  O2-  O301  1  0.66673034  0.18110470  0.49049038  1
  O2-  O302  1  0.67407621  0.17001210  0.83938536  1
  O2-  O303  1  0.66259329  0.66969467  0.15532972  1
  O2-  O304  1  0.66616578  0.67901451  0.51385003  1
  O2-  O305  1  0.66787351  0.68257948  0.83253751  1
  O2-  O306  1  0.17054221  0.18312341  0.16412966  1
  O2-  O307  1  0.16482314  0.17667936  0.50516636  1
  O2-  O308  1  0.16557908  0.18460215  0.82933470  1
  O2-  O309  1  0.16934165  0.67133358  0.17711248  1
  O2-  O310  1  0.16586660  0.67383941  0.49673695  1
  O2-  O311  1  0.17059484  0.67165208  0.82878363  1
  O2-  O312  1  0.49761103  0.19054638  0.16920520  1
  O2-  O313  1  0.49826149  0.17799005  0.49362667  1
  O2-  O314  1  0.50540726  0.17074383  0.83676178  1
  O2-  O315  1  0.49948383  0.67190014  0.15442531  1
  O2-  O316  1  0.49776678  0.68284282  0.50891391  1
  O2-  O317  1  0.49488890  0.68050778  0.83684265  1
  O2-  O318  1  0.83623748  0.17626450  0.16300349  1
  O2-  O319  1  0.83528438  0.19045370  0.49882146  1
  O2-  O320  1  0.83119769  0.17369223  0.83852668  1
  O2-  O321  1  0.83575927  0.69064124  0.16833619  1
  O2-  O322  1  0.83692759  0.68098209  0.51379348  1
  O2-  O323  1  0.82936166  0.69339012  0.83455548  1
  O2-  O324  1  -0.00410241  0.32366093  0.16062519  1
  O2-  O325  1  0.00238995  0.32385660  0.50511883  1
  O2-  O326  1  -0.00046421  0.31578719  0.83281150  1
  O2-  O327  1  0.00137145  0.81912909  0.17059223  1
  O2-  O328  1  0.00313527  0.81941348  0.50392278  1
  O2-  O329  1  -0.00471818  0.81457391  0.83141294  1
  O2-  O330  1  0.33242412  0.31489067  0.16636669  1
  O2-  O331  1  0.32471245  0.33360599  0.49346765  1
  O2-  O332  1  0.33623057  0.32610718  0.83310911  1
  O2-  O333  1  0.32963180  0.81772642  0.16410553  1
  O2-  O334  1  0.33308517  0.82935585  0.50162531  1
  O2-  O335  1  0.33039718  0.82043110  0.82850686  1
  O2-  O336  1  0.66949650  0.31217540  0.17142357  1
  O2-  O337  1  0.66730513  0.32079624  0.50148566  1
  O2-  O338  1  0.66720407  0.32874561  0.83132205  1
  O2-  O339  1  0.66997971  0.82697602  0.16961669  1
  O2-  O340  1  0.66304331  0.82118825  0.49671807  1
  O2-  O341  1  0.66688401  0.82083779  0.83087702  1
  O2-  O342  1  0.17149831  0.32066328  0.16241713  1
  O2-  O343  1  0.16270678  0.32524904  0.50326394  1
  O2-  O344  1  0.16492461  0.31873303  0.83155988  1
  O2-  O345  1  0.16756336  0.82750066  0.16786845  1
  O2-  O346  1  0.16377935  0.82571079  0.50022831  1
  O2-  O347  1  0.17161844  0.82033545  0.82894839  1
  O2-  O348  1  0.49539744  0.31375252  0.17266286  1
  O2-  O349  1  0.49705407  0.32548736  0.50373514  1
  O2-  O350  1  0.50137503  0.32640729  0.83028846  1
  O2-  O351  1  0.50245772  0.82497591  0.16442050  1
  O2-  O352  1  0.50161786  0.82599338  0.49842421  1
  O2-  O353  1  0.50386091  0.82313735  0.82999067  1
  O2-  O354  1  0.83512483  0.32306383  0.16333767  1
  O2-  O355  1  0.83274623  0.30928169  0.50156289  1
  O2-  O356  1  0.83152486  0.32632291  0.83098641  1
  O2-  O357  1  0.83430818  0.81701823  0.16737657  1
  O2-  O358  1  0.83385643  0.81791493  0.50043631  1
  O2-  O359  1  0.83289475  0.81567594  0.83248759  1
  O2-  O360  1  0.09218974  0.08074225  0.11881516  1
  O2-  O361  1  0.07319411  0.08280791  0.43980413  1
  O2-  O362  1  0.08512321  0.08308219  0.77889855  1
  O2-  O363  1  0.09090678  0.57535693  0.11584464  1
  O2-  O364  1  0.07935700  0.58412118  0.44486599  1
  O2-  O365  1  0.07893253  0.58302998  0.78183489  1
  O2-  O366  1  0.40203213  0.08306899  0.12413859  1
  O2-  O367  1  0.43637889  0.08682008  0.42516670  1
  O2-  O368  1  0.40906223  0.07732618  0.78240196  1
  O2-  O369  1  0.41967972  0.58003977  0.10683268  1
  O2-  O370  1  0.41769666  0.57962789  0.45117995  1
  O2-  O371  1  0.42060436  0.58047614  0.77405676  1
  O2-  O372  1  0.75634121  0.08041908  0.11522811  1
  O2-  O373  1  0.74993386  0.08504470  0.44230909  1
  O2-  O374  1  0.76014959  0.08182022  0.77318694  1
  O2-  O375  1  0.75921519  0.58224224  0.11120893  1
  O2-  O376  1  0.76885020  0.57398253  0.44667617  1
  O2-  O377  1  0.74353584  0.57829626  0.76976284  1
  O2-  O378  1  0.26417717  0.08294216  0.22208268  1
  O2-  O379  1  0.23603772  0.08266883  0.56812487  1
  O2-  O380  1  0.24244801  0.07779448  0.87728535  1
  O2-  O381  1  0.24700066  0.57901215  0.22131222  1
  O2-  O382  1  0.25128998  0.57419653  0.57511288  1
  O2-  O383  1  0.25351922  0.57925611  0.88011765  1
  O2-  O384  1  0.55797663  0.08157847  0.22844092  1
  O2-  O385  1  0.60514997  0.06793132  0.56452541  1
  O2-  O386  1  0.59038876  0.07792417  0.88913803  1
  O2-  O387  1  0.57099790  0.57079372  0.21119214  1
  O2-  O388  1  0.60931915  0.58332996  0.57988420  1
  O2-  O389  1  0.58335938  0.58598885  0.88388093  1
  O2-  O390  1  0.91858440  0.08412529  0.22953960  1
  O2-  O391  1  0.92029944  0.08193519  0.55666341  1
  O2-  O392  1  0.92430883  0.08027956  0.88090937  1
  O2-  O393  1  0.92102155  0.58116376  0.21519445  1
  O2-  O394  1  0.89260327  0.58188096  0.56501526  1
  O2-  O395  1  0.90859452  0.58603768  0.89263432  1
  O2-  O396  1  0.09755112  0.41644183  0.10274967  1
  O2-  O397  1  0.09371322  0.41963670  0.43679169  1
  O2-  O398  1  0.07361054  0.41968324  0.77292352  1
  O2-  O399  1  0.07262816  0.91853186  0.10924156  1
  O2-  O400  1  0.07734214  0.91959282  0.44500307  1
  O2-  O401  1  0.07617935  0.91399979  0.76962129  1
  O2-  O402  1  0.40321576  0.42122971  0.11906171  1
  O2-  O403  1  0.42539660  0.41890773  0.44069422  1
  O2-  O404  1  0.41666278  0.42200359  0.77614911  1
  O2-  O405  1  0.41136776  0.91649735  0.10093970  1
  O2-  O406  1  0.42718420  0.92096030  0.45073205  1
  O2-  O407  1  0.41442829  0.91471122  0.76782602  1
  O2-  O408  1  0.75009212  0.41567580  0.11579291  1
  O2-  O409  1  0.73900002  0.42105349  0.44697271  1
  O2-  O410  1  0.75526639  0.42264645  0.77359854  1
  O2-  O411  1  0.76611210  0.91979804  0.10653513  1
  O2-  O412  1  0.75666569  0.91704043  0.44949574  1
  O2-  O413  1  0.75178116  0.91201871  0.75903006  1
  O2-  O414  1  0.26813105  0.42321158  0.21468083  1
  O2-  O415  1  0.22517967  0.42129079  0.56580701  1
  O2-  O416  1  0.24200598  0.41953706  0.88601166  1
  O2-  O417  1  0.24395210  0.91481372  0.22291189  1
  O2-  O418  1  0.23136362  0.91874961  0.55383625  1
  O2-  O419  1  0.24846181  0.91529697  0.88953765  1
  O2-  O420  1  0.57097885  0.41743203  0.22772171  1
  O2-  O421  1  0.58478161  0.41799313  0.56073874  1
  O2-  O422  1  0.58038714  0.41809183  0.89214099  1
  O2-  O423  1  0.59426454  0.92028954  0.22300434  1
  O2-  O424  1  0.60011677  0.91934745  0.55094769  1
  O2-  O425  1  0.59184447  0.92205608  0.88737754  1
  O2-  O426  1  0.90631503  0.41722450  0.22566524  1
  O2-  O427  1  0.93202415  0.41271087  0.57823075  1
  O2-  O428  1  0.92522078  0.41788351  0.88194817  1
  O2-  O429  1  0.91836113  0.91560018  0.22619550  1
  O2-  O430  1  0.93127486  0.92016959  0.55292735  1
  O2-  O431  1  0.90094822  0.92129451  0.88688641  1
  O2-  O432  1  -0.00794285  0.01286104  0.01272626  1
  O2-  O433  1  -0.00342864  0.00031407  0.34588593  1
  O2-  O434  1  -0.00422400  0.00137305  0.67123318  1
  O2-  O435  1  0.00717330  0.49838393  -0.01100466  1
  O2-  O436  1  0.00785508  0.52183430  0.32240055  1
  O2-  O437  1  0.01357094  0.49388069  0.64901429  1
  O2-  O438  1  0.33197478  0.02046893  0.00484616  1
  O2-  O439  1  0.34463757  0.00952587  0.32416650  1
  O2-  O440  1  0.33431001  -0.00255805  0.66884345  1
  O2-  O441  1  0.33104239  0.49036056  0.00447579  1
  O2-  O442  1  0.33239304  0.48743848  0.33636039  1
  O2-  O443  1  0.32867621  0.50489526  0.68527699  1
  O2-  O444  1  0.67692484  0.00145194  -0.02108025  1
  O2-  O445  1  0.67175559  0.00418548  0.32599271  1
  O2-  O446  1  0.67643179  -0.00394114  0.66211787  1
  O2-  O447  1  0.66627704  0.51705150  0.00365780  1
  O2-  O448  1  0.66897049  0.47996049  0.32926659  1
  O2-  O449  1  0.66207293  0.49645925  0.67943515  1
  O2-  O450  1  0.16524211  0.00818787  -0.00064085  1
  O2-  O451  1  0.16362269  -0.00416960  0.32964340  1
  O2-  O452  1  0.15972183  -0.00353621  0.66016477  1
  O2-  O453  1  0.17420192  0.49818884  0.01213182  1
  O2-  O454  1  0.16817062  0.51405811  0.32884059  1
  O2-  O455  1  0.17399154  0.50859010  0.69680745  1
  O2-  O456  1  0.49727232  0.00491416  -0.00608655  1
  O2-  O457  1  0.51285831  -0.00550693  0.35211003  1
  O2-  O458  1  0.50923075  -0.00735056  0.68305355  1
  O2-  O459  1  0.49948632  0.51385583  0.00304475  1
  O2-  O460  1  0.48683864  0.49669112  0.31357384  1
  O2-  O461  1  0.49682052  0.50051254  0.66975215  1
  O2-  O462  1  0.82777254  0.01252095  -0.01180292  1
  O2-  O463  1  0.83391501  -0.00061086  0.33218851  1
  O2-  O464  1  0.82982330  -0.00548514  0.64793593  1
  O2-  O465  1  0.83105475  0.49004686  -0.00335145  1
  O2-  O466  1  0.83754268  0.49767810  0.33966251  1
  O2-  O467  1  0.82480890  0.49272844  0.65864887  1
  O2-  O468  1  0.09274705  0.75338931  0.07459111  1
  O2-  O469  1  0.09551606  0.75038013  0.72848027  1
  O2-  O470  1  0.73357850  0.75206788  0.06242023  1
  O2-  O471  1  0.41006739  0.74949058  0.39788771  1
  O2-  O472  1  0.41794775  0.25554924  0.73725609  1
  O2-  O473  1  0.58405927  0.75473119  0.26383528  1
  O2-  O474  1  0.41352283  0.74975505  0.73238909  1
  O2-  O475  1  0.09061892  0.74793203  0.39303525  1
  O2-  O476  1  0.25288927  0.74809853  0.93154209  1
  O2-  O477  1  0.59229378  0.24974079  0.92355953  1
  O2-  O478  1  0.41840801  0.74949127  0.06566941  1
  O2-  O479  1  0.75804095  0.24737413  0.05733719  1
  O2-  O480  1  0.58449890  0.75029393  0.93819921  1
  O2-  O481  1  0.41019153  0.25267526  0.39885288  1
  O2-  O482  1  0.25240264  0.25263272  0.59553770  1
  O2-  O483  1  0.24852148  0.74891606  0.27517280  1
  O2-  O484  1  0.24872704  0.25253607  0.94142011  1
  O2-  O485  1  0.08365249  0.24934212  0.06066588  1
  O2-  O486  1  0.91991629  0.24958190  0.25976814  1
  O2-  O487  1  0.25110143  0.75324356  0.59853267  1
  O2-  O488  1  0.74317423  0.75159825  0.40063283  1
  O2-  O489  1  0.74880323  0.25050591  0.74036252  1
  O2-  O490  1  0.91033932  0.24904295  0.94092951  1
  O2-  O491  1  0.58238550  0.25507769  0.60025213  1
  O2-  O492  1  0.08325951  0.25089035  0.40728103  1
