# generated using pymatgen
data_Ca108Mn108O277
_symmetry_space_group_name_H-M   'P 1'
_cell_length_a   16.02299861
_cell_length_b   22.30121354
_cell_length_c   16.38571809
_cell_angle_alpha   89.99750441
_cell_angle_beta   89.99879182
_cell_angle_gamma   89.99821021
_symmetry_Int_Tables_number   1
_chemical_formula_structural   Ca108Mn108O277
_chemical_formula_sum   'Ca108 Mn108 O277'
_cell_volume   5855.14654596
_cell_formula_units_Z   1
loop_
 _symmetry_equiv_pos_site_id
 _symmetry_equiv_pos_as_xyz
  1  'x, y, z'
loop_
 _atom_type_symbol
 _atom_type_oxidation_number
  Ca2+  2.0
  Mn3.34+  3.34
  O2-  -2.0
loop_
 _atom_site_type_symbol
 _atom_site_label
 _atom_site_symmetry_multiplicity
 _atom_site_fract_x
 _atom_site_fract_y
 _atom_site_fract_z
 _atom_site_occupancy
  Ca2+  Ca0  1  0.10846106  0.24159581  0.26810823  1
  Ca2+  Ca1  1  0.08460935  0.24596205  0.57150369  1
  Ca2+  Ca2  1  0.09446093  0.25915929  0.91250603  1
  Ca2+  Ca3  1  0.07340368  0.75692285  0.24364528  1
  Ca2+  Ca4  1  0.08894534  0.74288241  0.59550928  1
  Ca2+  Ca5  1  0.07538904  0.75401276  0.91218493  1
  Ca2+  Ca6  1  0.39813040  0.24583143  0.24327074  1
  Ca2+  Ca7  1  0.42533406  0.25360711  0.59114803  1
  Ca2+  Ca8  1  0.42780425  0.23780916  0.91578196  1
  Ca2+  Ca9  1  0.41864480  0.75279194  0.23783852  1
  Ca2+  Ca10  1  0.40504686  0.72990908  0.59200343  1
  Ca2+  Ca11  1  0.42503917  0.74255928  0.92594513  1
  Ca2+  Ca12  1  0.74314084  0.25894894  0.25565934  1
  Ca2+  Ca13  1  0.74335626  0.24144759  0.60308310  1
  Ca2+  Ca14  1  0.74274584  0.25693197  0.90216393  1
  Ca2+  Ca15  1  0.75777599  0.75949759  0.24687597  1
  Ca2+  Ca16  1  0.76686634  0.75199325  0.57825279  1
  Ca2+  Ca17  1  0.74838321  0.75559657  0.92530836  1
  Ca2+  Ca18  1  0.26074908  0.24748978  0.09458489  1
  Ca2+  Ca19  1  0.24057077  0.23944427  0.41243228  1
  Ca2+  Ca20  1  0.26119086  0.23872295  0.74350768  1
  Ca2+  Ca21  1  0.27087787  0.74481132  0.08454732  1
  Ca2+  Ca22  1  0.25701102  0.75772223  0.44166280  1
  Ca2+  Ca23  1  0.24985025  0.75176257  0.73332583  1
  Ca2+  Ca24  1  0.58123597  0.24452430  0.07539969  1
  Ca2+  Ca25  1  0.58449748  0.24756167  0.42454627  1
  Ca2+  Ca26  1  0.59783479  0.24488685  0.75262242  1
  Ca2+  Ca27  1  0.56878514  0.75498366  0.07487707  1
  Ca2+  Ca28  1  0.57464543  0.75851395  0.42191549  1
  Ca2+  Ca29  1  0.56308978  0.75033844  0.75184710  1
  Ca2+  Ca30  1  0.91283738  0.26103780  0.07491174  1
  Ca2+  Ca31  1  0.93756828  0.24235343  0.43408785  1
  Ca2+  Ca32  1  0.89208152  0.24060052  0.74441585  1
  Ca2+  Ca33  1  0.92223884  0.76018119  0.08105955  1
  Ca2+  Ca34  1  0.91943907  0.76169192  0.42838515  1
  Ca2+  Ca35  1  0.93677933  0.74802265  0.73910676  1
  Ca2+  Ca36  1  0.40954012  0.10217863  0.58350895  1
  Ca2+  Ca37  1  0.40847895  0.10827356  0.24772992  1
  Ca2+  Ca38  1  0.09218134  0.58843133  0.23656805  1
  Ca2+  Ca39  1  0.25436073  0.58052798  0.07345141  1
  Ca2+  Ca40  1  0.09295059  0.10442617  0.56306768  1
  Ca2+  Ca41  1  0.72962593  0.12204706  0.91017210  1
  Ca2+  Ca42  1  0.07124583  0.59146227  0.60310993  1
  Ca2+  Ca43  1  0.57427105  0.60274339  0.43557164  1
  Ca2+  Ca44  1  0.27042857  0.10043938  0.08901741  1
  Ca2+  Ca45  1  0.39906543  0.10254001  0.58336926  1
  Ca2+  Ca46  1  0.73783981  0.11772209  0.91273563  1
  Ca2+  Ca47  1  0.57472600  0.58430985  0.06373275  1
  Ca2+  Ca48  1  0.75311042  0.57539045  0.24802797  1
  Ca2+  Ca49  1  0.72675599  0.06593635  0.25524493  1
  Ca2+  Ca50  1  0.56524342  0.58676790  0.06682488  1
  Ca2+  Ca51  1  0.76350742  0.59023246  0.59211493  1
  Ca2+  Ca52  1  0.24375254  0.11191602  0.42509146  1
  Ca2+  Ca53  1  0.40240114  0.60125171  0.23965264  1
  Ca2+  Ca54  1  0.71482675  0.06475029  0.25343419  1
  Ca2+  Ca55  1  0.09854616  0.10136032  0.28724117  1
  Ca2+  Ca56  1  0.75058701  0.59016396  0.59288561  1
  Ca2+  Ca57  1  0.90770461  0.57904183  0.07293268  1
  Ca2+  Ca58  1  0.23764697  0.58769355  0.73797431  1
  Ca2+  Ca59  1  0.26889950  0.60617023  0.43130358  1
  Ca2+  Ca60  1  0.07968039  0.58809171  0.23796917  1
  Ca2+  Ca61  1  0.91830122  0.57871950  0.07345653  1
  Ca2+  Ca62  1  0.09934598  0.08721462  0.90847808  1
  Ca2+  Ca63  1  0.09276459  0.57178162  0.92610487  1
  Ca2+  Ca64  1  0.93737528  0.58368583  0.74246115  1
  Ca2+  Ca65  1  0.58374820  0.11127422  0.76028324  1
  Ca2+  Ca66  1  0.25945839  0.60382557  0.43551692  1
  Ca2+  Ca67  1  0.24833655  0.59000570  0.73913228  1
  Ca2+  Ca68  1  0.74899847  0.58332826  0.92998572  1
  Ca2+  Ca69  1  0.57671377  0.08361122  0.41708588  1
  Ca2+  Ca70  1  0.91091410  0.58955097  0.42134213  1
  Ca2+  Ca71  1  0.56439422  0.59767546  0.74372152  1
  Ca2+  Ca72  1  0.58922672  0.39152343  0.40978038  1
  Ca2+  Ca73  1  0.42131537  0.40062559  0.91753665  1
  Ca2+  Ca74  1  0.58231345  0.90836576  0.74361180  1
  Ca2+  Ca75  1  0.74006129  0.91477547  0.24205417  1
  Ca2+  Ca76  1  0.07159940  0.40011546  0.23933667  1
  Ca2+  Ca77  1  0.91610646  0.40296962  0.75198327  1
  Ca2+  Ca78  1  0.07566198  0.40478208  0.59323819  1
  Ca2+  Ca79  1  0.73884678  0.91685474  0.57507795  1
  Ca2+  Ca80  1  0.42611140  0.39374955  0.24724008  1
  Ca2+  Ca81  1  0.75064753  0.40707792  0.93427298  1
  Ca2+  Ca82  1  0.08777693  0.91459194  0.59689506  1
  Ca2+  Ca83  1  0.41812519  0.90854430  0.58671777  1
  Ca2+  Ca84  1  0.08398898  0.42142627  0.92396701  1
  Ca2+  Ca85  1  0.25642800  0.38797121  0.41993200  1
  Ca2+  Ca86  1  0.24170993  0.41980817  0.06540168  1
  Ca2+  Ca87  1  0.41056956  0.90267248  0.91510355  1
  Ca2+  Ca88  1  0.90419171  0.39425041  0.41798709  1
  Ca2+  Ca89  1  0.09800855  0.91561454  0.59898911  1
  Ca2+  Ca90  1  0.75438255  0.91186750  0.94846055  1
  Ca2+  Ca91  1  0.23243179  0.42196745  0.06941479  1
  Ca2+  Ca92  1  0.90591614  0.91742611  0.40422731  1
  Ca2+  Ca93  1  0.43722236  0.91255264  0.25328631  1
  Ca2+  Ca94  1  0.23879188  0.40354408  0.76101979  1
  Ca2+  Ca95  1  0.09661821  0.90613990  0.90368623  1
  Ca2+  Ca96  1  0.24995116  0.90554335  0.07786192  1
  Ca2+  Ca97  1  0.25231790  0.90575319  0.41974840  1
  Ca2+  Ca98  1  0.57066629  0.90821402  0.74405973  1
  Ca2+  Ca99  1  0.08418069  0.40123082  0.24092178  1
  Ca2+  Ca100  1  0.59344272  0.92717962  0.39551508  1
  Ca2+  Ca101  1  0.25022314  0.40414477  0.76016029  1
  Ca2+  Ca102  1  0.07308856  0.90553531  0.25465189  1
  Ca2+  Ca103  1  0.93209775  0.90725081  0.74674596  1
  Ca2+  Ca104  1  0.75141481  0.91554144  0.57470703  1
  Ca2+  Ca105  1  0.26229440  0.90621918  0.07943138  1
  Ca2+  Ca106  1  0.58416810  0.39799921  0.75492318  1
  Ca2+  Ca107  1  0.60338530  0.92966363  0.39682184  1
  Mn3.34+  Mn108  1  0.07817613  0.33470720  0.08010523  1
  Mn3.34+  Mn109  1  0.08228987  0.32790952  0.42058391  1
  Mn3.34+  Mn110  1  0.07963309  0.33355950  0.75350075  1
  Mn3.34+  Mn111  1  0.08176959  0.83032767  0.08088222  1
  Mn3.34+  Mn112  1  0.08169858  0.83980785  0.41871409  1
  Mn3.34+  Mn113  1  0.08750985  0.83559266  0.75405578  1
  Mn3.34+  Mn114  1  0.42146795  0.33141459  0.08368237  1
  Mn3.34+  Mn115  1  0.41849240  0.32465229  0.41911160  1
  Mn3.34+  Mn116  1  0.42028021  0.33148251  0.75024807  1
  Mn3.34+  Mn117  1  0.42277429  0.83351593  0.08386657  1
  Mn3.34+  Mn118  1  0.41839386  0.83512587  0.41792096  1
  Mn3.34+  Mn119  1  0.40803030  0.83463866  0.75280560  1
  Mn3.34+  Mn120  1  0.74595326  0.33629357  0.08653960  1
  Mn3.34+  Mn121  1  0.75030021  0.32856464  0.41994166  1
  Mn3.34+  Mn122  1  0.74908444  0.33415223  0.74908042  1
  Mn3.34+  Mn123  1  0.74884930  0.84013904  0.08843391  1
  Mn3.34+  Mn124  1  0.74980958  0.83573743  0.41436796  1
  Mn3.34+  Mn125  1  0.75294383  0.83333584  0.75462458  1
  Mn3.34+  Mn126  1  0.25216163  0.33226002  0.24642823  1
  Mn3.34+  Mn127  1  0.25344123  0.32690467  0.58247540  1
  Mn3.34+  Mn128  1  0.25234150  0.33130589  0.91753949  1
  Mn3.34+  Mn129  1  0.25063761  0.83003590  0.25048625  1
  Mn3.34+  Mn130  1  0.25330462  0.83430575  0.58578301  1
  Mn3.34+  Mn131  1  0.25135878  0.83229019  0.91197056  1
  Mn3.34+  Mn132  1  0.58600996  0.32992455  0.24384600  1
  Mn3.34+  Mn133  1  0.58442321  0.33085837  0.58341770  1
  Mn3.34+  Mn134  1  0.58457895  0.33423493  0.91969970  1
  Mn3.34+  Mn135  1  0.58558128  0.83639608  0.24502272  1
  Mn3.34+  Mn136  1  0.58226278  0.83303363  0.57627494  1
  Mn3.34+  Mn137  1  0.58474129  0.83328596  0.91874304  1
  Mn3.34+  Mn138  1  0.90842789  0.33160644  0.24521255  1
  Mn3.34+  Mn139  1  0.91140555  0.33135254  0.58575695  1
  Mn3.34+  Mn140  1  0.91428451  0.33475882  0.91619280  1
  Mn3.34+  Mn141  1  0.91410521  0.83587409  0.24701919  1
  Mn3.34+  Mn142  1  0.91665502  0.83586149  0.58203683  1
  Mn3.34+  Mn143  1  0.91612528  0.83037498  0.91646023  1
  Mn3.34+  Mn144  1  0.08136348  0.66650865  0.08165593  1
  Mn3.34+  Mn145  1  0.26002524  0.65898534  0.91693308  1
  Mn3.34+  Mn146  1  0.58065580  0.66681087  0.91267745  1
  Mn3.34+  Mn147  1  0.41587984  0.66705972  0.74961757  1
  Mn3.34+  Mn148  1  0.07814626  0.16470433  0.75076084  1
  Mn3.34+  Mn149  1  0.08923360  0.16965854  0.08236191  1
  Mn3.34+  Mn150  1  0.58985249  0.66818862  0.24761374  1
  Mn3.34+  Mn151  1  0.58148455  0.16539428  0.24411929  1
  Mn3.34+  Mn152  1  0.25954297  0.16456421  0.91558380  1
  Mn3.34+  Mn153  1  0.74782023  0.16293390  0.09251544  1
  Mn3.34+  Mn154  1  0.57999374  0.66228627  0.24552913  1
  Mn3.34+  Mn155  1  0.90739889  0.17014815  0.24517449  1
  Mn3.34+  Mn156  1  0.91106895  0.66996417  0.24483011  1
  Mn3.34+  Mn157  1  0.08854733  0.16013079  0.75053548  1
  Mn3.34+  Mn158  1  0.91934110  0.16446988  0.24394111  1
  Mn3.34+  Mn159  1  0.58146968  0.16093728  0.58510749  1
  Mn3.34+  Mn160  1  0.74532314  0.66941783  0.75662075  1
  Mn3.34+  Mn161  1  0.42524952  0.16724886  0.07896795  1
  Mn3.34+  Mn162  1  0.41908718  0.17118375  0.41726961  1
  Mn3.34+  Mn163  1  0.07374667  0.66588244  0.42005654  1
  Mn3.34+  Mn164  1  0.75523193  0.66863028  0.41547073  1
  Mn3.34+  Mn165  1  0.92059262  0.66608365  0.91411942  1
  Mn3.34+  Mn166  1  0.91662874  0.17245811  0.91905817  1
  Mn3.34+  Mn167  1  0.08348119  0.67148761  0.41835985  1
  Mn3.34+  Mn168  1  0.24840343  0.67183110  0.24888510  1
  Mn3.34+  Mn169  1  0.74433814  0.66416804  0.41666660  1
  Mn3.34+  Mn170  1  0.75660855  0.67748258  0.75462377  1
  Mn3.34+  Mn171  1  0.24662052  0.66563549  0.91832511  1
  Mn3.34+  Mn172  1  0.75264711  0.66442168  0.08394086  1
  Mn3.34+  Mn173  1  0.75660802  0.15665449  0.42439099  1
  Mn3.34+  Mn174  1  0.91605857  0.16278518  0.58564410  1
  Mn3.34+  Mn175  1  0.42291044  0.67422822  0.41970138  1
  Mn3.34+  Mn176  1  0.41605324  0.16775330  0.75467792  1
  Mn3.34+  Mn177  1  0.08341748  0.66515204  0.75423049  1
  Mn3.34+  Mn178  1  0.07602159  0.16494130  0.08269360  1
  Mn3.34+  Mn179  1  0.74730907  0.16218708  0.42251124  1
  Mn3.34+  Mn180  1  0.41738337  0.00236480  0.74451785  1
  Mn3.34+  Mn181  1  0.25988760  0.00255387  0.92079046  1
  Mn3.34+  Mn182  1  0.07903975  0.00326070  0.41394620  1
  Mn3.34+  Mn183  1  0.06866518  -0.00440395  0.08463035  1
  Mn3.34+  Mn184  1  0.57623712  0.00563631  0.93387217  1
  Mn3.34+  Mn185  1  0.91702798  -0.00136389  0.24802359  1
  Mn3.34+  Mn186  1  0.24243213  0.00321959  0.25048342  1
  Mn3.34+  Mn187  1  0.26016518  0.49294269  0.58302963  1
  Mn3.34+  Mn188  1  0.74976011  0.49932083  0.75628339  1
  Mn3.34+  Mn189  1  0.41496023  0.49663644  0.42110644  1
  Mn3.34+  Mn190  1  0.57238753  0.49843948  0.58871833  1
  Mn3.34+  Mn191  1  0.26036025  0.50173886  0.25153837  1
  Mn3.34+  Mn192  1  0.42929937  0.50269293  0.42166763  1
  Mn3.34+  Mn193  1  0.91392683  0.49403955  0.59371593  1
  Mn3.34+  Mn194  1  0.58695062  -0.00199650  0.93502474  1
  Mn3.34+  Mn195  1  0.41875759  0.50139395  0.76146998  1
  Mn3.34+  Mn196  1  0.58689531  0.49651382  0.25261061  1
  Mn3.34+  Mn197  1  0.42129232  0.00159147  0.08492416  1
  Mn3.34+  Mn198  1  0.08181058  0.00248843  0.08407891  1
  Mn3.34+  Mn199  1  0.08897315  0.49446035  0.41777752  1
  Mn3.34+  Mn200  1  0.92183162  0.00465829  0.90488439  1
  Mn3.34+  Mn201  1  0.91422215  0.50083603  0.91914438  1
  Mn3.34+  Mn202  1  0.24885343  0.49836051  0.58157974  1
  Mn3.34+  Mn203  1  0.90306791  0.49765215  0.25173014  1
  Mn3.34+  Mn204  1  0.91833853  0.00518787  0.58537677  1
  Mn3.34+  Mn205  1  0.07378004  0.49990909  0.41897352  1
  Mn3.34+  Mn206  1  0.41446346  0.00155470  0.42096078  1
  Mn3.34+  Mn207  1  0.42182454  0.49450133  0.07631656  1
  Mn3.34+  Mn208  1  0.25698260  -0.00259153  0.24857827  1
  Mn3.34+  Mn209  1  0.58310604  0.49303322  0.58773381  1
  Mn3.34+  Mn210  1  0.90776355  0.00019045  0.91005481  1
  Mn3.34+  Mn211  1  0.74587475  0.49528422  0.41337247  1
  Mn3.34+  Mn212  1  0.74482977  0.00669331  0.74787806  1
  Mn3.34+  Mn213  1  0.58942309  0.50228885  0.91657884  1
  Mn3.34+  Mn214  1  0.75872735  0.00132974  0.74987276  1
  Mn3.34+  Mn215  1  0.25086769  0.00293405  0.60183175  1
  O2-  O216  1  0.00632464  0.17143795  -0.00531080  1
  O2-  O217  1  -0.00035420  0.17202365  0.32305270  1
  O2-  O218  1  -0.00099139  0.15642309  0.67063239  1
  O2-  O219  1  -0.00434753  0.64452614  -0.00040609  1
  O2-  O220  1  0.00272569  0.64358245  0.33156066  1
  O2-  O221  1  0.00130899  0.65843710  0.67786820  1
  O2-  O222  1  0.33659735  0.15915120  -0.00008436  1
  O2-  O223  1  0.34240233  0.17185452  0.33828181  1
  O2-  O224  1  0.33859078  0.16810242  0.66599891  1
  O2-  O225  1  0.32898059  0.65495804  0.00485870  1
  O2-  O226  1  0.32964878  0.65784026  0.33593557  1
  O2-  O227  1  0.32731208  0.65995658  0.68037742  1
  O2-  O228  1  0.67477145  0.17671369  0.01114704  1
  O2-  O229  1  0.67081677  0.16121414  0.32708637  1
  O2-  O230  1  0.65866101  0.15773455  0.66185345  1
  O2-  O231  1  0.66894950  0.65769293  -0.00107829  1
  O2-  O232  1  0.66655012  0.64520964  0.33192824  1
  O2-  O233  1  0.67207737  0.67073898  0.66639421  1
  O2-  O234  1  0.17021837  0.14673190  -0.00049580  1
  O2-  O235  1  0.17332430  0.16907170  0.33875092  1
  O2-  O236  1  0.16196702  0.16651912  0.66510704  1
  O2-  O237  1  0.16709934  0.64475242  -0.00042732  1
  O2-  O238  1  0.16548363  0.65011642  0.33675493  1
  O2-  O239  1  0.16215480  0.65610430  0.67126612  1
  O2-  O240  1  0.50336677  0.17750190  0.00230160  1
  O2-  O241  1  0.50750372  0.17406054  0.33440050  1
  O2-  O242  1  0.49455297  0.16042710  0.66301292  1
  O2-  O243  1  0.50846698  0.65690509  -0.00444683  1
  O2-  O244  1  0.49729221  0.64720168  0.33017558  1
  O2-  O245  1  0.49773172  0.66869544  0.67372375  1
  O2-  O246  1  0.83160734  0.17574922  0.00617791  1
  O2-  O247  1  0.83354988  0.16325382  0.33252555  1
  O2-  O248  1  0.83375855  0.16880228  0.65905512  1
  O2-  O249  1  0.83569002  0.65388954  -0.00222877  1
  O2-  O250  1  0.82880123  0.64584561  0.33055235  1
  O2-  O251  1  0.83150472  0.65712648  0.67117365  1
  O2-  O252  1  0.00008848  0.32973293  -0.00512227  1
  O2-  O253  1  0.00107978  0.33835881  0.33302921  1
  O2-  O254  1  -0.00105446  0.34653732  0.67022019  1
  O2-  O255  1  0.00790475  0.84732096  -0.00932469  1
  O2-  O256  1  -0.00601451  0.85013615  0.33918877  1
  O2-  O257  1  0.00275118  0.84591213  0.66265647  1
  O2-  O258  1  0.32856042  0.35275713  0.00471260  1
  O2-  O259  1  0.33616281  0.33749163  0.33041291  1
  O2-  O260  1  0.32489748  0.33864885  0.67518766  1
  O2-  O261  1  0.33268186  0.84444543  0.00433555  1
  O2-  O262  1  0.33696718  0.84597895  0.33039477  1
  O2-  O263  1  0.33613747  0.84430249  0.66346072  1
  O2-  O264  1  0.66890472  0.31775960  -0.00098017  1
  O2-  O265  1  0.66268671  0.32318348  0.33333495  1
  O2-  O266  1  0.66417627  0.34455547  0.66914246  1
  O2-  O267  1  0.67131872  0.82985291  0.00077450  1
  O2-  O268  1  0.66658827  0.84612935  0.33469492  1
  O2-  O269  1  0.66644314  0.83633624  0.66559334  1
  O2-  O270  1  0.16309695  0.35080311  -0.00485663  1
  O2-  O271  1  0.16398460  0.34636148  0.32940353  1
  O2-  O272  1  0.16731281  0.34258175  0.66665209  1
  O2-  O273  1  0.17029400  0.84708773  0.00096069  1
  O2-  O274  1  0.16571109  0.84189347  0.33211843  1
  O2-  O275  1  0.16482797  0.84115334  0.66370184  1
  O2-  O276  1  0.49572538  0.32929982  -0.00524321  1
  O2-  O277  1  0.50004571  0.31731698  0.33329211  1
  O2-  O278  1  0.50070658  0.34213753  0.66849896  1
  O2-  O279  1  0.49752146  0.84723237  -0.00452376  1
  O2-  O280  1  0.50833898  0.85106076  0.34379162  1
  O2-  O281  1  0.50401020  0.84371046  0.66573736  1
  O2-  O282  1  0.82785193  0.32034753  -0.00283333  1
  O2-  O283  1  0.83656002  0.32240281  0.33491489  1
  O2-  O284  1  0.83634147  0.34301943  0.67240560  1
  O2-  O285  1  0.82786181  0.82803517  0.00132005  1
  O2-  O286  1  0.82773853  0.85161171  0.32870968  1
  O2-  O287  1  0.82891292  0.85039106  0.66319412  1
  O2-  O288  1  -0.00511697  0.19208230  0.16446334  1
  O2-  O289  1  0.00327684  0.17764196  0.51400660  1
  O2-  O290  1  0.00441054  0.18275242  0.83661657  1
  O2-  O291  1  0.00243557  0.67818913  0.17165320  1
  O2-  O292  1  -0.00162704  0.67333407  0.50383481  1
  O2-  O293  1  0.00369299  0.67775625  0.83815280  1
  O2-  O294  1  0.33945905  0.17373446  0.15902052  1
  O2-  O295  1  0.34059952  0.17924869  0.49905967  1
  O2-  O296  1  0.33503690  0.18241365  0.83461695  1
  O2-  O297  1  0.33172910  0.68399673  0.17865986  1
  O2-  O298  1  0.33436496  0.68060761  0.49037439  1
  O2-  O299  1  0.33420435  0.68151386  0.83636946  1
  O2-  O300  1  0.66902987  0.18753747  0.17221418  1
  O2-  O301  1  0.65668176  0.16709588  0.49487032  1
  O2-  O302  1  0.66188532  0.18354222  0.84646267  1
  O2-  O303  1  0.66921467  0.68749609  0.16277061  1
  O2-  O304  1  0.66879271  0.68378696  0.49780683  1
  O2-  O305  1  0.66631774  0.69123995  0.83278853  1
  O2-  O306  1  0.16058676  0.17139313  0.16721120  1
  O2-  O307  1  0.17485000  0.18087761  0.50603117  1
  O2-  O308  1  0.16595859  0.17761246  0.83525269  1
  O2-  O309  1  0.15796843  0.68196423  0.17593444  1
  O2-  O310  1  0.17205338  0.67702024  0.49325621  1
  O2-  O311  1  0.17341348  0.68203278  0.83306510  1
  O2-  O312  1  0.49841398  0.18398657  0.17205774  1
  O2-  O313  1  0.49573213  0.18502221  0.50258487  1
  O2-  O314  1  0.50244979  0.18252515  0.82215050  1
  O2-  O315  1  0.50189671  0.67435847  0.16323671  1
  O2-  O316  1  0.50407510  0.68521401  0.49168451  1
  O2-  O317  1  0.50244409  0.67802343  0.83104419  1
  O2-  O318  1  0.83121004  0.19253631  0.16693238  1
  O2-  O319  1  0.83885231  0.17554257  0.49887237  1
  O2-  O320  1  0.83189419  0.18474754  0.84998124  1
  O2-  O321  1  0.83315627  0.69221933  0.15734152  1
  O2-  O322  1  0.83148085  0.67406811  0.50135612  1
  O2-  O323  1  0.83433135  0.68435256  0.83602861  1
  O2-  O324  1  0.00271036  0.31796193  0.17123490  1
  O2-  O325  1  0.00142528  0.32429865  0.50302784  1
  O2-  O326  1  -0.00067550  0.32200676  0.83381376  1
  O2-  O327  1  0.00333260  0.82189911  0.16934236  1
  O2-  O328  1  0.00017629  0.83154113  0.50339006  1
  O2-  O329  1  -0.00256190  0.82412619  0.82670276  1
  O2-  O330  1  0.33240097  0.32879617  0.16476247  1
  O2-  O331  1  0.33100414  0.30676890  0.49605111  1
  O2-  O332  1  0.33204578  0.32558410  0.83368285  1
  O2-  O333  1  0.33048301  0.82018363  0.16447511  1
  O2-  O334  1  0.33121893  0.83129736  0.49698628  1
  O2-  O335  1  0.34146351  0.81876797  0.84450559  1
  O2-  O336  1  0.66545278  0.31166980  0.16170170  1
  O2-  O337  1  0.66292890  0.32150317  0.49537193  1
  O2-  O338  1  0.66301572  0.32506321  0.83348603  1
  O2-  O339  1  0.66839876  0.81590980  0.16715974  1
  O2-  O340  1  0.67149838  0.81163810  0.50262520  1
  O2-  O341  1  0.66426167  0.82041366  0.82884425  1
  O2-  O342  1  0.16391354  0.32868048  0.16697127  1
  O2-  O343  1  0.16915586  0.31973467  0.50052426  1
  O2-  O344  1  0.17319532  0.32233284  0.82908887  1
  O2-  O345  1  0.17132491  0.81380184  0.16487595  1
  O2-  O346  1  0.16575968  0.82868678  0.50023751  1
  O2-  O347  1  0.16421162  0.81983168  0.83753567  1
  O2-  O348  1  0.49521368  0.31581200  0.17132637  1
  O2-  O349  1  0.50257595  0.31391935  0.49687989  1
  O2-  O350  1  0.50010474  0.32322061  0.83436899  1
  O2-  O351  1  0.49678341  0.82411151  0.17348866  1
  O2-  O352  1  0.49401425  0.81684034  0.50511854  1
  O2-  O353  1  0.50627927  0.83174065  0.82571980  1
  O2-  O354  1  0.82828795  0.31119498  0.16364556  1
  O2-  O355  1  0.83900115  0.32105563  0.49540610  1
  O2-  O356  1  0.83367109  0.32309866  0.83429799  1
  O2-  O357  1  0.83221505  0.81858491  0.16452653  1
  O2-  O358  1  0.83084446  0.82757871  0.49839513  1
  O2-  O359  1  0.83430602  0.80904748  0.82887388  1
  O2-  O360  1  0.07051358  0.08127142  0.11866714  1
  O2-  O361  1  0.10202863  0.08008755  0.42722687  1
  O2-  O362  1  0.08120986  0.08001666  0.77575784  1
  O2-  O363  1  0.06799729  0.58117587  0.10765268  1
  O2-  O364  1  0.08905033  0.57862812  0.46005140  1
  O2-  O365  1  0.09644434  0.58322022  0.77864730  1
  O2-  O366  1  0.41913930  0.08253605  0.10993201  1
  O2-  O367  1  0.41834000  0.08338447  0.44013219  1
  O2-  O368  1  0.42860644  0.08260065  0.75937856  1
  O2-  O369  1  0.43608634  0.56900081  0.11857913  1
  O2-  O370  1  0.41626078  0.58383758  0.45277708  1
  O2-  O371  1  0.40871057  0.58303841  0.77570495  1
  O2-  O372  1  0.74748661  0.08533725  0.12125810  1
  O2-  O373  1  0.73915636  0.07655262  0.41562301  1
  O2-  O374  1  0.74046937  0.08396547  0.78457595  1
  O2-  O375  1  0.77319807  0.58085392  0.11591698  1
  O2-  O376  1  0.74660890  0.57778555  0.45812747  1
  O2-  O377  1  0.74492616  0.58257840  0.78393521  1
  O2-  O378  1  0.25241042  0.08251414  0.22858947  1
  O2-  O379  1  0.27222194  0.07159707  0.54702374  1
  O2-  O380  1  0.24388534  0.08154392  0.89476484  1
  O2-  O381  1  0.23307725  0.58157716  0.21149681  1
  O2-  O382  1  0.25139807  0.58012838  0.56274282  1
  O2-  O383  1  0.24354109  0.57950230  0.87970360  1
  O2-  O384  1  0.58179743  0.08496479  0.23644774  1
  O2-  O385  1  0.54616595  0.08227120  0.55807293  1
  O2-  O386  1  0.59636505  0.07710516  0.89203690  1
  O2-  O387  1  0.60087824  0.57727358  0.20325586  1
  O2-  O388  1  0.61111657  0.57721405  0.55826271  1
  O2-  O389  1  0.59480112  0.58279415  0.88088273  1
  O2-  O390  1  0.90858744  0.07989431  0.22138423  1
  O2-  O391  1  0.93687520  0.08077550  0.56017671  1
  O2-  O392  1  0.91784499  0.08515786  0.89777525  1
  O2-  O393  1  0.91994335  0.58064708  0.21108951  1
  O2-  O394  1  0.89627673  0.56902817  0.55123612  1
  O2-  O395  1  0.91058692  0.57925254  0.87969017  1
  O2-  O396  1  0.09195594  0.41905307  0.10927928  1
  O2-  O397  1  0.08308191  0.41392156  0.44247412  1
  O2-  O398  1  0.09712389  0.41586395  0.77602882  1
  O2-  O399  1  0.10349382  0.91763961  0.11642845  1
  O2-  O400  1  0.07909655  0.92583459  0.45625881  1
  O2-  O401  1  0.07939669  0.91697325  0.76779345  1
  O2-  O402  1  0.41489793  0.41706813  0.10922809  1
  O2-  O403  1  0.42051858  0.41455224  0.42532230  1
  O2-  O404  1  0.40728816  0.41860277  0.78012480  1
  O2-  O405  1  0.39944595  0.92055271  0.11831823  1
  O2-  O406  1  0.41816320  0.92000239  0.44716385  1
  O2-  O407  1  0.42147459  0.92097137  0.77998912  1
  O2-  O408  1  0.74932216  0.41207433  0.07758766  1
  O2-  O409  1  0.75118991  0.41260611  0.42423598  1
  O2-  O410  1  0.75131453  0.41947538  0.78612250  1
  O2-  O411  1  0.74815099  0.91735095  0.10096027  1
  O2-  O412  1  0.74122175  0.92059046  0.44140623  1
  O2-  O413  1  0.75171115  0.92274609  0.79621852  1
  O2-  O414  1  0.24221059  0.42031025  0.22081198  1
  O2-  O415  1  0.25446744  0.41403115  0.55138884  1
  O2-  O416  1  0.25175886  0.41766938  0.89333880  1
  O2-  O417  1  0.24293241  0.91876287  0.21277311  1
  O2-  O418  1  0.23911496  0.92330048  0.55943948  1
  O2-  O419  1  0.25468644  0.91907783  0.90093211  1
  O2-  O420  1  0.56689302  0.41572087  0.25469828  1
  O2-  O421  1  0.57510842  0.41493696  0.54835761  1
  O2-  O422  1  0.58454429  0.42282193  0.89223221  1
  O2-  O423  1  0.58414957  0.91695245  0.23900206  1
  O2-  O424  1  0.60216376  0.91987044  0.53713726  1
  O2-  O425  1  0.58629876  0.92703048  0.88274252  1
  O2-  O426  1  0.93723969  0.41819013  0.23602355  1
  O2-  O427  1  0.92715717  0.41812973  0.55587694  1
  O2-  O428  1  0.91725152  0.42371613  0.88925025  1
  O2-  O429  1  0.92621346  0.91915201  0.22285148  1
  O2-  O430  1  0.89274513  0.92713548  0.54381655  1
  O2-  O431  1  0.90494324  0.91890430  0.88757330  1
  O2-  O432  1  -0.00240817  0.00113987  -0.00711480  1
  O2-  O433  1  0.00771486  -0.00324363  0.32158010  1
  O2-  O434  1  -0.00797906  -0.02521175  0.65399832  1
  O2-  O435  1  -0.00238971  0.51133888  -0.01005171  1
  O2-  O436  1  0.00990027  0.51511524  0.31994311  1
  O2-  O437  1  0.00347075  0.50608248  0.65253788  1
  O2-  O438  1  0.31137594  -0.00414788  0.03126218  1
  O2-  O439  1  0.34218541  -0.00354363  0.32761342  1
  O2-  O440  1  0.36080434  -0.00089241  0.63824520  1
  O2-  O441  1  0.32224156  0.49891602  0.03160301  1
  O2-  O442  1  0.32389871  0.52215546  0.35032976  1
  O2-  O443  1  0.32198606  0.49964737  0.68997563  1
  O2-  O444  1  0.68228697  0.00506090  -0.01621097  1
  O2-  O445  1  0.66312143  -0.00317687  0.32689892  1
  O2-  O446  1  0.66730092  -0.02816814  0.67113642  1
  O2-  O447  1  0.66229664  0.52054732  0.00054002  1
  O2-  O448  1  0.66229966  0.51797833  0.33791584  1
  O2-  O449  1  0.67773442  0.50654456  0.66106870  1
  O2-  O450  1  0.15518367  -0.00527569  -0.00961845  1
  O2-  O451  1  0.17255115  -0.01447251  0.34157560  1
  O2-  O452  1  0.14074124  0.00890695  0.62181515  1
  O2-  O453  1  0.16996426  0.49587002  0.00901496  1
  O2-  O454  1  0.16155611  0.50831256  0.32584968  1
  O2-  O455  1  0.17108876  0.50505966  0.67062020  1
  O2-  O456  1  0.47688034  -0.00978889  -0.02118636  1
  O2-  O457  1  0.50737403  -0.00020733  0.35895375  1
  O2-  O458  1  0.51193035  -0.01425869  0.68982397  1
  O2-  O459  1  0.50111696  0.50644544  -0.00262948  1
  O2-  O460  1  0.49051563  0.51382823  0.32301029  1
  O2-  O461  1  0.51386117  0.50274440  0.69152087  1
  O2-  O462  1  0.82769615  -0.00235922  -0.01651691  1
  O2-  O463  1  0.81335133  -0.00648496  0.29027539  1
  O2-  O464  1  0.82498020  -0.00554851  0.65329687  1
  O2-  O465  1  0.83450922  0.51237387  -0.00649773  1
  O2-  O466  1  0.84167107  0.51584611  0.34945361  1
  O2-  O467  1  0.84029172  0.51518382  0.67929113  1
  O2-  O468  1  0.41274350  0.75275966  0.73376621  1
  O2-  O469  1  0.74751042  0.25498683  0.73734709  1
  O2-  O470  1  0.91564134  0.75746089  0.59777577  1
  O2-  O471  1  0.42215152  0.75518689  0.06518336  1
  O2-  O472  1  0.57460921  0.74894798  0.93476870  1
  O2-  O473  1  0.57813760  0.75031289  0.28038203  1
  O2-  O474  1  0.08444671  0.75086332  0.73198370  1
  O2-  O475  1  0.74614213  0.24289963  0.40974180  1
  O2-  O476  1  0.24972402  0.25427852  0.25696671  1
  O2-  O477  1  0.08526181  0.25113504  0.40640577  1
  O2-  O478  1  0.07692454  0.74710577  0.05380892  1
  O2-  O479  1  0.24491138  0.24956408  0.94328409  1
  O2-  O480  1  0.07050105  0.75474390  0.39395796  1
  O2-  O481  1  0.92080406  0.25060872  0.60151235  1
  O2-  O482  1  0.92793848  0.74638178  0.94261702  1
  O2-  O483  1  0.24968543  0.74701943  0.94507803  1
  O2-  O484  1  0.75970933  0.75207036  0.38652144  1
  O2-  O485  1  0.08483997  0.24798005  0.73345457  1
  O2-  O486  1  0.41264270  0.25176097  0.73148736  1
  O2-  O487  1  0.10099598  0.25277048  0.06078236  1
  O2-  O488  1  0.40292920  0.25188908  0.06734378  1
  O2-  O489  1  0.41755694  0.75332220  0.38485333  1
  O2-  O490  1  0.25068822  0.75510097  0.59330045  1
  O2-  O491  1  0.58991709  0.24928631  0.60372183  1
  O2-  O492  1  0.91847336  0.75064188  0.28205740  1
