# generated using pymatgen
data_Ca108Mn108O277
_symmetry_space_group_name_H-M   'P 1'
_cell_length_a   16.01176360
_cell_length_b   22.28561289
_cell_length_c   16.37746380
_cell_angle_alpha   89.99788861
_cell_angle_beta   89.99932512
_cell_angle_gamma   89.99973981
_symmetry_Int_Tables_number   1
_chemical_formula_structural   Ca108Mn108O277
_chemical_formula_sum   'Ca108 Mn108 O277'
_cell_volume   5844.00258782
_cell_formula_units_Z   1
loop_
 _symmetry_equiv_pos_site_id
 _symmetry_equiv_pos_as_xyz
  1  'x, y, z'
loop_
 _atom_type_symbol
 _atom_type_oxidation_number
  Ca2+  2.0
  Mn3.34+  3.34
  O2-  -2.0
loop_
 _atom_site_type_symbol
 _atom_site_label
 _atom_site_symmetry_multiplicity
 _atom_site_fract_x
 _atom_site_fract_y
 _atom_site_fract_z
 _atom_site_occupancy
  Ca2+  Ca0  1  0.08606602  0.24580602  0.23068348  1
  Ca2+  Ca1  1  0.09284339  0.25642693  0.59214268  1
  Ca2+  Ca2  1  0.09558640  0.24382348  0.93426318  1
  Ca2+  Ca3  1  0.09508679  0.76262451  0.24872625  1
  Ca2+  Ca4  1  0.10310923  0.74499433  0.60079732  1
  Ca2+  Ca5  1  0.08764950  0.75399978  0.89139636  1
  Ca2+  Ca6  1  0.39553856  0.25205387  0.22434918  1
  Ca2+  Ca7  1  0.41578429  0.25293008  0.59822315  1
  Ca2+  Ca8  1  0.41095328  0.24798447  0.93108095  1
  Ca2+  Ca9  1  0.40594639  0.74586982  0.27042702  1
  Ca2+  Ca10  1  0.41314420  0.73897717  0.56856969  1
  Ca2+  Ca11  1  0.40391541  0.76120851  0.91511355  1
  Ca2+  Ca12  1  0.77112203  0.24621679  0.23937975  1
  Ca2+  Ca13  1  0.73798019  0.24925358  0.57592686  1
  Ca2+  Ca14  1  0.74404067  0.25206362  0.92791440  1
  Ca2+  Ca15  1  0.74514573  0.75697298  0.27782529  1
  Ca2+  Ca16  1  0.73001241  0.73932934  0.56011129  1
  Ca2+  Ca17  1  0.75949538  0.76208961  0.91086581  1
  Ca2+  Ca18  1  0.24983307  0.24271528  0.09484292  1
  Ca2+  Ca19  1  0.24139319  0.25325445  0.40084877  1
  Ca2+  Ca20  1  0.25206109  0.23547180  0.75069010  1
  Ca2+  Ca21  1  0.25797101  0.75165994  0.09613271  1
  Ca2+  Ca22  1  0.27413471  0.74462879  0.42662207  1
  Ca2+  Ca23  1  0.24308054  0.74668372  0.73193547  1
  Ca2+  Ca24  1  0.56739506  0.24404419  0.07182366  1
  Ca2+  Ca25  1  0.59617052  0.25022176  0.42453680  1
  Ca2+  Ca26  1  0.57049774  0.24403238  0.75214960  1
  Ca2+  Ca27  1  0.56829214  0.76494994  0.09571565  1
  Ca2+  Ca28  1  0.57331545  0.74226868  0.43082351  1
  Ca2+  Ca29  1  0.56960860  0.75038375  0.72340620  1
  Ca2+  Ca30  1  0.92997393  0.24218174  0.10136009  1
  Ca2+  Ca31  1  0.90655848  0.23950256  0.39040449  1
  Ca2+  Ca32  1  0.93058879  0.24749316  0.75073922  1
  Ca2+  Ca33  1  0.92097503  0.76205202  0.08412906  1
  Ca2+  Ca34  1  0.89597315  0.75976577  0.41899856  1
  Ca2+  Ca35  1  0.93865121  0.75616682  0.74183091  1
  Ca2+  Ca36  1  0.10654426  0.08707863  0.61008366  1
  Ca2+  Ca37  1  0.57587853  0.59299620  0.71808681  1
  Ca2+  Ca38  1  0.57156514  0.58485821  0.08490487  1
  Ca2+  Ca39  1  0.56625664  0.60167127  0.43713267  1
  Ca2+  Ca40  1  0.22667622  0.59636271  0.72733962  1
  Ca2+  Ca41  1  0.79009454  0.09196069  0.28095844  1
  Ca2+  Ca42  1  0.09304169  0.10258981  0.91098262  1
  Ca2+  Ca43  1  0.92760247  0.10742799  0.09772905  1
  Ca2+  Ca44  1  0.74853463  0.59337492  0.91913945  1
  Ca2+  Ca45  1  0.93118217  0.09143679  0.75055261  1
  Ca2+  Ca46  1  0.93146401  0.58806694  0.08069269  1
  Ca2+  Ca47  1  0.58605630  0.59794412  0.71505214  1
  Ca2+  Ca48  1  0.39626096  0.58068886  0.92268876  1
  Ca2+  Ca49  1  0.57997211  0.09968138  0.75619284  1
  Ca2+  Ca50  1  0.07185573  0.10510410  0.23834059  1
  Ca2+  Ca51  1  0.11111809  0.58167179  0.25355895  1
  Ca2+  Ca52  1  0.43372226  0.10520235  0.91415730  1
  Ca2+  Ca53  1  0.40878553  0.58127562  0.92182292  1
  Ca2+  Ca54  1  0.44423816  0.10686864  0.91494356  1
  Ca2+  Ca55  1  0.89705525  0.59731752  0.42239177  1
  Ca2+  Ca56  1  0.41134926  0.60167661  0.57171229  1
  Ca2+  Ca57  1  0.28504605  0.59250912  0.41741398  1
  Ca2+  Ca58  1  0.25223586  0.58474131  0.09566992  1
  Ca2+  Ca59  1  0.94760997  0.59445867  0.74295279  1
  Ca2+  Ca60  1  0.38533970  0.10185378  0.23781511  1
  Ca2+  Ca61  1  0.71097278  0.09836901  0.91171731  1
  Ca2+  Ca62  1  0.40128845  0.09459509  0.59497990  1
  Ca2+  Ca63  1  0.72264270  0.09789745  0.91619758  1
  Ca2+  Ca64  1  0.26178349  0.08477494  0.41892122  1
  Ca2+  Ca65  1  0.39547480  0.09989692  0.23538646  1
  Ca2+  Ca66  1  0.57690220  0.09915281  0.06038331  1
  Ca2+  Ca67  1  0.24270781  0.11268031  0.09074778  1
  Ca2+  Ca68  1  0.79737997  0.09128909  0.27368041  1
  Ca2+  Ca69  1  0.24921484  0.08521120  0.41830970  1
  Ca2+  Ca70  1  0.60796560  0.08918621  0.41931252  1
  Ca2+  Ca71  1  0.74500619  0.09501508  0.54901010  1
  Ca2+  Ca72  1  0.90225716  0.92278070  0.39958962  1
  Ca2+  Ca73  1  0.25265908  0.40792363  0.09161115  1
  Ca2+  Ca74  1  0.58809044  0.91441899  0.75182946  1
  Ca2+  Ca75  1  0.24610605  0.40722740  0.75473600  1
  Ca2+  Ca76  1  0.24923892  0.89685724  0.08897460  1
  Ca2+  Ca77  1  0.57806101  0.39784982  0.08919811  1
  Ca2+  Ca78  1  0.75161838  0.39882107  0.58350447  1
  Ca2+  Ca79  1  0.93265907  0.90947036  0.74126711  1
  Ca2+  Ca80  1  0.25292077  0.90464973  0.41685853  1
  Ca2+  Ca81  1  0.41576347  0.90663545  0.26062189  1
  Ca2+  Ca82  1  0.25749450  0.40702649  0.75466280  1
  Ca2+  Ca83  1  0.56197241  0.40780148  0.41551170  1
  Ca2+  Ca84  1  0.25839133  0.41880737  0.40430334  1
  Ca2+  Ca85  1  0.41991818  0.90492723  0.91544679  1
  Ca2+  Ca86  1  0.74337051  0.39808399  0.24421305  1
  Ca2+  Ca87  1  0.09920782  0.40541601  0.24933257  1
  Ca2+  Ca88  1  0.40754144  0.40483369  0.92290655  1
  Ca2+  Ca89  1  0.57713585  0.91026162  0.41677073  1
  Ca2+  Ca90  1  0.40957405  0.90866754  0.57552468  1
  Ca2+  Ca91  1  0.08987287  0.90282452  0.90539780  1
  Ca2+  Ca92  1  0.23399695  0.90994356  0.74729752  1
  Ca2+  Ca93  1  0.58824220  0.91025480  0.41676004  1
  Ca2+  Ca94  1  0.92858896  0.40168137  0.74843014  1
  Ca2+  Ca95  1  0.73102623  0.91251460  0.92352059  1
  Ca2+  Ca96  1  0.26854668  0.42028672  0.40138252  1
  Ca2+  Ca97  1  0.57543447  0.91293642  0.75414972  1
  Ca2+  Ca98  1  0.08379829  0.91024815  0.58822849  1
  Ca2+  Ca99  1  0.75722555  0.91721595  0.25811039  1
  Ca2+  Ca100  1  0.75345317  0.90757629  0.57579699  1
  Ca2+  Ca101  1  0.92636843  0.39785933  0.42213000  1
  Ca2+  Ca102  1  0.90784616  0.90598495  0.10061930  1
  Ca2+  Ca103  1  0.91603883  0.39364155  0.08469587  1
  Ca2+  Ca104  1  0.09893010  0.40704269  0.92266940  1
  Ca2+  Ca105  1  0.91567280  0.40133960  0.74785227  1
  Ca2+  Ca106  1  0.57900733  0.39702146  0.74949423  1
  Ca2+  Ca107  1  0.55190077  0.41124412  0.41858092  1
  Mn3.34+  Mn108  1  0.08509281  0.33082980  0.08392443  1
  Mn3.34+  Mn109  1  0.08532102  0.33450821  0.42070435  1
  Mn3.34+  Mn110  1  0.08585396  0.33004292  0.75157642  1
  Mn3.34+  Mn111  1  0.08394853  0.83030423  0.08345508  1
  Mn3.34+  Mn112  1  0.08167934  0.83742043  0.41819456  1
  Mn3.34+  Mn113  1  0.08475454  0.83605750  0.74873086  1
  Mn3.34+  Mn114  1  0.41487226  0.33130428  0.08426933  1
  Mn3.34+  Mn115  1  0.41177994  0.33116953  0.41968424  1
  Mn3.34+  Mn116  1  0.41683111  0.33142606  0.75194923  1
  Mn3.34+  Mn117  1  0.41728385  0.83015436  0.08553623  1
  Mn3.34+  Mn118  1  0.41754783  0.83494499  0.41901062  1
  Mn3.34+  Mn119  1  0.41210089  0.83344913  0.74895330  1
  Mn3.34+  Mn120  1  0.74873144  0.33039698  0.08248331  1
  Mn3.34+  Mn121  1  0.75050168  0.33158473  0.41558150  1
  Mn3.34+  Mn122  1  0.74868308  0.32442888  0.75437020  1
  Mn3.34+  Mn123  1  0.74559069  0.83432452  0.08660833  1
  Mn3.34+  Mn124  1  0.74843547  0.83601018  0.41991931  1
  Mn3.34+  Mn125  1  0.75155315  0.83167679  0.74827256  1
  Mn3.34+  Mn126  1  0.25065261  0.33426245  0.24745409  1
  Mn3.34+  Mn127  1  0.25242837  0.33731311  0.57903050  1
  Mn3.34+  Mn128  1  0.25081029  0.33386382  0.91788835  1
  Mn3.34+  Mn129  1  0.24850892  0.83177962  0.25231026  1
  Mn3.34+  Mn130  1  0.24992658  0.83163291  0.58090207  1
  Mn3.34+  Mn131  1  0.24967634  0.83564810  0.91542252  1
  Mn3.34+  Mn132  1  0.57828627  0.33445376  0.24740699  1
  Mn3.34+  Mn133  1  0.58010897  0.33251226  0.58442869  1
  Mn3.34+  Mn134  1  0.58379660  0.32821494  0.91521729  1
  Mn3.34+  Mn135  1  0.58370959  0.83484796  0.24665802  1
  Mn3.34+  Mn136  1  0.58171745  0.83117802  0.58228576  1
  Mn3.34+  Mn137  1  0.58447244  0.83424207  0.91665203  1
  Mn3.34+  Mn138  1  0.92022023  0.32903243  0.24985235  1
  Mn3.34+  Mn139  1  0.91892222  0.33238637  0.57782503  1
  Mn3.34+  Mn140  1  0.91642211  0.32499530  0.91826448  1
  Mn3.34+  Mn141  1  0.91975931  0.83796218  0.25111819  1
  Mn3.34+  Mn142  1  0.91798917  0.83519605  0.57852039  1
  Mn3.34+  Mn143  1  0.91604761  0.83494148  0.91615605  1
  Mn3.34+  Mn144  1  0.58638148  0.16783799  0.58436690  1
  Mn3.34+  Mn145  1  0.74921711  0.67353909  0.75147606  1
  Mn3.34+  Mn146  1  0.91792660  0.67077362  0.91367568  1
  Mn3.34+  Mn147  1  0.41574933  0.16758497  0.42019606  1
  Mn3.34+  Mn148  1  0.40947553  0.66732386  0.74636741  1
  Mn3.34+  Mn149  1  0.90889883  0.66382463  0.58088484  1
  Mn3.34+  Mn150  1  0.08921849  0.16617374  0.41754935  1
  Mn3.34+  Mn151  1  0.41274815  0.16751792  0.74669149  1
  Mn3.34+  Mn152  1  0.74948742  0.17190999  0.75357422  1
  Mn3.34+  Mn153  1  0.91111533  0.66544620  0.25239101  1
  Mn3.34+  Mn154  1  0.07669665  0.16109730  0.41566237  1
  Mn3.34+  Mn155  1  0.74417670  0.67458896  0.08629029  1
  Mn3.34+  Mn156  1  0.23314781  0.65850589  0.91359892  1
  Mn3.34+  Mn157  1  0.58782913  0.66458302  0.25513771  1
  Mn3.34+  Mn158  1  0.57537270  0.65977247  0.25537958  1
  Mn3.34+  Mn159  1  0.92397324  0.67196512  0.25296491  1
  Mn3.34+  Mn160  1  0.25586526  0.66288380  0.24964803  1
  Mn3.34+  Mn161  1  0.09015433  0.16422677  0.75107960  1
  Mn3.34+  Mn162  1  0.08676681  0.66275319  0.42305301  1
  Mn3.34+  Mn163  1  0.58099170  0.16397528  0.24679917  1
  Mn3.34+  Mn164  1  0.75374034  0.66998731  0.08440781  1
  Mn3.34+  Mn165  1  0.75357890  0.16609844  0.08354004  1
  Mn3.34+  Mn166  1  0.92999917  0.66461123  0.91351319  1
  Mn3.34+  Mn167  1  0.41364260  0.66565856  0.08996173  1
  Mn3.34+  Mn168  1  0.91707055  0.17194284  0.91489110  1
  Mn3.34+  Mn169  1  0.59153546  0.16836167  0.24789236  1
  Mn3.34+  Mn170  1  0.58379750  0.68486473  0.91728632  1
  Mn3.34+  Mn171  1  0.57355611  0.68089218  0.91402333  1
  Mn3.34+  Mn172  1  0.08609834  0.66528821  0.08948551  1
  Mn3.34+  Mn173  1  0.09593622  0.67119309  0.42120202  1
  Mn3.34+  Mn174  1  0.91713620  0.16229509  0.57999477  1
  Mn3.34+  Mn175  1  0.24646071  0.66542455  0.91316108  1
  Mn3.34+  Mn176  1  0.92071735  0.66784366  0.58667991  1
  Mn3.34+  Mn177  1  0.41573514  0.17472644  0.42734263  1
  Mn3.34+  Mn178  1  0.25265666  0.16596588  0.91589179  1
  Mn3.34+  Mn179  1  0.90843900  0.17027783  0.58106374  1
  Mn3.34+  Mn180  1  0.74391664  0.49584854  0.75432377  1
  Mn3.34+  Mn181  1  0.58161326  -0.00047362  0.25895205  1
  Mn3.34+  Mn182  1  0.58354099  0.49602100  0.91334977  1
  Mn3.34+  Mn183  1  0.75296506  0.50222469  0.42235812  1
  Mn3.34+  Mn184  1  0.57855961  0.49951123  0.58343908  1
  Mn3.34+  Mn185  1  0.40962519  0.00115542  0.74946080  1
  Mn3.34+  Mn186  1  0.91136458  0.50176587  0.24688273  1
  Mn3.34+  Mn187  1  0.41283415  -0.00525578  0.08348231  1
  Mn3.34+  Mn188  1  0.56572294  0.49952575  0.26318991  1
  Mn3.34+  Mn189  1  0.07324409  -0.00052803  0.39817496  1
  Mn3.34+  Mn190  1  0.75167947  0.00094495  0.74736635  1
  Mn3.34+  Mn191  1  0.42641953  -0.00042258  0.07734383  1
  Mn3.34+  Mn192  1  0.75794021  0.50256157  0.75417914  1
  Mn3.34+  Mn193  1  0.08775240  0.49986437  0.41827925  1
  Mn3.34+  Mn194  1  0.57993672  0.00304108  0.58852758  1
  Mn3.34+  Mn195  1  0.92263211  0.50041078  0.91649529  1
  Mn3.34+  Mn196  1  0.09154593  0.49854811  0.07606028  1
  Mn3.34+  Mn197  1  0.73904054  0.50818543  0.41904603  1
  Mn3.34+  Mn198  1  0.09228984  -0.00282075  0.08944802  1
  Mn3.34+  Mn199  1  0.41602871  0.49861694  0.74479480  1
  Mn3.34+  Mn200  1  0.24637182  0.50148548  0.59006279  1
  Mn3.34+  Mn201  1  0.08229840  0.50076501  0.74522582  1
  Mn3.34+  Mn202  1  0.74006098  0.00117250  0.07650791  1
  Mn3.34+  Mn203  1  0.41040832  0.49850845  0.08376480  1
  Mn3.34+  Mn204  1  0.59902147  0.50102649  0.91247376  1
  Mn3.34+  Mn205  1  0.24822425  0.00323464  0.91463682  1
  Mn3.34+  Mn206  1  0.91183564  0.49506065  0.91731040  1
  Mn3.34+  Mn207  1  0.91003371  0.00428757  0.91579485  1
  Mn3.34+  Mn208  1  0.75043043  0.49965478  0.08909095  1
  Mn3.34+  Mn209  1  0.92176394  0.49611807  0.24686641  1
  Mn3.34+  Mn210  1  0.24797401  -0.00369829  0.25746150  1
  Mn3.34+  Mn211  1  0.92477033  -0.00103566  0.91353904  1
  Mn3.34+  Mn212  1  0.24565205  -0.00211945  0.59637938  1
  Mn3.34+  Mn213  1  0.07954887  0.00350137  0.09047071  1
  Mn3.34+  Mn214  1  0.92552135  0.49743630  0.58469725  1
  Mn3.34+  Mn215  1  0.92004534  -0.00026369  0.59110081  1
  O2-  O216  1  -0.00542009  0.17299089  -0.00682767  1
  O2-  O217  1  0.00436108  0.16394463  0.33411127  1
  O2-  O218  1  -0.00262745  0.15745884  0.66534013  1
  O2-  O219  1  -0.00324765  0.66916004  0.01199332  1
  O2-  O220  1  0.00492456  0.66063473  0.33995204  1
  O2-  O221  1  -0.00323859  0.66651110  0.66287223  1
  O2-  O222  1  0.33611803  0.15671044  -0.00994048  1
  O2-  O223  1  0.33358238  0.16218947  0.33724923  1
  O2-  O224  1  0.33819385  0.17152855  0.66306859  1
  O2-  O225  1  0.32961435  0.65341169  -0.00514927  1
  O2-  O226  1  0.32596114  0.66736234  0.33128238  1
  O2-  O227  1  0.33014160  0.65917408  0.67358750  1
  O2-  O228  1  0.67014962  0.16572313  0.00066037  1
  O2-  O229  1  0.66061686  0.16389553  0.33453981  1
  O2-  O230  1  0.66864394  0.16664583  0.66739949  1
  O2-  O231  1  0.66546205  0.66613311  -0.00146917  1
  O2-  O232  1  0.66280783  0.66472620  0.33573823  1
  O2-  O233  1  0.66281205  0.67298383  0.67960268  1
  O2-  O234  1  0.17158936  0.16323798  -0.00717606  1
  O2-  O235  1  0.17193247  0.15086884  0.33952944  1
  O2-  O236  1  0.16062237  0.17160678  0.66544628  1
  O2-  O237  1  0.16691241  0.67054750  0.00698044  1
  O2-  O238  1  0.16271407  0.66848031  0.32845979  1
  O2-  O239  1  0.16854986  0.67375030  0.66985757  1
  O2-  O240  1  0.50476208  0.16842314  -0.00700225  1
  O2-  O241  1  0.49917439  0.16294674  0.33848147  1
  O2-  O242  1  0.50004401  0.15813013  0.66600826  1
  O2-  O243  1  0.49587458  0.65632657  -0.00199627  1
  O2-  O244  1  0.49861110  0.66422300  0.33502645  1
  O2-  O245  1  0.49234966  0.66104742  0.67044324  1
  O2-  O246  1  0.82840185  0.15976908  -0.00584629  1
  O2-  O247  1  0.81886044  0.17946959  0.32890398  1
  O2-  O248  1  0.83383239  0.16712511  0.67174800  1
  O2-  O249  1  0.83491004  0.66060462  -0.00457522  1
  O2-  O250  1  0.84031319  0.66595062  0.33930681  1
  O2-  O251  1  0.83403549  0.66703063  0.67501449  1
  O2-  O252  1  0.00320438  0.33596397  -0.00232880  1
  O2-  O253  1  0.00290873  0.34239312  0.33237299  1
  O2-  O254  1  -0.00193577  0.34009776  0.67173066  1
  O2-  O255  1  0.00198231  0.83023189  0.00084538  1
  O2-  O256  1  -0.00119042  0.82445795  0.33864809  1
  O2-  O257  1  0.00063564  0.84203127  0.66505443  1
  O2-  O258  1  0.33307594  0.34103982  -0.00188639  1
  O2-  O259  1  0.32988583  0.33066944  0.33885840  1
  O2-  O260  1  0.32823116  0.33490589  0.67195091  1
  O2-  O261  1  0.33345044  0.84135989  -0.00110433  1
  O2-  O262  1  0.33564328  0.84175665  0.33469011  1
  O2-  O263  1  0.33075400  0.84671465  0.66758290  1
  O2-  O264  1  0.65963368  0.32417781  0.00369898  1
  O2-  O265  1  0.66089503  0.33996330  0.33852548  1
  O2-  O266  1  0.67074029  0.33568298  0.66612600  1
  O2-  O267  1  0.66711923  0.81437081  -0.00233779  1
  O2-  O268  1  0.66516223  0.84351861  0.33505363  1
  O2-  O269  1  0.66276656  0.83837607  0.66886160  1
  O2-  O270  1  0.16812133  0.34070413  0.00042935  1
  O2-  O271  1  0.17182486  0.34320595  0.33985731  1
  O2-  O272  1  0.17237937  0.33585307  0.67116163  1
  O2-  O273  1  0.16595970  0.83140939  -0.00139416  1
  O2-  O274  1  0.16947649  0.82685138  0.33911253  1
  O2-  O275  1  0.16705891  0.84179369  0.66494186  1
  O2-  O276  1  0.49899105  0.33230035  -0.00234681  1
  O2-  O277  1  0.50093065  0.33193661  0.34074168  1
  O2-  O278  1  0.50182571  0.33713303  0.67248620  1
  O2-  O279  1  0.49832143  0.82563199  -0.00646392  1
  O2-  O280  1  0.50388343  0.84342049  0.33734140  1
  O2-  O281  1  0.50234835  0.84471741  0.66894983  1
  O2-  O282  1  0.83732831  0.32575987  0.00279996  1
  O2-  O283  1  0.83335309  0.33182413  0.33284308  1
  O2-  O284  1  0.83524407  0.33442957  0.67069365  1
  O2-  O285  1  0.82896645  0.83261693  0.00227997  1
  O2-  O286  1  0.83024179  0.84143748  0.33575346  1
  O2-  O287  1  0.83560657  0.83783269  0.66716946  1
  O2-  O288  1  0.00307306  0.17416620  0.17054352  1
  O2-  O289  1  0.00325710  0.17202072  0.50343424  1
  O2-  O290  1  -0.00104932  0.17883293  0.83211441  1
  O2-  O291  1  -0.00000242  0.67852018  0.16791862  1
  O2-  O292  1  -0.00007444  0.67946834  0.49465198  1
  O2-  O293  1  -0.00118617  0.67494284  0.82670170  1
  O2-  O294  1  0.33287373  0.16941536  0.16979590  1
  O2-  O295  1  0.32723532  0.18409363  0.49763274  1
  O2-  O296  1  0.34135052  0.17349384  0.83652877  1
  O2-  O297  1  0.32536198  0.67160539  0.15944848  1
  O2-  O298  1  0.34454037  0.66914302  0.49654382  1
  O2-  O299  1  0.34041668  0.66996904  0.84133330  1
  O2-  O300  1  0.66476813  0.17096598  0.15817765  1
  O2-  O301  1  0.66360969  0.17598003  0.50270294  1
  O2-  O302  1  0.67056203  0.18103288  0.83257945  1
  O2-  O303  1  0.66375042  0.67776347  0.16949730  1
  O2-  O304  1  0.65128062  0.67376896  0.49510593  1
  O2-  O305  1  0.67122146  0.68614958  0.83888823  1
  O2-  O306  1  0.16341617  0.17526794  0.17021804  1
  O2-  O307  1  0.16775669  0.17218135  0.49347050  1
  O2-  O308  1  0.16463203  0.17656105  0.83566216  1
  O2-  O309  1  0.16302305  0.67990049  0.16845353  1
  O2-  O310  1  0.17523639  0.68329270  0.49480773  1
  O2-  O311  1  0.16852759  0.67390507  0.82675775  1
  O2-  O312  1  0.49761991  0.17036098  0.17341839  1
  O2-  O313  1  0.50069653  0.17935414  0.50319624  1
  O2-  O314  1  0.49822398  0.17391038  0.82765487  1
  O2-  O315  1  0.50906601  0.67234219  0.16345143  1
  O2-  O316  1  0.49436260  0.67191265  0.50167443  1
  O2-  O317  1  0.49923375  0.67150644  0.82909704  1
  O2-  O318  1  0.83170168  0.16862694  0.16310120  1
  O2-  O319  1  0.82813565  0.17957860  0.50325833  1
  O2-  O320  1  0.83246126  0.18749671  0.83406402  1
  O2-  O321  1  0.84276357  0.67888500  0.15634518  1
  O2-  O322  1  0.83719209  0.67430464  0.50249107  1
  O2-  O323  1  0.82830453  0.67647210  0.83682192  1
  O2-  O324  1  -0.00036473  0.33038645  0.16465666  1
  O2-  O325  1  -0.00219905  0.32438807  0.49483683  1
  O2-  O326  1  -0.00189062  0.32521268  0.83158315  1
  O2-  O327  1  0.00002660  0.82025192  0.16358810  1
  O2-  O328  1  -0.00019450  0.82178606  0.49954996  1
  O2-  O329  1  0.00153793  0.82833967  0.83149104  1
  O2-  O330  1  0.32677139  0.32912036  0.16005827  1
  O2-  O331  1  0.33397586  0.31010111  0.49974768  1
  O2-  O332  1  0.33023487  0.33108612  0.83100801  1
  O2-  O333  1  0.33167050  0.82984242  0.16661795  1
  O2-  O334  1  0.33450618  0.83282520  0.50014169  1
  O2-  O335  1  0.33591867  0.83214752  0.83612125  1
  O2-  O336  1  0.66692979  0.33100091  0.16882615  1
  O2-  O337  1  0.66762420  0.32248892  0.49792238  1
  O2-  O338  1  0.66202848  0.30908879  0.83006458  1
  O2-  O339  1  0.66945039  0.81627533  0.16991305  1
  O2-  O340  1  0.66230263  0.83147411  0.49938803  1
  O2-  O341  1  0.66544397  0.81284303  0.83112043  1
  O2-  O342  1  0.16497700  0.33155745  0.16761861  1
  O2-  O343  1  0.17139136  0.31791504  0.49962484  1
  O2-  O344  1  0.16869603  0.33211117  0.83188035  1
  O2-  O345  1  0.17049239  0.82068479  0.16090721  1
  O2-  O346  1  0.16602824  0.82503814  0.50054697  1
  O2-  O347  1  0.16757218  0.82810767  0.83216909  1
  O2-  O348  1  0.50285133  0.32551805  0.16175868  1
  O2-  O349  1  0.50280856  0.32264923  0.49234511  1
  O2-  O350  1  0.49779649  0.32323967  0.83533611  1
  O2-  O351  1  0.49307336  0.82651914  0.17507001  1
  O2-  O352  1  0.50376914  0.83225864  0.49810821  1
  O2-  O353  1  0.50323323  0.82417706  0.83274842  1
  O2-  O354  1  0.83310958  0.32898129  0.16710385  1
  O2-  O355  1  0.82899016  0.31868381  0.49993798  1
  O2-  O356  1  0.83957042  0.31366276  0.82864263  1
  O2-  O357  1  0.83324089  0.82183961  0.16295155  1
  O2-  O358  1  0.83068442  0.83178686  0.50150139  1
  O2-  O359  1  0.83247091  0.82291189  0.82974860  1
  O2-  O360  1  0.08487193  0.08320876  0.10362928  1
  O2-  O361  1  0.09023855  0.07557580  0.44944566  1
  O2-  O362  1  0.07376740  0.08446602  0.76772049  1
  O2-  O363  1  0.07964813  0.57701730  0.11452972  1
  O2-  O364  1  0.07167625  0.58198075  0.43428428  1
  O2-  O365  1  0.08205099  0.57618616  0.76807714  1
  O2-  O366  1  0.42706960  0.07857126  0.10522624  1
  O2-  O367  1  0.39905339  0.08146484  0.44892999  1
  O2-  O368  1  0.42164308  0.08241945  0.77256917  1
  O2-  O369  1  0.41697465  0.58099712  0.09600104  1
  O2-  O370  1  0.42100887  0.57396259  0.44209943  1
  O2-  O371  1  0.42734629  0.57787197  0.78375299  1
  O2-  O372  1  0.74689843  0.07996652  0.10694697  1
  O2-  O373  1  0.74260279  0.07413311  0.41881374  1
  O2-  O374  1  0.75372130  0.08103397  0.78276388  1
  O2-  O375  1  0.75044423  0.58300663  0.10122225  1
  O2-  O376  1  0.75142275  0.58571054  0.43963095  1
  O2-  O377  1  0.73540741  0.58266100  0.77902667  1
  O2-  O378  1  0.25171924  0.07314098  0.22094563  1
  O2-  O379  1  0.24815205  0.07140303  0.55134190  1
  O2-  O380  1  0.25118980  0.08222470  0.89493323  1
  O2-  O381  1  0.24240455  0.58247291  0.23023471  1
  O2-  O382  1  0.25864852  0.57534497  0.56047539  1
  O2-  O383  1  0.26159631  0.57805879  0.88777016  1
  O2-  O384  1  0.57755880  0.07956546  0.22504696  1
  O2-  O385  1  0.58605258  0.08348225  0.56008283  1
  O2-  O386  1  0.58366525  0.07729771  0.88710402  1
  O2-  O387  1  0.58344698  0.57730356  0.22120274  1
  O2-  O388  1  0.57159848  0.57958106  0.57705879  1
  O2-  O389  1  0.59173446  0.58472340  0.89363394  1
  O2-  O390  1  0.91080540  0.07099267  0.21879828  1
  O2-  O391  1  0.90658108  0.08076266  0.56473147  1
  O2-  O392  1  0.91439818  0.08394989  0.88836008  1
  O2-  O393  1  0.92449637  0.58290359  0.22141742  1
  O2-  O394  1  0.91866781  0.58072043  0.55836651  1
  O2-  O395  1  0.90678684  0.58160026  0.89071267  1
  O2-  O396  1  0.07997780  0.41919861  0.10188425  1
  O2-  O397  1  0.08573510  0.41859942  0.43412379  1
  O2-  O398  1  0.07560568  0.41902032  0.77730674  1
  O2-  O399  1  0.08222944  0.91713116  0.09566010  1
  O2-  O400  1  0.08187896  0.92602664  0.44412039  1
  O2-  O401  1  0.08258173  0.91884238  0.77042140  1
  O2-  O402  1  0.42121883  0.41791385  0.08820502  1
  O2-  O403  1  0.41185455  0.41212365  0.43314552  1
  O2-  O404  1  0.40946664  0.41751780  0.77231055  1
  O2-  O405  1  0.41664099  0.91503376  0.09500305  1
  O2-  O406  1  0.43224199  0.92057859  0.43529226  1
  O2-  O407  1  0.43129187  0.91988679  0.77597466  1
  O2-  O408  1  0.75187429  0.41741980  0.10139046  1
  O2-  O409  1  0.75021080  0.42125606  0.43994357  1
  O2-  O410  1  0.76179418  0.41464679  0.76634159  1
  O2-  O411  1  0.75702746  0.92224745  0.10460692  1
  O2-  O412  1  0.73410872  0.92030186  0.43715813  1
  O2-  O413  1  0.73095349  0.92040806  0.77783072  1
  O2-  O414  1  0.24325097  0.41798721  0.24115750  1
  O2-  O415  1  0.25194166  0.42550662  0.54576852  1
  O2-  O416  1  0.24844575  0.41912789  0.89011014  1
  O2-  O417  1  0.25451966  0.91676707  0.23245696  1
  O2-  O418  1  0.24876157  0.92158564  0.55817502  1
  O2-  O419  1  0.24443650  0.92156849  0.89277309  1
  O2-  O420  1  0.58594206  0.41974233  0.23305570  1
  O2-  O421  1  0.59132574  0.41806413  0.55507503  1
  O2-  O422  1  0.58152651  0.41553406  0.89296180  1
  O2-  O423  1  0.58520088  0.91948239  0.24068479  1
  O2-  O424  1  0.58482933  0.92162475  0.55918437  1
  O2-  O425  1  0.58956673  0.91972405  0.88741082  1
  O2-  O426  1  0.90842642  0.41461534  0.23361818  1
  O2-  O427  1  0.90209840  0.41511658  0.56284979  1
  O2-  O428  1  0.91847439  0.41508472  0.88792091  1
  O2-  O429  1  0.90702443  0.91658616  0.23510141  1
  O2-  O430  1  0.91652473  0.92022552  0.55946103  1
  O2-  O431  1  0.91467755  0.91759258  0.89574200  1
  O2-  O432  1  0.00033760  0.00254369  0.00249103  1
  O2-  O433  1  -0.01095492  0.00111319  0.33811602  1
  O2-  O434  1  0.00018763  -0.00068270  0.66055634  1
  O2-  O435  1  -0.00473578  0.50191883  0.00911115  1
  O2-  O436  1  0.00289272  0.50131587  0.33190717  1
  O2-  O437  1  -0.01965860  0.49373036  0.69437917  1
  O2-  O438  1  0.33104126  -0.00384271  0.00024171  1
  O2-  O439  1  0.33435705  0.01198812  0.32522178  1
  O2-  O440  1  0.34200294  -0.00205700  0.65260125  1
  O2-  O441  1  0.34300238  0.50696742  -0.00726664  1
  O2-  O442  1  0.31824642  0.50219111  0.36695350  1
  O2-  O443  1  0.32392626  0.49972291  0.67963649  1
  O2-  O444  1  0.67968501  0.01089806  -0.01370874  1
  O2-  O445  1  0.66557718  0.00286022  0.32435002  1
  O2-  O446  1  0.66320535  -0.00365780  0.67241323  1
  O2-  O447  1  0.66215696  0.50755545  0.01040902  1
  O2-  O448  1  0.66999813  0.49393269  0.32996294  1
  O2-  O449  1  0.66418676  0.50278685  0.66907995  1
  O2-  O450  1  0.16306714  0.00377543  -0.00277031  1
  O2-  O451  1  0.17881076  0.00730194  0.35426766  1
  O2-  O452  1  0.16102788  -0.00565423  0.65861181  1
  O2-  O453  1  0.18269282  0.49702367  0.02099689  1
  O2-  O454  1  0.16988344  0.49923878  0.34665528  1
  O2-  O455  1  0.17915814  0.49192011  0.68770835  1
  O2-  O456  1  0.49896450  0.01154026  -0.00410629  1
  O2-  O457  1  0.50117165  0.00146456  0.32852801  1
  O2-  O458  1  0.50470340  -0.00340971  0.67827132  1
  O2-  O459  1  0.50231638  0.51043174  -0.00099153  1
  O2-  O460  1  0.51406876  0.49466608  0.36209793  1
  O2-  O461  1  0.51379613  0.50346407  0.68455343  1
  O2-  O462  1  0.83733968  -0.00033039  0.00563570  1
  O2-  O463  1  0.82390854  -0.00263941  0.32346252  1
  O2-  O464  1  0.83259894  -0.00348941  0.66457524  1
  O2-  O465  1  0.83271858  0.50995651  0.00296471  1
  O2-  O466  1  0.83671376  0.50390157  0.33919922  1
  O2-  O467  1  0.83054186  0.49740402  0.66559614  1
  O2-  O468  1  0.58059590  0.25021477  0.59601035  1
  O2-  O469  1  0.57983194  0.75029968  0.26080698  1
  O2-  O470  1  0.91815712  0.75217104  0.59375960  1
  O2-  O471  1  0.25433890  0.74861982  0.92340459  1
  O2-  O472  1  0.92681665  0.25007345  0.59935450  1
  O2-  O473  1  0.41324057  0.25313003  0.07793184  1
  O2-  O474  1  0.07874882  0.25047566  0.73671960  1
  O2-  O475  1  0.58495218  0.25116249  0.25904804  1
  O2-  O476  1  0.24581797  0.25386236  0.25540733  1
  O2-  O477  1  0.41266143  0.74786755  0.07028917  1
  O2-  O478  1  0.08414602  0.25019848  0.40401349  1
  O2-  O479  1  0.25257760  0.25124878  0.92237639  1
  O2-  O480  1  0.74812059  0.75494334  0.41419195  1
  O2-  O481  1  0.91621633  0.75268715  0.92663269  1
  O2-  O482  1  0.41808623  0.75485648  0.41182724  1
  O2-  O483  1  0.57973316  0.75218207  0.58617886  1
  O2-  O484  1  0.25723111  0.75053492  0.25407199  1
  O2-  O485  1  0.90917101  0.75343018  0.26110013  1
  O2-  O486  1  0.41795953  0.25063169  0.73975584  1
  O2-  O487  1  0.41696257  0.75074056  0.74364823  1
  O2-  O488  1  0.75063753  0.24871784  0.08307109  1
  O2-  O489  1  0.08413467  0.75527662  0.74165178  1
  O2-  O490  1  0.25675462  0.75349896  0.59269649  1
  O2-  O491  1  0.92175563  0.25133440  0.25104747  1
  O2-  O492  1  0.08712356  0.25222059  0.08001117  1
