# generated using pymatgen
data_Ca108Mn108O277
_symmetry_space_group_name_H-M   'P 1'
_cell_length_a   16.02647095
_cell_length_b   22.30408302
_cell_length_c   16.38847594
_cell_angle_alpha   90.00380802
_cell_angle_beta   89.99932403
_cell_angle_gamma   90.00220347
_symmetry_Int_Tables_number   1
_chemical_formula_structural   Ca108Mn108O277
_chemical_formula_sum   'Ca108 Mn108 O277'
_cell_volume   5858.15475414
_cell_formula_units_Z   1
loop_
 _symmetry_equiv_pos_site_id
 _symmetry_equiv_pos_as_xyz
  1  'x, y, z'
loop_
 _atom_type_symbol
 _atom_type_oxidation_number
  Ca2+  2.0
  Mn3.34+  3.34
  O2-  -2.0
loop_
 _atom_site_type_symbol
 _atom_site_label
 _atom_site_symmetry_multiplicity
 _atom_site_fract_x
 _atom_site_fract_y
 _atom_site_fract_z
 _atom_site_occupancy
  Ca2+  Ca0  1  0.11055723  0.22853302  0.25522921  1
  Ca2+  Ca1  1  0.08961454  0.23161200  0.57894679  1
  Ca2+  Ca2  1  0.10109223  0.25051357  0.91580868  1
  Ca2+  Ca3  1  0.08809627  0.75208673  0.23396186  1
  Ca2+  Ca4  1  0.08000509  0.76311191  0.58049099  1
  Ca2+  Ca5  1  0.08739439  0.75047927  0.92812417  1
  Ca2+  Ca6  1  0.40588682  0.24100489  0.25162785  1
  Ca2+  Ca7  1  0.40599981  0.23192646  0.56600090  1
  Ca2+  Ca8  1  0.40958720  0.23830162  0.92794269  1
  Ca2+  Ca9  1  0.42071951  0.74113780  0.26323160  1
  Ca2+  Ca10  1  0.42570928  0.75201092  0.58930129  1
  Ca2+  Ca11  1  0.41189873  0.75497027  0.89661256  1
  Ca2+  Ca12  1  0.74117085  0.24611115  0.25416829  1
  Ca2+  Ca13  1  0.74605480  0.25494570  0.57801838  1
  Ca2+  Ca14  1  0.73837574  0.24608419  0.92540748  1
  Ca2+  Ca15  1  0.74288331  0.74734892  0.25524092  1
  Ca2+  Ca16  1  0.73838612  0.77105026  0.58300521  1
  Ca2+  Ca17  1  0.74691852  0.76387178  0.91311959  1
  Ca2+  Ca18  1  0.26343339  0.24478999  0.09482816  1
  Ca2+  Ca19  1  0.25952311  0.23692415  0.40254496  1
  Ca2+  Ca20  1  0.25105154  0.23766142  0.74851240  1
  Ca2+  Ca21  1  0.24441885  0.75545637  0.08155228  1
  Ca2+  Ca22  1  0.27539281  0.74923763  0.41378506  1
  Ca2+  Ca23  1  0.27369414  0.75653794  0.74822800  1
  Ca2+  Ca24  1  0.56239306  0.24100725  0.08942278  1
  Ca2+  Ca25  1  0.57104716  0.24757607  0.40998442  1
  Ca2+  Ca26  1  0.58313414  0.25369673  0.74937152  1
  Ca2+  Ca27  1  0.58019288  0.75600862  0.08956753  1
  Ca2+  Ca28  1  0.56616113  0.74690202  0.42400148  1
  Ca2+  Ca29  1  0.56474784  0.76084757  0.73692270  1
  Ca2+  Ca30  1  0.91483512  0.25876610  0.09126098  1
  Ca2+  Ca31  1  0.92049461  0.24277308  0.41756036  1
  Ca2+  Ca32  1  0.92087315  0.25501906  0.74251720  1
  Ca2+  Ca33  1  0.92917884  0.75646508  0.08380891  1
  Ca2+  Ca34  1  0.90517079  0.76208643  0.41153005  1
  Ca2+  Ca35  1  0.91001667  0.76906445  0.74983632  1
  Ca2+  Ca36  1  0.25433988  0.10190069  0.41191439  1
  Ca2+  Ca37  1  0.28064273  0.60337976  0.41422883  1
  Ca2+  Ca38  1  0.25378475  0.58482831  0.07573403  1
  Ca2+  Ca39  1  0.91452254  0.60113241  0.76122582  1
  Ca2+  Ca40  1  0.42205665  0.09988415  0.91745022  1
  Ca2+  Ca41  1  0.89876408  0.58881906  0.40311258  1
  Ca2+  Ca42  1  0.72396808  0.58135336  0.25397616  1
  Ca2+  Ca43  1  0.09149174  0.58779751  0.25155657  1
  Ca2+  Ca44  1  0.41745892  0.61362170  0.57557663  1
  Ca2+  Ca45  1  0.75213188  0.58831280  0.92498152  1
  Ca2+  Ca46  1  0.75352547  0.09623242  0.25320431  1
  Ca2+  Ca47  1  0.88871217  0.08534528  0.08489526  1
  Ca2+  Ca48  1  0.27477738  0.10773577  0.09586121  1
  Ca2+  Ca49  1  0.10223383  0.08981799  0.90594068  1
  Ca2+  Ca50  1  0.42738685  0.58543818  0.26298394  1
  Ca2+  Ca51  1  0.56810400  0.10095738  0.41292727  1
  Ca2+  Ca52  1  0.26324968  0.58792431  0.07953237  1
  Ca2+  Ca53  1  0.92097591  0.60061289  0.07607213  1
  Ca2+  Ca54  1  0.09638192  0.60245082  0.58387947  1
  Ca2+  Ca55  1  0.56298018  0.59521624  0.41124591  1
  Ca2+  Ca56  1  0.90984808  0.60230713  0.07705221  1
  Ca2+  Ca57  1  0.08953207  0.08989312  0.90636581  1
  Ca2+  Ca58  1  0.40315997  0.10981306  0.24857830  1
  Ca2+  Ca59  1  0.90988143  0.59165308  0.39819371  1
  Ca2+  Ca60  1  0.58184550  0.09090325  0.06674990  1
  Ca2+  Ca61  1  0.28597905  0.09835524  0.74062394  1
  Ca2+  Ca62  1  0.76327118  0.07050187  0.59052996  1
  Ca2+  Ca63  1  0.90093436  0.08801092  0.08409186  1
  Ca2+  Ca64  1  0.93562205  0.08813083  0.41932832  1
  Ca2+  Ca65  1  0.57202575  0.07587811  0.75374121  1
  Ca2+  Ca66  1  0.56590873  0.59481177  0.73620426  1
  Ca2+  Ca67  1  0.28847261  0.61382757  0.75933661  1
  Ca2+  Ca68  1  0.76122126  0.59342580  0.92338579  1
  Ca2+  Ca69  1  0.10380061  0.58969648  0.24916979  1
  Ca2+  Ca70  1  0.57174202  0.59090792  0.09472087  1
  Ca2+  Ca71  1  0.73032011  0.58447181  0.58543623  1
  Ca2+  Ca72  1  0.59209342  0.90473640  0.42810368  1
  Ca2+  Ca73  1  0.57752368  0.40409838  0.08616206  1
  Ca2+  Ca74  1  0.08714491  0.90243155  0.91204414  1
  Ca2+  Ca75  1  0.07063464  0.92713552  0.58202797  1
  Ca2+  Ca76  1  0.25052772  0.40752018  0.09162837  1
  Ca2+  Ca77  1  0.42378408  0.40801259  0.24327181  1
  Ca2+  Ca78  1  0.92103986  0.91449573  0.42720591  1
  Ca2+  Ca79  1  0.58815764  0.41435692  0.40451518  1
  Ca2+  Ca80  1  0.74468656  0.40131837  0.90601076  1
  Ca2+  Ca81  1  0.59985696  0.92139670  0.05768912  1
  Ca2+  Ca82  1  0.24290457  0.90742218  0.41860106  1
  Ca2+  Ca83  1  0.73600978  0.40802545  0.25007704  1
  Ca2+  Ca84  1  0.26559206  0.90614834  0.06980981  1
  Ca2+  Ca85  1  0.74854753  0.40768722  0.25044483  1
  Ca2+  Ca86  1  0.89521571  0.93012197  0.72538370  1
  Ca2+  Ca87  1  0.41721507  0.39586331  0.91938541  1
  Ca2+  Ca88  1  0.75472420  0.90962164  0.25439067  1
  Ca2+  Ca89  1  0.25399017  0.39316866  0.75915117  1
  Ca2+  Ca90  1  0.76545862  0.91372471  0.25139655  1
  Ca2+  Ca91  1  0.90015846  0.91113911  0.06866158  1
  Ca2+  Ca92  1  0.73228771  0.40031340  0.90493650  1
  Ca2+  Ca93  1  0.08120561  0.39311889  0.91852633  1
  Ca2+  Ca94  1  0.90603854  0.39628736  0.40881293  1
  Ca2+  Ca95  1  0.26280999  0.41723559  0.38444845  1
  Ca2+  Ca96  1  0.09254817  0.91206791  0.26702492  1
  Ca2+  Ca97  1  0.25164182  0.41661429  0.38570195  1
  Ca2+  Ca98  1  0.07126834  0.39465761  0.58210062  1
  Ca2+  Ca99  1  0.42755853  0.91088403  0.59879202  1
  Ca2+  Ca100  1  0.08771462  0.39542459  0.24150630  1
  Ca2+  Ca101  1  0.43386212  0.39790952  0.57911078  1
  Ca2+  Ca102  1  0.58928476  0.92050047  0.05556250  1
  Ca2+  Ca103  1  0.42116602  0.39769062  0.58087537  1
  Ca2+  Ca104  1  0.08163332  0.91328157  0.26637086  1
  Ca2+  Ca105  1  0.08249871  0.39353740  0.58181575  1
  Ca2+  Ca106  1  0.73058204  0.93502015  0.90589643  1
  Ca2+  Ca107  1  0.40903068  0.89972800  0.24875306  1
  Mn3.34+  Mn108  1  0.08282675  0.32836137  0.08377804  1
  Mn3.34+  Mn109  1  0.08293426  0.32636549  0.41426435  1
  Mn3.34+  Mn110  1  0.08135933  0.32700931  0.75412768  1
  Mn3.34+  Mn111  1  0.08443104  0.83695796  0.08413308  1
  Mn3.34+  Mn112  1  0.08544997  0.83619305  0.42490418  1
  Mn3.34+  Mn113  1  0.09017970  0.83871562  0.75063515  1
  Mn3.34+  Mn114  1  0.41583849  0.33042311  0.08404326  1
  Mn3.34+  Mn115  1  0.42011507  0.32949410  0.41349607  1
  Mn3.34+  Mn116  1  0.41980810  0.32531033  0.75416626  1
  Mn3.34+  Mn117  1  0.41907244  0.83449318  0.08260842  1
  Mn3.34+  Mn118  1  0.41754602  0.83333217  0.42156395  1
  Mn3.34+  Mn119  1  0.41581944  0.83798841  0.75163252  1
  Mn3.34+  Mn120  1  0.74990579  0.33064529  0.08551318  1
  Mn3.34+  Mn121  1  0.74801352  0.32807393  0.41838562  1
  Mn3.34+  Mn122  1  0.75292989  0.33525224  0.74422562  1
  Mn3.34+  Mn123  1  0.75183399  0.83173812  0.08518392  1
  Mn3.34+  Mn124  1  0.74882866  0.83574389  0.42108414  1
  Mn3.34+  Mn125  1  0.74567238  0.84626968  0.74861140  1
  Mn3.34+  Mn126  1  0.25168955  0.33159010  0.24493473  1
  Mn3.34+  Mn127  1  0.25119867  0.32799388  0.58185555  1
  Mn3.34+  Mn128  1  0.25172403  0.33135087  0.92012022  1
  Mn3.34+  Mn129  1  0.25390788  0.83154653  0.24839337  1
  Mn3.34+  Mn130  1  0.24928741  0.83699312  0.58503143  1
  Mn3.34+  Mn131  1  0.25184345  0.83288768  0.91284458  1
  Mn3.34+  Mn132  1  0.58121503  0.33393185  0.24734184  1
  Mn3.34+  Mn133  1  0.59339199  0.33541583  0.58434542  1
  Mn3.34+  Mn134  1  0.57777215  0.32809506  0.91494778  1
  Mn3.34+  Mn135  1  0.58045940  0.83074088  0.25030678  1
  Mn3.34+  Mn136  1  0.58421306  0.84378182  0.58551012  1
  Mn3.34+  Mn137  1  0.58046923  0.83815709  0.90806417  1
  Mn3.34+  Mn138  1  0.91805479  0.32989425  0.24700039  1
  Mn3.34+  Mn139  1  0.91071673  0.32851430  0.58109301  1
  Mn3.34+  Mn140  1  0.91571740  0.32819347  0.91608334  1
  Mn3.34+  Mn141  1  0.91860162  0.83334715  0.24837472  1
  Mn3.34+  Mn142  1  0.91526841  0.84007540  0.58402464  1
  Mn3.34+  Mn143  1  0.91572278  0.83505779  0.91109408  1
  Mn3.34+  Mn144  1  0.58036459  0.66695904  0.24972989  1
  Mn3.34+  Mn145  1  0.08898445  0.67739399  0.41430844  1
  Mn3.34+  Mn146  1  0.92308035  0.17244082  0.91521589  1
  Mn3.34+  Mn147  1  0.57888762  0.66867630  0.91690303  1
  Mn3.34+  Mn148  1  0.07920850  0.67433214  0.75712842  1
  Mn3.34+  Mn149  1  0.08705664  0.15812736  0.41745294  1
  Mn3.34+  Mn150  1  0.92263100  0.16754417  0.24972244  1
  Mn3.34+  Mn151  1  0.75458604  0.66484101  0.75068336  1
  Mn3.34+  Mn152  1  0.57124943  0.16176308  0.58331072  1
  Mn3.34+  Mn153  1  0.58594110  0.15632614  0.58168755  1
  Mn3.34+  Mn154  1  0.25482206  0.66705085  0.24650273  1
  Mn3.34+  Mn155  1  0.58206737  0.15892272  0.91308651  1
  Mn3.34+  Mn156  1  0.58309276  0.66890453  0.57759345  1
  Mn3.34+  Mn157  1  0.74403201  0.16925634  0.08766058  1
  Mn3.34+  Mn158  1  0.74661758  0.16217951  0.75183107  1
  Mn3.34+  Mn159  1  0.41486597  0.66943078  0.08846306  1
  Mn3.34+  Mn160  1  0.91490894  0.66996156  0.24529811  1
  Mn3.34+  Mn161  1  0.75351259  0.16559635  0.41967027  1
  Mn3.34+  Mn162  1  0.08821313  0.68024902  0.75574396  1
  Mn3.34+  Mn163  1  0.91877613  0.15373137  0.58075206  1
  Mn3.34+  Mn164  1  0.25490385  0.16502144  0.91349624  1
  Mn3.34+  Mn165  1  0.74563087  0.67148840  0.08663959  1
  Mn3.34+  Mn166  1  0.56431644  0.66260937  0.91569095  1
  Mn3.34+  Mn167  1  0.08319796  0.16442446  0.73984944  1
  Mn3.34+  Mn168  1  0.58030582  0.16868249  0.24840748  1
  Mn3.34+  Mn169  1  0.92215509  0.66659791  0.57719578  1
  Mn3.34+  Mn170  1  0.08422853  0.66740392  0.07915759  1
  Mn3.34+  Mn171  1  0.24993156  0.67879871  0.58021669  1
  Mn3.34+  Mn172  1  0.74268036  0.66808815  0.41474872  1
  Mn3.34+  Mn173  1  0.90787586  0.67255926  0.57775806  1
  Mn3.34+  Mn174  1  0.08718346  0.16855406  0.08927658  1
  Mn3.34+  Mn175  1  0.91381946  0.16659621  0.91322670  1
  Mn3.34+  Mn176  1  0.74244145  0.67056527  0.74898726  1
  Mn3.34+  Mn177  1  0.25163308  0.16224465  0.57974808  1
  Mn3.34+  Mn178  1  0.75681076  0.15732185  0.75263477  1
  Mn3.34+  Mn179  1  0.25453455  0.66835039  0.91729328  1
  Mn3.34+  Mn180  1  0.91992561  0.49489804  0.91180919  1
  Mn3.34+  Mn181  1  0.42229650  -0.00162291  0.43242070  1
  Mn3.34+  Mn182  1  0.25228103  -0.00174990  0.26041779  1
  Mn3.34+  Mn183  1  0.07461300  0.00121289  0.73273857  1
  Mn3.34+  Mn184  1  0.07336271  0.49975228  0.42255432  1
  Mn3.34+  Mn185  1  0.24506735  0.50582571  0.58057262  1
  Mn3.34+  Mn186  1  0.08651046  0.00676605  0.08386322  1
  Mn3.34+  Mn187  1  0.93224577  0.50188099  0.91033108  1
  Mn3.34+  Mn188  1  0.40978455  0.00442707  0.43104059  1
  Mn3.34+  Mn189  1  0.42641506  0.49513036  0.75944796  1
  Mn3.34+  Mn190  1  0.41457468  0.00177230  0.07602034  1
  Mn3.34+  Mn191  1  0.90798477  0.00048179  0.91844745  1
  Mn3.34+  Mn192  1  0.24731446  0.50207254  0.92068386  1
  Mn3.34+  Mn193  1  0.26490955  -0.00359613  0.90954192  1
  Mn3.34+  Mn194  1  0.24721893  0.00257162  0.58938876  1
  Mn3.34+  Mn195  1  0.42039894  0.50090801  0.41333871  1
  Mn3.34+  Mn196  1  0.74714874  0.49700519  0.41572942  1
  Mn3.34+  Mn197  1  0.26081874  0.50154729  0.57927557  1
  Mn3.34+  Mn198  1  0.41416436  0.50198802  0.76150769  1
  Mn3.34+  Mn199  1  0.91427943  0.50008563  0.24099523  1
  Mn3.34+  Mn200  1  0.08924313  0.50437718  0.42370966  1
  Mn3.34+  Mn201  1  0.07373435  0.49775191  0.75942543  1
  Mn3.34+  Mn202  1  0.92422837  0.00152763  0.25677215  1
  Mn3.34+  Mn203  1  0.08800295  0.50375282  0.75994793  1
  Mn3.34+  Mn204  1  0.57362900  0.50072151  0.91908557  1
  Mn3.34+  Mn205  1  0.58202039  0.00315182  0.24755461  1
  Mn3.34+  Mn206  1  0.09935386  0.00367048  0.08299531  1
  Mn3.34+  Mn207  1  0.42111979  -0.00415065  0.73456720  1
  Mn3.34+  Mn208  1  0.75023290  0.00172451  0.41782117  1
  Mn3.34+  Mn209  1  0.90291779  0.49456407  0.59382113  1
  Mn3.34+  Mn210  1  0.89172719  0.49442781  0.60072942  1
  Mn3.34+  Mn211  1  0.59148146  0.49922692  0.59626936  1
  Mn3.34+  Mn212  1  0.42384359  0.50001631  0.07578524  1
  Mn3.34+  Mn213  1  0.56708052  -0.00159198  0.24533386  1
  Mn3.34+  Mn214  1  0.07832036  0.49552323  0.08275697  1
  Mn3.34+  Mn215  1  0.74513709  0.49923025  0.07966755  1
  O2-  O216  1  -0.00039934  0.15523222  0.00198662  1
  O2-  O217  1  -0.00158598  0.17265277  0.33515314  1
  O2-  O218  1  -0.00589819  0.18120006  0.66296802  1
  O2-  O219  1  -0.00624369  0.66851352  0.00928130  1
  O2-  O220  1  0.00260160  0.64698163  0.33244980  1
  O2-  O221  1  0.00403166  0.65589022  0.66500241  1
  O2-  O222  1  0.33297684  0.15577963  -0.00885093  1
  O2-  O223  1  0.32838549  0.16600168  0.33053776  1
  O2-  O224  1  0.33139452  0.17335578  0.66102034  1
  O2-  O225  1  0.33142797  0.65976571  0.00663826  1
  O2-  O226  1  0.33842571  0.65674495  0.31750583  1
  O2-  O227  1  0.32935367  0.67407288  0.65897661  1
  O2-  O228  1  0.66284780  0.16970253  0.00251473  1
  O2-  O229  1  0.66872319  0.14931691  0.33525643  1
  O2-  O230  1  0.66642463  0.15166305  0.66108563  1
  O2-  O231  1  0.65972446  0.64691582  0.00239306  1
  O2-  O232  1  0.66250537  0.65145021  0.33420511  1
  O2-  O233  1  0.66648618  0.65124424  0.66758738  1
  O2-  O234  1  0.16242676  0.14474553  -0.00217138  1
  O2-  O235  1  0.16662776  0.15881613  0.34100799  1
  O2-  O236  1  0.17225227  0.15134261  0.67222693  1
  O2-  O237  1  0.17127562  0.65033956  0.00638774  1
  O2-  O238  1  0.17239350  0.65008906  0.33255932  1
  O2-  O239  1  0.16630627  0.66938829  0.66911982  1
  O2-  O240  1  0.50708227  0.16631737  -0.00610955  1
  O2-  O241  1  0.50404626  0.16045035  0.32631783  1
  O2-  O242  1  0.50714550  0.15799111  0.67310949  1
  O2-  O243  1  0.50104198  0.66306850  0.01158283  1
  O2-  O244  1  0.50041919  0.65800234  0.32523734  1
  O2-  O245  1  0.50547082  0.66140797  0.65616886  1
  O2-  O246  1  0.83703237  0.15946659  0.00340563  1
  O2-  O247  1  0.83764411  0.16393852  0.33438719  1
  O2-  O248  1  0.83222522  0.16110124  0.66394066  1
  O2-  O249  1  0.82372650  0.66197249  -0.00018778  1
  O2-  O250  1  0.82585702  0.65067728  0.32305852  1
  O2-  O251  1  0.83278643  0.64657966  0.65924823  1
  O2-  O252  1  -0.00034123  0.32766944  -0.00117249  1
  O2-  O253  1  -0.00419607  0.33577289  0.33647893  1
  O2-  O254  1  -0.00044751  0.33469174  0.66260315  1
  O2-  O255  1  -0.00221702  0.84113334  0.00043690  1
  O2-  O256  1  0.00400559  0.84391354  0.33586646  1
  O2-  O257  1  0.00857358  0.83831504  0.66432101  1
  O2-  O258  1  0.33308048  0.34724992  0.00262851  1
  O2-  O259  1  0.33825842  0.34688426  0.32977560  1
  O2-  O260  1  0.33897280  0.34071907  0.66609405  1
  O2-  O261  1  0.33435746  0.82981383  0.00259056  1
  O2-  O262  1  0.33060494  0.84663403  0.33717689  1
  O2-  O263  1  0.33640135  0.83629195  0.66050098  1
  O2-  O264  1  0.66493623  0.34008132  0.00052886  1
  O2-  O265  1  0.66829507  0.34721407  0.33005414  1
  O2-  O266  1  0.66893388  0.33564955  0.66819721  1
  O2-  O267  1  0.67036123  0.83541015  0.00409432  1
  O2-  O268  1  0.67056095  0.85220215  0.32438257  1
  O2-  O269  1  0.66636813  0.83976842  0.66592303  1
  O2-  O270  1  0.16871599  0.34875744  0.00227020  1
  O2-  O271  1  0.16872834  0.34622704  0.33416570  1
  O2-  O272  1  0.16653384  0.35058570  0.66653030  1
  O2-  O273  1  0.16713359  0.84502163  0.00469976  1
  O2-  O274  1  0.16402556  0.84285643  0.33441773  1
  O2-  O275  1  0.16993832  0.80739454  0.66834674  1
  O2-  O276  1  0.50017002  0.33761108  0.00157280  1
  O2-  O277  1  0.50284342  0.35131604  0.33408210  1
  O2-  O278  1  0.49903934  0.33680200  0.66654420  1
  O2-  O279  1  0.50958269  0.83900027  0.01005818  1
  O2-  O280  1  0.50175080  0.85522456  0.33599593  1
  O2-  O281  1  0.49793999  0.83899222  0.66353706  1
  O2-  O282  1  0.82545680  0.34183484  -0.00573289  1
  O2-  O283  1  0.82869499  0.32826033  0.32818886  1
  O2-  O284  1  0.83525335  0.31766058  0.66320452  1
  O2-  O285  1  0.83778019  0.81676897  0.00389504  1
  O2-  O286  1  0.83656468  0.84961234  0.33297358  1
  O2-  O287  1  0.83726642  0.84535165  0.67088242  1
  O2-  O288  1  -0.00194391  0.18769501  0.16269011  1
  O2-  O289  1  -0.00635733  0.17723190  0.49904225  1
  O2-  O290  1  0.00590218  0.18228567  0.83487042  1
  O2-  O291  1  0.00565649  0.67505517  0.17011369  1
  O2-  O292  1  -0.00235632  0.68891262  0.49288243  1
  O2-  O293  1  -0.00802211  0.69401911  0.82567010  1
  O2-  O294  1  0.33746705  0.17797500  0.16950923  1
  O2-  O295  1  0.32020979  0.17715683  0.49655061  1
  O2-  O296  1  0.33179582  0.17607250  0.83381307  1
  O2-  O297  1  0.32580882  0.68525161  0.15857922  1
  O2-  O298  1  0.32965298  0.68067379  0.50142848  1
  O2-  O299  1  0.32928577  0.68558718  0.84015239  1
  O2-  O300  1  0.66875414  0.18144370  0.16924497  1
  O2-  O301  1  0.66189242  0.17450862  0.50007860  1
  O2-  O302  1  0.67004684  0.17793443  0.83665887  1
  O2-  O303  1  0.66593770  0.68425881  0.16697962  1
  O2-  O304  1  0.67544009  0.67778665  0.50441871  1
  O2-  O305  1  0.67262453  0.68221829  0.84865382  1
  O2-  O306  1  0.17334670  0.17412493  0.15455137  1
  O2-  O307  1  0.16535777  0.17130989  0.49931567  1
  O2-  O308  1  0.16007410  0.17154380  0.83869677  1
  O2-  O309  1  0.16335012  0.67184549  0.16843889  1
  O2-  O310  1  0.16197877  0.69274511  0.50527664  1
  O2-  O311  1  0.16947988  0.68372426  0.83689722  1
  O2-  O312  1  0.50230225  0.17616086  0.17191310  1
  O2-  O313  1  0.50298323  0.17484071  0.49845350  1
  O2-  O314  1  0.51009906  0.18645134  0.84149282  1
  O2-  O315  1  0.49857285  0.68477310  0.16674982  1
  O2-  O316  1  0.50612231  0.67452651  0.49979983  1
  O2-  O317  1  0.50724693  0.68170774  0.82489316  1
  O2-  O318  1  0.83639699  0.18248356  0.16783438  1
  O2-  O319  1  0.83339267  0.18647965  0.50451074  1
  O2-  O320  1  0.83538655  0.18988018  0.83447621  1
  O2-  O321  1  0.84110591  0.68869318  0.15272990  1
  O2-  O322  1  0.84102510  0.67213197  0.48198919  1
  O2-  O323  1  0.83000854  0.68311503  0.83230005  1
  O2-  O324  1  0.00629377  0.31533990  0.17373164  1
  O2-  O325  1  0.00661722  0.31667064  0.50765266  1
  O2-  O326  1  0.00128631  0.30824910  0.83913555  1
  O2-  O327  1  0.00353401  0.82707186  0.16961715  1
  O2-  O328  1  -0.00224437  0.81593363  0.49479882  1
  O2-  O329  1  0.00459481  0.81626619  0.83765046  1
  O2-  O330  1  0.33485759  0.32956982  0.16611263  1
  O2-  O331  1  0.33408217  0.32852756  0.49615840  1
  O2-  O332  1  0.33045413  0.31436957  0.83112158  1
  O2-  O333  1  0.33434945  0.81949833  0.16468271  1
  O2-  O334  1  0.33268693  0.81814826  0.50201833  1
  O2-  O335  1  0.33197956  0.82415864  0.83351190  1
  O2-  O336  1  0.66928583  0.32095286  0.17023858  1
  O2-  O337  1  0.66083860  0.32670716  0.49124735  1
  O2-  O338  1  0.66844261  0.31611900  0.84337044  1
  O2-  O339  1  0.66855177  0.81360234  0.16952379  1
  O2-  O340  1  0.65941065  0.82473618  0.49123179  1
  O2-  O341  1  0.66920585  0.82732214  0.83534939  1
  O2-  O342  1  0.16886565  0.32378954  0.16523170  1
  O2-  O343  1  0.16497020  0.34069040  0.49845062  1
  O2-  O344  1  0.16715298  0.32652957  0.83907038  1
  O2-  O345  1  0.16406027  0.82648138  0.17229880  1
  O2-  O346  1  0.17076606  0.81451057  0.49641267  1
  O2-  O347  1  0.16354921  0.81731739  0.83754775  1
  O2-  O348  1  0.49989220  0.32516030  0.16715762  1
  O2-  O349  1  0.49501283  0.32573199  0.50373847  1
  O2-  O350  1  0.49379092  0.30721589  0.84016098  1
  O2-  O351  1  0.49551557  0.81533129  0.17213549  1
  O2-  O352  1  0.50002710  0.82228161  0.50094764  1
  O2-  O353  1  0.49928405  0.82471613  0.83311433  1
  O2-  O354  1  0.82961473  0.31781935  0.17185963  1
  O2-  O355  1  0.83899779  0.31608220  0.49124236  1
  O2-  O356  1  0.82765545  0.31616041  0.84063639  1
  O2-  O357  1  0.83157984  0.81908122  0.16873090  1
  O2-  O358  1  0.83469839  0.82476253  0.49783509  1
  O2-  O359  1  0.83137599  0.81833032  0.83571054  1
  O2-  O360  1  0.06036846  0.08461764  0.11536654  1
  O2-  O361  1  0.07446983  0.08145482  0.42961814  1
  O2-  O362  1  0.07999469  0.07763151  0.77366288  1
  O2-  O363  1  0.07289279  0.57726675  0.11873689  1
  O2-  O364  1  0.08109093  0.58508255  0.45417662  1
  O2-  O365  1  0.07063463  0.58569881  0.77843411  1
  O2-  O366  1  0.41956931  0.07187584  0.11942856  1
  O2-  O367  1  0.41491242  0.08384886  0.42351957  1
  O2-  O368  1  0.41662547  0.05980693  0.79402824  1
  O2-  O369  1  0.40555969  0.57792530  0.12136155  1
  O2-  O370  1  0.41829470  0.57579210  0.44689582  1
  O2-  O371  1  0.42299706  0.58244143  0.76661041  1
  O2-  O372  1  0.75786699  0.08799779  0.11451964  1
  O2-  O373  1  0.76095205  0.08214281  0.44447167  1
  O2-  O374  1  0.73881448  0.07727816  0.76517801  1
  O2-  O375  1  0.76848100  0.58121679  0.11657862  1
  O2-  O376  1  0.76239350  0.57797283  0.44894263  1
  O2-  O377  1  0.74747428  0.58605718  0.79151347  1
  O2-  O378  1  0.26536403  0.06892921  0.22286171  1
  O2-  O379  1  0.25585487  0.07831800  0.55264262  1
  O2-  O380  1  0.24362270  0.07844195  0.87792431  1
  O2-  O381  1  0.23884590  0.57986625  0.21420536  1
  O2-  O382  1  0.23859247  0.58675862  0.55567446  1
  O2-  O383  1  0.25507126  0.58351317  0.88890778  1
  O2-  O384  1  0.59110145  0.08248723  0.21505543  1
  O2-  O385  1  0.58595996  0.07779289  0.55207881  1
  O2-  O386  1  0.56812024  0.08206092  0.89538282  1
  O2-  O387  1  0.58168726  0.58530316  0.22486031  1
  O2-  O388  1  0.58643815  0.57735223  0.54848188  1
  O2-  O389  1  0.58695582  0.58273899  0.87901842  1
  O2-  O390  1  0.90721924  0.07911632  0.21896686  1
  O2-  O391  1  0.90279258  0.07760617  0.55076252  1
  O2-  O392  1  0.94480118  0.07969401  0.89608790  1
  O2-  O393  1  0.92128438  0.58300545  0.21071267  1
  O2-  O394  1  0.92712705  0.57307065  0.53754151  1
  O2-  O395  1  0.90041695  0.58145330  0.88852649  1
  O2-  O396  1  0.08362126  0.41438475  0.10626856  1
  O2-  O397  1  0.06782974  0.41621364  0.43899650  1
  O2-  O398  1  0.08084576  0.41582907  0.77561035  1
  O2-  O399  1  0.08894794  0.92301510  0.12186548  1
  O2-  O400  1  0.08710327  0.91432449  0.44461033  1
  O2-  O401  1  0.07432898  0.92791565  0.78031292  1
  O2-  O402  1  0.42150502  0.41978696  0.10507273  1
  O2-  O403  1  0.40512014  0.42168308  0.44713440  1
  O2-  O404  1  0.40987287  0.41540795  0.78332889  1
  O2-  O405  1  0.41880223  0.92438333  0.11456494  1
  O2-  O406  1  0.40912183  0.91855307  0.45817950  1
  O2-  O407  1  0.41174409  0.92344988  0.76566257  1
  O2-  O408  1  0.74209724  0.41621615  0.11400756  1
  O2-  O409  1  0.76403737  0.41446611  0.42175069  1
  O2-  O410  1  0.75719686  0.41470857  0.77609590  1
  O2-  O411  1  0.73631881  0.91778407  0.11951326  1
  O2-  O412  1  0.74915095  0.91980326  0.43518631  1
  O2-  O413  1  0.76171743  0.92238088  0.77643798  1
  O2-  O414  1  0.25113077  0.41818473  0.24055611  1
  O2-  O415  1  0.26104557  0.41926618  0.56270954  1
  O2-  O416  1  0.25580156  0.41947500  0.89112487  1
  O2-  O417  1  0.24926937  0.92201305  0.21404664  1
  O2-  O418  1  0.23997907  0.92405358  0.55319358  1
  O2-  O419  1  0.23685427  0.91590995  0.90769292  1
  O2-  O420  1  0.59537755  0.41624896  0.22272044  1
  O2-  O421  1  0.56231864  0.42696853  0.54475674  1
  O2-  O422  1  0.59131166  0.41748804  0.89729925  1
  O2-  O423  1  0.58273868  0.91796754  0.20818689  1
  O2-  O424  1  0.56638768  0.92062942  0.55822230  1
  O2-  O425  1  0.59261072  0.91791956  0.91585246  1
  O2-  O426  1  0.89217295  0.41793990  0.24576271  1
  O2-  O427  1  0.93553064  0.42073084  0.54608032  1
  O2-  O428  1  0.92841642  0.41523923  0.89242621  1
  O2-  O429  1  0.90174215  0.92314279  0.20899361  1
  O2-  O430  1  0.93176547  0.91805447  0.56153022  1
  O2-  O431  1  0.90481207  0.92165709  0.89023164  1
  O2-  O432  1  0.00650702  -0.01055217  -0.00257681  1
  O2-  O433  1  -0.00366432  -0.02618818  0.33393853  1
  O2-  O434  1  -0.00751223  -0.00576185  0.67021307  1
  O2-  O435  1  -0.00715933  0.51664167  0.00932364  1
  O2-  O436  1  0.00433619  0.52199727  0.32726422  1
  O2-  O437  1  0.00420226  0.50700131  0.65949983  1
  O2-  O438  1  0.31956184  0.00229634  0.01692696  1
  O2-  O439  1  0.33430262  -0.01417188  0.34030204  1
  O2-  O440  1  0.33811031  0.00717837  0.66485078  1
  O2-  O441  1  0.32504128  0.50225706  0.01868707  1
  O2-  O442  1  0.32179514  0.50505445  0.35726889  1
  O2-  O443  1  0.32371643  0.49980999  0.68014605  1
  O2-  O444  1  0.66624229  -0.00381995  0.01657160  1
  O2-  O445  1  0.66544463  -0.00464909  0.32968230  1
  O2-  O446  1  0.67564482  0.01712447  0.67310660  1
  O2-  O447  1  0.68942921  0.50558388  -0.03495700  1
  O2-  O448  1  0.68102509  0.49285774  0.32184867  1
  O2-  O449  1  0.65821125  0.52346399  0.67392695  1
  O2-  O450  1  0.15725950  0.01113720  -0.02070103  1
  O2-  O451  1  0.16800720  -0.01675116  0.32658063  1
  O2-  O452  1  0.15699966  -0.00649958  0.65979425  1
  O2-  O453  1  0.17686849  0.50835743  0.02316992  1
  O2-  O454  1  0.16056699  0.49692458  0.33120342  1
  O2-  O455  1  0.16066455  0.49598087  0.66349529  1
  O2-  O456  1  0.51223247  0.00326786  0.02792203  1
  O2-  O457  1  0.50066782  -0.00151766  0.34138702  1
  O2-  O458  1  0.50447855  0.00204709  0.67543738  1
  O2-  O459  1  0.53294022  0.50207228  0.03636241  1
  O2-  O460  1  0.49926422  0.50009036  0.33817442  1
  O2-  O461  1  0.48706965  0.49781438  0.65550786  1
  O2-  O462  1  0.85255342  0.00421523  0.02061235  1
  O2-  O463  1  0.82440106  -0.00425648  0.32125360  1
  O2-  O464  1  0.82003987  -0.00037252  0.66291804  1
  O2-  O465  1  0.83692734  0.51153500  -0.00169424  1
  O2-  O466  1  0.84464395  0.51333485  0.34193517  1
  O2-  O467  1  0.83532678  0.53226771  0.67927984  1
  O2-  O468  1  0.41218278  0.25256528  0.06965828  1
  O2-  O469  1  0.10344220  0.24825830  0.72846228  1
  O2-  O470  1  0.23446997  0.24895697  0.59831543  1
  O2-  O471  1  0.75542713  0.75261796  0.39320932  1
  O2-  O472  1  0.41896196  0.75816630  0.73899478  1
  O2-  O473  1  0.42088248  0.75643805  0.39675234  1
  O2-  O474  1  0.73955368  0.24349339  0.73017964  1
  O2-  O475  1  0.24576690  0.24849857  0.94321223  1
  O2-  O476  1  0.75617520  0.25112043  0.06230786  1
  O2-  O477  1  0.09793288  0.24866280  0.40497499  1
  O2-  O478  1  0.08897250  0.75178690  0.07283444  1
  O2-  O479  1  0.73262860  0.24738696  0.39716479  1
  O2-  O480  1  0.24069674  0.74855255  0.27281179  1
  O2-  O481  1  0.24058373  0.74968059  0.94367315  1
  O2-  O482  1  0.58778142  0.25202746  0.27235041  1
  O2-  O483  1  0.25329076  0.25336227  0.26326029  1
  O2-  O484  1  0.58960623  0.75113879  0.59865276  1
  O2-  O485  1  0.58301660  0.75066656  0.93795101  1
  O2-  O486  1  0.41914007  0.25253189  0.39853444  1
  O2-  O487  1  0.58575174  0.75130473  0.28233943  1
  O2-  O488  1  0.92674698  0.74972774  0.27578947  1
  O2-  O489  1  0.09494841  0.24764861  0.05556071  1
  O2-  O490  1  0.75197338  0.75055848  0.72207300  1
  O2-  O491  1  0.90861268  0.75350066  0.60931842  1
  O2-  O492  1  0.58745861  0.24388071  0.60005911  1
