# generated using pymatgen
data_Ca108Mn108O277
_symmetry_space_group_name_H-M   'P 1'
_cell_length_a   16.02967710
_cell_length_b   22.31060194
_cell_length_c   16.39238765
_cell_angle_alpha   90.00004882
_cell_angle_beta   90.00954654
_cell_angle_gamma   90.00224702
_symmetry_Int_Tables_number   1
_chemical_formula_structural   Ca108Mn108O277
_chemical_formula_sum   'Ca108 Mn108 O277'
_cell_volume   5862.43811477
_cell_formula_units_Z   1
loop_
 _symmetry_equiv_pos_site_id
 _symmetry_equiv_pos_as_xyz
  1  'x, y, z'
loop_
 _atom_type_symbol
 _atom_type_oxidation_number
  Ca2+  2.0
  Mn3.34+  3.34
  O2-  -2.0
loop_
 _atom_site_type_symbol
 _atom_site_label
 _atom_site_symmetry_multiplicity
 _atom_site_fract_x
 _atom_site_fract_y
 _atom_site_fract_z
 _atom_site_occupancy
  Ca2+  Ca0  1  0.07886336  0.23912436  0.22409944  1
  Ca2+  Ca1  1  0.06507640  0.24823941  0.59094466  1
  Ca2+  Ca2  1  0.06704475  0.23531546  0.92043903  1
  Ca2+  Ca3  1  0.08398215  0.75054458  0.26807512  1
  Ca2+  Ca4  1  0.10192054  0.75073607  0.57742680  1
  Ca2+  Ca5  1  0.07122360  0.75323939  0.90974325  1
  Ca2+  Ca6  1  0.42907902  0.26401588  0.24954725  1
  Ca2+  Ca7  1  0.41858155  0.26412602  0.59910652  1
  Ca2+  Ca8  1  0.42397900  0.25525892  0.89501168  1
  Ca2+  Ca9  1  0.42379409  0.75786271  0.24450423  1
  Ca2+  Ca10  1  0.39614352  0.74957727  0.59629807  1
  Ca2+  Ca11  1  0.42660501  0.74332704  0.90574083  1
  Ca2+  Ca12  1  0.74720879  0.25762654  0.24601648  1
  Ca2+  Ca13  1  0.77750389  0.24344497  0.60876641  1
  Ca2+  Ca14  1  0.76474759  0.23970632  0.88806677  1
  Ca2+  Ca15  1  0.74166902  0.74691767  0.23014325  1
  Ca2+  Ca16  1  0.73976208  0.75209357  0.59322904  1
  Ca2+  Ca17  1  0.74881884  0.74852177  0.92614403  1
  Ca2+  Ca18  1  0.22559446  0.25316594  0.07949939  1
  Ca2+  Ca19  1  0.24002187  0.25425734  0.41296241  1
  Ca2+  Ca20  1  0.24650643  0.25827890  0.75389258  1
  Ca2+  Ca21  1  0.25645416  0.75936267  0.07417428  1
  Ca2+  Ca22  1  0.22827377  0.73721322  0.43442171  1
  Ca2+  Ca23  1  0.25392036  0.73725374  0.73698448  1
  Ca2+  Ca24  1  0.59137464  0.24123154  0.09270410  1
  Ca2+  Ca25  1  0.59290902  0.25920753  0.40657439  1
  Ca2+  Ca26  1  0.59166270  0.26043600  0.75883650  1
  Ca2+  Ca27  1  0.60559496  0.74266785  0.07079721  1
  Ca2+  Ca28  1  0.59935585  0.75164346  0.41839880  1
  Ca2+  Ca29  1  0.58202684  0.73595325  0.77200355  1
  Ca2+  Ca30  1  0.93135863  0.24486532  0.06614899  1
  Ca2+  Ca31  1  0.92310067  0.24869776  0.43083184  1
  Ca2+  Ca32  1  0.91137586  0.25114838  0.75404009  1
  Ca2+  Ca33  1  0.88747458  0.74638423  0.07030389  1
  Ca2+  Ca34  1  0.93328934  0.74783263  0.41547368  1
  Ca2+  Ca35  1  0.90776946  0.75190593  0.76556808  1
  Ca2+  Ca36  1  0.93451564  0.09433303  0.06100723  1
  Ca2+  Ca37  1  0.37552835  0.59605289  0.59246379  1
  Ca2+  Ca38  1  0.78747315  0.09957361  0.91721897  1
  Ca2+  Ca39  1  0.40305356  0.07433861  0.26381462  1
  Ca2+  Ca40  1  0.90480052  0.10986721  0.76289145  1
  Ca2+  Ca41  1  0.73102410  0.58164294  0.25623300  1
  Ca2+  Ca42  1  0.25107786  0.57263761  0.03980239  1
  Ca2+  Ca43  1  0.89823141  0.56918059  0.39742097  1
  Ca2+  Ca44  1  0.05718803  0.09520191  0.90861177  1
  Ca2+  Ca45  1  0.61006445  0.09796867  0.76039550  1
  Ca2+  Ca46  1  0.73968267  0.57864703  0.25203945  1
  Ca2+  Ca47  1  0.12292420  0.60304734  0.58232907  1
  Ca2+  Ca48  1  0.23778274  0.07834973  0.40282230  1
  Ca2+  Ca49  1  0.71998667  0.10628162  0.23196085  1
  Ca2+  Ca50  1  0.57791358  0.07654744  0.39762725  1
  Ca2+  Ca51  1  0.42019430  0.09658860  0.91011174  1
  Ca2+  Ca52  1  0.06219632  0.10201172  0.57774677  1
  Ca2+  Ca53  1  0.45513947  0.56630793  0.26197161  1
  Ca2+  Ca54  1  0.73250133  0.10720932  0.23451550  1
  Ca2+  Ca55  1  0.60970931  0.57186904  0.40808440  1
  Ca2+  Ca56  1  0.89042514  0.60434660  0.75379757  1
  Ca2+  Ca57  1  0.78105733  0.09441366  0.59718730  1
  Ca2+  Ca58  1  0.72877196  0.61383773  0.90489196  1
  Ca2+  Ca59  1  0.61173012  0.59675232  0.06867344  1
  Ca2+  Ca60  1  0.24757583  0.07461144  0.40116865  1
  Ca2+  Ca61  1  0.25090063  0.09912867  0.73772035  1
  Ca2+  Ca62  1  0.90834375  0.57248530  0.39607654  1
  Ca2+  Ca63  1  0.94048084  0.10023307  0.05970713  1
  Ca2+  Ca64  1  0.09739351  0.59578634  0.90639340  1
  Ca2+  Ca65  1  0.21057195  0.09362510  0.09383708  1
  Ca2+  Ca66  1  0.56598321  0.07585790  0.39824341  1
  Ca2+  Ca67  1  0.19898287  0.09375710  0.09851161  1
  Ca2+  Ca68  1  0.90830473  0.10610876  0.75492243  1
  Ca2+  Ca69  1  0.59775132  0.09816698  0.75655779  1
  Ca2+  Ca70  1  0.44496723  0.59587118  0.90462473  1
  Ca2+  Ca71  1  0.41560498  0.07429567  0.26406722  1
  Ca2+  Ca72  1  0.75012903  0.90050414  0.24943453  1
  Ca2+  Ca73  1  0.92332823  0.90274317  0.42543416  1
  Ca2+  Ca74  1  0.59039063  0.90125889  0.08916113  1
  Ca2+  Ca75  1  0.91225388  0.40646357  0.41318981  1
  Ca2+  Ca76  1  0.08441210  0.40787729  0.59340711  1
  Ca2+  Ca77  1  0.09807062  0.40365082  0.91035066  1
  Ca2+  Ca78  1  0.76496028  0.42737345  0.26777408  1
  Ca2+  Ca79  1  0.26197161  0.39556112  0.41700897  1
  Ca2+  Ca80  1  0.57191267  0.41054977  0.08943142  1
  Ca2+  Ca81  1  0.75076553  0.41276724  0.58127710  1
  Ca2+  Ca82  1  0.06519449  0.90547449  0.91721864  1
  Ca2+  Ca83  1  0.74979531  0.39978226  0.91430385  1
  Ca2+  Ca84  1  0.40838229  0.91137932  0.58638087  1
  Ca2+  Ca85  1  0.57799333  0.41220519  0.74883163  1
  Ca2+  Ca86  1  0.26712475  0.91276262  0.40565918  1
  Ca2+  Ca87  1  0.74853229  0.90315767  0.59460188  1
  Ca2+  Ca88  1  0.10803890  0.40464536  0.90544277  1
  Ca2+  Ca89  1  0.08555959  0.90847751  0.59442909  1
  Ca2+  Ca90  1  0.91054155  0.90324744  0.42509633  1
  Ca2+  Ca91  1  0.58406719  0.41222010  0.08630800  1
  Ca2+  Ca92  1  0.27768098  0.91365973  0.40334819  1
  Ca2+  Ca93  1  0.92065920  0.90453997  0.76016982  1
  Ca2+  Ca94  1  0.58125998  0.42066143  0.39876396  1
  Ca2+  Ca95  1  0.25813419  0.40725563  0.06920271  1
  Ca2+  Ca96  1  0.91155293  0.39966517  0.09160644  1
  Ca2+  Ca97  1  0.39974745  0.41173470  0.91681234  1
  Ca2+  Ca98  1  0.41489794  0.89998089  0.90889242  1
  Ca2+  Ca99  1  0.42628822  0.89975564  0.90818347  1
  Ca2+  Ca100  1  0.07656584  0.39490225  0.25374797  1
  Ca2+  Ca101  1  0.41242697  0.91262155  0.25584444  1
  Ca2+  Ca102  1  0.09215538  0.90681636  0.25310737  1
  Ca2+  Ca103  1  0.75447643  0.42719580  0.26649457  1
  Ca2+  Ca104  1  0.55985300  0.90668148  0.41595904  1
  Ca2+  Ca105  1  0.24962796  0.90775080  0.09368862  1
  Ca2+  Ca106  1  0.56976765  0.91022583  0.41543957  1
  Ca2+  Ca107  1  0.59225532  0.42089814  0.39906912  1
  Mn3.34+  Mn108  1  0.08040605  0.33359315  0.08457460  1
  Mn3.34+  Mn109  1  0.08317370  0.33295062  0.42109035  1
  Mn3.34+  Mn110  1  0.08255732  0.33292524  0.74683546  1
  Mn3.34+  Mn111  1  0.07933292  0.83326210  0.08604843  1
  Mn3.34+  Mn112  1  0.08500996  0.83425012  0.42114789  1
  Mn3.34+  Mn113  1  0.08809460  0.83429541  0.75244598  1
  Mn3.34+  Mn114  1  0.41553440  0.33148098  0.08369615  1
  Mn3.34+  Mn115  1  0.41906672  0.33344221  0.42250010  1
  Mn3.34+  Mn116  1  0.41318923  0.33983425  0.74583232  1
  Mn3.34+  Mn117  1  0.41739138  0.83575938  0.08561518  1
  Mn3.34+  Mn118  1  0.41524540  0.82401415  0.41782297  1
  Mn3.34+  Mn119  1  0.41687108  0.83305917  0.74628236  1
  Mn3.34+  Mn120  1  0.75222296  0.33190447  0.08198636  1
  Mn3.34+  Mn121  1  0.75179462  0.33544656  0.42240640  1
  Mn3.34+  Mn122  1  0.75073736  0.33966540  0.74839959  1
  Mn3.34+  Mn123  1  0.75271315  0.83734982  0.08010489  1
  Mn3.34+  Mn124  1  0.75144920  0.83128255  0.41892596  1
  Mn3.34+  Mn125  1  0.74434367  0.83459908  0.75744962  1
  Mn3.34+  Mn126  1  0.25214092  0.33012152  0.24673395  1
  Mn3.34+  Mn127  1  0.25019744  0.33540336  0.58279032  1
  Mn3.34+  Mn128  1  0.25475167  0.32963168  0.91374920  1
  Mn3.34+  Mn129  1  0.24902296  0.83294711  0.24669765  1
  Mn3.34+  Mn130  1  0.25007210  0.83495391  0.58558069  1
  Mn3.34+  Mn131  1  0.24546379  0.82765002  0.91147381  1
  Mn3.34+  Mn132  1  0.58630632  0.33153295  0.24600044  1
  Mn3.34+  Mn133  1  0.58148421  0.33782110  0.58188937  1
  Mn3.34+  Mn134  1  0.58183776  0.33633092  0.91382927  1
  Mn3.34+  Mn135  1  0.58296879  0.83019734  0.24770067  1
  Mn3.34+  Mn136  1  0.58031109  0.83464776  0.58878141  1
  Mn3.34+  Mn137  1  0.58982017  0.82899196  0.91375224  1
  Mn3.34+  Mn138  1  0.91231200  0.33067576  0.24951784  1
  Mn3.34+  Mn139  1  0.91698093  0.33580354  0.58825894  1
  Mn3.34+  Mn140  1  0.91793963  0.33411761  0.91161202  1
  Mn3.34+  Mn141  1  0.91944092  0.83236886  0.24087020  1
  Mn3.34+  Mn142  1  0.91589250  0.82632607  0.58862332  1
  Mn3.34+  Mn143  1  0.91060858  0.83848896  0.91944171  1
  Mn3.34+  Mn144  1  0.58669301  0.16947783  0.58205746  1
  Mn3.34+  Mn145  1  0.91856648  0.17126621  0.24809265  1
  Mn3.34+  Mn146  1  0.58804330  0.17253452  0.91817403  1
  Mn3.34+  Mn147  1  0.41919783  0.17052202  0.08413866  1
  Mn3.34+  Mn148  1  0.24898575  0.66557752  0.24753125  1
  Mn3.34+  Mn149  1  0.41397411  0.66265781  0.75045003  1
  Mn3.34+  Mn150  1  0.41339102  0.16846324  0.74937537  1
  Mn3.34+  Mn151  1  0.57234587  0.16388750  0.57952061  1
  Mn3.34+  Mn152  1  0.08645860  0.16714442  0.74951301  1
  Mn3.34+  Mn153  1  0.08209774  0.66340917  0.75371198  1
  Mn3.34+  Mn154  1  0.75021023  0.66698545  0.41960210  1
  Mn3.34+  Mn155  1  0.91758420  0.66865107  0.58296538  1
  Mn3.34+  Mn156  1  0.76338511  0.16036600  0.42281690  1
  Mn3.34+  Mn157  1  0.24786020  0.16920695  0.57871781  1
  Mn3.34+  Mn158  1  0.09172123  0.67656924  0.08290812  1
  Mn3.34+  Mn159  1  0.91450830  0.66645037  0.24531690  1
  Mn3.34+  Mn160  1  0.92405249  0.66096069  0.24299577  1
  Mn3.34+  Mn161  1  0.58466284  0.66550315  0.24939888  1
  Mn3.34+  Mn162  1  0.24593614  0.16957638  0.24735069  1
  Mn3.34+  Mn163  1  0.91147081  0.66976308  0.91529491  1
  Mn3.34+  Mn164  1  0.40887328  0.17683225  0.42225785  1
  Mn3.34+  Mn165  1  0.08068652  0.16533302  0.41352148  1
  Mn3.34+  Mn166  1  0.41927146  0.66252262  0.08917377  1
  Mn3.34+  Mn167  1  0.40977124  0.66783660  0.08612982  1
  Mn3.34+  Mn168  1  0.41795051  0.17103866  0.42492118  1
  Mn3.34+  Mn169  1  0.75102744  0.16857440  0.42125956  1
  Mn3.34+  Mn170  1  0.75164911  0.16784267  0.07994054  1
  Mn3.34+  Mn171  1  0.42193019  0.66767065  0.41630087  1
  Mn3.34+  Mn172  1  0.59267938  0.65695185  0.58875484  1
  Mn3.34+  Mn173  1  0.08013558  0.66875749  0.08472110  1
  Mn3.34+  Mn174  1  0.40919124  0.66259943  0.41602576  1
  Mn3.34+  Mn175  1  0.57929978  0.66358353  0.58691379  1
  Mn3.34+  Mn176  1  0.90685101  0.66451897  0.58236552  1
  Mn3.34+  Mn177  1  0.25283881  0.66476528  0.90664954  1
  Mn3.34+  Mn178  1  0.24843076  0.16695811  0.91127945  1
  Mn3.34+  Mn179  1  0.41078346  0.16426969  0.08652827  1
  Mn3.34+  Mn180  1  0.25129156  0.00399682  0.58634987  1
  Mn3.34+  Mn181  1  0.08480088  0.50111101  0.73655780  1
  Mn3.34+  Mn182  1  0.60346335  -0.00711762  0.91517637  1
  Mn3.34+  Mn183  1  0.58852336  -0.00384601  0.24207536  1
  Mn3.34+  Mn184  1  0.91689502  0.00077955  0.59457616  1
  Mn3.34+  Mn185  1  0.06983603  -0.01050107  0.07530479  1
  Mn3.34+  Mn186  1  0.90394729  0.50101533  0.90554209  1
  Mn3.34+  Mn187  1  0.07371527  0.00111537  0.42520875  1
  Mn3.34+  Mn188  1  0.57680107  0.00459562  0.59818699  1
  Mn3.34+  Mn189  1  0.23679948  -0.00314839  0.90930537  1
  Mn3.34+  Mn190  1  0.75912066  0.49862391  0.07850941  1
  Mn3.34+  Mn191  1  0.75044315  -0.00593757  0.74878410  1
  Mn3.34+  Mn192  1  0.57509065  0.49957985  0.59386737  1
  Mn3.34+  Mn193  1  0.58800574  0.49998654  0.92347308  1
  Mn3.34+  Mn194  1  0.75834971  0.00120170  0.41958261  1
  Mn3.34+  Mn195  1  0.91733071  0.50667051  0.90623006  1
  Mn3.34+  Mn196  1  0.09841449  0.50762075  0.42054029  1
  Mn3.34+  Mn197  1  0.41552405  0.00303350  0.74272428  1
  Mn3.34+  Mn198  1  0.06570280  0.50177254  0.09137567  1
  Mn3.34+  Mn199  1  0.24863722  0.50556496  0.24577407  1
  Mn3.34+  Mn200  1  0.42250049  -0.00055638  0.07654731  1
  Mn3.34+  Mn201  1  0.08070948  0.50558540  0.08741922  1
  Mn3.34+  Mn202  1  0.24909663  0.00132008  0.90801033  1
  Mn3.34+  Mn203  1  0.08896429  0.49867042  0.42380100  1
  Mn3.34+  Mn204  1  0.41069391  0.49983745  0.42637509  1
  Mn3.34+  Mn205  1  0.76677239  -0.00508882  0.06990550  1
  Mn3.34+  Mn206  1  0.40995827  0.50063926  0.74092304  1
  Mn3.34+  Mn207  1  0.74515777  0.49978725  0.73649494  1
  Mn3.34+  Mn208  1  0.91534295  -0.00164286  0.24139826  1
  Mn3.34+  Mn209  1  0.91445110  0.50020989  0.58867261  1
  Mn3.34+  Mn210  1  0.25210775  0.49493822  0.58611322  1
  Mn3.34+  Mn211  1  0.26061370  0.49822477  0.24642100  1
  Mn3.34+  Mn212  1  0.41446309  0.49967826  0.08416506  1
  Mn3.34+  Mn213  1  0.08921177  0.00040304  0.74300047  1
  Mn3.34+  Mn214  1  0.59301694  -0.00286351  0.91540203  1
  Mn3.34+  Mn215  1  0.92512658  0.00366863  0.24411907  1
  O2-  O216  1  0.00724791  0.16046518  -0.00177991  1
  O2-  O217  1  0.00670064  0.18125871  0.32720785  1
  O2-  O218  1  0.00333921  0.15223566  0.67557979  1
  O2-  O219  1  0.00936387  0.66317787  -0.00630850  1
  O2-  O220  1  -0.01123058  0.64870713  0.33594576  1
  O2-  O221  1  -0.00913967  0.65936337  0.67059401  1
  O2-  O222  1  0.33118180  0.14515444  0.00452045  1
  O2-  O223  1  0.33336425  0.15604423  0.33188103  1
  O2-  O224  1  0.32534983  0.17512813  0.67069190  1
  O2-  O225  1  0.33894278  0.64729289  -0.00410895  1
  O2-  O226  1  0.34216644  0.68630379  0.32681895  1
  O2-  O227  1  0.33331817  0.66616229  0.67006780  1
  O2-  O228  1  0.67761478  0.17909376  -0.00818705  1
  O2-  O229  1  0.66695343  0.14586711  0.34660730  1
  O2-  O230  1  0.66809396  0.14302925  0.65505546  1
  O2-  O231  1  0.67063883  0.67013669  0.00023528  1
  O2-  O232  1  0.66742888  0.64915374  0.33452203  1
  O2-  O233  1  0.66592177  0.67115912  0.67095269  1
  O2-  O234  1  0.16914017  0.14679233  -0.01212273  1
  O2-  O235  1  0.17398726  0.15167048  0.33562628  1
  O2-  O236  1  0.16355122  0.15772547  0.65712903  1
  O2-  O237  1  0.17175375  0.66472571  0.00117714  1
  O2-  O238  1  0.17623667  0.68520850  0.32407992  1
  O2-  O239  1  0.15218433  0.67920218  0.67250804  1
  O2-  O240  1  0.49979490  0.15941348  0.00144538  1
  O2-  O241  1  0.49640337  0.15585217  0.33786447  1
  O2-  O242  1  0.50290327  0.14730401  0.67212380  1
  O2-  O243  1  0.50191143  0.64957417  0.01433961  1
  O2-  O244  1  0.50197736  0.64957549  0.33835102  1
  O2-  O245  1  0.49347109  0.64943196  0.66036823  1
  O2-  O246  1  0.84156416  0.16357217  0.01176969  1
  O2-  O247  1  0.82806869  0.14370721  0.32719442  1
  O2-  O248  1  0.83411629  0.16287546  0.67246574  1
  O2-  O249  1  0.83428402  0.65998048  -0.00910122  1
  O2-  O250  1  0.83050854  0.65287577  0.33380968  1
  O2-  O251  1  0.83350551  0.68105190  0.66543012  1
  O2-  O252  1  0.00461972  0.35810163  -0.00217136  1
  O2-  O253  1  -0.00440647  0.34061514  0.33791927  1
  O2-  O254  1  0.00082896  0.34880469  0.66775857  1
  O2-  O255  1  0.00526362  0.83263823  -0.00362467  1
  O2-  O256  1  0.00180213  0.84837835  0.33472059  1
  O2-  O257  1  0.00071206  0.82484573  0.66833533  1
  O2-  O258  1  0.33701646  0.33682184  -0.00185629  1
  O2-  O259  1  0.33866598  0.32407377  0.33672338  1
  O2-  O260  1  0.32673270  0.32201497  0.66772425  1
  O2-  O261  1  0.33214333  0.85488298  0.00185344  1
  O2-  O262  1  0.33401896  0.83046427  0.33047949  1
  O2-  O263  1  0.33434208  0.84370934  0.66264507  1
  O2-  O264  1  0.66185539  0.34916604  0.00570099  1
  O2-  O265  1  0.67154536  0.35205344  0.32812535  1
  O2-  O266  1  0.66415825  0.35376358  0.66626737  1
  O2-  O267  1  0.66285472  0.84311706  0.00429492  1
  O2-  O268  1  0.66085193  0.85438063  0.34008292  1
  O2-  O269  1  0.67215108  0.83360087  0.66434655  1
  O2-  O270  1  0.16785041  0.34596322  0.00401827  1
  O2-  O271  1  0.16782785  0.34379836  0.33752574  1
  O2-  O272  1  0.16233032  0.33096559  0.66002931  1
  O2-  O273  1  0.16680303  0.83449478  0.00390279  1
  O2-  O274  1  0.17105522  0.84849691  0.33849275  1
  O2-  O275  1  0.16139716  0.83997431  0.66093162  1
  O2-  O276  1  0.49846342  0.34878203  -0.00165298  1
  O2-  O277  1  0.50812120  0.34327736  0.33791384  1
  O2-  O278  1  0.49831406  0.34737038  0.66591222  1
  O2-  O279  1  0.49958608  0.85392699  0.00118104  1
  O2-  O280  1  0.49480048  0.84047328  0.32961884  1
  O2-  O281  1  0.49025581  0.84594615  0.65730082  1
  O2-  O282  1  0.83435763  0.34235101  0.00005066  1
  O2-  O283  1  0.82754648  0.34989862  0.33081550  1
  O2-  O284  1  0.82661606  0.34886462  0.66062941  1
  O2-  O285  1  0.83414306  0.84024197  0.00262040  1
  O2-  O286  1  0.83988108  0.85035236  0.33551766  1
  O2-  O287  1  0.83147340  0.81401602  0.66643787  1
  O2-  O288  1  -0.01530016  0.17905703  0.16030335  1
  O2-  O289  1  0.01072998  0.18457569  0.49410699  1
  O2-  O290  1  0.00580464  0.17086113  0.82644773  1
  O2-  O291  1  0.00077259  0.69112109  0.16215637  1
  O2-  O292  1  -0.00292518  0.69075040  0.51212947  1
  O2-  O293  1  -0.00048036  0.68583398  0.82883658  1
  O2-  O294  1  0.32831101  0.18872873  0.16316774  1
  O2-  O295  1  0.33124966  0.19656991  0.50272031  1
  O2-  O296  1  0.33841564  0.18300101  0.83799302  1
  O2-  O297  1  0.33132143  0.69089989  0.16274452  1
  O2-  O298  1  0.33749255  0.68435804  0.49560683  1
  O2-  O299  1  0.33532035  0.67875652  0.83306737  1
  O2-  O300  1  0.67342330  0.18033300  0.16436255  1
  O2-  O301  1  0.66091936  0.18898403  0.49369584  1
  O2-  O302  1  0.65657275  0.17768510  0.82973520  1
  O2-  O303  1  0.66315141  0.67247192  0.17309227  1
  O2-  O304  1  0.66538042  0.67645304  0.50038000  1
  O2-  O305  1  0.68378504  0.68962952  0.83397967  1
  O2-  O306  1  0.16993773  0.17371786  0.16374040  1
  O2-  O307  1  0.16953189  0.18733378  0.49481040  1
  O2-  O308  1  0.17403529  0.18213334  0.82683286  1
  O2-  O309  1  0.16859510  0.69514683  0.16346044  1
  O2-  O310  1  0.16098774  0.67655259  0.50892052  1
  O2-  O311  1  0.16120495  0.68287396  0.83759980  1
  O2-  O312  1  0.49043834  0.19089586  0.16678877  1
  O2-  O313  1  0.49890789  0.19688775  0.50175947  1
  O2-  O314  1  0.50005409  0.16525155  0.83431370  1
  O2-  O315  1  0.49305878  0.68038090  0.17712627  1
  O2-  O316  1  0.50030052  0.68755120  0.49686601  1
  O2-  O317  1  0.49323938  0.67175040  0.83153330  1
  O2-  O318  1  0.82365260  0.17882447  0.17421302  1
  O2-  O319  1  0.83225380  0.18131957  0.50468039  1
  O2-  O320  1  0.83844587  0.17065893  0.83090310  1
  O2-  O321  1  0.83280167  0.67793946  0.17065007  1
  O2-  O322  1  0.83375808  0.69102396  0.50050515  1
  O2-  O323  1  0.83438261  0.67753190  0.83365554  1
  O2-  O324  1  -0.00410262  0.32082498  0.16739202  1
  O2-  O325  1  0.00044725  0.32172455  0.50182702  1
  O2-  O326  1  0.01399543  0.32935751  0.84343848  1
  O2-  O327  1  0.00429655  0.81097722  0.16912378  1
  O2-  O328  1  -0.00389841  0.82388126  0.50003111  1
  O2-  O329  1  0.00109013  0.82070653  0.83008701  1
  O2-  O330  1  0.33141664  0.31062553  0.15859571  1
  O2-  O331  1  0.33022347  0.31573470  0.49769559  1
  O2-  O332  1  0.33629596  0.32152863  0.83490074  1
  O2-  O333  1  0.33199986  0.81652533  0.16614052  1
  O2-  O334  1  0.33121367  0.82455661  0.49591228  1
  O2-  O335  1  0.34187521  0.82730525  0.84229577  1
  O2-  O336  1  0.66640795  0.31626922  0.15835637  1
  O2-  O337  1  0.66132096  0.32504338  0.49122045  1
  O2-  O338  1  0.66889831  0.32649300  0.83950497  1
  O2-  O339  1  0.66690362  0.82554212  0.17090870  1
  O2-  O340  1  0.66555741  0.83093911  0.49939957  1
  O2-  O341  1  0.66705808  0.81028086  0.83352784  1
  O2-  O342  1  0.15957281  0.32281972  0.16803962  1
  O2-  O343  1  0.16667125  0.31270245  0.49923854  1
  O2-  O344  1  0.16583049  0.32170474  0.83972285  1
  O2-  O345  1  0.16552025  0.81451041  0.17159911  1
  O2-  O346  1  0.16860429  0.83427204  0.49882273  1
  O2-  O347  1  0.16643811  0.80812966  0.83158421  1
  O2-  O348  1  0.50639934  0.31866443  0.15796218  1
  O2-  O349  1  0.50138276  0.31309143  0.49794811  1
  O2-  O350  1  0.50267475  0.33088587  0.83207260  1
  O2-  O351  1  0.50340516  0.81895875  0.16356046  1
  O2-  O352  1  0.50742217  0.82117181  0.48654951  1
  O2-  O353  1  0.49420045  0.82331779  0.83979871  1
  O2-  O354  1  0.83426339  0.31310514  0.16009609  1
  O2-  O355  1  0.83466435  0.32301271  0.49850413  1
  O2-  O356  1  0.83278361  0.32449339  0.83344654  1
  O2-  O357  1  0.82729692  0.82253078  0.17382907  1
  O2-  O358  1  0.83897930  0.81525452  0.49800847  1
  O2-  O359  1  0.83327995  0.82296145  0.83134746  1
  O2-  O360  1  0.07427713  0.06417264  0.12855130  1
  O2-  O361  1  0.10337528  0.08064264  0.44585139  1
  O2-  O362  1  0.10394584  0.08006056  0.77614418  1
  O2-  O363  1  0.10401411  0.58487509  0.11164755  1
  O2-  O364  1  0.05512237  0.57818189  0.45788677  1
  O2-  O365  1  0.06981719  0.57714912  0.77662674  1
  O2-  O366  1  0.41830849  0.07941644  0.12957542  1
  O2-  O367  1  0.43068491  0.08403598  0.43674428  1
  O2-  O368  1  0.39707789  0.08151645  0.77655448  1
  O2-  O369  1  0.40939407  0.57903551  0.12511396  1
  O2-  O370  1  0.41446489  0.58129761  0.45386673  1
  O2-  O371  1  0.40623372  0.57804305  0.77330319  1
  O2-  O372  1  0.75214741  0.07352369  0.11185404  1
  O2-  O373  1  0.73423370  0.08156326  0.46214216  1
  O2-  O374  1  0.73046701  0.06570526  0.80160519  1
  O2-  O375  1  0.74098222  0.57189761  0.11963055  1
  O2-  O376  1  0.76191081  0.58424975  0.43286939  1
  O2-  O377  1  0.78457957  0.55294018  0.81012673  1
  O2-  O378  1  0.26698232  0.08418330  0.22153660  1
  O2-  O379  1  0.25739956  0.08143452  0.53920818  1
  O2-  O380  1  0.25747246  0.08143516  0.87718263  1
  O2-  O381  1  0.25837412  0.58150359  0.20238911  1
  O2-  O382  1  0.24804447  0.56160819  0.53292177  1
  O2-  O383  1  0.23760976  0.58476003  0.90328410  1
  O2-  O384  1  0.58892764  0.07984984  0.24145561  1
  O2-  O385  1  0.57576702  0.08353930  0.53399998  1
  O2-  O386  1  0.58470358  0.08135971  0.89553301  1
  O2-  O387  1  0.58776398  0.58160527  0.22880684  1
  O2-  O388  1  0.57487135  0.57953546  0.54444309  1
  O2-  O389  1  0.59165877  0.57699097  0.90680217  1
  O2-  O390  1  0.91083587  0.08428186  0.21201427  1
  O2-  O391  1  0.92373549  0.07165926  0.55202927  1
  O2-  O392  1  0.91912483  0.06905459  0.87908000  1
  O2-  O393  1  0.90553671  0.57919168  0.23343608  1
  O2-  O394  1  0.90653712  0.58105356  0.54210795  1
  O2-  O395  1  0.93283051  0.58627129  0.88661593  1
  O2-  O396  1  0.07118889  0.42084342  0.12207937  1
  O2-  O397  1  0.09941192  0.42010314  0.45259944  1
  O2-  O398  1  0.09407254  0.42096314  0.77193687  1
  O2-  O399  1  0.10485659  0.91946216  0.11927628  1
  O2-  O400  1  0.05861103  0.92117482  0.45743827  1
  O2-  O401  1  0.07588625  0.92230707  0.77900156  1
  O2-  O402  1  0.43278407  0.42098282  0.11192031  1
  O2-  O403  1  0.41511416  0.41907772  0.44068592  1
  O2-  O404  1  0.41743226  0.42429954  0.78197386  1
  O2-  O405  1  0.41228379  0.91929791  0.12141454  1
  O2-  O406  1  0.41708049  0.91922253  0.43551562  1
  O2-  O407  1  0.41624070  0.92211569  0.77611849  1
  O2-  O408  1  0.75531010  0.42072660  0.12356729  1
  O2-  O409  1  0.74499422  0.41869108  0.43556190  1
  O2-  O410  1  0.73944968  0.42668452  0.78425141  1
  O2-  O411  1  0.73952667  0.92304789  0.11781052  1
  O2-  O412  1  0.77375763  0.91841910  0.45379509  1
  O2-  O413  1  0.77718742  0.91570354  0.73472371  1
  O2-  O414  1  0.24744592  0.41817877  0.21486266  1
  O2-  O415  1  0.23756085  0.42187945  0.54628264  1
  O2-  O416  1  0.24759243  0.41188276  0.90598413  1
  O2-  O417  1  0.25776810  0.91778456  0.23767071  1
  O2-  O418  1  0.25908319  0.92452450  0.54554281  1
  O2-  O419  1  0.23232274  0.91444546  0.89192808  1
  O2-  O420  1  0.60109079  0.41798997  0.21930909  1
  O2-  O421  1  0.58512742  0.42620790  0.53507871  1
  O2-  O422  1  0.58547617  0.42095403  0.89063522  1
  O2-  O423  1  0.57470422  0.91454852  0.22813102  1
  O2-  O424  1  0.57383103  0.92474459  0.54900792  1
  O2-  O425  1  0.57805171  0.91422092  0.88126898  1
  O2-  O426  1  0.90238162  0.41452293  0.22741159  1
  O2-  O427  1  0.91885140  0.42252267  0.54930632  1
  O2-  O428  1  0.91681963  0.42005107  0.88644614  1
  O2-  O429  1  0.93106690  0.91753491  0.21220361  1
  O2-  O430  1  0.90879966  0.91971841  0.56250239  1
  O2-  O431  1  0.92752215  0.91528031  0.89412000  1
  O2-  O432  1  0.01073342  0.01612501  -0.00715564  1
  O2-  O433  1  -0.00558284  -0.01329425  0.33850189  1
  O2-  O434  1  -0.00697246  -0.00617317  0.67746524  1
  O2-  O435  1  -0.01372535  0.50076707  0.00449814  1
  O2-  O436  1  -0.01688497  0.49018432  0.36730545  1
  O2-  O437  1  0.00457033  0.50174987  0.65333150  1
  O2-  O438  1  0.33121345  -0.00298315  -0.00482459  1
  O2-  O439  1  0.33156559  0.01254938  0.34127340  1
  O2-  O440  1  0.33724054  0.00042111  0.66100568  1
  O2-  O441  1  0.32416726  0.48944222  0.02273654  1
  O2-  O442  1  0.34384377  0.50951250  0.32677449  1
  O2-  O443  1  0.34103595  0.50503527  0.64904723  1
  O2-  O444  1  0.66613288  -0.00455546  0.01254685  1
  O2-  O445  1  0.64728657  -0.00726776  0.35993554  1
  O2-  O446  1  0.67883250  0.01438162  0.66088972  1
  O2-  O447  1  0.65373436  0.48759698  0.02271128  1
  O2-  O448  1  0.67067778  0.49744548  0.32281176  1
  O2-  O449  1  0.66943757  0.48259822  0.65720689  1
  O2-  O450  1  0.17490179  0.00842654  0.01545359  1
  O2-  O451  1  0.18267909  -0.01266058  0.38082695  1
  O2-  O452  1  0.14906561  0.00344315  0.63979794  1
  O2-  O453  1  0.15138509  0.49005750  -0.00351487  1
  O2-  O454  1  0.16387577  0.49687864  0.32582235  1
  O2-  O455  1  0.15848007  0.50289976  0.64445331  1
  O2-  O456  1  0.48782789  -0.00571750  -0.02777810  1
  O2-  O457  1  0.49419556  0.00209826  0.31939804  1
  O2-  O458  1  0.52289756  0.01809207  0.70658254  1
  O2-  O459  1  0.49634656  0.49946897  0.00049907  1
  O2-  O460  1  0.51374307  0.50336399  0.36735416  1
  O2-  O461  1  0.50834443  0.49682284  0.68649055  1
  O2-  O462  1  0.84942415  0.02516821  0.01325367  1
  O2-  O463  1  0.81793265  -0.00610190  0.31145280  1
  O2-  O464  1  0.84051336  0.02039284  0.67760361  1
  O2-  O465  1  0.81973039  0.49092088  -0.01800417  1
  O2-  O466  1  0.82257679  0.50927607  0.31722011  1
  O2-  O467  1  0.83099181  0.50361352  0.66537960  1
  O2-  O468  1  0.08247013  0.75612485  0.40511078  1
  O2-  O469  1  0.58577334  0.74912255  0.27830704  1
  O2-  O470  1  0.56731685  0.25395977  0.93187576  1
  O2-  O471  1  0.58968999  0.25444144  0.27228124  1
  O2-  O472  1  0.42018551  0.74997929  0.73234627  1
  O2-  O473  1  0.57459327  0.75235103  0.93573869  1
  O2-  O474  1  0.91889033  0.25789661  0.60984032  1
  O2-  O475  1  0.74406520  0.26018574  0.73807679  1
  O2-  O476  1  0.74027522  0.75030996  0.38579743  1
  O2-  O477  1  0.92228189  0.25693130  0.92858147  1
  O2-  O478  1  0.91977405  0.74800666  0.27805705  1
  O2-  O479  1  0.26803865  0.74919645  0.93903880  1
  O2-  O480  1  0.43708596  0.24980069  0.74040023  1
  O2-  O481  1  0.74780241  0.75690671  0.07259224  1
  O2-  O482  1  0.08056266  0.25629756  0.06195951  1
  O2-  O483  1  0.41673925  0.75102808  0.05224266  1
  O2-  O484  1  0.91443597  0.75121235  0.93336141  1
  O2-  O485  1  0.74986673  0.25016874  0.38694468  1
  O2-  O486  1  0.58204767  0.74715022  0.59666136  1
  O2-  O487  1  0.89714920  0.25002247  0.28047504  1
  O2-  O488  1  0.07613821  0.25001017  0.73190126  1
  O2-  O489  1  0.23183326  0.24777574  0.27348378  1
  O2-  O490  1  0.25177968  0.24617923  0.94355246  1
  O2-  O491  1  0.58669438  0.24881172  0.61866367  1
  O2-  O492  1  0.24912509  0.75612097  0.59352675  1
