# generated using pymatgen
data_Ca108Mn108O277
_symmetry_space_group_name_H-M   'P 1'
_cell_length_a   16.03031648
_cell_length_b   22.31137047
_cell_length_c   16.39189025
_cell_angle_alpha   90.00320500
_cell_angle_beta   89.99805221
_cell_angle_gamma   90.00250597
_symmetry_Int_Tables_number   1
_chemical_formula_structural   Ca108Mn108O277
_chemical_formula_sum   'Ca108 Mn108 O277'
_cell_volume   5862.69607160
_cell_formula_units_Z   1
loop_
 _symmetry_equiv_pos_site_id
 _symmetry_equiv_pos_as_xyz
  1  'x, y, z'
loop_
 _atom_type_symbol
 _atom_type_oxidation_number
  Ca2+  2.0
  Mn3.34+  3.34
  O2-  -2.0
loop_
 _atom_site_type_symbol
 _atom_site_label
 _atom_site_symmetry_multiplicity
 _atom_site_fract_x
 _atom_site_fract_y
 _atom_site_fract_z
 _atom_site_occupancy
  Ca2+  Ca0  1  0.08285974  0.24851154  0.24040605  1
  Ca2+  Ca1  1  0.06422668  0.25264529  0.56970375  1
  Ca2+  Ca2  1  0.08108055  0.24505658  0.93075580  1
  Ca2+  Ca3  1  0.08054771  0.74786100  0.25047299  1
  Ca2+  Ca4  1  0.09166665  0.75229683  0.58813574  1
  Ca2+  Ca5  1  0.07879241  0.75264918  0.90846958  1
  Ca2+  Ca6  1  0.42468504  0.23967457  0.25711109  1
  Ca2+  Ca7  1  0.43690132  0.24756226  0.55581635  1
  Ca2+  Ca8  1  0.41370113  0.25641124  0.92345242  1
  Ca2+  Ca9  1  0.41967841  0.75021903  0.26010395  1
  Ca2+  Ca10  1  0.41990978  0.75461500  0.56942117  1
  Ca2+  Ca11  1  0.44778144  0.74786023  0.92236963  1
  Ca2+  Ca12  1  0.72674431  0.24662964  0.25444869  1
  Ca2+  Ca13  1  0.75580010  0.23152696  0.59004322  1
  Ca2+  Ca14  1  0.75186969  0.25548295  0.91399352  1
  Ca2+  Ca15  1  0.74689742  0.75321734  0.25568739  1
  Ca2+  Ca16  1  0.74684901  0.73653142  0.58570332  1
  Ca2+  Ca17  1  0.73454597  0.75555242  0.91127524  1
  Ca2+  Ca18  1  0.22684445  0.23585172  0.08567183  1
  Ca2+  Ca19  1  0.26966119  0.25363230  0.40547833  1
  Ca2+  Ca20  1  0.25309334  0.25502016  0.75915788  1
  Ca2+  Ca21  1  0.24190448  0.74516828  0.08246211  1
  Ca2+  Ca22  1  0.26111846  0.74997186  0.42241621  1
  Ca2+  Ca23  1  0.24517714  0.75176844  0.74532196  1
  Ca2+  Ca24  1  0.56477333  0.25609989  0.09572191  1
  Ca2+  Ca25  1  0.56841631  0.22890918  0.41025103  1
  Ca2+  Ca26  1  0.58694621  0.25025287  0.73703982  1
  Ca2+  Ca27  1  0.58887122  0.75521470  0.06926657  1
  Ca2+  Ca28  1  0.58019651  0.74881528  0.41723847  1
  Ca2+  Ca29  1  0.59649889  0.74209133  0.76431768  1
  Ca2+  Ca30  1  0.94380219  0.24852104  0.08107447  1
  Ca2+  Ca31  1  0.92162953  0.24570049  0.42823903  1
  Ca2+  Ca32  1  0.91715712  0.25261470  0.73992418  1
  Ca2+  Ca33  1  0.91474062  0.76929233  0.07910466  1
  Ca2+  Ca34  1  0.91117274  0.75028411  0.41464519  1
  Ca2+  Ca35  1  0.90787005  0.75410854  0.74550850  1
  Ca2+  Ca36  1  0.57069346  0.58526206  0.05944152  1
  Ca2+  Ca37  1  0.91992510  0.08325205  0.40075988  1
  Ca2+  Ca38  1  0.44840083  0.10656350  0.56446843  1
  Ca2+  Ca39  1  0.41895697  0.59927317  0.56710918  1
  Ca2+  Ca40  1  0.59266718  0.09363078  0.09303711  1
  Ca2+  Ca41  1  0.76474086  0.06773836  0.25621275  1
  Ca2+  Ca42  1  0.74567494  0.58830959  0.28774156  1
  Ca2+  Ca43  1  0.92184390  0.09440444  0.08478883  1
  Ca2+  Ca44  1  0.25771274  0.09092271  0.74801051  1
  Ca2+  Ca45  1  0.06460563  0.09569360  0.93209240  1
  Ca2+  Ca46  1  0.26396615  0.58870968  0.10192550  1
  Ca2+  Ca47  1  0.27141971  0.08833126  0.39786169  1
  Ca2+  Ca48  1  0.92611851  0.58386043  0.09174592  1
  Ca2+  Ca49  1  0.86972321  0.60972567  0.42404439  1
  Ca2+  Ca50  1  0.05679869  0.10197915  0.57690550  1
  Ca2+  Ca51  1  0.59619668  0.09799260  0.72752800  1
  Ca2+  Ca52  1  0.91313349  0.58385128  0.09202623  1
  Ca2+  Ca53  1  0.08120891  0.59317135  0.57772142  1
  Ca2+  Ca54  1  0.23952663  0.57806485  0.39154746  1
  Ca2+  Ca55  1  0.41871021  0.09102097  0.91752352  1
  Ca2+  Ca56  1  0.08109115  0.57486412  0.28215060  1
  Ca2+  Ca57  1  0.22849354  0.58179404  0.73381699  1
  Ca2+  Ca58  1  0.77046538  0.08143936  0.93056961  1
  Ca2+  Ca59  1  0.04502350  0.10252437  0.57293490  1
  Ca2+  Ca60  1  0.69645147  0.58244769  0.89561498  1
  Ca2+  Ca61  1  0.58681749  0.10204675  0.72124507  1
  Ca2+  Ca62  1  0.43202704  0.09120260  0.91591194  1
  Ca2+  Ca63  1  0.26074623  0.08890711  0.39787835  1
  Ca2+  Ca64  1  0.08123469  0.10387022  0.23569394  1
  Ca2+  Ca65  1  0.58096118  0.09345131  0.09285823  1
  Ca2+  Ca66  1  0.91025828  0.10807311  0.74517306  1
  Ca2+  Ca67  1  0.44320753  0.09897185  0.25850060  1
  Ca2+  Ca68  1  0.44432463  0.59327573  0.93073005  1
  Ca2+  Ca69  1  0.89495229  0.58896986  0.73860772  1
  Ca2+  Ca70  1  0.62249862  0.60989632  0.41951967  1
  Ca2+  Ca71  1  0.25056557  0.57758580  0.39057528  1
  Ca2+  Ca72  1  0.24671438  0.90219889  0.41370840  1
  Ca2+  Ca73  1  0.07655104  0.39652797  0.90924597  1
  Ca2+  Ca74  1  0.07664295  0.90193872  0.26632956  1
  Ca2+  Ca75  1  0.41849772  0.90684364  0.57642301  1
  Ca2+  Ca76  1  0.08369267  0.41045673  0.58557831  1
  Ca2+  Ca77  1  0.58799614  0.41484030  0.41258896  1
  Ca2+  Ca78  1  0.58612446  0.90351481  0.75042511  1
  Ca2+  Ca79  1  0.58609257  0.41697942  0.06340501  1
  Ca2+  Ca80  1  0.59611677  0.40552458  0.76422870  1
  Ca2+  Ca81  1  0.74748837  0.41371738  0.24991898  1
  Ca2+  Ca82  1  0.91519467  0.91755745  0.39086932  1
  Ca2+  Ca83  1  0.74614729  0.89694912  0.57671272  1
  Ca2+  Ca84  1  0.75904528  0.89675693  0.57667290  1
  Ca2+  Ca85  1  0.75345657  0.40397654  0.58994495  1
  Ca2+  Ca86  1  0.76103564  0.41243768  0.92939274  1
  Ca2+  Ca87  1  0.23445879  0.42386494  0.39803673  1
  Ca2+  Ca88  1  0.40167503  0.41061491  0.25031689  1
  Ca2+  Ca89  1  0.10007145  0.41882137  0.26224754  1
  Ca2+  Ca90  1  0.59880884  0.41233028  0.41239155  1
  Ca2+  Ca91  1  0.24784392  0.89735363  0.09472491  1
  Ca2+  Ca92  1  0.09520410  0.40981358  0.58446499  1
  Ca2+  Ca93  1  0.92848971  0.41829390  0.40863074  1
  Ca2+  Ca94  1  0.42642204  0.41534843  0.93018308  1
  Ca2+  Ca95  1  0.91764070  0.41625092  0.40955185  1
  Ca2+  Ca96  1  0.76012618  0.41260978  0.24833572  1
  Ca2+  Ca97  1  0.39010653  0.41408748  0.24720594  1
  Ca2+  Ca98  1  0.24645481  0.40253876  0.74946437  1
  Ca2+  Ca99  1  0.58560121  0.90031750  0.40161364  1
  Ca2+  Ca100  1  0.26209228  0.90778164  0.74402609  1
  Ca2+  Ca101  1  0.25037723  0.90769751  0.74354748  1
  Ca2+  Ca102  1  0.42938579  0.90260249  0.92425887  1
  Ca2+  Ca103  1  0.41401179  0.39982307  0.58278710  1
  Ca2+  Ca104  1  0.06186930  0.90578092  0.91217235  1
  Ca2+  Ca105  1  0.05007216  0.90461337  0.91066735  1
  Ca2+  Ca106  1  0.60723284  0.40862007  0.76686726  1
  Ca2+  Ca107  1  0.26056336  0.89710546  0.09680787  1
  Mn3.34+  Mn108  1  0.08493852  0.33464094  0.08453542  1
  Mn3.34+  Mn109  1  0.08378435  0.33462605  0.41401497  1
  Mn3.34+  Mn110  1  0.08032374  0.33378373  0.75416747  1
  Mn3.34+  Mn111  1  0.07691909  0.83023369  0.08708168  1
  Mn3.34+  Mn112  1  0.08013728  0.82695641  0.42032331  1
  Mn3.34+  Mn113  1  0.07537309  0.83005697  0.74481447  1
  Mn3.34+  Mn114  1  0.40899540  0.33303410  0.08292242  1
  Mn3.34+  Mn115  1  0.41755662  0.33687787  0.41655719  1
  Mn3.34+  Mn116  1  0.41878273  0.33096709  0.75234966  1
  Mn3.34+  Mn117  1  0.42567276  0.83170375  0.09174061  1
  Mn3.34+  Mn118  1  0.42012267  0.83304939  0.41127839  1
  Mn3.34+  Mn119  1  0.42070916  0.83356276  0.74926645  1
  Mn3.34+  Mn120  1  0.75268570  0.33341662  0.08495379  1
  Mn3.34+  Mn121  1  0.75131442  0.33545189  0.42090374  1
  Mn3.34+  Mn122  1  0.76054889  0.33928059  0.75624346  1
  Mn3.34+  Mn123  1  0.74634383  0.84779661  0.08422939  1
  Mn3.34+  Mn124  1  0.75019330  0.82744188  0.41219723  1
  Mn3.34+  Mn125  1  0.75197809  0.82845997  0.75117280  1
  Mn3.34+  Mn126  1  0.24523036  0.33349182  0.24470397  1
  Mn3.34+  Mn127  1  0.25176845  0.33216472  0.58039325  1
  Mn3.34+  Mn128  1  0.25026353  0.33426137  0.92103169  1
  Mn3.34+  Mn129  1  0.25084179  0.82723416  0.25258772  1
  Mn3.34+  Mn130  1  0.24940580  0.83325961  0.57753929  1
  Mn3.34+  Mn131  1  0.24989249  0.83010986  0.91528433  1
  Mn3.34+  Mn132  1  0.57994723  0.33398941  0.24387784  1
  Mn3.34+  Mn133  1  0.58614022  0.33242972  0.58209515  1
  Mn3.34+  Mn134  1  0.58372338  0.32863351  0.92004485  1
  Mn3.34+  Mn135  1  0.58669795  0.83212111  0.24067326  1
  Mn3.34+  Mn136  1  0.58187318  0.83170002  0.58224706  1
  Mn3.34+  Mn137  1  0.59016782  0.83713985  0.91828897  1
  Mn3.34+  Mn138  1  0.91828562  0.32933112  0.24515435  1
  Mn3.34+  Mn139  1  0.91352288  0.32950614  0.58242327  1
  Mn3.34+  Mn140  1  0.91757054  0.33099663  0.91697087  1
  Mn3.34+  Mn141  1  0.91081545  0.83828516  0.24521596  1
  Mn3.34+  Mn142  1  0.92220542  0.83253673  0.57738376  1
  Mn3.34+  Mn143  1  0.89918414  0.83986831  0.91542291  1
  Mn3.34+  Mn144  1  0.41754711  0.66909704  0.09508759  1
  Mn3.34+  Mn145  1  0.08313628  0.66743697  0.08912326  1
  Mn3.34+  Mn146  1  0.23829948  0.65494433  0.91696548  1
  Mn3.34+  Mn147  1  0.24893452  0.66629283  0.24803879  1
  Mn3.34+  Mn148  1  0.41849407  0.66741347  0.41407345  1
  Mn3.34+  Mn149  1  0.74371571  0.66080253  0.74838226  1
  Mn3.34+  Mn150  1  0.08154564  0.66610436  0.74534229  1
  Mn3.34+  Mn151  1  0.24828243  0.17096176  0.91951798  1
  Mn3.34+  Mn152  1  0.75357945  0.17183199  0.75806906  1
  Mn3.34+  Mn153  1  0.57829238  0.66481161  0.24658107  1
  Mn3.34+  Mn154  1  0.41326597  0.66865684  0.74720316  1
  Mn3.34+  Mn155  1  0.75755342  0.17338592  0.08510024  1
  Mn3.34+  Mn156  1  0.08246654  0.16902772  0.40919680  1
  Mn3.34+  Mn157  1  0.25145163  0.16821447  0.24447760  1
  Mn3.34+  Mn158  1  0.75365157  0.66900581  0.08606784  1
  Mn3.34+  Mn159  1  0.08707072  0.17017925  0.75652445  1
  Mn3.34+  Mn160  1  0.24960368  0.66747126  0.57707073  1
  Mn3.34+  Mn161  1  0.58661221  0.67067585  0.58163804  1
  Mn3.34+  Mn162  1  0.91761588  0.67128456  0.58023029  1
  Mn3.34+  Mn163  1  0.42521093  0.66296800  0.74935836  1
  Mn3.34+  Mn164  1  0.74142689  0.66202631  0.08927524  1
  Mn3.34+  Mn165  1  0.74135287  0.16061766  0.41796869  1
  Mn3.34+  Mn166  1  0.91759537  0.16877907  0.91242021  1
  Mn3.34+  Mn167  1  0.91877169  0.67105367  0.25088259  1
  Mn3.34+  Mn168  1  0.08255013  0.66847975  0.42119098  1
  Mn3.34+  Mn169  1  0.25099405  0.66200297  0.91763514  1
  Mn3.34+  Mn170  1  0.58661800  0.16948747  0.91377376  1
  Mn3.34+  Mn171  1  0.92464829  0.65963956  0.91090419  1
  Mn3.34+  Mn172  1  0.41263240  0.16670273  0.08836284  1
  Mn3.34+  Mn173  1  0.25608061  0.16358796  0.58143957  1
  Mn3.34+  Mn174  1  0.74881681  0.16730957  0.08697955  1
  Mn3.34+  Mn175  1  0.91120438  0.66566933  0.91308995  1
  Mn3.34+  Mn176  1  0.24404892  0.16930256  0.58308591  1
  Mn3.34+  Mn177  1  0.91559669  0.16740754  0.24840193  1
  Mn3.34+  Mn178  1  0.41567514  0.17269627  0.75527014  1
  Mn3.34+  Mn179  1  0.75145659  0.16515832  0.41771919  1
  Mn3.34+  Mn180  1  0.58491204  -0.00646160  0.26052411  1
  Mn3.34+  Mn181  1  0.42146643  0.00018372  0.08556090  1
  Mn3.34+  Mn182  1  0.42449977  -0.00201299  0.74754704  1
  Mn3.34+  Mn183  1  0.42278419  -0.00355325  0.40921380  1
  Mn3.34+  Mn184  1  0.75798113  -0.00545899  0.76325036  1
  Mn3.34+  Mn185  1  0.07872504  -0.00156729  0.08694029  1
  Mn3.34+  Mn186  1  0.25339532  0.00005862  0.25093221  1
  Mn3.34+  Mn187  1  0.41467649  0.50551484  0.75509289  1
  Mn3.34+  Mn188  1  0.25146731  0.49702471  0.91497201  1
  Mn3.34+  Mn189  1  0.91967367  0.49766985  0.91516601  1
  Mn3.34+  Mn190  1  0.25338165  0.00128594  0.92222107  1
  Mn3.34+  Mn191  1  0.06734051  -0.00902382  0.08383945  1
  Mn3.34+  Mn192  1  0.59856167  -0.00313712  0.93099289  1
  Mn3.34+  Mn193  1  0.09628140  0.50052205  0.08163794  1
  Mn3.34+  Mn194  1  0.91068293  -0.00174229  0.57697936  1
  Mn3.34+  Mn195  1  0.42972326  0.50067264  0.75563450  1
  Mn3.34+  Mn196  1  0.76803340  -0.00106535  0.76135007  1
  Mn3.34+  Mn197  1  0.90449733  0.50374425  0.58612614  1
  Mn3.34+  Mn198  1  0.25105859  -0.00081236  0.58676626  1
  Mn3.34+  Mn199  1  0.59731278  0.50778679  0.59209279  1
  Mn3.34+  Mn200  1  0.89300811  0.50869692  0.58701932  1
  Mn3.34+  Mn201  1  0.08713406  0.49451899  0.07880276  1
  Mn3.34+  Mn202  1  0.07218486  0.00394502  0.75218488  1
  Mn3.34+  Mn203  1  0.74846651  0.50314199  0.07543229  1
  Mn3.34+  Mn204  1  0.74961766  -0.00108150  0.41475265  1
  Mn3.34+  Mn205  1  0.58934847  0.00050306  0.58355494  1
  Mn3.34+  Mn206  1  0.42190241  0.50239302  0.41402760  1
  Mn3.34+  Mn207  1  0.60748654  0.51272597  0.59806227  1
  Mn3.34+  Mn208  1  0.23905109  0.00736521  0.92472011  1
  Mn3.34+  Mn209  1  0.91825734  0.49600194  0.25179384  1
  Mn3.34+  Mn210  1  0.41217668  0.50109605  0.07543023  1
  Mn3.34+  Mn211  1  0.58477668  0.50114287  0.24399329  1
  Mn3.34+  Mn212  1  0.08314780  -0.00178441  0.40953553  1
  Mn3.34+  Mn213  1  0.25493494  0.50195200  0.57974746  1
  Mn3.34+  Mn214  1  0.07730199  0.50103131  0.74753742  1
  Mn3.34+  Mn215  1  0.06006090  0.00022229  0.74880927  1
  O2-  O216  1  -0.00943876  0.15903846  -0.00387604  1
  O2-  O217  1  -0.00012210  0.15021171  0.33121883  1
  O2-  O218  1  0.00980454  0.16578774  0.67130152  1
  O2-  O219  1  -0.00620379  0.64474120  0.00293361  1
  O2-  O220  1  0.00210596  0.67437506  0.33490153  1
  O2-  O221  1  0.00202049  0.66198237  0.66232164  1
  O2-  O222  1  0.34009948  0.15102869  -0.00646335  1
  O2-  O223  1  0.33596453  0.15671218  0.32753744  1
  O2-  O224  1  0.33271931  0.15999322  0.67206228  1
  O2-  O225  1  0.33103539  0.65836168  0.00356593  1
  O2-  O226  1  0.32410303  0.66398697  0.33872225  1
  O2-  O227  1  0.33332095  0.64145765  0.67267578  1
  O2-  O228  1  0.67349341  0.15522329  -0.00325154  1
  O2-  O229  1  0.67445395  0.15629960  0.32959797  1
  O2-  O230  1  0.67047920  0.17328831  0.67954394  1
  O2-  O231  1  0.66746239  0.64734726  0.00687012  1
  O2-  O232  1  0.66128214  0.67762065  0.32293615  1
  O2-  O233  1  0.66519251  0.65968654  0.66303515  1
  O2-  O234  1  0.16344800  0.15829043  -0.01454478  1
  O2-  O235  1  0.17245708  0.15218680  0.33733928  1
  O2-  O236  1  0.16698209  0.14614340  0.66558403  1
  O2-  O237  1  0.17180060  0.64357058  0.01607114  1
  O2-  O238  1  0.16635843  0.66952207  0.33542667  1
  O2-  O239  1  0.16538706  0.65275473  0.65904693  1
  O2-  O240  1  0.50616180  0.14547228  -0.00072080  1
  O2-  O241  1  0.49638799  0.16758411  0.33247678  1
  O2-  O242  1  0.49754521  0.16930507  0.67774440  1
  O2-  O243  1  0.49374602  0.67215114  0.01210441  1
  O2-  O244  1  0.50242430  0.66725466  0.33615248  1
  O2-  O245  1  0.49718294  0.64873477  0.66062239  1
  O2-  O246  1  0.83266787  0.16089090  0.00065715  1
  O2-  O247  1  0.82983198  0.14896488  0.33495112  1
  O2-  O248  1  0.83452989  0.17665230  0.68159656  1
  O2-  O249  1  0.83341084  0.64141283  0.00366742  1
  O2-  O250  1  0.83472999  0.67827090  0.32492732  1
  O2-  O251  1  0.84111250  0.66998728  0.66886971  1
  O2-  O252  1  0.00138066  0.34351144  -0.00075397  1
  O2-  O253  1  0.00014771  0.35496848  0.33046722  1
  O2-  O254  1  0.00552011  0.34067794  0.65843359  1
  O2-  O255  1  -0.00475469  0.84647168  0.00168254  1
  O2-  O256  1  -0.00263273  0.81976638  0.33404755  1
  O2-  O257  1  -0.00446760  0.81449768  0.66272203  1
  O2-  O258  1  0.33956127  0.34890569  -0.00765937  1
  O2-  O259  1  0.33116467  0.35137239  0.33914937  1
  O2-  O260  1  0.33428334  0.34082763  0.66999212  1
  O2-  O261  1  0.33034925  0.83162038  0.00378715  1
  O2-  O262  1  0.32679105  0.83357168  0.33874686  1
  O2-  O263  1  0.33553492  0.85090519  0.66309844  1
  O2-  O264  1  0.67047994  0.34258904  -0.00206240  1
  O2-  O265  1  0.66901389  0.35129287  0.32879439  1
  O2-  O266  1  0.66661343  0.34530371  0.67293737  1
  O2-  O267  1  0.66695765  0.83994022  0.00205367  1
  O2-  O268  1  0.66313601  0.81670188  0.33613046  1
  O2-  O269  1  0.66839569  0.84548978  0.66234230  1
  O2-  O270  1  0.16260043  0.34766152  -0.00548485  1
  O2-  O271  1  0.16742899  0.34722102  0.33619407  1
  O2-  O272  1  0.16393859  0.34399029  0.66762261  1
  O2-  O273  1  0.16130475  0.86026450  -0.00107662  1
  O2-  O274  1  0.16290012  0.81813586  0.33064377  1
  O2-  O275  1  0.17206395  0.84569939  0.67008725  1
  O2-  O276  1  0.50045504  0.34600306  0.00302408  1
  O2-  O277  1  0.49883153  0.36237883  0.32823872  1
  O2-  O278  1  0.50515615  0.35152934  0.67004138  1
  O2-  O279  1  0.49690318  0.83197702  -0.00006133  1
  O2-  O280  1  0.50507896  0.82498716  0.33169380  1
  O2-  O281  1  0.50056063  0.85444273  0.66419221  1
  O2-  O282  1  0.82733427  0.33296447  -0.00486146  1
  O2-  O283  1  0.83336275  0.35531891  0.33619907  1
  O2-  O284  1  0.82664001  0.32965958  0.66046049  1
  O2-  O285  1  0.82975861  0.83846112  0.00287186  1
  O2-  O286  1  0.83612177  0.82094613  0.33392166  1
  O2-  O287  1  0.83129846  0.83109062  0.65623487  1
  O2-  O288  1  -0.00606744  0.17941038  0.17389148  1
  O2-  O289  1  0.00603278  0.17589432  0.49315812  1
  O2-  O290  1  -0.00078117  0.18572509  0.82972505  1
  O2-  O291  1  -0.00673218  0.68462576  0.16090032  1
  O2-  O292  1  0.00572769  0.68872783  0.50127103  1
  O2-  O293  1  0.00069163  0.68690294  0.82620529  1
  O2-  O294  1  0.33310596  0.18332690  0.16579436  1
  O2-  O295  1  0.32871316  0.17920365  0.49705598  1
  O2-  O296  1  0.33704906  0.18404007  0.83672940  1
  O2-  O297  1  0.32815243  0.68875497  0.16882685  1
  O2-  O298  1  0.33919770  0.67880913  0.50532345  1
  O2-  O299  1  0.33507217  0.68654900  0.83515501  1
  O2-  O300  1  0.65880434  0.18838106  0.15199335  1
  O2-  O301  1  0.66832826  0.18238897  0.49656392  1
  O2-  O302  1  0.66194646  0.18496136  0.83217226  1
  O2-  O303  1  0.66367655  0.68904091  0.16626315  1
  O2-  O304  1  0.65855580  0.68791598  0.50080169  1
  O2-  O305  1  0.67575310  0.67342275  0.83305480  1
  O2-  O306  1  0.16327344  0.17594242  0.17842888  1
  O2-  O307  1  0.16069816  0.17914712  0.49990009  1
  O2-  O308  1  0.17460582  0.18652021  0.82704685  1
  O2-  O309  1  0.16698796  0.68766562  0.17351862  1
  O2-  O310  1  0.16614556  0.69059118  0.49484670  1
  O2-  O311  1  0.16950194  0.67223573  0.82648942  1
  O2-  O312  1  0.50061935  0.17365915  0.15845227  1
  O2-  O313  1  0.49748344  0.17555609  0.49444501  1
  O2-  O314  1  0.49572756  0.18210639  0.84049798  1
  O2-  O315  1  0.49914559  0.69071895  0.17030356  1
  O2-  O316  1  0.49649312  0.67780088  0.49962362  1
  O2-  O317  1  0.49753732  0.68049401  0.83101384  1
  O2-  O318  1  0.82973057  0.19439136  0.16957912  1
  O2-  O319  1  0.83241951  0.17825369  0.49085396  1
  O2-  O320  1  0.83102447  0.18810328  0.83900967  1
  O2-  O321  1  0.83716093  0.68118687  0.16224094  1
  O2-  O322  1  0.84138387  0.69064727  0.50344709  1
  O2-  O323  1  0.83670758  0.68293600  0.83100774  1
  O2-  O324  1  0.00135260  0.31793727  0.16984344  1
  O2-  O325  1  -0.00308189  0.32829535  0.49551503  1
  O2-  O326  1  0.00407394  0.31392676  0.83530858  1
  O2-  O327  1  0.00034046  0.81537937  0.17546618  1
  O2-  O328  1  -0.00012888  0.80914140  0.49920278  1
  O2-  O329  1  0.00060628  0.82097396  0.83929828  1
  O2-  O330  1  0.34109819  0.32556101  0.17971691  1
  O2-  O331  1  0.33861696  0.32153884  0.50333724  1
  O2-  O332  1  0.33553119  0.31585019  0.83167370  1
  O2-  O333  1  0.33147086  0.81574612  0.16484836  1
  O2-  O334  1  0.33693862  0.82619542  0.50063871  1
  O2-  O335  1  0.32450859  0.82191395  0.82003905  1
  O2-  O336  1  0.66543713  0.31746766  0.16508151  1
  O2-  O337  1  0.66745220  0.32746011  0.49941224  1
  O2-  O338  1  0.66636633  0.31282552  0.82895692  1
  O2-  O339  1  0.66832546  0.81432294  0.16418728  1
  O2-  O340  1  0.67029847  0.81805368  0.50207974  1
  O2-  O341  1  0.66133128  0.82870221  0.82388870  1
  O2-  O342  1  0.16622590  0.31810312  0.16820130  1
  O2-  O343  1  0.15556282  0.32554344  0.50717497  1
  O2-  O344  1  0.16756708  0.31740785  0.83200206  1
  O2-  O345  1  0.17347617  0.81688634  0.16115037  1
  O2-  O346  1  0.17100650  0.81649831  0.49507691  1
  O2-  O347  1  0.16135431  0.83659210  0.83631305  1
  O2-  O348  1  0.49285461  0.32685176  0.17079044  1
  O2-  O349  1  0.50632633  0.33117152  0.49467319  1
  O2-  O350  1  0.50577563  0.31377913  0.82730721  1
  O2-  O351  1  0.50312532  0.80597055  0.16720334  1
  O2-  O352  1  0.50291038  0.82731176  0.49793182  1
  O2-  O353  1  0.49642466  0.82355402  0.83379190  1
  O2-  O354  1  0.82282735  0.31895256  0.17834321  1
  O2-  O355  1  0.84087349  0.32881895  0.49083182  1
  O2-  O356  1  0.83685941  0.31232119  0.83120812  1
  O2-  O357  1  0.83228935  0.81793007  0.16989195  1
  O2-  O358  1  0.82851782  0.81587561  0.50039436  1
  O2-  O359  1  0.82909069  0.81261778  0.83301951  1
  O2-  O360  1  0.06035249  0.07674083  0.10637207  1
  O2-  O361  1  0.09176266  0.07754396  0.44895305  1
  O2-  O362  1  0.08375365  0.08206934  0.79362613  1
  O2-  O363  1  0.06722012  0.57620794  0.13551657  1
  O2-  O364  1  0.09933051  0.58855147  0.43655006  1
  O2-  O365  1  0.07762139  0.58275574  0.76424485  1
  O2-  O366  1  0.43387621  0.08043214  0.11668766  1
  O2-  O367  1  0.39327246  0.06792569  0.45263205  1
  O2-  O368  1  0.41557910  0.08076704  0.78040632  1
  O2-  O369  1  0.41146685  0.57972256  0.10711213  1
  O2-  O370  1  0.39884891  0.58272880  0.43252933  1
  O2-  O371  1  0.40984127  0.58261895  0.79771870  1
  O2-  O372  1  0.73722498  0.08737431  0.12643435  1
  O2-  O373  1  0.75237536  0.07986969  0.44592778  1
  O2-  O374  1  0.74762281  0.08133681  0.78665233  1
  O2-  O375  1  0.77120182  0.57986692  0.13055174  1
  O2-  O376  1  0.74689034  0.57605751  0.42142604  1
  O2-  O377  1  0.76210557  0.58391143  0.77241439  1
  O2-  O378  1  0.25618243  0.08163105  0.23637424  1
  O2-  O379  1  0.24310381  0.08152491  0.54568299  1
  O2-  O380  1  0.25696229  0.08539517  0.88134977  1
  O2-  O381  1  0.23675518  0.58559892  0.23799400  1
  O2-  O382  1  0.24695749  0.58289650  0.53762952  1
  O2-  O383  1  0.25894431  0.57850290  0.87203745  1
  O2-  O384  1  0.58782581  0.06786565  0.21812866  1
  O2-  O385  1  0.57884066  0.08105498  0.59309203  1
  O2-  O386  1  0.56950109  0.07639352  0.86621138  1
  O2-  O387  1  0.59972018  0.57957982  0.21441396  1
  O2-  O388  1  0.57406519  0.58541354  0.54389231  1
  O2-  O389  1  0.56552137  0.56480334  0.90338842  1
  O2-  O390  1  0.90399446  0.08690274  0.22133829  1
  O2-  O391  1  0.92444015  0.07444942  0.53804707  1
  O2-  O392  1  0.91283590  0.08796239  0.88090420  1
  O2-  O393  1  0.92280508  0.57882121  0.22927881  1
  O2-  O394  1  0.93270702  0.58353963  0.54419618  1
  O2-  O395  1  0.91693154  0.58087479  0.87302266  1
  O2-  O396  1  0.08564138  0.41833962  0.12456148  1
  O2-  O397  1  0.06879655  0.42188342  0.45211039  1
  O2-  O398  1  0.09623206  0.42216293  0.77677639  1
  O2-  O399  1  0.09052143  0.91586042  0.12837206  1
  O2-  O400  1  0.08533732  0.91587157  0.41417501  1
  O2-  O401  1  0.07364251  0.91718958  0.77189097  1
  O2-  O402  1  0.41786659  0.42270824  0.11468885  1
  O2-  O403  1  0.42557582  0.42450347  0.45274339  1
  O2-  O404  1  0.42238338  0.41979987  0.78800237  1
  O2-  O405  1  0.39252079  0.91929251  0.09613501  1
  O2-  O406  1  0.43183934  0.91701691  0.43504333  1
  O2-  O407  1  0.40404121  0.91811329  0.78435412  1
  O2-  O408  1  0.73887638  0.42497169  0.11489973  1
  O2-  O409  1  0.73978360  0.41889484  0.44828781  1
  O2-  O410  1  0.73565187  0.41650602  0.79993098  1
  O2-  O411  1  0.74833222  0.92079593  0.10477459  1
  O2-  O412  1  0.74803183  0.91768882  0.44220187  1
  O2-  O413  1  0.75753315  0.91230188  0.75393161  1
  O2-  O414  1  0.25356994  0.41753340  0.23406913  1
  O2-  O415  1  0.24194928  0.41743956  0.55398656  1
  O2-  O416  1  0.25013579  0.41607374  0.88294373  1
  O2-  O417  1  0.23395732  0.91847521  0.22612259  1
  O2-  O418  1  0.25621569  0.91753173  0.55166545  1
  O2-  O419  1  0.25990413  0.92358416  0.88103134  1
  O2-  O420  1  0.59071077  0.42158126  0.20759262  1
  O2-  O421  1  0.58336972  0.42742090  0.54867560  1
  O2-  O422  1  0.57780785  0.41227668  0.89634129  1
  O2-  O423  1  0.58069712  0.91478878  0.25109914  1
  O2-  O424  1  0.60759975  0.92026781  0.54876677  1
  O2-  O425  1  0.56777328  0.92304689  0.88622040  1
  O2-  O426  1  0.90145082  0.41739177  0.21962251  1
  O2-  O427  1  0.91009636  0.42176858  0.54929502  1
  O2-  O428  1  0.91440248  0.41392325  0.89326893  1
  O2-  O429  1  0.93469168  0.91495741  0.25099729  1
  O2-  O430  1  0.89504082  0.91890604  0.54416567  1
  O2-  O431  1  0.92001740  0.91722598  0.88503280  1
  O2-  O432  1  0.02753672  -0.00529413  -0.02757740  1
  O2-  O433  1  0.00050957  0.00554581  0.34479806  1
  O2-  O434  1  0.00724294  0.01833472  0.64673076  1
  O2-  O435  1  -0.00609524  0.51570345  0.01335838  1
  O2-  O436  1  0.00014644  0.48757509  0.32414308  1
  O2-  O437  1  0.00525921  0.49318728  0.65002718  1
  O2-  O438  1  0.34324634  0.01485725  -0.00680128  1
  O2-  O439  1  0.31993925  -0.00558620  0.35264274  1
  O2-  O440  1  0.32012803  -0.00393899  0.69052060  1
  O2-  O441  1  0.35496407  0.50439025  -0.02413498  1
  O2-  O442  1  0.33067284  0.49341297  0.34915793  1
  O2-  O443  1  0.32579989  0.50181794  0.67870510  1
  O2-  O444  1  0.66279981  0.03611536  0.00339814  1
  O2-  O445  1  0.67189441  0.00014556  0.33182973  1
  O2-  O446  1  0.65751054  0.00189871  0.69118655  1
  O2-  O447  1  0.66693183  0.50223374  0.00747407  1
  O2-  O448  1  0.67069603  0.48273215  0.31567138  1
  O2-  O449  1  0.65797436  0.47558419  0.68567497  1
  O2-  O450  1  0.18385187  -0.01070353  0.02507315  1
  O2-  O451  1  0.17048833  0.00969510  0.33818373  1
  O2-  O452  1  0.16853840  -0.00001885  0.68231202  1
  O2-  O453  1  0.18381104  0.51309614  0.00904353  1
  O2-  O454  1  0.16801719  0.50485859  0.34483259  1
  O2-  O455  1  0.16071222  0.49823894  0.65792349  1
  O2-  O456  1  0.49815739  0.01157055  -0.00886664  1
  O2-  O457  1  0.49319613  0.01116880  0.32420916  1
  O2-  O458  1  0.49456632  -0.01239056  0.65433137  1
  O2-  O459  1  0.50596527  0.49699228  0.02364080  1
  O2-  O460  1  0.50695290  0.48372708  0.33494604  1
  O2-  O461  1  0.49061911  0.50351472  0.65307304  1
  O2-  O462  1  0.84864646  0.02705774  0.01027539  1
  O2-  O463  1  0.84179235  0.00244520  0.35861978  1
  O2-  O464  1  0.83779630  0.00953729  0.66851147  1
  O2-  O465  1  0.83300066  0.51607999  0.00138652  1
  O2-  O466  1  0.83562901  0.48733231  0.32643730  1
  O2-  O467  1  0.82461810  0.49448982  0.67212125  1
  O2-  O468  1  0.57865941  0.24764863  0.95309730  1
  O2-  O469  1  0.22642313  0.74310101  0.93872555  1
  O2-  O470  1  0.41942769  0.24887697  0.06045426  1
  O2-  O471  1  0.56858543  0.75168355  0.61273739  1
  O2-  O472  1  0.41292992  0.74986836  0.40630024  1
  O2-  O473  1  0.10339455  0.74893208  0.73567131  1
  O2-  O474  1  0.24991909  0.25079511  0.27297760  1
  O2-  O475  1  0.75500840  0.24933471  0.39167454  1
  O2-  O476  1  0.41938840  0.25892946  0.39710766  1
  O2-  O477  1  0.57619208  0.25799228  0.27406963  1
  O2-  O478  1  0.92072335  0.25181496  0.58960383  1
  O2-  O479  1  0.91932070  0.25181165  0.28624625  1
  O2-  O480  1  0.25636923  0.25178329  0.94845393  1
  O2-  O481  1  0.59182902  0.75605101  0.92498698  1
  O2-  O482  1  0.57894947  0.25561369  0.59874959  1
  O2-  O483  1  0.74040389  0.74950799  0.73024627  1
  O2-  O484  1  0.08638877  0.25522054  0.06706017  1
  O2-  O485  1  0.41449765  0.75119399  0.71585719  1
  O2-  O486  1  0.92108514  0.25053520  0.94392260  1
  O2-  O487  1  0.75440699  0.74698826  0.05150233  1
  O2-  O488  1  0.25874517  0.75027689  0.60857934  1
  O2-  O489  1  0.24128443  0.24962823  0.61125474  1
  O2-  O490  1  0.08568770  0.75075027  0.04936470  1
  O2-  O491  1  0.08058556  0.25189092  0.39077086  1
  O2-  O492  1  0.92199583  0.74605138  0.94401876  1
