# generated using pymatgen
data_Ca108Mn108O277
_symmetry_space_group_name_H-M   'P 1'
_cell_length_a   16.02687315
_cell_length_b   22.30603607
_cell_length_c   16.38906183
_cell_angle_alpha   89.99830585
_cell_angle_beta   89.99772712
_cell_angle_gamma   90.00806970
_symmetry_Int_Tables_number   1
_chemical_formula_structural   Ca108Mn108O277
_chemical_formula_sum   'Ca108 Mn108 O277'
_cell_volume   5859.02415429
_cell_formula_units_Z   1
loop_
 _symmetry_equiv_pos_site_id
 _symmetry_equiv_pos_as_xyz
  1  'x, y, z'
loop_
 _atom_type_symbol
 _atom_type_oxidation_number
  Ca2+  2.0
  Mn3.34+  3.34
  O2-  -2.0
loop_
 _atom_site_type_symbol
 _atom_site_label
 _atom_site_symmetry_multiplicity
 _atom_site_fract_x
 _atom_site_fract_y
 _atom_site_fract_z
 _atom_site_occupancy
  Ca2+  Ca0  1  0.09451992  0.25179656  0.25870755  1
  Ca2+  Ca1  1  0.08070974  0.24710830  0.58131363  1
  Ca2+  Ca2  1  0.08040249  0.25180418  0.90354891  1
  Ca2+  Ca3  1  0.08969522  0.74692832  0.23342728  1
  Ca2+  Ca4  1  0.08870455  0.75842681  0.58276775  1
  Ca2+  Ca5  1  0.08465879  0.74514599  0.93642505  1
  Ca2+  Ca6  1  0.42420707  0.26311108  0.25538671  1
  Ca2+  Ca7  1  0.42787425  0.24988586  0.57794845  1
  Ca2+  Ca8  1  0.42649608  0.25533052  0.92257793  1
  Ca2+  Ca9  1  0.40633911  0.74572683  0.23259467  1
  Ca2+  Ca10  1  0.41680937  0.76115954  0.58271368  1
  Ca2+  Ca11  1  0.42067556  0.73773620  0.92646677  1
  Ca2+  Ca12  1  0.73218007  0.25425183  0.26099505  1
  Ca2+  Ca13  1  0.73912998  0.24355766  0.56822350  1
  Ca2+  Ca14  1  0.74196113  0.25780378  0.91486546  1
  Ca2+  Ca15  1  0.75701333  0.75537482  0.24206782  1
  Ca2+  Ca16  1  0.74524822  0.75653303  0.58763974  1
  Ca2+  Ca17  1  0.75234045  0.74036242  0.92042833  1
  Ca2+  Ca18  1  0.24786498  0.25452076  0.08850327  1
  Ca2+  Ca19  1  0.25013106  0.25772884  0.41369245  1
  Ca2+  Ca20  1  0.22960486  0.25369981  0.74983074  1
  Ca2+  Ca21  1  0.25014917  0.72255330  0.07854636  1
  Ca2+  Ca22  1  0.24798600  0.74437314  0.39537168  1
  Ca2+  Ca23  1  0.25104477  0.73935078  0.78679288  1
  Ca2+  Ca24  1  0.58319268  0.25811492  0.08867538  1
  Ca2+  Ca25  1  0.59134520  0.24482989  0.41419017  1
  Ca2+  Ca26  1  0.59106779  0.26115834  0.73869282  1
  Ca2+  Ca27  1  0.57668799  0.74431087  0.06773815  1
  Ca2+  Ca28  1  0.57438144  0.76498944  0.41167091  1
  Ca2+  Ca29  1  0.58009072  0.74478454  0.77903802  1
  Ca2+  Ca30  1  0.91700658  0.25190392  0.07505906  1
  Ca2+  Ca31  1  0.90774637  0.24495576  0.42449549  1
  Ca2+  Ca32  1  0.92918415  0.24713619  0.75163226  1
  Ca2+  Ca33  1  0.92623257  0.74087810  0.07031179  1
  Ca2+  Ca34  1  0.92498241  0.75714149  0.40539159  1
  Ca2+  Ca35  1  0.91704536  0.75017756  0.77812547  1
  Ca2+  Ca36  1  0.90316537  0.59402401  0.78396891  1
  Ca2+  Ca37  1  0.08706285  0.57522880  0.58291389  1
  Ca2+  Ca38  1  0.22796097  0.11864628  0.75465743  1
  Ca2+  Ca39  1  0.57454832  0.58688089  0.76232207  1
  Ca2+  Ca40  1  0.74706245  0.57923160  0.60928264  1
  Ca2+  Ca41  1  0.40994653  0.55883358  0.62680701  1
  Ca2+  Ca42  1  0.23484576  0.58454859  0.39193461  1
  Ca2+  Ca43  1  0.07727977  0.09800693  0.23766542  1
  Ca2+  Ca44  1  0.75832049  0.58803466  0.23117839  1
  Ca2+  Ca45  1  0.07594309  0.09557671  0.94397505  1
  Ca2+  Ca46  1  0.58266559  0.09931052  0.08768275  1
  Ca2+  Ca47  1  0.74542670  0.58716574  0.22973537  1
  Ca2+  Ca48  1  0.39492184  0.59899200  0.91147181  1
  Ca2+  Ca49  1  0.75044868  0.58728405  0.93218120  1
  Ca2+  Ca50  1  0.42054016  0.09261094  0.26228008  1
  Ca2+  Ca51  1  0.23596567  0.10573231  0.42249970  1
  Ca2+  Ca52  1  0.41306867  0.10285883  0.91205881  1
  Ca2+  Ca53  1  0.09082721  0.10643504  0.57368514  1
  Ca2+  Ca54  1  0.59436893  0.09960674  0.08864245  1
  Ca2+  Ca55  1  0.57913727  0.10632819  0.73699557  1
  Ca2+  Ca56  1  0.08679800  0.09648410  0.94513262  1
  Ca2+  Ca57  1  0.56974108  0.10215587  0.73853423  1
  Ca2+  Ca58  1  0.06967160  0.09428218  0.23312861  1
  Ca2+  Ca59  1  0.92825635  0.07572070  0.39965394  1
  Ca2+  Ca60  1  0.38761808  0.59769344  0.24099656  1
  Ca2+  Ca61  1  0.09951610  0.59480180  0.93090199  1
  Ca2+  Ca62  1  0.11333408  0.60398695  0.24116573  1
  Ca2+  Ca63  1  0.41034140  0.09611528  0.26807077  1
  Ca2+  Ca64  1  0.91202422  0.58345408  0.03799929  1
  Ca2+  Ca65  1  0.90315422  0.59322147  0.77380403  1
  Ca2+  Ca66  1  0.07440332  0.57355159  0.58179800  1
  Ca2+  Ca67  1  0.57676266  0.57811803  0.40964508  1
  Ca2+  Ca68  1  0.22547768  0.10566119  0.42376839  1
  Ca2+  Ca69  1  0.58587988  0.59451958  0.05739737  1
  Ca2+  Ca70  1  0.22998247  0.10421493  0.08351932  1
  Ca2+  Ca71  1  0.93926825  0.07420451  0.39888402  1
  Ca2+  Ca72  1  0.42231933  0.89791464  0.91777294  1
  Ca2+  Ca73  1  0.25568636  0.91351787  0.41135387  1
  Ca2+  Ca74  1  0.90724246  0.42074415  0.06617377  1
  Ca2+  Ca75  1  0.42662446  0.90461663  0.24972622  1
  Ca2+  Ca76  1  0.91228949  0.89430529  0.74880771  1
  Ca2+  Ca77  1  0.24964208  0.89764342  0.75266765  1
  Ca2+  Ca78  1  0.07262648  0.40987078  0.91810187  1
  Ca2+  Ca79  1  0.09336532  0.40770351  0.58721197  1
  Ca2+  Ca80  1  0.27025638  0.42700659  0.72608441  1
  Ca2+  Ca81  1  0.91252223  0.40658635  0.75950266  1
  Ca2+  Ca82  1  0.41517927  0.90462963  0.25072696  1
  Ca2+  Ca83  1  0.09015984  0.40703836  0.25007957  1
  Ca2+  Ca84  1  0.75779765  0.90780721  0.58695831  1
  Ca2+  Ca85  1  0.59953158  0.40845505  0.08540817  1
  Ca2+  Ca86  1  0.57286291  0.42144269  0.72931494  1
  Ca2+  Ca87  1  0.59518586  0.90909150  0.41868377  1
  Ca2+  Ca88  1  0.25957096  0.42782677  0.72597721  1
  Ca2+  Ca89  1  0.04833546  0.92439340  0.25722240  1
  Ca2+  Ca90  1  0.41659512  0.40608422  0.91426500  1
  Ca2+  Ca91  1  0.43404473  0.41690736  0.59052009  1
  Ca2+  Ca92  1  0.24294182  0.91237199  0.41213536  1
  Ca2+  Ca93  1  0.25777818  0.41120585  0.41904216  1
  Ca2+  Ca94  1  0.91736752  0.39906025  0.41735650  1
  Ca2+  Ca95  1  0.23980851  0.90196202  0.08204367  1
  Ca2+  Ca96  1  0.06011223  0.90775033  0.57565076  1
  Ca2+  Ca97  1  0.75995840  0.42177725  0.92945950  1
  Ca2+  Ca98  1  0.58394877  0.90109377  0.74376785  1
  Ca2+  Ca99  1  0.92880385  0.39886533  0.41796813  1
  Ca2+  Ca100  1  0.76087522  0.89806829  0.92033577  1
  Ca2+  Ca101  1  0.05856712  0.92453103  0.25482513  1
  Ca2+  Ca102  1  0.73236497  0.40504927  0.58662147  1
  Ca2+  Ca103  1  0.26254184  0.89752921  0.75291183  1
  Ca2+  Ca104  1  0.91857674  0.91243904  0.08164687  1
  Ca2+  Ca105  1  0.78011753  0.91632860  0.26139235  1
  Ca2+  Ca106  1  0.89812077  0.42298854  0.07032206  1
  Ca2+  Ca107  1  0.43125759  0.91207315  0.58328664  1
  Mn3.34+  Mn108  1  0.08717834  0.33402297  0.08691289  1
  Mn3.34+  Mn109  1  0.08809203  0.32822165  0.41844708  1
  Mn3.34+  Mn110  1  0.08338011  0.33382697  0.75032830  1
  Mn3.34+  Mn111  1  0.08073592  0.83799394  0.08359614  1
  Mn3.34+  Mn112  1  0.08046997  0.83858979  0.41863506  1
  Mn3.34+  Mn113  1  0.08270704  0.83440603  0.75075785  1
  Mn3.34+  Mn114  1  0.41660383  0.33214161  0.08637279  1
  Mn3.34+  Mn115  1  0.42095943  0.33517818  0.41690158  1
  Mn3.34+  Mn116  1  0.41423617  0.33244487  0.75536711  1
  Mn3.34+  Mn117  1  0.41959131  0.83400231  0.08239291  1
  Mn3.34+  Mn118  1  0.41554771  0.83785530  0.42034775  1
  Mn3.34+  Mn119  1  0.42020886  0.82905152  0.75205693  1
  Mn3.34+  Mn120  1  0.74934471  0.33352685  0.08834017  1
  Mn3.34+  Mn121  1  0.74574752  0.33018514  0.41573533  1
  Mn3.34+  Mn122  1  0.74907724  0.33525663  0.75173709  1
  Mn3.34+  Mn123  1  0.74734382  0.84065379  0.08693463  1
  Mn3.34+  Mn124  1  0.75580682  0.83812188  0.41855000  1
  Mn3.34+  Mn125  1  0.75106280  0.82855833  0.75405347  1
  Mn3.34+  Mn126  1  0.25572789  0.33637404  0.24703432  1
  Mn3.34+  Mn127  1  0.25334343  0.33540106  0.57945055  1
  Mn3.34+  Mn128  1  0.24848484  0.33636442  0.91602426  1
  Mn3.34+  Mn129  1  0.24572685  0.82859814  0.24296327  1
  Mn3.34+  Mn130  1  0.24754564  0.82978154  0.57810103  1
  Mn3.34+  Mn131  1  0.24671246  0.82926455  0.92437912  1
  Mn3.34+  Mn132  1  0.58108491  0.34168225  0.25496176  1
  Mn3.34+  Mn133  1  0.58122957  0.33681448  0.57824333  1
  Mn3.34+  Mn134  1  0.58451613  0.33708982  0.91416625  1
  Mn3.34+  Mn135  1  0.59141846  0.82737875  0.24420375  1
  Mn3.34+  Mn136  1  0.58666163  0.83473460  0.58166554  1
  Mn3.34+  Mn137  1  0.58612337  0.82901021  0.92028633  1
  Mn3.34+  Mn138  1  0.91723698  0.33396286  0.24128513  1
  Mn3.34+  Mn139  1  0.91478673  0.33591968  0.58833107  1
  Mn3.34+  Mn140  1  0.91528314  0.33584537  0.91383754  1
  Mn3.34+  Mn141  1  0.91454484  0.83005857  0.24451717  1
  Mn3.34+  Mn142  1  0.91508885  0.82626918  0.57817994  1
  Mn3.34+  Mn143  1  0.92295892  0.83333654  0.92080818  1
  Mn3.34+  Mn144  1  0.41113288  0.17592492  0.75164199  1
  Mn3.34+  Mn145  1  0.41569513  0.66472448  0.08131188  1
  Mn3.34+  Mn146  1  0.90107006  0.15979857  0.91555554  1
  Mn3.34+  Mn147  1  0.74934709  0.66448133  0.41869382  1
  Mn3.34+  Mn148  1  0.58229484  0.66548831  0.24147880  1
  Mn3.34+  Mn149  1  0.41565104  0.16879631  0.08658636  1
  Mn3.34+  Mn150  1  0.24702966  0.65950236  0.58332261  1
  Mn3.34+  Mn151  1  0.90559523  0.15560511  0.58599766  1
  Mn3.34+  Mn152  1  0.08445289  0.66388926  0.08383930  1
  Mn3.34+  Mn153  1  0.58809561  0.66671833  0.58269275  1
  Mn3.34+  Mn154  1  0.75810647  0.67040909  0.41616562  1
  Mn3.34+  Mn155  1  0.25526283  0.17925887  0.58440933  1
  Mn3.34+  Mn156  1  0.91130738  0.16469308  0.91660066  1
  Mn3.34+  Mn157  1  0.74695122  0.17235909  0.74866288  1
  Mn3.34+  Mn158  1  0.91141223  0.17314021  0.24382189  1
  Mn3.34+  Mn159  1  0.91721030  0.67027428  0.57985317  1
  Mn3.34+  Mn160  1  0.92067551  0.66658153  0.24416389  1
  Mn3.34+  Mn161  1  0.25772562  0.66428618  0.58322828  1
  Mn3.34+  Mn162  1  0.91762108  0.16393902  0.58681958  1
  Mn3.34+  Mn163  1  0.41330748  0.65619530  0.41695575  1
  Mn3.34+  Mn164  1  0.41612840  0.65776386  0.75654392  1
  Mn3.34+  Mn165  1  0.58520065  0.16851230  0.57339061  1
  Mn3.34+  Mn166  1  0.09040049  0.66134319  0.75696280  1
  Mn3.34+  Mn167  1  0.42414666  0.66438455  0.41322780  1
  Mn3.34+  Mn168  1  0.57567187  0.65978358  0.58041797  1
  Mn3.34+  Mn169  1  0.07577720  0.66608647  0.41843858  1
  Mn3.34+  Mn170  1  0.41711105  0.16618509  0.42385253  1
  Mn3.34+  Mn171  1  0.74726784  0.16984555  0.08319539  1
  Mn3.34+  Mn172  1  0.58539155  0.17247493  0.91414507  1
  Mn3.34+  Mn173  1  0.24765242  0.17388815  0.24399364  1
  Mn3.34+  Mn174  1  0.58763481  0.17196595  0.25651426  1
  Mn3.34+  Mn175  1  0.90253684  0.16718831  0.24186017  1
  Mn3.34+  Mn176  1  0.74881195  0.66908802  0.75346986  1
  Mn3.34+  Mn177  1  0.25235761  0.17695614  0.91943164  1
  Mn3.34+  Mn178  1  0.75149182  0.66695346  0.08228586  1
  Mn3.34+  Mn179  1  0.08061188  0.66704307  0.75523617  1
  Mn3.34+  Mn180  1  0.59310613  -0.00335863  0.24728638  1
  Mn3.34+  Mn181  1  0.42498057  0.49209546  0.40344058  1
  Mn3.34+  Mn182  1  0.41856923  0.00018315  0.08151651  1
  Mn3.34+  Mn183  1  0.58254167  0.00346922  0.58717138  1
  Mn3.34+  Mn184  1  0.92499798  0.50190829  0.24965525  1
  Mn3.34+  Mn185  1  0.91046834  -0.00372353  0.57493509  1
  Mn3.34+  Mn186  1  0.41022041  0.49973641  0.08396290  1
  Mn3.34+  Mn187  1  0.40057995  0.49467207  0.08114322  1
  Mn3.34+  Mn188  1  0.24567032  0.50074025  0.92132710  1
  Mn3.34+  Mn189  1  0.58684731  0.00363144  0.91885504  1
  Mn3.34+  Mn190  1  0.74545653  0.49940607  0.75246924  1
  Mn3.34+  Mn191  1  0.41855381  0.00002594  0.75292894  1
  Mn3.34+  Mn192  1  0.76157798  0.00106016  0.41251682  1
  Mn3.34+  Mn193  1  0.08697225  0.49857655  0.74805909  1
  Mn3.34+  Mn194  1  0.90894065  0.50315920  0.58474397  1
  Mn3.34+  Mn195  1  0.76189898  0.00657453  0.08446163  1
  Mn3.34+  Mn196  1  0.24489408  0.00054604  0.58286105  1
  Mn3.34+  Mn197  1  0.91774977  -0.00315301  0.92236423  1
  Mn3.34+  Mn198  1  0.60353170  0.00151274  0.24746458  1
  Mn3.34+  Mn199  1  0.08852177  0.49956671  0.07742071  1
  Mn3.34+  Mn200  1  0.24481993  0.00260189  0.24433372  1
  Mn3.34+  Mn201  1  0.25484613  0.49375835  0.25492037  1
  Mn3.34+  Mn202  1  0.24431260  0.00399508  0.91575475  1
  Mn3.34+  Mn203  1  0.74348828  0.49725388  0.41386620  1
  Mn3.34+  Mn204  1  0.75413643  0.50302821  0.41463908  1
  Mn3.34+  Mn205  1  0.25831997  -0.00228304  0.91557405  1
  Mn3.34+  Mn206  1  0.25929863  0.00625071  0.58475701  1
  Mn3.34+  Mn207  1  0.57510052  0.50172962  0.24636465  1
  Mn3.34+  Mn208  1  0.75233671  0.00179203  0.75439573  1
  Mn3.34+  Mn209  1  0.06176612  0.00198397  0.74945563  1
  Mn3.34+  Mn210  1  0.24866550  -0.00032432  0.22785640  1
  Mn3.34+  Mn211  1  0.08023322  0.49703078  0.40996152  1
  Mn3.34+  Mn212  1  0.07339937  0.00960031  0.74995245  1
  Mn3.34+  Mn213  1  0.58587017  0.49593196  0.92589808  1
  Mn3.34+  Mn214  1  0.59834439  -0.00080444  0.91919408  1
  Mn3.34+  Mn215  1  0.76435646  0.00925388  0.75151957  1
  O2-  O216  1  -0.00585455  0.16242098  0.00054497  1
  O2-  O217  1  -0.00524909  0.16076120  0.32631384  1
  O2-  O218  1  -0.00049735  0.15023524  0.66162243  1
  O2-  O219  1  0.00508034  0.65598089  0.00256321  1
  O2-  O220  1  0.00102125  0.66663714  0.33050290  1
  O2-  O221  1  0.00309332  0.65256383  0.66949931  1
  O2-  O222  1  0.33195075  0.15996200  0.00550595  1
  O2-  O223  1  0.32397608  0.15988043  0.33225385  1
  O2-  O224  1  0.33029216  0.19377715  0.67227886  1
  O2-  O225  1  0.33868887  0.66092163  0.00356404  1
  O2-  O226  1  0.32841513  0.65242261  0.34200158  1
  O2-  O227  1  0.33699719  0.66052578  0.66678385  1
  O2-  O228  1  0.66375513  0.15085257  -0.00289426  1
  O2-  O229  1  0.66627771  0.17227562  0.32765719  1
  O2-  O230  1  0.66300620  0.16452763  0.66783350  1
  O2-  O231  1  0.67040334  0.67155661  0.00904179  1
  O2-  O232  1  0.66675555  0.64688687  0.33243001  1
  O2-  O233  1  0.67127879  0.65653422  0.66529536  1
  O2-  O234  1  0.16551432  0.16923065  -0.00311590  1
  O2-  O235  1  0.16252220  0.14695794  0.31722572  1
  O2-  O236  1  0.16956159  0.17417440  0.65820181  1
  O2-  O237  1  0.16119997  0.66256012  0.00674496  1
  O2-  O238  1  0.16063456  0.66825631  0.34498911  1
  O2-  O239  1  0.15860290  0.64010067  0.66666780  1
  O2-  O240  1  0.50057224  0.14830464  0.00102422  1
  O2-  O241  1  0.49732141  0.15486971  0.33260609  1
  O2-  O242  1  0.49892078  0.17694350  0.67636028  1
  O2-  O243  1  0.49436879  0.65530904  0.00010302  1
  O2-  O244  1  0.49813124  0.64394619  0.32697944  1
  O2-  O245  1  0.49634828  0.65944616  0.66748423  1
  O2-  O246  1  0.83215544  0.15626431  0.00385271  1
  O2-  O247  1  0.84049646  0.15968105  0.33573917  1
  O2-  O248  1  0.83341131  0.15671037  0.67273732  1
  O2-  O249  1  0.82888101  0.67088107  0.00550592  1
  O2-  O250  1  0.82973245  0.65476083  0.32535590  1
  O2-  O251  1  0.83569411  0.66466055  0.66714322  1
  O2-  O252  1  -0.00422394  0.34401615  0.00660845  1
  O2-  O253  1  0.00324186  0.34365174  0.32868394  1
  O2-  O254  1  0.00113446  0.35487966  0.66835057  1
  O2-  O255  1  -0.00320866  0.84968625  0.00592897  1
  O2-  O256  1  0.00237765  0.84252670  0.33043642  1
  O2-  O257  1  -0.00053640  0.83480805  0.66191608  1
  O2-  O258  1  0.33610353  0.33038819  -0.00714924  1
  O2-  O259  1  0.32966668  0.34375327  0.33899629  1
  O2-  O260  1  0.33076770  0.33226937  0.66967114  1
  O2-  O261  1  0.33300835  0.85022084  0.00119307  1
  O2-  O262  1  0.33170222  0.85037983  0.33211639  1
  O2-  O263  1  0.33685126  0.84013082  0.66537291  1
  O2-  O264  1  0.67094660  0.35150598  -0.00503718  1
  O2-  O265  1  0.66773589  0.33455361  0.33255902  1
  O2-  O266  1  0.66153966  0.34575320  0.67488823  1
  O2-  O267  1  0.67689390  0.83036646  -0.00673003  1
  O2-  O268  1  0.67050186  0.83816463  0.33424614  1
  O2-  O269  1  0.67468178  0.84139448  0.66378901  1
  O2-  O270  1  0.16251961  0.31415864  -0.00278190  1
  O2-  O271  1  0.16992188  0.34821428  0.33877503  1
  O2-  O272  1  0.17330180  0.34311393  0.67153238  1
  O2-  O273  1  0.16273919  0.84543253  0.00012828  1
  O2-  O274  1  0.16821218  0.84421669  0.33384261  1
  O2-  O275  1  0.16443280  0.85556017  0.65807797  1
  O2-  O276  1  0.50207787  0.35025341  -0.00117148  1
  O2-  O277  1  0.49783589  0.34232870  0.33329996  1
  O2-  O278  1  0.49543313  0.33540392  0.66993296  1
  O2-  O279  1  0.50308445  0.84503969  0.00090928  1
  O2-  O280  1  0.50340116  0.85439483  0.34022823  1
  O2-  O281  1  0.49884947  0.84012080  0.66567683  1
  O2-  O282  1  0.83521331  0.34359812  -0.00091082  1
  O2-  O283  1  0.84382947  0.33600139  0.33638212  1
  O2-  O284  1  0.83005080  0.35484161  0.66748321  1
  O2-  O285  1  0.83649546  0.84021092  0.00382439  1
  O2-  O286  1  0.83148277  0.83224842  0.32973171  1
  O2-  O287  1  0.83558417  0.81706485  0.67045846  1
  O2-  O288  1  -0.00303382  0.18590539  0.17041362  1
  O2-  O289  1  -0.00695813  0.17345997  0.50070313  1
  O2-  O290  1  -0.00179900  0.17325406  0.84483181  1
  O2-  O291  1  -0.00065508  0.67622652  0.16744212  1
  O2-  O292  1  0.00393588  0.69140747  0.50781806  1
  O2-  O293  1  -0.00793980  0.67090267  0.82893865  1
  O2-  O294  1  0.33923218  0.18204571  0.17308812  1
  O2-  O295  1  0.32915348  0.18453127  0.49371310  1
  O2-  O296  1  0.33468480  0.18598008  0.83725302  1
  O2-  O297  1  0.34216899  0.67483743  0.16583672  1
  O2-  O298  1  0.33642117  0.68621015  0.49754798  1
  O2-  O299  1  0.34487914  0.67898208  0.83283683  1
  O2-  O300  1  0.65444289  0.18075627  0.15634993  1
  O2-  O301  1  0.66035523  0.17331091  0.50005619  1
  O2-  O302  1  0.65474510  0.18460670  0.82130827  1
  O2-  O303  1  0.67517809  0.68240298  0.17446196  1
  O2-  O304  1  0.66137900  0.69042862  0.49205805  1
  O2-  O305  1  0.67301326  0.68344035  0.82819222  1
  O2-  O306  1  0.16697416  0.18020395  0.16748004  1
  O2-  O307  1  0.17515503  0.18175950  0.50031246  1
  O2-  O308  1  0.17183886  0.18667143  0.84197449  1
  O2-  O309  1  0.15950793  0.67727089  0.16673856  1
  O2-  O310  1  0.16480766  0.68191516  0.50466424  1
  O2-  O311  1  0.15754065  0.67562944  0.84469399  1
  O2-  O312  1  0.50022775  0.16928127  0.16640761  1
  O2-  O313  1  0.49730958  0.17790753  0.50125200  1
  O2-  O314  1  0.49619490  0.18136531  0.83697348  1
  O2-  O315  1  0.50573747  0.67902241  0.16268664  1
  O2-  O316  1  0.50210762  0.68360650  0.49134426  1
  O2-  O317  1  0.49752136  0.67433609  0.82430993  1
  O2-  O318  1  0.82285236  0.19381428  0.16935881  1
  O2-  O319  1  0.83402097  0.17850064  0.50627583  1
  O2-  O320  1  0.82592965  0.18290197  0.83462168  1
  O2-  O321  1  0.82965834  0.68113479  0.16931816  1
  O2-  O322  1  0.83338320  0.69380676  0.50097473  1
  O2-  O323  1  0.83369373  0.67838113  0.82607549  1
  O2-  O324  1  0.00315538  0.30768205  0.16825518  1
  O2-  O325  1  -0.00335342  0.32400097  0.49637746  1
  O2-  O326  1  -0.00000326  0.32783193  0.83393822  1
  O2-  O327  1  0.00282546  0.82555235  0.17191941  1
  O2-  O328  1  0.00207628  0.81412922  0.49889080  1
  O2-  O329  1  -0.00300079  0.82553882  0.82680756  1
  O2-  O330  1  0.33488294  0.31368326  0.16680681  1
  O2-  O331  1  0.33092650  0.31349860  0.50272693  1
  O2-  O332  1  0.33178130  0.30923012  0.83288973  1
  O2-  O333  1  0.33632564  0.82877826  0.17034709  1
  O2-  O334  1  0.32874013  0.81727012  0.49512195  1
  O2-  O335  1  0.33492132  0.81818053  0.83207782  1
  O2-  O336  1  0.66488509  0.32262524  0.16322155  1
  O2-  O337  1  0.67408966  0.32748322  0.50773875  1
  O2-  O338  1  0.66815043  0.32142313  0.83389053  1
  O2-  O339  1  0.66591472  0.80806274  0.15975913  1
  O2-  O340  1  0.66737879  0.81941806  0.49608581  1
  O2-  O341  1  0.66595010  0.81942151  0.83015077  1
  O2-  O342  1  0.16486874  0.31672625  0.17060389  1
  O2-  O343  1  0.16419887  0.31717806  0.50867130  1
  O2-  O344  1  0.16379813  0.32052431  0.83706221  1
  O2-  O345  1  0.16417767  0.82365382  0.16573380  1
  O2-  O346  1  0.16711870  0.81107062  0.49002810  1
  O2-  O347  1  0.17739543  0.82560874  0.82284665  1
  O2-  O348  1  0.50376058  0.32453909  0.16164057  1
  O2-  O349  1  0.49625143  0.32312358  0.50338871  1
  O2-  O350  1  0.49798219  0.31624075  0.83254801  1
  O2-  O351  1  0.49166256  0.82608740  0.18048559  1
  O2-  O352  1  0.49658173  0.82589858  0.50154448  1
  O2-  O353  1  0.50134116  0.82510814  0.83248769  1
  O2-  O354  1  0.83694990  0.31275357  0.16271094  1
  O2-  O355  1  0.84047041  0.32449962  0.49727584  1
  O2-  O356  1  0.83700558  0.32316211  0.82965906  1
  O2-  O357  1  0.83438468  0.81725445  0.16227670  1
  O2-  O358  1  0.83045752  0.81013308  0.50106895  1
  O2-  O359  1  0.83070226  0.81788521  0.83893525  1
  O2-  O360  1  0.11149842  0.06310421  0.12301191  1
  O2-  O361  1  0.10255567  0.07216576  0.44986852  1
  O2-  O362  1  0.10379686  0.07486516  0.81010012  1
  O2-  O363  1  0.08232562  0.57803985  0.10924626  1
  O2-  O364  1  0.09154507  0.57750101  0.44823670  1
  O2-  O365  1  0.06384759  0.57684951  0.78762422  1
  O2-  O366  1  0.42267045  0.08065033  0.12378893  1
  O2-  O367  1  0.37693263  0.08334458  0.41498433  1
  O2-  O368  1  0.43146837  0.08327833  0.77102222  1
  O2-  O369  1  0.42707196  0.57933151  0.11284436  1
  O2-  O370  1  0.42782005  0.57460648  0.46566532  1
  O2-  O371  1  0.42465129  0.57911879  0.77019229  1
  O2-  O372  1  0.73151157  0.08502390  0.11762002  1
  O2-  O373  1  0.80066017  0.06401436  0.46003645  1
  O2-  O374  1  0.72616689  0.08668603  0.77200441  1
  O2-  O375  1  0.74648670  0.58477305  0.09606988  1
  O2-  O376  1  0.74629940  0.58000258  0.46973928  1
  O2-  O377  1  0.75371901  0.57980116  0.78379433  1
  O2-  O378  1  0.26752211  0.08524354  0.21870145  1
  O2-  O379  1  0.25260501  0.08801822  0.56692173  1
  O2-  O380  1  0.26513905  0.08253892  0.88157715  1
  O2-  O381  1  0.25164199  0.57036255  0.22948442  1
  O2-  O382  1  0.23818563  0.58040962  0.54674185  1
  O2-  O383  1  0.24560208  0.57207426  0.88240047  1
  O2-  O384  1  0.58303079  0.08388247  0.22577174  1
  O2-  O385  1  0.57185135  0.08511303  0.59904948  1
  O2-  O386  1  0.57912096  0.08201826  0.87404058  1
  O2-  O387  1  0.60464672  0.58078530  0.20321252  1
  O2-  O388  1  0.59550878  0.58211174  0.55046577  1
  O2-  O389  1  0.59489842  0.57059732  0.89427248  1
  O2-  O390  1  0.92675855  0.08466284  0.22532336  1
  O2-  O391  1  0.93361571  0.07779455  0.54518540  1
  O2-  O392  1  0.91797498  0.07764968  0.88664242  1
  O2-  O393  1  0.89866392  0.58135105  0.21310598  1
  O2-  O394  1  0.93401449  0.58312600  0.55469276  1
  O2-  O395  1  0.89467724  0.56750555  0.89735038  1
  O2-  O396  1  0.07497646  0.42078527  0.11248674  1
  O2-  O397  1  0.07633051  0.41745323  0.45011038  1
  O2-  O398  1  0.09655446  0.41981553  0.77903944  1
  O2-  O399  1  0.08254406  0.92038295  0.12051396  1
  O2-  O400  1  0.10935202  0.92000977  0.45236487  1
  O2-  O401  1  0.09147992  0.92258000  0.77545265  1
  O2-  O402  1  0.41141136  0.41465665  0.10571190  1
  O2-  O403  1  0.40108124  0.41896838  0.45408349  1
  O2-  O404  1  0.40087088  0.41234211  0.77711633  1
  O2-  O405  1  0.41152251  0.91953744  0.11676567  1
  O2-  O406  1  0.39840298  0.91932752  0.44777198  1
  O2-  O407  1  0.39828216  0.91948963  0.78476591  1
  O2-  O408  1  0.76178555  0.41378635  0.10312330  1
  O2-  O409  1  0.76757568  0.41745889  0.44332710  1
  O2-  O410  1  0.75323658  0.42042373  0.78252032  1
  O2-  O411  1  0.76206080  0.92759659  0.12451557  1
  O2-  O412  1  0.74075517  0.92651901  0.45498353  1
  O2-  O413  1  0.76304150  0.92036582  0.78064108  1
  O2-  O414  1  0.23923689  0.41689279  0.22150489  1
  O2-  O415  1  0.24371995  0.41358606  0.56263939  1
  O2-  O416  1  0.25511766  0.42539624  0.87189296  1
  O2-  O417  1  0.24558590  0.91617790  0.21657269  1
  O2-  O418  1  0.25623027  0.92056045  0.54840580  1
  O2-  O419  1  0.25444294  0.91741403  0.88544010  1
  O2-  O420  1  0.58528071  0.42162760  0.22212378  1
  O2-  O421  1  0.58280409  0.41719375  0.57607060  1
  O2-  O422  1  0.56935313  0.42310520  0.87750360  1
  O2-  O423  1  0.59652042  0.91453338  0.22477129  1
  O2-  O424  1  0.58213861  0.92342342  0.55268905  1
  O2-  O425  1  0.59110253  0.91787095  0.88573713  1
  O2-  O426  1  0.92528853  0.42270230  0.20700843  1
  O2-  O427  1  0.91291017  0.42314856  0.55018372  1
  O2-  O428  1  0.91966176  0.41752207  0.90101117  1
  O2-  O429  1  0.91651226  0.91536374  0.22465660  1
  O2-  O430  1  0.90898562  0.91322149  0.56064092  1
  O2-  O431  1  0.90768257  0.92010300  0.88329724  1
  O2-  O432  1  0.01635418  0.00651441  -0.03458453  1
  O2-  O433  1  0.01937362  0.01559130  0.30367800  1
  O2-  O434  1  0.00688115  -0.00591068  0.64914256  1
  O2-  O435  1  -0.00937166  0.49682017  0.02819528  1
  O2-  O436  1  -0.01182859  0.47603224  0.34177921  1
  O2-  O437  1  0.00848742  0.50134750  0.65289759  1
  O2-  O438  1  0.32872382  -0.00181492  0.00538224  1
  O2-  O439  1  0.33296407  -0.01923131  0.31746770  1
  O2-  O440  1  0.32783963  -0.01578376  0.67443938  1
  O2-  O441  1  0.35138282  0.50128267  -0.02683954  1
  O2-  O442  1  0.32100836  0.50396090  0.35164917  1
  O2-  O443  1  0.34153667  0.48059167  0.65132591  1
  O2-  O444  1  0.65865754  0.00711433  0.01931369  1
  O2-  O445  1  0.66714678  -0.00494185  0.34571155  1
  O2-  O446  1  0.66838946  -0.01049490  0.67107178  1
  O2-  O447  1  0.67597962  0.49515206  -0.01631343  1
  O2-  O448  1  0.66396018  0.51976611  0.33137421  1
  O2-  O449  1  0.66662205  0.50750642  0.67847812  1
  O2-  O450  1  0.16666446  0.02125252  -0.00758387  1
  O2-  O451  1  0.17098583  -0.01236718  0.33236623  1
  O2-  O452  1  0.16604333  0.00693394  0.67217695  1
  O2-  O453  1  0.14026570  0.49548172  -0.03268398  1
  O2-  O454  1  0.15802367  0.50187916  0.32365117  1
  O2-  O455  1  0.16490702  0.49904159  0.66376194  1
  O2-  O456  1  0.49068941  0.01203156  -0.01533950  1
  O2-  O457  1  0.47866935  -0.00140891  0.28287577  1
  O2-  O458  1  0.50354299  -0.01655357  0.67537786  1
  O2-  O459  1  0.51625698  0.49729459  0.01966460  1
  O2-  O460  1  0.49090129  0.52478216  0.32157394  1
  O2-  O461  1  0.50384614  0.49594020  0.67181996  1
  O2-  O462  1  0.83488482  -0.01706510  -0.00098785  1
  O2-  O463  1  0.84814248  -0.00471900  0.34539210  1
  O2-  O464  1  0.83581220  -0.01134332  0.66457908  1
  O2-  O465  1  0.83306458  0.49497388  0.01396987  1
  O2-  O466  1  0.82638032  0.50599122  0.32143959  1
  O2-  O467  1  0.84256951  0.51490603  0.68463743  1
  O2-  O468  1  0.25453400  0.75235038  0.26214071  1
  O2-  O469  1  0.43134005  0.24884534  0.06246905  1
  O2-  O470  1  0.08550108  0.25194928  0.39731561  1
  O2-  O471  1  0.57371443  0.25308016  0.26350145  1
  O2-  O472  1  0.09904084  0.74804649  0.72331122  1
  O2-  O473  1  0.93151244  0.75542498  0.93128883  1
  O2-  O474  1  0.75314890  0.25350352  0.72284616  1
  O2-  O475  1  0.42188631  0.75175930  0.06740054  1
  O2-  O476  1  0.74241257  0.24997595  0.05244635  1
  O2-  O477  1  0.07506034  0.75265247  0.07131725  1
  O2-  O478  1  0.24462608  0.74367768  0.61652818  1
  O2-  O479  1  0.42108042  0.25021782  0.39459032  1
  O2-  O480  1  0.57675734  0.74710045  0.60294091  1
  O2-  O481  1  0.24570465  0.25265214  0.27558393  1
  O2-  O482  1  0.58753679  0.25140567  0.59460708  1
  O2-  O483  1  0.58537190  0.25263290  0.94583834  1
  O2-  O484  1  0.57490005  0.74642449  0.27822620  1
  O2-  O485  1  0.24624842  0.75219245  0.93706698  1
  O2-  O486  1  0.41987592  0.75104783  0.38721081  1
  O2-  O487  1  0.92137889  0.24757597  0.60834218  1
  O2-  O488  1  0.07352037  0.25657156  0.73015795  1
  O2-  O489  1  0.91644931  0.74885808  0.26837261  1
  O2-  O490  1  0.91373632  0.25004847  0.93384297  1
  O2-  O491  1  0.57332964  0.75180524  0.92875180  1
  O2-  O492  1  0.75088695  0.25228416  0.40897317  1
