# generated using pymatgen
data_Ca108Mn108O277
_symmetry_space_group_name_H-M   'P 1'
_cell_length_a   16.03193285
_cell_length_b   22.31170858
_cell_length_c   16.39271239
_cell_angle_alpha   90.00690309
_cell_angle_beta   90.00234508
_cell_angle_gamma   90.00894245
_symmetry_Int_Tables_number   1
_chemical_formula_structural   Ca108Mn108O277
_chemical_formula_sum   'Ca108 Mn108 O277'
_cell_volume   5863.67005030
_cell_formula_units_Z   1
loop_
 _symmetry_equiv_pos_site_id
 _symmetry_equiv_pos_as_xyz
  1  'x, y, z'
loop_
 _atom_type_symbol
 _atom_type_oxidation_number
  Ca2+  2.0
  Mn3.34+  3.34
  O2-  -2.0
loop_
 _atom_site_type_symbol
 _atom_site_label
 _atom_site_symmetry_multiplicity
 _atom_site_fract_x
 _atom_site_fract_y
 _atom_site_fract_z
 _atom_site_occupancy
  Ca2+  Ca0  1  0.09914838  0.25460455  0.25373510  1
  Ca2+  Ca1  1  0.08234174  0.24013947  0.60243984  1
  Ca2+  Ca2  1  0.07688089  0.24711128  0.89338646  1
  Ca2+  Ca3  1  0.05882585  0.74592967  0.25198704  1
  Ca2+  Ca4  1  0.07538926  0.73092951  0.60268042  1
  Ca2+  Ca5  1  0.07572108  0.75760843  0.89782778  1
  Ca2+  Ca6  1  0.40573394  0.24342943  0.27025411  1
  Ca2+  Ca7  1  0.41648793  0.23888033  0.57679818  1
  Ca2+  Ca8  1  0.40590424  0.25041452  0.89887822  1
  Ca2+  Ca9  1  0.43036859  0.75579185  0.24761545  1
  Ca2+  Ca10  1  0.39778175  0.75533711  0.58166169  1
  Ca2+  Ca11  1  0.42710669  0.75736112  0.92309653  1
  Ca2+  Ca12  1  0.74205470  0.24932762  0.24766731  1
  Ca2+  Ca13  1  0.74789192  0.24564453  0.60113367  1
  Ca2+  Ca14  1  0.76689309  0.24292259  0.90551345  1
  Ca2+  Ca15  1  0.74807909  0.75117851  0.24810373  1
  Ca2+  Ca16  1  0.76647169  0.74599600  0.57823562  1
  Ca2+  Ca17  1  0.75127632  0.73776376  0.91860939  1
  Ca2+  Ca18  1  0.24055406  0.25067040  0.09672822  1
  Ca2+  Ca19  1  0.24948079  0.25102606  0.41150925  1
  Ca2+  Ca20  1  0.23744263  0.25433394  0.74366569  1
  Ca2+  Ca21  1  0.25766564  0.76993825  0.08001740  1
  Ca2+  Ca22  1  0.25057040  0.75421899  0.42021472  1
  Ca2+  Ca23  1  0.23355950  0.74872155  0.75146545  1
  Ca2+  Ca24  1  0.58125402  0.25168073  0.09109701  1
  Ca2+  Ca25  1  0.56097823  0.25051814  0.43057527  1
  Ca2+  Ca26  1  0.57921772  0.24568591  0.73380351  1
  Ca2+  Ca27  1  0.58005054  0.75615980  0.08303935  1
  Ca2+  Ca28  1  0.59347258  0.75834548  0.39997138  1
  Ca2+  Ca29  1  0.57397668  0.75073195  0.77835524  1
  Ca2+  Ca30  1  0.93322589  0.25186733  0.07158002  1
  Ca2+  Ca31  1  0.93543883  0.26056369  0.43334506  1
  Ca2+  Ca32  1  0.93243108  0.24648736  0.74502363  1
  Ca2+  Ca33  1  0.90955142  0.75369505  0.08430458  1
  Ca2+  Ca34  1  0.90587595  0.74081967  0.40397052  1
  Ca2+  Ca35  1  0.93758569  0.73990805  0.75344898  1
  Ca2+  Ca36  1  0.59514369  0.08246729  0.72630395  1
  Ca2+  Ca37  1  0.76186818  0.61274826  0.24269243  1
  Ca2+  Ca38  1  0.52375034  0.08259691  0.42757055  1
  Ca2+  Ca39  1  0.24081977  0.60374755  0.74790304  1
  Ca2+  Ca40  1  0.91127289  0.09644832  0.43161935  1
  Ca2+  Ca41  1  0.56856185  0.59091323  0.41409730  1
  Ca2+  Ca42  1  0.91638154  0.60267701  0.74085091  1
  Ca2+  Ca43  1  0.92412365  0.09658946  0.43215945  1
  Ca2+  Ca44  1  0.74965737  0.08190268  0.91185785  1
  Ca2+  Ca45  1  0.59159862  0.61641017  0.07606002  1
  Ca2+  Ca46  1  0.07983428  0.61474187  0.89163156  1
  Ca2+  Ca47  1  0.43309931  0.60695169  0.25124789  1
  Ca2+  Ca48  1  0.24722592  0.57945773  0.41667895  1
  Ca2+  Ca49  1  0.43922234  0.07028931  0.91794450  1
  Ca2+  Ca50  1  0.72821188  0.08172436  0.24341240  1
  Ca2+  Ca51  1  0.25953232  0.59488960  0.07275574  1
  Ca2+  Ca52  1  0.07241015  0.09268883  0.90976845  1
  Ca2+  Ca53  1  0.71570835  0.07956596  0.24242890  1
  Ca2+  Ca54  1  0.57332202  0.03319570  0.07869582  1
  Ca2+  Ca55  1  0.90839564  0.10522012  0.75121738  1
  Ca2+  Ca56  1  0.26350315  0.07349197  0.11459161  1
  Ca2+  Ca57  1  0.22540864  0.09436822  0.73082912  1
  Ca2+  Ca58  1  0.90963965  0.08072787  0.05875654  1
  Ca2+  Ca59  1  0.90070880  0.07847251  0.06321554  1
  Ca2+  Ca60  1  0.29915770  0.09011843  0.39651564  1
  Ca2+  Ca61  1  0.23612866  0.09261297  0.72908733  1
  Ca2+  Ca62  1  0.57916231  0.59352899  0.40819694  1
  Ca2+  Ca63  1  0.42483868  0.60198914  0.24761687  1
  Ca2+  Ca64  1  0.43665118  0.60874908  0.91634702  1
  Ca2+  Ca65  1  0.74386299  0.09238849  0.60622358  1
  Ca2+  Ca66  1  0.59636451  0.60849958  0.78491206  1
  Ca2+  Ca67  1  0.41051027  0.58848114  0.58142857  1
  Ca2+  Ca68  1  0.30654828  0.08623327  0.40093516  1
  Ca2+  Ca69  1  0.89654006  0.61283677  0.08696672  1
  Ca2+  Ca70  1  0.25982452  0.58144822  0.41648047  1
  Ca2+  Ca71  1  0.06824139  0.61388582  0.89056339  1
  Ca2+  Ca72  1  0.10133406  0.90163308  0.24564093  1
  Ca2+  Ca73  1  0.09102151  0.39902968  0.91070113  1
  Ca2+  Ca74  1  0.91082602  0.40421201  0.08548512  1
  Ca2+  Ca75  1  0.26665767  0.91370826  0.40412240  1
  Ca2+  Ca76  1  0.42081499  0.39975311  0.91053411  1
  Ca2+  Ca77  1  0.43700199  0.92248319  0.94305000  1
  Ca2+  Ca78  1  0.25839816  0.90920919  0.74874992  1
  Ca2+  Ca79  1  0.76648534  0.39869337  0.25653505  1
  Ca2+  Ca80  1  0.75690927  0.40111922  0.58571902  1
  Ca2+  Ca81  1  0.44131058  0.91566021  0.57459932  1
  Ca2+  Ca82  1  0.73600828  0.40336023  0.91646224  1
  Ca2+  Ca83  1  0.74880442  0.90533549  0.57771611  1
  Ca2+  Ca84  1  0.95226191  0.42009655  0.43953510  1
  Ca2+  Ca85  1  0.71398127  0.91400389  0.24438253  1
  Ca2+  Ca86  1  0.90657959  0.41081457  0.72551161  1
  Ca2+  Ca87  1  0.59079998  0.39874712  0.08442495  1
  Ca2+  Ca88  1  0.27557696  0.91651325  0.40812466  1
  Ca2+  Ca89  1  0.57568085  0.90985338  0.75220220  1
  Ca2+  Ca90  1  0.73805952  0.90779524  0.57747151  1
  Ca2+  Ca91  1  0.75368725  0.39869846  0.25779955  1
  Ca2+  Ca92  1  0.74890571  0.40327563  0.91630709  1
  Ca2+  Ca93  1  0.24951936  0.39835425  0.08791367  1
  Ca2+  Ca94  1  0.71946148  0.93314113  0.95555646  1
  Ca2+  Ca95  1  0.41211066  0.39711961  0.26972340  1
  Ca2+  Ca96  1  0.09158399  0.90945291  0.91927551  1
  Ca2+  Ca97  1  0.44217475  0.93448121  0.25417062  1
  Ca2+  Ca98  1  0.59052569  0.40914814  0.73280376  1
  Ca2+  Ca99  1  0.40802263  0.40048117  0.91002524  1
  Ca2+  Ca100  1  0.91026287  0.90061435  0.75453854  1
  Ca2+  Ca101  1  0.09016112  0.41596110  0.29012366  1
  Ca2+  Ca102  1  0.43480399  0.93812695  0.25941301  1
  Ca2+  Ca103  1  0.92137894  0.90152143  0.75528338  1
  Ca2+  Ca104  1  0.08437450  0.89656136  0.58413233  1
  Ca2+  Ca105  1  0.58417425  0.91319114  0.75632394  1
  Ca2+  Ca106  1  0.11042508  0.90299287  0.24061291  1
  Ca2+  Ca107  1  0.90587825  0.90823367  0.07608874  1
  Mn3.34+  Mn108  1  0.08301120  0.33042814  0.08366570  1
  Mn3.34+  Mn109  1  0.09475891  0.33480389  0.42805677  1
  Mn3.34+  Mn110  1  0.08618254  0.33348618  0.74260425  1
  Mn3.34+  Mn111  1  0.08361860  0.83626785  0.07792323  1
  Mn3.34+  Mn112  1  0.08117782  0.83209697  0.42045094  1
  Mn3.34+  Mn113  1  0.08807909  0.83522810  0.75019152  1
  Mn3.34+  Mn114  1  0.41771992  0.32789101  0.08919625  1
  Mn3.34+  Mn115  1  0.41010011  0.34549664  0.42929686  1
  Mn3.34+  Mn116  1  0.41159223  0.32920141  0.73593812  1
  Mn3.34+  Mn117  1  0.41966092  0.84477527  0.08755366  1
  Mn3.34+  Mn118  1  0.42492222  0.83317740  0.41734263  1
  Mn3.34+  Mn119  1  0.41253202  0.83439410  0.75015139  1
  Mn3.34+  Mn120  1  0.75112360  0.32543740  0.08681553  1
  Mn3.34+  Mn121  1  0.74944762  0.32690411  0.42612262  1
  Mn3.34+  Mn122  1  0.74917538  0.33053069  0.75051190  1
  Mn3.34+  Mn123  1  0.74622262  0.84186923  0.08784796  1
  Mn3.34+  Mn124  1  0.75005180  0.83645750  0.40979615  1
  Mn3.34+  Mn125  1  0.75028005  0.82731090  0.75562889  1
  Mn3.34+  Mn126  1  0.25038488  0.32974220  0.25450956  1
  Mn3.34+  Mn127  1  0.25007847  0.33711371  0.57834157  1
  Mn3.34+  Mn128  1  0.24807755  0.33228370  0.91492651  1
  Mn3.34+  Mn129  1  0.25961072  0.83212311  0.24650303  1
  Mn3.34+  Mn130  1  0.25244941  0.83596485  0.58134139  1
  Mn3.34+  Mn131  1  0.25479694  0.83694389  0.91809240  1
  Mn3.34+  Mn132  1  0.57854338  0.32478334  0.25804585  1
  Mn3.34+  Mn133  1  0.57831717  0.33184343  0.57854009  1
  Mn3.34+  Mn134  1  0.58294217  0.32501391  0.91344477  1
  Mn3.34+  Mn135  1  0.58129407  0.83449995  0.24567547  1
  Mn3.34+  Mn136  1  0.58392224  0.83302008  0.57976663  1
  Mn3.34+  Mn137  1  0.58582175  0.83496059  0.92275168  1
  Mn3.34+  Mn138  1  0.92488619  0.33188100  0.25105412  1
  Mn3.34+  Mn139  1  0.92031758  0.33525541  0.58255201  1
  Mn3.34+  Mn140  1  0.91925549  0.33382108  0.91149400  1
  Mn3.34+  Mn141  1  0.91259698  0.83433797  0.24997658  1
  Mn3.34+  Mn142  1  0.91886548  0.83033640  0.57554909  1
  Mn3.34+  Mn143  1  0.91384444  0.82941051  0.92086591  1
  Mn3.34+  Mn144  1  0.74607576  0.66749927  0.08227654  1
  Mn3.34+  Mn145  1  0.41843259  0.16295970  0.74365509  1
  Mn3.34+  Mn146  1  0.24679437  0.66727974  0.58581028  1
  Mn3.34+  Mn147  1  0.58323011  0.16811043  0.91359731  1
  Mn3.34+  Mn148  1  0.24702872  0.67079365  0.24902698  1
  Mn3.34+  Mn149  1  0.59075097  0.66644718  0.58679731  1
  Mn3.34+  Mn150  1  0.91729609  0.17839129  0.24772846  1
  Mn3.34+  Mn151  1  0.24534832  0.16090896  0.25273883  1
  Mn3.34+  Mn152  1  0.74524936  0.16680828  0.42188258  1
  Mn3.34+  Mn153  1  0.41444208  0.16046086  0.08634890  1
  Mn3.34+  Mn154  1  0.75556027  0.66548948  0.75324260  1
  Mn3.34+  Mn155  1  0.57904500  0.67142898  0.58842746  1
  Mn3.34+  Mn156  1  0.75391675  0.66740555  0.41825545  1
  Mn3.34+  Mn157  1  0.25752332  0.16175802  0.92011728  1
  Mn3.34+  Mn158  1  0.08536312  0.16359363  0.08573489  1
  Mn3.34+  Mn159  1  0.57885189  0.16267389  0.57975263  1
  Mn3.34+  Mn160  1  0.24732917  0.15628511  0.91811527  1
  Mn3.34+  Mn161  1  0.59628183  0.16122853  0.91425741  1
  Mn3.34+  Mn162  1  0.41595991  0.67600283  0.08264892  1
  Mn3.34+  Mn163  1  0.08856948  0.66656320  0.08770637  1
  Mn3.34+  Mn164  1  0.73637270  0.17265617  0.41994205  1
  Mn3.34+  Mn165  1  0.07384965  0.65586107  0.41904226  1
  Mn3.34+  Mn166  1  0.25440085  0.67190154  0.91500051  1
  Mn3.34+  Mn167  1  0.25207063  0.16584636  0.57164373  1
  Mn3.34+  Mn168  1  0.92000142  0.16947954  0.59067116  1
  Mn3.34+  Mn169  1  0.09005765  0.16892145  0.42412501  1
  Mn3.34+  Mn170  1  0.41425011  0.67109257  0.42211662  1
  Mn3.34+  Mn171  1  0.08333623  0.66141294  0.41785657  1
  Mn3.34+  Mn172  1  0.42530072  0.15665367  0.08963533  1
  Mn3.34+  Mn173  1  0.41433097  0.67005928  0.74996406  1
  Mn3.34+  Mn174  1  0.92583448  0.17212889  0.24541991  1
  Mn3.34+  Mn175  1  0.07842090  0.67136686  0.08521310  1
  Mn3.34+  Mn176  1  0.91098250  0.65734402  0.58156127  1
  Mn3.34+  Mn177  1  0.56831501  0.15802162  0.24924314  1
  Mn3.34+  Mn178  1  0.74327805  0.16503749  0.08460243  1
  Mn3.34+  Mn179  1  0.91640229  0.16876437  0.90970292  1
  Mn3.34+  Mn180  1  0.92189649  -0.00013082  0.59367339  1
  Mn3.34+  Mn181  1  0.59071497  0.49545161  0.58063403  1
  Mn3.34+  Mn182  1  0.09296184  0.00556299  0.42253421  1
  Mn3.34+  Mn183  1  0.24813871  0.49474774  0.57737421  1
  Mn3.34+  Mn184  1  0.43101814  0.49659313  0.08277947  1
  Mn3.34+  Mn185  1  0.72850988  0.00239599  0.41359033  1
  Mn3.34+  Mn186  1  0.58154033  0.50117396  0.24851758  1
  Mn3.34+  Mn187  1  0.25468965  0.49969291  0.24798819  1
  Mn3.34+  Mn188  1  0.24336288  0.50400689  0.24786201  1
  Mn3.34+  Mn189  1  0.41797340  0.50320132  0.73971682  1
  Mn3.34+  Mn190  1  0.90684104  0.50431045  0.91498612  1
  Mn3.34+  Mn191  1  0.25472772  0.00257684  0.58126738  1
  Mn3.34+  Mn192  1  0.59745393  0.49735318  0.24884971  1
  Mn3.34+  Mn193  1  0.91302990  -0.00181990  0.91308255  1
  Mn3.34+  Mn194  1  0.75165799  0.50066499  0.43154105  1
  Mn3.34+  Mn195  1  0.75016047  0.50381932  0.73864671  1
  Mn3.34+  Mn196  1  0.75687524  -0.00239010  0.74490415  1
  Mn3.34+  Mn197  1  0.91008789  0.00511794  0.25181480  1
  Mn3.34+  Mn198  1  0.41582546  0.50141661  0.08073240  1
  Mn3.34+  Mn199  1  0.07213961  0.49750206  0.09440327  1
  Mn3.34+  Mn200  1  0.24438585  0.50093901  0.91412555  1
  Mn3.34+  Mn201  1  0.08696518  0.50184069  0.09133798  1
  Mn3.34+  Mn202  1  0.25224357  -0.00190642  0.93007258  1
  Mn3.34+  Mn203  1  0.74556626  0.50063617  0.08565911  1
  Mn3.34+  Mn204  1  0.07943743  -0.00045986  0.42393096  1
  Mn3.34+  Mn205  1  0.92458624  -0.00037090  0.25230762  1
  Mn3.34+  Mn206  1  0.58908305  0.49747184  0.91618209  1
  Mn3.34+  Mn207  1  0.07739286  0.50091639  0.72569201  1
  Mn3.34+  Mn208  1  0.40772790  0.49775971  0.73842684  1
  Mn3.34+  Mn209  1  0.07560730  -0.00029970  0.73950447  1
  Mn3.34+  Mn210  1  0.76460574  0.50716730  0.42892404  1
  Mn3.34+  Mn211  1  0.91967068  0.49696615  0.91341999  1
  Mn3.34+  Mn212  1  0.92202354  0.50323838  0.26262078  1
  Mn3.34+  Mn213  1  0.41551037  0.00266008  0.74310667  1
  Mn3.34+  Mn214  1  0.08584578  0.00463864  0.08097611  1
  Mn3.34+  Mn215  1  0.08745566  0.49356508  0.72177414  1
  O2-  O216  1  -0.00733736  0.15030780  0.00647789  1
  O2-  O217  1  -0.00444848  0.15137566  0.33701726  1
  O2-  O218  1  -0.00685442  0.15869172  0.66792973  1
  O2-  O219  1  0.00375508  0.64030390  0.00624544  1
  O2-  O220  1  0.00097268  0.65702388  0.33547093  1
  O2-  O221  1  -0.00971403  0.66095708  0.66081199  1
  O2-  O222  1  0.34156783  0.13436227  -0.00649162  1
  O2-  O223  1  0.33372890  0.17012688  0.32764552  1
  O2-  O224  1  0.33148562  0.15749784  0.66634576  1
  O2-  O225  1  0.33570201  0.65374723  -0.00295292  1
  O2-  O226  1  0.33420382  0.64653251  0.33737718  1
  O2-  O227  1  0.33738916  0.65267824  0.66096697  1
  O2-  O228  1  0.66478180  0.19723588  -0.00469569  1
  O2-  O229  1  0.66956104  0.15838885  0.32351957  1
  O2-  O230  1  0.66281666  0.16704291  0.66228056  1
  O2-  O231  1  0.66887001  0.68606966  0.00973204  1
  O2-  O232  1  0.66700975  0.64751753  0.34343800  1
  O2-  O233  1  0.66890411  0.68307952  0.66834493  1
  O2-  O234  1  0.17136845  0.13841782  0.00444711  1
  O2-  O235  1  0.17658452  0.15023704  0.35025971  1
  O2-  O236  1  0.17970255  0.17214119  0.66346268  1
  O2-  O237  1  0.16451207  0.65028861  0.00171232  1
  O2-  O238  1  0.17071854  0.64805242  0.33834145  1
  O2-  O239  1  0.17200966  0.66316933  0.66505550  1
  O2-  O240  1  0.51222919  0.14938118  0.00303004  1
  O2-  O241  1  0.50995791  0.18687236  0.33417891  1
  O2-  O242  1  0.50517950  0.15043394  0.67232346  1
  O2-  O243  1  0.49558292  0.66651415  0.00831923  1
  O2-  O244  1  0.49930408  0.65846345  0.34270184  1
  O2-  O245  1  0.50648671  0.64487875  0.67175992  1
  O2-  O246  1  0.82840544  0.15610148  -0.00291358  1
  O2-  O247  1  0.82946231  0.15880772  0.32937259  1
  O2-  O248  1  0.83068016  0.16741644  0.65760779  1
  O2-  O249  1  0.82879214  0.68293170  0.01107643  1
  O2-  O250  1  0.82878927  0.66028817  0.34016775  1
  O2-  O251  1  0.82721877  0.66891772  0.66388063  1
  O2-  O252  1  -0.00286241  0.35303112  -0.00011907  1
  O2-  O253  1  -0.00059427  0.33915221  0.33665783  1
  O2-  O254  1  -0.00348764  0.34603939  0.67085404  1
  O2-  O255  1  -0.00133307  0.85615570  -0.00238393  1
  O2-  O256  1  0.01370276  0.85056942  0.32210000  1
  O2-  O257  1  -0.00187215  0.84725192  0.66948511  1
  O2-  O258  1  0.33832726  0.34933586  0.00118928  1
  O2-  O259  1  0.33662016  0.32546153  0.33558551  1
  O2-  O260  1  0.32809757  0.31410328  0.65770359  1
  O2-  O261  1  0.34012140  0.84899697  -0.00577156  1
  O2-  O262  1  0.34332743  0.85053738  0.32790191  1
  O2-  O263  1  0.34300111  0.85538159  0.65567060  1
  O2-  O264  1  0.66652488  0.32997667  0.00075796  1
  O2-  O265  1  0.67449149  0.32469269  0.33038656  1
  O2-  O266  1  0.66777224  0.32904514  0.66828931  1
  O2-  O267  1  0.67221073  0.83446093  -0.00045657  1
  O2-  O268  1  0.66504728  0.84260303  0.33150343  1
  O2-  O269  1  0.66855573  0.82988003  0.66672207  1
  O2-  O270  1  0.16842063  0.34992761  0.00169170  1
  O2-  O271  1  0.16688743  0.33665323  0.33257484  1
  O2-  O272  1  0.16946068  0.32490070  0.66212998  1
  O2-  O273  1  0.16778795  0.84510895  -0.00175329  1
  O2-  O274  1  0.17796507  0.84975439  0.34249552  1
  O2-  O275  1  0.17282757  0.85197034  0.67012796  1
  O2-  O276  1  0.50241450  0.34234195  0.00160376  1
  O2-  O277  1  0.49331221  0.32018085  0.33759165  1
  O2-  O278  1  0.50457190  0.34672479  0.66942499  1
  O2-  O279  1  0.50177134  0.84364686  0.00212617  1
  O2-  O280  1  0.49711674  0.84848678  0.32871669  1
  O2-  O281  1  0.50681179  0.84792309  0.67042583  1
  O2-  O282  1  0.82976421  0.34257535  -0.00124459  1
  O2-  O283  1  0.83159733  0.32351785  0.33063605  1
  O2-  O284  1  0.83103151  0.33064591  0.66838586  1
  O2-  O285  1  0.83076684  0.83887140  0.00172072  1
  O2-  O286  1  0.82834681  0.85056347  0.32722378  1
  O2-  O287  1  0.82803406  0.84897957  0.66578815  1
  O2-  O288  1  0.00591041  0.19297686  0.16638020  1
  O2-  O289  1  -0.00726050  0.17606987  0.49212800  1
  O2-  O290  1  0.00055518  0.17062564  0.83943704  1
  O2-  O291  1  -0.00564449  0.67923306  0.16006442  1
  O2-  O292  1  -0.00243703  0.67500731  0.49952507  1
  O2-  O293  1  0.00747155  0.68015280  0.83118196  1
  O2-  O294  1  0.32273197  0.17275227  0.15769529  1
  O2-  O295  1  0.32407454  0.18444611  0.49136754  1
  O2-  O296  1  0.32932515  0.17964147  0.82949539  1
  O2-  O297  1  0.33763876  0.67512164  0.17562809  1
  O2-  O298  1  0.32652117  0.67735820  0.49471098  1
  O2-  O299  1  0.32858852  0.68225156  0.82755577  1
  O2-  O300  1  0.66482050  0.18795221  0.17006758  1
  O2-  O301  1  0.66469261  0.19170888  0.50425786  1
  O2-  O302  1  0.66445194  0.19166804  0.83410358  1
  O2-  O303  1  0.67248297  0.68634178  0.16123035  1
  O2-  O304  1  0.66010190  0.68900289  0.50021064  1
  O2-  O305  1  0.67398896  0.68656398  0.82206416  1
  O2-  O306  1  0.16630617  0.17404750  0.16462410  1
  O2-  O307  1  0.16185598  0.19083895  0.50510103  1
  O2-  O308  1  0.16935707  0.17463965  0.83771887  1
  O2-  O309  1  0.17007830  0.69292372  0.15969111  1
  O2-  O310  1  0.16552652  0.68107906  0.49648969  1
  O2-  O311  1  0.16880847  0.68161350  0.84279930  1
  O2-  O312  1  0.49442452  0.19298850  0.17169526  1
  O2-  O313  1  0.50123484  0.17372430  0.49815319  1
  O2-  O314  1  0.49588793  0.18280583  0.84139160  1
  O2-  O315  1  0.49146075  0.67719545  0.16628428  1
  O2-  O316  1  0.49712641  0.68648278  0.50770593  1
  O2-  O317  1  0.49281403  0.67690877  0.82907998  1
  O2-  O318  1  0.83691958  0.19886205  0.16448736  1
  O2-  O319  1  0.83940711  0.18666518  0.48874345  1
  O2-  O320  1  0.84114692  0.18055414  0.82996910  1
  O2-  O321  1  0.82429434  0.68487289  0.16180645  1
  O2-  O322  1  0.83492722  0.68358764  0.49726217  1
  O2-  O323  1  0.83488826  0.68370269  0.81931815  1
  O2-  O324  1  -0.00083972  0.31191376  0.16619470  1
  O2-  O325  1  0.00142413  0.33079514  0.50045567  1
  O2-  O326  1  0.00219012  0.33103002  0.83333709  1
  O2-  O327  1  0.00379945  0.82684955  0.16478742  1
  O2-  O328  1  0.00706100  0.81573753  0.50714486  1
  O2-  O329  1  -0.00173988  0.83033273  0.82942206  1
  O2-  O330  1  0.33208390  0.31988263  0.16728814  1
  O2-  O331  1  0.33174540  0.31180125  0.49830522  1
  O2-  O332  1  0.33483067  0.32196147  0.83428029  1
  O2-  O333  1  0.33833367  0.81974477  0.16933687  1
  O2-  O334  1  0.33022524  0.82210798  0.49191495  1
  O2-  O335  1  0.32579471  0.82109439  0.82334801  1
  O2-  O336  1  0.66592846  0.31317087  0.16913120  1
  O2-  O337  1  0.66683816  0.30980349  0.50262594  1
  O2-  O338  1  0.67025972  0.31335221  0.83613713  1
  O2-  O339  1  0.66936608  0.82106982  0.16708247  1
  O2-  O340  1  0.66903391  0.81666286  0.50655065  1
  O2-  O341  1  0.66256726  0.82229359  0.82819622  1
  O2-  O342  1  0.16972064  0.32504069  0.16553647  1
  O2-  O343  1  0.16942144  0.31014478  0.50448452  1
  O2-  O344  1  0.16335310  0.32233205  0.83819064  1
  O2-  O345  1  0.16381368  0.82120399  0.17553631  1
  O2-  O346  1  0.16923817  0.82388537  0.50045466  1
  O2-  O347  1  0.16515812  0.82761907  0.83522140  1
  O2-  O348  1  0.50312136  0.31940330  0.16940383  1
  O2-  O349  1  0.49173859  0.32241471  0.50158081  1
  O2-  O350  1  0.49296925  0.32197914  0.84176676  1
  O2-  O351  1  0.49842756  0.82067951  0.16542913  1
  O2-  O352  1  0.49720254  0.81478095  0.50721166  1
  O2-  O353  1  0.49892173  0.83045449  0.83107218  1
  O2-  O354  1  0.83363873  0.31897294  0.17146558  1
  O2-  O355  1  0.83194270  0.31202796  0.50453432  1
  O2-  O356  1  0.82844232  0.31880002  0.83531909  1
  O2-  O357  1  0.83316896  0.82052541  0.16182554  1
  O2-  O358  1  0.82515719  0.82728193  0.50658655  1
  O2-  O359  1  0.84362728  0.81529334  0.82241573  1
  O2-  O360  1  0.05604561  0.08176615  0.11625903  1
  O2-  O361  1  0.06804661  0.08397170  0.45536516  1
  O2-  O362  1  0.09989786  0.07309163  0.77955921  1
  O2-  O363  1  0.09681402  0.58189418  0.12244546  1
  O2-  O364  1  0.10639366  0.57953552  0.44876319  1
  O2-  O365  1  0.09479901  0.57161148  0.77125833  1
  O2-  O366  1  0.42148850  0.07629840  0.11323735  1
  O2-  O367  1  0.40346521  0.06192409  0.46971472  1
  O2-  O368  1  0.41303533  0.08096807  0.78015375  1
  O2-  O369  1  0.41152897  0.58261980  0.11084705  1
  O2-  O370  1  0.42723803  0.58746482  0.44779286  1
  O2-  O371  1  0.40297707  0.58039467  0.78617227  1
  O2-  O372  1  0.77918542  0.08085069  0.12306135  1
  O2-  O373  1  0.77016466  0.08259105  0.45904267  1
  O2-  O374  1  0.75452158  0.07473247  0.77109292  1
  O2-  O375  1  0.74069506  0.58575844  0.09918710  1
  O2-  O376  1  0.73603929  0.58527575  0.45787596  1
  O2-  O377  1  0.74746792  0.58157920  0.77378678  1
  O2-  O378  1  0.25712649  0.08123441  0.24768019  1
  O2-  O379  1  0.24304389  0.08162520  0.54580156  1
  O2-  O380  1  0.25370693  0.07330872  0.86794335  1
  O2-  O381  1  0.24279926  0.58384533  0.20747342  1
  O2-  O382  1  0.25596373  0.57857016  0.55003462  1
  O2-  O383  1  0.23185388  0.58405733  0.88971725  1
  O2-  O384  1  0.59524862  0.08345417  0.19759851  1
  O2-  O385  1  0.60507609  0.08451357  0.55527199  1
  O2-  O386  1  0.58830718  0.08599158  0.86930470  1
  O2-  O387  1  0.57310788  0.57683235  0.20196282  1
  O2-  O388  1  0.57691401  0.57905829  0.54616720  1
  O2-  O389  1  0.57290201  0.57706400  0.91224439  1
  O2-  O390  1  0.91342504  0.08528802  0.20752476  1
  O2-  O391  1  0.90823483  0.08287476  0.56399607  1
  O2-  O392  1  0.91410060  0.08146706  0.89622955  1
  O2-  O393  1  0.88819831  0.56140331  0.19738630  1
  O2-  O394  1  0.90198928  0.58146760  0.58138269  1
  O2-  O395  1  0.93685883  0.57943206  0.87684944  1
  O2-  O396  1  0.07230361  0.41867716  0.13044234  1
  O2-  O397  1  0.09044459  0.41327321  0.43160966  1
  O2-  O398  1  0.08699260  0.42223427  0.77188626  1
  O2-  O399  1  0.08713345  0.92262944  0.11007326  1
  O2-  O400  1  0.07881190  0.92124467  0.45557529  1
  O2-  O401  1  0.07014255  0.92160304  0.77804456  1
  O2-  O402  1  0.42422778  0.42067119  0.12972677  1
  O2-  O403  1  0.41631725  0.42030405  0.40731308  1
  O2-  O404  1  0.42525653  0.41865213  0.77888352  1
  O2-  O405  1  0.42018079  0.92283388  0.11684378  1
  O2-  O406  1  0.40997303  0.91333810  0.44424850  1
  O2-  O407  1  0.41854501  0.92260774  0.78007149  1
  O2-  O408  1  0.74440057  0.41689325  0.12594434  1
  O2-  O409  1  0.76384273  0.41707468  0.43936067  1
  O2-  O410  1  0.74227764  0.42407532  0.78348446  1
  O2-  O411  1  0.75708403  0.92094196  0.10515174  1
  O2-  O412  1  0.74473291  0.92003025  0.44568508  1
  O2-  O413  1  0.76385689  0.92034707  0.78548269  1
  O2-  O414  1  0.26004647  0.41603956  0.23111762  1
  O2-  O415  1  0.25291398  0.41555499  0.55551739  1
  O2-  O416  1  0.27115205  0.41981516  0.89130384  1
  O2-  O417  1  0.24649555  0.91393578  0.23180470  1
  O2-  O418  1  0.24949992  0.92166741  0.54519482  1
  O2-  O419  1  0.24130680  0.92254177  0.88705530  1
  O2-  O420  1  0.60754531  0.41466532  0.23087606  1
  O2-  O421  1  0.61122012  0.41464812  0.56503829  1
  O2-  O422  1  0.59597937  0.41733817  0.87665805  1
  O2-  O423  1  0.57179750  0.91822815  0.22208902  1
  O2-  O424  1  0.59768500  0.91490161  0.57311971  1
  O2-  O425  1  0.59281698  0.91932328  0.88779630  1
  O2-  O426  1  0.89791438  0.42214663  0.21876454  1
  O2-  O427  1  0.89896929  0.41413892  0.56622036  1
  O2-  O428  1  0.88987216  0.41982171  0.87478182  1
  O2-  O429  1  0.91977211  0.92114316  0.21609123  1
  O2-  O430  1  0.91778380  0.91849398  0.56542555  1
  O2-  O431  1  0.90910669  0.91787944  0.88912579  1
  O2-  O432  1  -0.01426147  0.00147733  0.01170668  1
  O2-  O433  1  -0.00557122  0.01545158  0.34259547  1
  O2-  O434  1  -0.04019055  -0.00082877  0.71315021  1
  O2-  O435  1  -0.00383809  0.49523349  0.00485360  1
  O2-  O436  1  -0.00549440  0.48103213  0.33564306  1
  O2-  O437  1  -0.02989969  0.50163711  0.70676195  1
  O2-  O438  1  0.34667069  0.00506580  -0.02076388  1
  O2-  O439  1  0.32190760  -0.00558402  0.35215419  1
  O2-  O440  1  0.31558928  0.00546447  0.68843021  1
  O2-  O441  1  0.33165469  0.50489631  -0.00020398  1
  O2-  O442  1  0.34381246  0.52909788  0.31486626  1
  O2-  O443  1  0.34045855  0.51233504  0.64725424  1
  O2-  O444  1  0.67331296  0.02382652  -0.01192258  1
  O2-  O445  1  0.68163332  0.00244749  0.30346214  1
  O2-  O446  1  0.66368853  -0.01408310  0.69001286  1
  O2-  O447  1  0.66702306  0.47077187  -0.00198088  1
  O2-  O448  1  0.65768378  0.50719604  0.35238071  1
  O2-  O449  1  0.65452643  0.49988406  0.68313620  1
  O2-  O450  1  0.15259837  0.01103787  -0.01808870  1
  O2-  O451  1  0.15604199  -0.02296627  0.33324373  1
  O2-  O452  1  0.16471754  -0.00233710  0.66852955  1
  O2-  O453  1  0.16472494  0.48627285  0.00567043  1
  O2-  O454  1  0.17895400  0.50408034  0.34389029  1
  O2-  O455  1  0.18498561  0.50810109  0.67723491  1
  O2-  O456  1  0.50359605  0.00173892  -0.01976100  1
  O2-  O457  1  0.48276518  0.01213827  0.32386767  1
  O2-  O458  1  0.51699326  -0.00455427  0.70029521  1
  O2-  O459  1  0.49272325  0.47657170  -0.01366049  1
  O2-  O460  1  0.50291876  0.52607940  0.32703241  1
  O2-  O461  1  0.50155366  0.49817100  0.65954732  1
  O2-  O462  1  0.82963889  0.00778467  -0.01017702  1
  O2-  O463  1  0.83801936  0.02499082  0.34014413  1
  O2-  O464  1  0.80761006  -0.00558362  0.63693386  1
  O2-  O465  1  0.83309064  0.48132553  0.00205253  1
  O2-  O466  1  0.81994073  0.49227613  0.32477755  1
  O2-  O467  1  0.81931449  0.48210793  0.66594020  1
  O2-  O468  1  0.08727260  0.74425019  0.39052996  1
  O2-  O469  1  0.92474666  0.25042510  0.93653731  1
  O2-  O470  1  0.25416687  0.75247466  0.94379313  1
  O2-  O471  1  0.09126300  0.24559445  0.04656899  1
  O2-  O472  1  0.42836469  0.24570995  0.73171735  1
  O2-  O473  1  0.25504689  0.75001755  0.28122873  1
  O2-  O474  1  0.57278233  0.75640677  0.92736971  1
  O2-  O475  1  0.57908887  0.75490746  0.26611416  1
  O2-  O476  1  0.74963210  0.75191700  0.39192082  1
  O2-  O477  1  0.24118788  0.24783398  0.26109188  1
  O2-  O478  1  0.25502601  0.75325430  0.60707950  1
  O2-  O479  1  0.07743592  0.25416749  0.74294003  1
  O2-  O480  1  0.41203644  0.23915113  0.04722209  1
  O2-  O481  1  0.56188831  0.25012573  0.59946705  1
  O2-  O482  1  0.07876764  0.24761503  0.39188337  1
  O2-  O483  1  0.93424007  0.25144450  0.60119354  1
  O2-  O484  1  0.91503440  0.75266782  0.60461386  1
  O2-  O485  1  0.40710611  0.75547773  0.06327796  1
  O2-  O486  1  0.93283519  0.75469330  0.94102270  1
  O2-  O487  1  0.91850161  0.75730414  0.26961979  1
  O2-  O488  1  0.25672251  0.24568309  0.95037937  1
  O2-  O489  1  0.07552164  0.75242727  0.04774098  1
  O2-  O490  1  0.42261811  0.75144797  0.71924238  1
  O2-  O491  1  0.40946952  0.75087089  0.38972360  1
  O2-  O492  1  0.08808465  0.75761820  0.73402573  1
