# generated using pymatgen
data_Ca108Mn108O277
_symmetry_space_group_name_H-M   'P 1'
_cell_length_a   16.02055367
_cell_length_b   22.29770062
_cell_length_c   16.38393755
_cell_angle_alpha   89.99669283
_cell_angle_beta   89.99975505
_cell_angle_gamma   89.99631872
_symmetry_Int_Tables_number   1
_chemical_formula_structural   Ca108Mn108O277
_chemical_formula_sum   'Ca108 Mn108 O277'
_cell_volume   5852.69488024
_cell_formula_units_Z   1
loop_
 _symmetry_equiv_pos_site_id
 _symmetry_equiv_pos_as_xyz
  1  'x, y, z'
loop_
 _atom_type_symbol
 _atom_type_oxidation_number
  Ca2+  2.0
  Mn3.34+  3.34
  O2-  -2.0
loop_
 _atom_site_type_symbol
 _atom_site_label
 _atom_site_symmetry_multiplicity
 _atom_site_fract_x
 _atom_site_fract_y
 _atom_site_fract_z
 _atom_site_occupancy
  Ca2+  Ca0  1  0.06770748  0.26193829  0.25302121  1
  Ca2+  Ca1  1  0.10779434  0.25542524  0.58354108  1
  Ca2+  Ca2  1  0.06983365  0.25028046  0.90726693  1
  Ca2+  Ca3  1  0.08254474  0.75657712  0.24035285  1
  Ca2+  Ca4  1  0.07702537  0.75278939  0.58875920  1
  Ca2+  Ca5  1  0.08417388  0.75312619  0.92574600  1
  Ca2+  Ca6  1  0.43863136  0.24284382  0.26854148  1
  Ca2+  Ca7  1  0.41080416  0.25261036  0.56988051  1
  Ca2+  Ca8  1  0.41882599  0.25061599  0.90300764  1
  Ca2+  Ca9  1  0.42109451  0.75592510  0.24458274  1
  Ca2+  Ca10  1  0.41421582  0.75268970  0.58911060  1
  Ca2+  Ca11  1  0.40662436  0.75121661  0.92235912  1
  Ca2+  Ca12  1  0.74736880  0.25003959  0.24847146  1
  Ca2+  Ca13  1  0.73707073  0.24976336  0.59150214  1
  Ca2+  Ca14  1  0.75848339  0.25128232  0.91269192  1
  Ca2+  Ca15  1  0.74952245  0.74602583  0.24532338  1
  Ca2+  Ca16  1  0.76513093  0.73414249  0.57037159  1
  Ca2+  Ca17  1  0.75529505  0.75329152  0.93258860  1
  Ca2+  Ca18  1  0.26185003  0.26378423  0.07456982  1
  Ca2+  Ca19  1  0.27143004  0.24375183  0.44036025  1
  Ca2+  Ca20  1  0.25840120  0.23969916  0.73147340  1
  Ca2+  Ca21  1  0.25617080  0.73955922  0.08806989  1
  Ca2+  Ca22  1  0.25963672  0.75052118  0.40320946  1
  Ca2+  Ca23  1  0.26043761  0.74991516  0.76501992  1
  Ca2+  Ca24  1  0.58263234  0.25488596  0.10095451  1
  Ca2+  Ca25  1  0.56431353  0.25073021  0.41275559  1
  Ca2+  Ca26  1  0.57571161  0.24533852  0.74642000  1
  Ca2+  Ca27  1  0.60149862  0.73769821  0.09540057  1
  Ca2+  Ca28  1  0.60009375  0.74444760  0.39792145  1
  Ca2+  Ca29  1  0.59104211  0.75254569  0.75888952  1
  Ca2+  Ca30  1  0.90743859  0.25319806  0.08131956  1
  Ca2+  Ca31  1  0.91497981  0.25052897  0.39674323  1
  Ca2+  Ca32  1  0.91035551  0.25613834  0.76762899  1
  Ca2+  Ca33  1  0.89973221  0.74498829  0.08599197  1
  Ca2+  Ca34  1  0.89646985  0.75033220  0.40594965  1
  Ca2+  Ca35  1  0.90192954  0.74497467  0.76258600  1
  Ca2+  Ca36  1  0.91033034  0.60271664  0.08443695  1
  Ca2+  Ca37  1  0.41234202  0.08774046  0.89947734  1
  Ca2+  Ca38  1  0.40527760  0.11142452  0.58288729  1
  Ca2+  Ca39  1  0.41454352  0.11421620  0.57985021  1
  Ca2+  Ca40  1  0.74339836  0.60486172  0.23605994  1
  Ca2+  Ca41  1  0.75178574  0.09354538  0.90551281  1
  Ca2+  Ca42  1  0.39617426  0.57521711  0.95375469  1
  Ca2+  Ca43  1  0.73371959  0.60663491  0.93822624  1
  Ca2+  Ca44  1  0.56965861  0.09510190  0.74134687  1
  Ca2+  Ca45  1  0.07639003  0.59155000  0.58389979  1
  Ca2+  Ca46  1  0.11752596  0.56903669  0.96106522  1
  Ca2+  Ca47  1  0.26836364  0.10487746  0.43290826  1
  Ca2+  Ca48  1  0.25650477  0.08133552  0.06294686  1
  Ca2+  Ca49  1  0.12111112  0.58014600  0.23454290  1
  Ca2+  Ca50  1  0.41996677  0.58751460  0.23496633  1
  Ca2+  Ca51  1  0.72708821  0.09230958  0.60440576  1
  Ca2+  Ca52  1  0.54389743  0.11135675  0.40385632  1
  Ca2+  Ca53  1  0.59391428  0.58379183  0.39370269  1
  Ca2+  Ca54  1  0.91617628  0.10015512  0.76256562  1
  Ca2+  Ca55  1  0.41562761  0.58533878  0.58243226  1
  Ca2+  Ca56  1  0.92638907  0.10123726  0.76575448  1
  Ca2+  Ca57  1  0.40963294  0.58696116  0.23309277  1
  Ca2+  Ca58  1  0.12907456  0.10161704  0.58882282  1
  Ca2+  Ca59  1  0.08972767  0.58935683  0.58516141  1
  Ca2+  Ca60  1  0.05579303  0.09310630  0.25729369  1
  Ca2+  Ca61  1  0.74327069  0.60262099  0.93262049  1
  Ca2+  Ca62  1  0.58341563  0.59644570  0.75221729  1
  Ca2+  Ca63  1  0.91403062  0.09799017  0.08647323  1
  Ca2+  Ca64  1  0.06606136  0.09272192  0.26117936  1
  Ca2+  Ca65  1  0.92613109  0.09058877  0.40114187  1
  Ca2+  Ca66  1  0.08579007  0.09793692  0.91049319  1
  Ca2+  Ca67  1  0.38556360  0.57523986  0.95407391  1
  Ca2+  Ca68  1  0.54503865  0.10445299  0.40705989  1
  Ca2+  Ca69  1  0.74026699  0.09353062  0.90502134  1
  Ca2+  Ca70  1  0.25334741  0.59039218  0.75463368  1
  Ca2+  Ca71  1  0.88057769  0.61232049  0.43036880  1
  Ca2+  Ca72  1  0.92243697  0.91000075  0.74895016  1
  Ca2+  Ca73  1  0.39708927  0.41293871  0.92501717  1
  Ca2+  Ca74  1  0.74754477  0.90461197  0.59403021  1
  Ca2+  Ca75  1  0.23992666  0.39895749  0.75472540  1
  Ca2+  Ca76  1  0.73195050  0.40810476  0.58052643  1
  Ca2+  Ca77  1  0.74552608  0.40182404  0.92009644  1
  Ca2+  Ca78  1  0.24213647  0.43833117  0.08212756  1
  Ca2+  Ca79  1  0.41992430  0.91079171  0.91790067  1
  Ca2+  Ca80  1  0.42174193  0.41327544  0.24766643  1
  Ca2+  Ca81  1  0.40770810  0.41245356  0.92622078  1
  Ca2+  Ca82  1  0.91070746  0.91020206  0.74854721  1
  Ca2+  Ca83  1  0.41457281  0.90786557  0.59581816  1
  Ca2+  Ca84  1  0.09290377  0.91632379  0.59272918  1
  Ca2+  Ca85  1  0.08032061  0.91516141  0.59385291  1
  Ca2+  Ca86  1  0.74127761  0.40380745  0.58233685  1
  Ca2+  Ca87  1  0.26352500  0.91347671  0.75144813  1
  Ca2+  Ca88  1  0.25296254  0.43783507  0.08049798  1
  Ca2+  Ca89  1  0.92555161  0.90340643  0.40910823  1
  Ca2+  Ca90  1  0.74038973  0.90529855  0.91853243  1
  Ca2+  Ca91  1  0.25493535  0.90189302  0.08314319  1
  Ca2+  Ca92  1  0.25080137  0.91396176  0.75212762  1
  Ca2+  Ca93  1  0.57471356  0.41050537  0.09418536  1
  Ca2+  Ca94  1  0.75910194  0.90442612  0.59367503  1
  Ca2+  Ca95  1  0.25289060  0.41076835  0.41057097  1
  Ca2+  Ca96  1  0.92775115  0.40206056  0.08000585  1
  Ca2+  Ca97  1  0.57562800  0.41916384  0.40544121  1
  Ca2+  Ca98  1  0.57729710  0.90963622  0.75078210  1
  Ca2+  Ca99  1  0.57060510  0.90144732  0.40724361  1
  Ca2+  Ca100  1  0.92497189  0.39795183  0.41636599  1
  Ca2+  Ca101  1  0.58537477  0.89610537  0.09132174  1
  Ca2+  Ca102  1  0.24221336  0.90130600  0.08274283  1
  Ca2+  Ca103  1  0.09999813  0.41497867  0.93085603  1
  Ca2+  Ca104  1  0.91052619  0.89623936  0.09340655  1
  Ca2+  Ca105  1  0.72979758  0.41256409  0.25238386  1
  Ca2+  Ca106  1  0.58221715  0.40061612  0.74623129  1
  Ca2+  Ca107  1  0.24200481  0.41097271  0.40955821  1
  Mn3.34+  Mn108  1  0.08645718  0.33746250  0.08717293  1
  Mn3.34+  Mn109  1  0.08362342  0.33402555  0.41992629  1
  Mn3.34+  Mn110  1  0.07692563  0.33860236  0.74774107  1
  Mn3.34+  Mn111  1  0.07929238  0.83244482  0.08638042  1
  Mn3.34+  Mn112  1  0.08709653  0.83387388  0.41593420  1
  Mn3.34+  Mn113  1  0.08465363  0.83500092  0.75423523  1
  Mn3.34+  Mn114  1  0.41536150  0.33838333  0.08856028  1
  Mn3.34+  Mn115  1  0.41631736  0.33700419  0.41726916  1
  Mn3.34+  Mn116  1  0.41497596  0.33055849  0.74712831  1
  Mn3.34+  Mn117  1  0.41944390  0.83194509  0.08668614  1
  Mn3.34+  Mn118  1  0.41531732  0.83248572  0.41792563  1
  Mn3.34+  Mn119  1  0.41880862  0.83311606  0.75416986  1
  Mn3.34+  Mn120  1  0.74767895  0.33684054  0.08464922  1
  Mn3.34+  Mn121  1  0.74842056  0.33615113  0.41591289  1
  Mn3.34+  Mn122  1  0.75237863  0.33218744  0.75348554  1
  Mn3.34+  Mn123  1  0.74863488  0.83118532  0.08842665  1
  Mn3.34+  Mn124  1  0.74834610  0.82983877  0.41366979  1
  Mn3.34+  Mn125  1  0.74793383  0.83429751  0.75772569  1
  Mn3.34+  Mn126  1  0.24739389  0.33803937  0.24379770  1
  Mn3.34+  Mn127  1  0.25111963  0.33612841  0.58429857  1
  Mn3.34+  Mn128  1  0.24512853  0.33004650  0.91133618  1
  Mn3.34+  Mn129  1  0.25026197  0.82853847  0.25299318  1
  Mn3.34+  Mn130  1  0.25049987  0.83053863  0.57425394  1
  Mn3.34+  Mn131  1  0.24727842  0.83336274  0.91583095  1
  Mn3.34+  Mn132  1  0.58290670  0.33679297  0.25190762  1
  Mn3.34+  Mn133  1  0.57372652  0.34161645  0.57727963  1
  Mn3.34+  Mn134  1  0.58279262  0.33282365  0.91714605  1
  Mn3.34+  Mn135  1  0.58287308  0.83540148  0.24984865  1
  Mn3.34+  Mn136  1  0.58154033  0.82593347  0.58029343  1
  Mn3.34+  Mn137  1  0.58103666  0.83380452  0.91887714  1
  Mn3.34+  Mn138  1  0.91339323  0.33134883  0.24675200  1
  Mn3.34+  Mn139  1  0.92102605  0.33092142  0.58535104  1
  Mn3.34+  Mn140  1  0.91882003  0.33006232  0.91733491  1
  Mn3.34+  Mn141  1  0.91654684  0.83213591  0.25120259  1
  Mn3.34+  Mn142  1  0.91836370  0.82503970  0.57773213  1
  Mn3.34+  Mn143  1  0.91887291  0.83123692  0.91964766  1
  Mn3.34+  Mn144  1  0.41853152  0.16604985  0.08158385  1
  Mn3.34+  Mn145  1  0.24792391  0.66588476  0.92006931  1
  Mn3.34+  Mn146  1  0.58347859  0.66479747  0.24749279  1
  Mn3.34+  Mn147  1  0.25220479  0.16901885  0.90968474  1
  Mn3.34+  Mn148  1  0.91602743  0.16371914  0.57811322  1
  Mn3.34+  Mn149  1  0.07514061  0.66253331  0.75607205  1
  Mn3.34+  Mn150  1  0.58124766  0.16858315  0.91534489  1
  Mn3.34+  Mn151  1  0.09137536  0.16940548  0.08405304  1
  Mn3.34+  Mn152  1  0.25443571  0.66400016  0.24471411  1
  Mn3.34+  Mn153  1  0.91647137  0.66839715  0.24521373  1
  Mn3.34+  Mn154  1  0.75128565  0.16239131  0.41375768  1
  Mn3.34+  Mn155  1  0.41492245  0.66386071  0.41837208  1
  Mn3.34+  Mn156  1  0.74797084  0.16536076  0.08686160  1
  Mn3.34+  Mn157  1  0.74690237  0.16685653  0.75012840  1
  Mn3.34+  Mn158  1  0.91718938  0.66728293  0.91891446  1
  Mn3.34+  Mn159  1  0.25621274  0.66691408  0.57676802  1
  Mn3.34+  Mn160  1  0.08805713  0.16847704  0.41968918  1
  Mn3.34+  Mn161  1  0.41545433  0.66923963  0.75396723  1
  Mn3.34+  Mn162  1  0.08570609  0.66744078  0.75569559  1
  Mn3.34+  Mn163  1  0.74188557  0.16782334  0.41392684  1
  Mn3.34+  Mn164  1  0.09130335  0.15853916  0.75274883  1
  Mn3.34+  Mn165  1  0.08151175  0.67409852  0.41304029  1
  Mn3.34+  Mn166  1  0.57990976  0.66235705  0.57577668  1
  Mn3.34+  Mn167  1  0.08253267  0.66068222  0.08679903  1
  Mn3.34+  Mn168  1  0.41965950  0.66795413  0.08351416  1
  Mn3.34+  Mn169  1  0.57514254  0.66940519  0.91404169  1
  Mn3.34+  Mn170  1  0.59095930  0.65558367  0.57556624  1
  Mn3.34+  Mn171  1  0.09095165  0.66864684  0.41450072  1
  Mn3.34+  Mn172  1  0.92492125  0.17031752  0.58004875  1
  Mn3.34+  Mn173  1  0.73784339  0.16138356  0.09095176  1
  Mn3.34+  Mn174  1  0.08235324  0.17548542  0.08271148  1
  Mn3.34+  Mn175  1  0.41458819  0.16281522  0.75121546  1
  Mn3.34+  Mn176  1  0.26340470  0.16500459  0.24863860  1
  Mn3.34+  Mn177  1  0.75629882  0.67041884  0.74782313  1
  Mn3.34+  Mn178  1  0.25024165  0.17142229  0.25028624  1
  Mn3.34+  Mn179  1  0.42835974  0.16074159  0.08330284  1
  Mn3.34+  Mn180  1  0.26116256  0.00117208  0.25721421  1
  Mn3.34+  Mn181  1  0.91871914  0.50246954  0.24915198  1
  Mn3.34+  Mn182  1  0.73944254  -0.00175435  0.08365793  1
  Mn3.34+  Mn183  1  0.57468734  0.00025842  0.25827688  1
  Mn3.34+  Mn184  1  0.25047654  -0.00407802  0.25762035  1
  Mn3.34+  Mn185  1  0.41501003  -0.00791261  0.41619625  1
  Mn3.34+  Mn186  1  0.92394415  0.49855222  0.58032322  1
  Mn3.34+  Mn187  1  0.08471696  -0.00112454  0.09365912  1
  Mn3.34+  Mn188  1  0.58683885  0.49911674  0.91940266  1
  Mn3.34+  Mn189  1  0.57295933  -0.00412639  0.57589008  1
  Mn3.34+  Mn190  1  0.24285423  0.50071846  0.58510628  1
  Mn3.34+  Mn191  1  0.91853345  -0.00005769  0.58437817  1
  Mn3.34+  Mn192  1  0.07909172  0.49791973  0.75054931  1
  Mn3.34+  Mn193  1  0.92892372  0.49727957  0.25017162  1
  Mn3.34+  Mn194  1  0.75151523  0.00280261  0.40922181  1
  Mn3.34+  Mn195  1  0.58368551  0.00248325  0.92383777  1
  Mn3.34+  Mn196  1  0.24305783  0.00190649  0.92283932  1
  Mn3.34+  Mn197  1  0.92677814  0.49644646  0.90758030  1
  Mn3.34+  Mn198  1  0.73817078  -0.00355212  0.40968283  1
  Mn3.34+  Mn199  1  0.75754374  0.49839348  0.75118598  1
  Mn3.34+  Mn200  1  0.41473604  0.50144631  0.40448661  1
  Mn3.34+  Mn201  1  0.74724111  0.50345567  0.40680174  1
  Mn3.34+  Mn202  1  0.75010160  0.50080135  0.07933210  1
  Mn3.34+  Mn203  1  0.42576654  0.50260339  0.74269641  1
  Mn3.34+  Mn204  1  0.25479867  -0.00308280  0.58944716  1
  Mn3.34+  Mn205  1  0.91841223  0.00027819  0.92673134  1
  Mn3.34+  Mn206  1  0.91485838  -0.00489909  0.25041504  1
  Mn3.34+  Mn207  1  0.41506479  0.49793103  0.74306601  1
  Mn3.34+  Mn208  1  0.74328049  0.50409027  0.74882531  1
  Mn3.34+  Mn209  1  0.09140238  0.50114450  0.41050740  1
  Mn3.34+  Mn210  1  0.42349927  -0.00173854  0.08081886  1
  Mn3.34+  Mn211  1  0.08637429  0.00082265  0.41573125  1
  Mn3.34+  Mn212  1  0.58372114  0.00050174  0.57537657  1
  Mn3.34+  Mn213  1  0.91491875  0.50076458  0.90783153  1
  Mn3.34+  Mn214  1  0.91421845  0.50419472  0.57896678  1
  Mn3.34+  Mn215  1  0.92960885  -0.00443568  0.92728212  1
  O2-  O216  1  0.00406906  0.16257498  0.00143902  1
  O2-  O217  1  0.00799300  0.16586167  0.33559797  1
  O2-  O218  1  0.00371921  0.15307675  0.66639939  1
  O2-  O219  1  -0.00060795  0.66829032  0.00266115  1
  O2-  O220  1  0.00186935  0.65818904  0.33267174  1
  O2-  O221  1  0.01014186  0.66095621  0.66122434  1
  O2-  O222  1  0.33920616  0.15043047  -0.00050419  1
  O2-  O223  1  0.33277955  0.15753970  0.33441462  1
  O2-  O224  1  0.33448254  0.16233837  0.67471597  1
  O2-  O225  1  0.32893708  0.66050988  0.00293180  1
  O2-  O226  1  0.34000458  0.66562939  0.32811915  1
  O2-  O227  1  0.33432195  0.65628982  0.66505436  1
  O2-  O228  1  0.66733430  0.15133777  -0.00201606  1
  O2-  O229  1  0.66167842  0.15443483  0.33726185  1
  O2-  O230  1  0.66427320  0.16658654  0.67339298  1
  O2-  O231  1  0.66017758  0.67597162  -0.00976318  1
  O2-  O232  1  0.66015785  0.65721888  0.32807546  1
  O2-  O233  1  0.66230967  0.66823453  0.66605764  1
  O2-  O234  1  0.17164109  0.16232178  0.00156144  1
  O2-  O235  1  0.16662290  0.14928742  0.32971655  1
  O2-  O236  1  0.15807429  0.18029335  0.67061018  1
  O2-  O237  1  0.15903556  0.67211128  -0.00176473  1
  O2-  O238  1  0.16766480  0.66445970  0.32931861  1
  O2-  O239  1  0.16961269  0.66148689  0.66317779  1
  O2-  O240  1  0.49748940  0.14911847  -0.00920705  1
  O2-  O241  1  0.50093335  0.17654954  0.33831292  1
  O2-  O242  1  0.49611364  0.16614293  0.67062450  1
  O2-  O243  1  0.48687328  0.66182556  -0.01095251  1
  O2-  O244  1  0.49624518  0.66480269  0.33749768  1
  O2-  O245  1  0.50234421  0.65828409  0.66097042  1
  O2-  O246  1  0.82126930  0.14895547  0.00115926  1
  O2-  O247  1  0.83611482  0.15493787  0.34179651  1
  O2-  O248  1  0.83574547  0.14709168  0.66721885  1
  O2-  O249  1  0.83515521  0.65881143  -0.00393166  1
  O2-  O250  1  0.83445160  0.65661942  0.31974933  1
  O2-  O251  1  0.83660266  0.67899794  0.67370753  1
  O2-  O252  1  0.00557031  0.33472864  0.00073885  1
  O2-  O253  1  -0.00151316  0.33009753  0.33572883  1
  O2-  O254  1  0.00183326  0.30885171  0.66995343  1
  O2-  O255  1  -0.00141281  0.82431668  0.00320232  1
  O2-  O256  1  0.00019728  0.83027842  0.33731024  1
  O2-  O257  1  0.00156848  0.84018147  0.66132345  1
  O2-  O258  1  0.32562078  0.35054794  0.00648324  1
  O2-  O259  1  0.33391926  0.35472139  0.33095839  1
  O2-  O260  1  0.32912910  0.34475717  0.67286831  1
  O2-  O261  1  0.33116614  0.84731406  -0.00358625  1
  O2-  O262  1  0.33768846  0.82107914  0.33357794  1
  O2-  O263  1  0.32774563  0.84152686  0.66727004  1
  O2-  O264  1  0.66211948  0.34826116  0.00339752  1
  O2-  O265  1  0.66307021  0.34932317  0.33855032  1
  O2-  O266  1  0.66380081  0.33849358  0.66290837  1
  O2-  O267  1  0.66495759  0.83504002  -0.00060656  1
  O2-  O268  1  0.66144145  0.84385374  0.33936646  1
  O2-  O269  1  0.66490569  0.84452989  0.67011687  1
  O2-  O270  1  0.16540628  0.33145780  0.00004050  1
  O2-  O271  1  0.17045467  0.33699336  0.33680295  1
  O2-  O272  1  0.16657216  0.33249356  0.66990196  1
  O2-  O273  1  0.16819977  0.83194448  0.00274560  1
  O2-  O274  1  0.16527294  0.81641185  0.33520714  1
  O2-  O275  1  0.16737737  0.84043592  0.66181762  1
  O2-  O276  1  0.49394739  0.35242754  -0.00151314  1
  O2-  O277  1  0.49848947  0.34807275  0.33396812  1
  O2-  O278  1  0.50465942  0.32567687  0.66887079  1
  O2-  O279  1  0.49621433  0.83934580  -0.00225848  1
  O2-  O280  1  0.49987187  0.82993359  0.33693712  1
  O2-  O281  1  0.49996729  0.83751446  0.66669385  1
  O2-  O282  1  0.83492998  0.34844500  0.00312994  1
  O2-  O283  1  0.83181641  0.35258330  0.33112930  1
  O2-  O284  1  0.82612960  0.34983231  0.66210099  1
  O2-  O285  1  0.83134894  0.84569498  -0.00220318  1
  O2-  O286  1  0.83819307  0.84339493  0.34067797  1
  O2-  O287  1  0.83867457  0.84100532  0.66912586  1
  O2-  O288  1  0.00684560  0.18281086  0.16758001  1
  O2-  O289  1  -0.00305087  0.18913844  0.49213996  1
  O2-  O290  1  0.00035297  0.18084352  0.81851033  1
  O2-  O291  1  0.00210379  0.68614110  0.16135898  1
  O2-  O292  1  0.01036047  0.68753954  0.49916427  1
  O2-  O293  1  -0.00276184  0.68379493  0.83824219  1
  O2-  O294  1  0.32486812  0.17924959  0.15113820  1
  O2-  O295  1  0.33687031  0.17230657  0.50687247  1
  O2-  O296  1  0.34018544  0.17273312  0.84093075  1
  O2-  O297  1  0.34195073  0.67265010  0.16902606  1
  O2-  O298  1  0.33776457  0.68796402  0.50096914  1
  O2-  O299  1  0.33115144  0.67562865  0.83787581  1
  O2-  O300  1  0.66585407  0.18395487  0.16723674  1
  O2-  O301  1  0.66761399  0.18181433  0.49550776  1
  O2-  O302  1  0.67335456  0.17736156  0.84083188  1
  O2-  O303  1  0.66465806  0.67177243  0.17392948  1
  O2-  O304  1  0.66424192  0.68127896  0.50012271  1
  O2-  O305  1  0.66338548  0.67857351  0.83579020  1
  O2-  O306  1  0.16892091  0.18278250  0.16924617  1
  O2-  O307  1  0.16654618  0.17983284  0.49504043  1
  O2-  O308  1  0.16225283  0.18182344  0.83854163  1
  O2-  O309  1  0.16357978  0.67583615  0.16706437  1
  O2-  O310  1  0.16754963  0.69010219  0.49974153  1
  O2-  O311  1  0.17033916  0.67655758  0.83079737  1
  O2-  O312  1  0.49852508  0.18224442  0.16369693  1
  O2-  O313  1  0.49812093  0.17103161  0.50428498  1
  O2-  O314  1  0.50556778  0.17687232  0.83233265  1
  O2-  O315  1  0.49312561  0.67738866  0.16888572  1
  O2-  O316  1  0.49950835  0.68964571  0.50185647  1
  O2-  O317  1  0.50343878  0.68568958  0.82627626  1
  O2-  O318  1  0.83601699  0.17822018  0.15562512  1
  O2-  O319  1  0.82612703  0.17363522  0.50164277  1
  O2-  O320  1  0.83085415  0.16681944  0.83045731  1
  O2-  O321  1  0.83918630  0.67278901  0.16766555  1
  O2-  O322  1  0.85182519  0.68966788  0.49897673  1
  O2-  O323  1  0.82355397  0.67186984  0.84470701  1
  O2-  O324  1  -0.00353355  0.31803071  0.15765133  1
  O2-  O325  1  -0.00404385  0.31421180  0.49473004  1
  O2-  O326  1  0.00112431  0.31807418  0.83314351  1
  O2-  O327  1  -0.00584958  0.81712267  0.16214713  1
  O2-  O328  1  -0.00077941  0.81188845  0.49800352  1
  O2-  O329  1  -0.00741024  0.82712127  0.82343658  1
  O2-  O330  1  0.33146080  0.32529159  0.16331049  1
  O2-  O331  1  0.32755682  0.33350476  0.49205753  1
  O2-  O332  1  0.34003457  0.33143211  0.84206653  1
  O2-  O333  1  0.32631826  0.82616940  0.15585527  1
  O2-  O334  1  0.33646813  0.81101053  0.50236675  1
  O2-  O335  1  0.33240885  0.82528181  0.83322524  1
  O2-  O336  1  0.66776130  0.32492717  0.16867569  1
  O2-  O337  1  0.66862135  0.31814637  0.50696100  1
  O2-  O338  1  0.66331256  0.32014218  0.83150331  1
  O2-  O339  1  0.66293408  0.82287253  0.16450861  1
  O2-  O340  1  0.67358480  0.82276550  0.50972531  1
  O2-  O341  1  0.66650604  0.82355536  0.83891086  1
  O2-  O342  1  0.16398871  0.31079840  0.16392170  1
  O2-  O343  1  0.17171779  0.32034865  0.49406381  1
  O2-  O344  1  0.16804082  0.31332041  0.83036838  1
  O2-  O345  1  0.16878601  0.81743739  0.15815645  1
  O2-  O346  1  0.16176287  0.81144956  0.50343299  1
  O2-  O347  1  0.17533292  0.82832801  0.82417547  1
  O2-  O348  1  0.49984441  0.32678610  0.16556658  1
  O2-  O349  1  0.49899670  0.31961634  0.49825516  1
  O2-  O350  1  0.49932496  0.32711563  0.83614508  1
  O2-  O351  1  0.50368348  0.82101107  0.16082629  1
  O2-  O352  1  0.50264317  0.80806484  0.49866210  1
  O2-  O353  1  0.50154466  0.81882374  0.83488283  1
  O2-  O354  1  0.83156405  0.32492599  0.16248577  1
  O2-  O355  1  0.82764501  0.33476278  0.50100479  1
  O2-  O356  1  0.82804052  0.32661100  0.84195867  1
  O2-  O357  1  0.83548571  0.82486883  0.16518821  1
  O2-  O358  1  0.82834491  0.82324178  0.50760527  1
  O2-  O359  1  0.83626085  0.82846247  0.83128696  1
  O2-  O360  1  0.08803537  0.08214943  0.12438607  1
  O2-  O361  1  0.08045991  0.08073257  0.45284752  1
  O2-  O362  1  0.05833579  0.07636489  0.78152436  1
  O2-  O363  1  0.07197556  0.58154996  0.10262841  1
  O2-  O364  1  0.08492314  0.58234861  0.44902708  1
  O2-  O365  1  0.08825130  0.58140464  0.78851244  1
  O2-  O366  1  0.40526916  0.07904754  0.11104011  1
  O2-  O367  1  0.42154650  0.06959907  0.45599713  1
  O2-  O368  1  0.42914806  0.08261095  0.76520893  1
  O2-  O369  1  0.41777385  0.58200519  0.09467179  1
  O2-  O370  1  0.41891263  0.57499820  0.44825568  1
  O2-  O371  1  0.41938203  0.58277568  0.78543580  1
  O2-  O372  1  0.75328971  0.07896350  0.11418244  1
  O2-  O373  1  0.74796105  0.07758306  0.46386890  1
  O2-  O374  1  0.75476816  0.07988559  0.76990508  1
  O2-  O375  1  0.76308994  0.57844618  0.09610201  1
  O2-  O376  1  0.74756352  0.57428268  0.44631515  1
  O2-  O377  1  0.73802567  0.58466739  0.77798205  1
  O2-  O378  1  0.24636264  0.08060900  0.20837659  1
  O2-  O379  1  0.26727620  0.07374086  0.56247142  1
  O2-  O380  1  0.24191757  0.08379392  0.90186195  1
  O2-  O381  1  0.26488462  0.58259996  0.23113874  1
  O2-  O382  1  0.22860698  0.58089215  0.55267969  1
  O2-  O383  1  0.25694892  0.58298187  0.89724917  1
  O2-  O384  1  0.56610304  0.07467796  0.24373807  1
  O2-  O385  1  0.58590414  0.08185381  0.55488992  1
  O2-  O386  1  0.59625618  0.08154756  0.88258921  1
  O2-  O387  1  0.55592709  0.58335396  0.24204657  1
  O2-  O388  1  0.56632808  0.57901412  0.54074221  1
  O2-  O389  1  0.59264487  0.57892903  0.88773788  1
  O2-  O390  1  0.93247926  0.07304221  0.21415412  1
  O2-  O391  1  0.92307173  0.07971334  0.54873002  1
  O2-  O392  1  0.91359203  0.08135796  0.89668028  1
  O2-  O393  1  0.93172626  0.58263673  0.21893514  1
  O2-  O394  1  0.94342347  0.58130286  0.54430951  1
  O2-  O395  1  0.91318933  0.58364606  0.89614742  1
  O2-  O396  1  0.09747053  0.41610014  0.09885956  1
  O2-  O397  1  0.09056989  0.42197365  0.43952643  1
  O2-  O398  1  0.09956967  0.41983912  0.78724280  1
  O2-  O399  1  0.09986872  0.91785544  0.10329594  1
  O2-  O400  1  0.07026497  0.92097125  0.45722567  1
  O2-  O401  1  0.08591295  0.91656642  0.75222181  1
  O2-  O402  1  0.41278217  0.42111258  0.10452800  1
  O2-  O403  1  0.41376493  0.42614080  0.44240926  1
  O2-  O404  1  0.42242577  0.41734615  0.77498078  1
  O2-  O405  1  0.40810060  0.91676761  0.10149607  1
  O2-  O406  1  0.42877247  0.91635569  0.45679710  1
  O2-  O407  1  0.40630554  0.91547681  0.77614717  1
  O2-  O408  1  0.74134468  0.42200462  0.11184552  1
  O2-  O409  1  0.74813304  0.42616405  0.44717523  1
  O2-  O410  1  0.74240279  0.41788433  0.78059870  1
  O2-  O411  1  0.73941270  0.91734278  0.09468820  1
  O2-  O412  1  0.75451295  0.91982749  0.45793017  1
  O2-  O413  1  0.76334028  0.91706603  0.76940619  1
  O2-  O414  1  0.24956688  0.41901467  0.21830852  1
  O2-  O415  1  0.24353262  0.42174775  0.55129664  1
  O2-  O416  1  0.25061718  0.41229901  0.89167362  1
  O2-  O417  1  0.24772742  0.91547095  0.22235007  1
  O2-  O418  1  0.23344499  0.92008184  0.55346720  1
  O2-  O419  1  0.25408914  0.92163272  0.88689876  1
  O2-  O420  1  0.58248506  0.41997651  0.22757099  1
  O2-  O421  1  0.59907633  0.41956846  0.54780547  1
  O2-  O422  1  0.58798203  0.41950747  0.88751905  1
  O2-  O423  1  0.57379322  0.92056148  0.22482834  1
  O2-  O424  1  0.57779425  0.91399909  0.55333204  1
  O2-  O425  1  0.58368922  0.92362808  0.88779697  1
  O2-  O426  1  0.92161916  0.41747579  0.21671355  1
  O2-  O427  1  0.91557008  0.41746133  0.55441766  1
  O2-  O428  1  0.92810318  0.41418240  0.89869377  1
  O2-  O429  1  0.92420798  0.91468881  0.22937760  1
  O2-  O430  1  0.91956006  0.91866037  0.55314840  1
  O2-  O431  1  0.91954883  0.91675043  0.88969361  1
  O2-  O432  1  0.00762578  0.01834856  0.00793683  1
  O2-  O433  1  -0.00068889  0.01462858  0.33404545  1
  O2-  O434  1  -0.00639108  -0.01659485  0.66356721  1
  O2-  O435  1  0.01274426  0.49845850  -0.01964377  1
  O2-  O436  1  -0.00290936  0.50377531  0.34353878  1
  O2-  O437  1  0.01022030  0.51516359  0.65581292  1
  O2-  O438  1  0.32601075  -0.00595465  0.00965431  1
  O2-  O439  1  0.32106178  0.01203891  0.35508361  1
  O2-  O440  1  0.32805983  -0.02170323  0.66578728  1
  O2-  O441  1  0.33444501  0.48801112  -0.01151994  1
  O2-  O442  1  0.33981364  0.49345114  0.33006888  1
  O2-  O443  1  0.33257641  0.51544475  0.66176793  1
  O2-  O444  1  0.69291124  0.00479561  -0.03216188  1
  O2-  O445  1  0.67358599  -0.00353818  0.31800516  1
  O2-  O446  1  0.67906960  -0.00928500  0.64364137  1
  O2-  O447  1  0.68542541  0.50587198  -0.02146780  1
  O2-  O448  1  0.66196238  0.49675089  0.34326613  1
  O2-  O449  1  0.67276302  0.48235826  0.66400617  1
  O2-  O450  1  0.17439950  0.00237297  0.01989531  1
  O2-  O451  1  0.15506210  0.01861096  0.31865817  1
  O2-  O452  1  0.15917595  -0.00223158  0.64738872  1
  O2-  O453  1  0.17323060  0.48916668  0.00055701  1
  O2-  O454  1  0.18264453  0.49711717  0.35382906  1
  O2-  O455  1  0.16839837  0.51577754  0.67295495  1
  O2-  O456  1  0.48335287  -0.00043238  -0.02320334  1
  O2-  O457  1  0.52198006  0.00044496  0.36831836  1
  O2-  O458  1  0.50643020  -0.00300947  0.66992398  1
  O2-  O459  1  0.48180602  0.49638877  -0.03741654  1
  O2-  O460  1  0.49805095  0.49981234  0.33896006  1
  O2-  O461  1  0.51822129  0.51559075  0.68005048  1
  O2-  O462  1  0.84473904  -0.00071649  0.01885386  1
  O2-  O463  1  0.84512217  0.00178298  0.34455635  1
  O2-  O464  1  0.83658789  -0.01665511  0.65631054  1
  O2-  O465  1  0.84254552  0.49515362  0.00273068  1
  O2-  O466  1  0.82732572  0.49410422  0.32474534  1
  O2-  O467  1  0.83328919  0.50134850  0.66242061  1
  O2-  O468  1  0.41106675  0.25933993  0.40365231  1
  O2-  O469  1  0.41672355  0.25089305  0.05659896  1
  O2-  O470  1  0.41114690  0.25034097  0.74821725  1
  O2-  O471  1  0.74586209  0.75323540  0.74102086  1
  O2-  O472  1  0.57980825  0.24982891  0.94273889  1
  O2-  O473  1  0.40796867  0.75039441  0.72978993  1
  O2-  O474  1  0.58509667  0.75177377  0.25986512  1
  O2-  O475  1  0.90822909  0.25264768  0.93316736  1
  O2-  O476  1  0.76191650  0.25260342  0.39428606  1
  O2-  O477  1  0.26715190  0.24903124  0.93701220  1
  O2-  O478  1  0.26178210  0.25284655  0.26849251  1
  O2-  O479  1  0.74836813  0.75271636  0.39540271  1
  O2-  O480  1  0.88675480  0.24853132  0.60115948  1
  O2-  O481  1  0.91069980  0.74993697  0.26716996  1
  O2-  O482  1  0.90519707  0.25428091  0.26212585  1
  O2-  O483  1  0.90473156  0.74999675  0.92520040  1
  O2-  O484  1  0.75350115  0.75298538  0.07313720  1
  O2-  O485  1  0.76212781  0.24959093  0.73333186  1
  O2-  O486  1  0.58729883  0.25816378  0.26793574  1
  O2-  O487  1  0.26247344  0.25737407  0.59143091  1
  O2-  O488  1  0.08610021  0.75046996  0.73523144  1
  O2-  O489  1  0.25190059  0.75099549  0.92527735  1
  O2-  O490  1  0.40720030  0.75053941  0.06453954  1
  O2-  O491  1  0.74852475  0.24907097  0.05723076  1
  O2-  O492  1  0.25626162  0.74699947  0.25105097  1
