# generated using pymatgen
data_Ca108Mn108O277
_symmetry_space_group_name_H-M   'P 1'
_cell_length_a   16.02479513
_cell_length_b   22.30232728
_cell_length_c   16.38663766
_cell_angle_alpha   90.00336827
_cell_angle_beta   89.99996516
_cell_angle_gamma   90.00354237
_symmetry_Int_Tables_number   1
_chemical_formula_structural   Ca108Mn108O277
_chemical_formula_sum   'Ca108 Mn108 O277'
_cell_volume   5856.42410949
_cell_formula_units_Z   1
loop_
 _symmetry_equiv_pos_site_id
 _symmetry_equiv_pos_as_xyz
  1  'x, y, z'
loop_
 _atom_type_symbol
 _atom_type_oxidation_number
  Ca2+  2.0
  Mn3.34+  3.34
  O2-  -2.0
loop_
 _atom_site_type_symbol
 _atom_site_label
 _atom_site_symmetry_multiplicity
 _atom_site_fract_x
 _atom_site_fract_y
 _atom_site_fract_z
 _atom_site_occupancy
  Ca2+  Ca0  1  0.09024345  0.25063206  0.23718424  1
  Ca2+  Ca1  1  0.07753679  0.25099225  0.58867060  1
  Ca2+  Ca2  1  0.08141021  0.25529547  0.92164712  1
  Ca2+  Ca3  1  0.08665944  0.76082850  0.24810996  1
  Ca2+  Ca4  1  0.08950532  0.74823678  0.57807852  1
  Ca2+  Ca5  1  0.09084641  0.76245922  0.92070413  1
  Ca2+  Ca6  1  0.41023354  0.25248830  0.24048151  1
  Ca2+  Ca7  1  0.39783635  0.24415804  0.58317134  1
  Ca2+  Ca8  1  0.40865177  0.24751922  0.93693385  1
  Ca2+  Ca9  1  0.44229434  0.74350910  0.25267248  1
  Ca2+  Ca10  1  0.43669521  0.73638921  0.58680321  1
  Ca2+  Ca11  1  0.42450292  0.75236763  0.91109846  1
  Ca2+  Ca12  1  0.75923459  0.25010374  0.24972670  1
  Ca2+  Ca13  1  0.76316720  0.26275313  0.59795256  1
  Ca2+  Ca14  1  0.75247089  0.24700981  0.90767091  1
  Ca2+  Ca15  1  0.72605254  0.74934782  0.25690622  1
  Ca2+  Ca16  1  0.72658004  0.73828363  0.58371906  1
  Ca2+  Ca17  1  0.73748356  0.75406256  0.91683527  1
  Ca2+  Ca18  1  0.26912940  0.23762999  0.09607784  1
  Ca2+  Ca19  1  0.26556466  0.25461145  0.39837676  1
  Ca2+  Ca20  1  0.26036012  0.25185737  0.75757766  1
  Ca2+  Ca21  1  0.25115511  0.76201380  0.08276361  1
  Ca2+  Ca22  1  0.26319967  0.75274548  0.41503090  1
  Ca2+  Ca23  1  0.26557489  0.75040630  0.75521553  1
  Ca2+  Ca24  1  0.56734352  0.24629785  0.09374595  1
  Ca2+  Ca25  1  0.58222981  0.24874875  0.39585578  1
  Ca2+  Ca26  1  0.59688692  0.25651666  0.76354473  1
  Ca2+  Ca27  1  0.59166104  0.75385605  0.09159808  1
  Ca2+  Ca28  1  0.58983599  0.72758286  0.40993170  1
  Ca2+  Ca29  1  0.58832933  0.74025265  0.74272400  1
  Ca2+  Ca30  1  0.91156431  0.24434363  0.09232107  1
  Ca2+  Ca31  1  0.90182670  0.25334238  0.40458925  1
  Ca2+  Ca32  1  0.89136557  0.24193990  0.75750086  1
  Ca2+  Ca33  1  0.90499637  0.76570452  0.08118638  1
  Ca2+  Ca34  1  0.89440060  0.75296379  0.41724704  1
  Ca2+  Ca35  1  0.89555166  0.75303339  0.74688920  1
  Ca2+  Ca36  1  0.58194781  0.10131893  0.10808898  1
  Ca2+  Ca37  1  0.55857543  0.09040850  0.37416808  1
  Ca2+  Ca38  1  0.09920931  0.57947176  0.24975516  1
  Ca2+  Ca39  1  0.58234308  0.60941589  0.09166708  1
  Ca2+  Ca40  1  0.05197991  0.07424752  0.91648290  1
  Ca2+  Ca41  1  0.74393146  0.59111456  0.91592930  1
  Ca2+  Ca42  1  0.39048942  0.10888301  0.58139443  1
  Ca2+  Ca43  1  0.75069751  0.10219331  0.60370198  1
  Ca2+  Ca44  1  0.26438640  0.59196621  0.74685843  1
  Ca2+  Ca45  1  0.56843554  0.09211731  0.37140774  1
  Ca2+  Ca46  1  0.76405879  0.10074525  0.60319557  1
  Ca2+  Ca47  1  0.74619600  0.10156598  0.23814097  1
  Ca2+  Ca48  1  0.10990750  0.08909737  0.59357442  1
  Ca2+  Ca49  1  0.28080798  0.11073743  0.42208100  1
  Ca2+  Ca50  1  0.28330860  0.11610261  0.41549267  1
  Ca2+  Ca51  1  0.58078302  0.09194618  0.75852458  1
  Ca2+  Ca52  1  0.40497256  0.12245297  0.23558797  1
  Ca2+  Ca53  1  0.59339046  0.09318229  0.75907516  1
  Ca2+  Ca54  1  0.71429223  0.59542469  0.25967800  1
  Ca2+  Ca55  1  0.58767504  0.58835506  0.72190544  1
  Ca2+  Ca56  1  0.71700517  0.58669871  0.56702229  1
  Ca2+  Ca57  1  0.73575172  0.10156494  0.23747148  1
  Ca2+  Ca58  1  0.41296660  0.11852738  0.23871260  1
  Ca2+  Ca59  1  0.25347277  0.60296414  0.43030303  1
  Ca2+  Ca60  1  0.90738136  0.57784262  0.06993852  1
  Ca2+  Ca61  1  0.45100499  0.59748761  0.58225020  1
  Ca2+  Ca62  1  0.10467430  0.09855980  0.24931645  1
  Ca2+  Ca63  1  0.10835866  0.57154501  0.92527262  1
  Ca2+  Ca64  1  0.92049794  0.09013237  0.38893304  1
  Ca2+  Ca65  1  0.90722154  0.08890699  0.38942174  1
  Ca2+  Ca66  1  0.26631775  0.60336003  0.43045884  1
  Ca2+  Ca67  1  0.25673699  0.10139538  0.74345154  1
  Ca2+  Ca68  1  0.41134871  0.59821731  0.91722729  1
  Ca2+  Ca69  1  0.44747087  0.60248278  0.24945082  1
  Ca2+  Ca70  1  0.24474020  0.57738570  0.06442919  1
  Ca2+  Ca71  1  0.25182494  0.59218962  0.74744586  1
  Ca2+  Ca72  1  0.75433011  0.39666241  0.91920269  1
  Ca2+  Ca73  1  0.73790756  0.40569931  0.25868259  1
  Ca2+  Ca74  1  0.42033613  0.90790074  0.24861189  1
  Ca2+  Ca75  1  0.42153853  0.39331185  0.24755089  1
  Ca2+  Ca76  1  0.74263765  0.92237891  0.93525480  1
  Ca2+  Ca77  1  0.10030495  0.42302614  0.93916789  1
  Ca2+  Ca78  1  0.90411857  0.90613286  0.40899982  1
  Ca2+  Ca79  1  0.43669454  0.90439716  0.91660858  1
  Ca2+  Ca80  1  0.73227032  0.92249982  0.93687556  1
  Ca2+  Ca81  1  0.08456079  0.40379407  0.58356149  1
  Ca2+  Ca82  1  0.06342429  0.91569642  0.91789067  1
  Ca2+  Ca83  1  0.59486355  0.40745797  0.73459019  1
  Ca2+  Ca84  1  0.40488943  0.90164093  0.58812174  1
  Ca2+  Ca85  1  0.07863632  0.90992072  0.60132769  1
  Ca2+  Ca86  1  0.58564169  0.90469741  0.75856032  1
  Ca2+  Ca87  1  0.42671143  0.40311106  0.59488246  1
  Ca2+  Ca88  1  0.88797221  0.41081809  0.41610872  1
  Ca2+  Ca89  1  0.25236235  0.91306827  0.41117632  1
  Ca2+  Ca90  1  0.92215019  0.90684241  0.75879090  1
  Ca2+  Ca91  1  0.25543750  0.40417304  0.76258709  1
  Ca2+  Ca92  1  0.09017598  0.90967682  0.60243886  1
  Ca2+  Ca93  1  0.24474356  0.40863778  0.07880607  1
  Ca2+  Ca94  1  0.08982203  0.42326297  0.93836923  1
  Ca2+  Ca95  1  0.24086840  0.90053430  0.75281136  1
  Ca2+  Ca96  1  0.89904536  0.40724833  0.41306688  1
  Ca2+  Ca97  1  0.90495460  0.92411805  0.06981130  1
  Ca2+  Ca98  1  0.08124175  0.90928018  0.24653957  1
  Ca2+  Ca99  1  0.59532039  0.91716330  0.38602597  1
  Ca2+  Ca100  1  0.23961749  0.91312556  0.41176792  1
  Ca2+  Ca101  1  0.43265510  0.90651671  0.24702402  1
  Ca2+  Ca102  1  0.08898585  0.40310432  0.23885994  1
  Ca2+  Ca103  1  0.43847238  0.40235452  0.59411347  1
  Ca2+  Ca104  1  0.07179789  0.40405156  0.58328708  1
  Ca2+  Ca105  1  0.75271820  0.89433468  0.58030145  1
  Ca2+  Ca106  1  0.91026901  0.40404218  0.75264789  1
  Ca2+  Ca107  1  0.41615549  0.90241761  0.58665082  1
  Mn3.34+  Mn108  1  0.08085369  0.33629884  0.08507129  1
  Mn3.34+  Mn109  1  0.08457002  0.33390892  0.41515304  1
  Mn3.34+  Mn110  1  0.08325155  0.33367253  0.75732937  1
  Mn3.34+  Mn111  1  0.08190426  0.83887486  0.08284520  1
  Mn3.34+  Mn112  1  0.07922097  0.83331428  0.41737008  1
  Mn3.34+  Mn113  1  0.08201910  0.83064174  0.75587467  1
  Mn3.34+  Mn114  1  0.41745945  0.33136024  0.08087334  1
  Mn3.34+  Mn115  1  0.42169678  0.32870026  0.41793338  1
  Mn3.34+  Mn116  1  0.42276542  0.33012421  0.75850886  1
  Mn3.34+  Mn117  1  0.42050849  0.83224614  0.08341680  1
  Mn3.34+  Mn118  1  0.42036861  0.83014474  0.41955819  1
  Mn3.34+  Mn119  1  0.41840453  0.83299499  0.75531673  1
  Mn3.34+  Mn120  1  0.74730419  0.33590617  0.08654340  1
  Mn3.34+  Mn121  1  0.73830361  0.33322112  0.41942832  1
  Mn3.34+  Mn122  1  0.74999360  0.33381004  0.75104323  1
  Mn3.34+  Mn123  1  0.74783455  0.83947008  0.08994898  1
  Mn3.34+  Mn124  1  0.74592338  0.83135086  0.41393308  1
  Mn3.34+  Mn125  1  0.74938341  0.83349084  0.75232165  1
  Mn3.34+  Mn126  1  0.25011175  0.33074296  0.24812890  1
  Mn3.34+  Mn127  1  0.24838483  0.32437042  0.57711941  1
  Mn3.34+  Mn128  1  0.25319580  0.33462984  0.91797238  1
  Mn3.34+  Mn129  1  0.25155068  0.83130557  0.24377239  1
  Mn3.34+  Mn130  1  0.24979913  0.82035926  0.58259501  1
  Mn3.34+  Mn131  1  0.25104234  0.83320615  0.92029133  1
  Mn3.34+  Mn132  1  0.58445174  0.33223917  0.24387759  1
  Mn3.34+  Mn133  1  0.59151573  0.33536296  0.57501606  1
  Mn3.34+  Mn134  1  0.58107446  0.33366476  0.92249785  1
  Mn3.34+  Mn135  1  0.58993252  0.83614187  0.24646694  1
  Mn3.34+  Mn136  1  0.58544304  0.83084941  0.58274019  1
  Mn3.34+  Mn137  1  0.58630264  0.83420187  0.91824994  1
  Mn3.34+  Mn138  1  0.91490231  0.32799520  0.24408518  1
  Mn3.34+  Mn139  1  0.91189172  0.33579839  0.58251643  1
  Mn3.34+  Mn140  1  0.91766257  0.32863715  0.92014429  1
  Mn3.34+  Mn141  1  0.91282379  0.83787411  0.24688590  1
  Mn3.34+  Mn142  1  0.91516852  0.82519808  0.58298005  1
  Mn3.34+  Mn143  1  0.91390507  0.83618289  0.91521749  1
  Mn3.34+  Mn144  1  0.07717044  0.16393879  0.07942881  1
  Mn3.34+  Mn145  1  0.07966910  0.17758919  0.41997407  1
  Mn3.34+  Mn146  1  0.74901809  0.66327502  0.74638564  1
  Mn3.34+  Mn147  1  0.07871342  0.66536436  0.08425661  1
  Mn3.34+  Mn148  1  0.07180330  0.66230916  0.42299143  1
  Mn3.34+  Mn149  1  0.57441335  0.17788590  0.57791341  1
  Mn3.34+  Mn150  1  0.25444698  0.16829275  0.92139175  1
  Mn3.34+  Mn151  1  0.74550035  0.65867252  0.42235567  1
  Mn3.34+  Mn152  1  0.75019387  0.16974763  0.42100562  1
  Mn3.34+  Mn153  1  0.58435986  0.18397082  0.58040267  1
  Mn3.34+  Mn154  1  0.07438037  0.66529889  0.74065580  1
  Mn3.34+  Mn155  1  0.75467884  0.15813888  0.08009684  1
  Mn3.34+  Mn156  1  0.08090302  0.15458540  0.75753421  1
  Mn3.34+  Mn157  1  0.25717356  0.66703999  0.24442936  1
  Mn3.34+  Mn158  1  0.42426360  0.66915550  0.41840163  1
  Mn3.34+  Mn159  1  0.74760721  0.66743801  0.08514044  1
  Mn3.34+  Mn160  1  0.90853450  0.66279670  0.58203959  1
  Mn3.34+  Mn161  1  0.91783937  0.17386325  0.58260054  1
  Mn3.34+  Mn162  1  0.58819690  0.15815895  0.92284367  1
  Mn3.34+  Mn163  1  0.08300035  0.67150695  0.74333232  1
  Mn3.34+  Mn164  1  0.91037731  0.66651329  0.91299681  1
  Mn3.34+  Mn165  1  0.25086380  0.66801349  0.91467394  1
  Mn3.34+  Mn166  1  0.90798430  0.66864151  0.25261565  1
  Mn3.34+  Mn167  1  0.42100580  0.66756775  0.75100198  1
  Mn3.34+  Mn168  1  0.08825349  0.17142905  0.42236759  1
  Mn3.34+  Mn169  1  0.41402331  0.67060708  0.08191547  1
  Mn3.34+  Mn170  1  0.57791105  0.16290843  0.92259734  1
  Mn3.34+  Mn171  1  0.08258787  0.66890202  0.42061799  1
  Mn3.34+  Mn172  1  0.90214176  0.15910815  0.91572792  1
  Mn3.34+  Mn173  1  0.58335325  0.66831235  0.91291905  1
  Mn3.34+  Mn174  1  0.92108636  0.66195395  0.91015809  1
  Mn3.34+  Mn175  1  0.41183112  0.16915658  0.75438850  1
  Mn3.34+  Mn176  1  0.08932442  0.66070984  0.08603076  1
  Mn3.34+  Mn177  1  0.91833370  0.66343852  0.25203826  1
  Mn3.34+  Mn178  1  0.07710718  0.16615453  0.75364610  1
  Mn3.34+  Mn179  1  0.08790835  0.16026491  0.08149664  1
  Mn3.34+  Mn180  1  0.25446667  -0.00022081  0.24961863  1
  Mn3.34+  Mn181  1  0.42047963  -0.00064851  0.07054098  1
  Mn3.34+  Mn182  1  0.08583492  0.50214411  0.41168816  1
  Mn3.34+  Mn183  1  0.25335750  0.00725992  0.91236710  1
  Mn3.34+  Mn184  1  0.57580586  0.49644494  0.91088017  1
  Mn3.34+  Mn185  1  0.57763946  -0.00147111  0.57602154  1
  Mn3.34+  Mn186  1  0.92403644  0.00465172  0.57900248  1
  Mn3.34+  Mn187  1  0.41932317  -0.00122287  0.42498284  1
  Mn3.34+  Mn188  1  0.90972396  -0.00063770  0.24802723  1
  Mn3.34+  Mn189  1  0.07284801  0.00012722  0.07339635  1
  Mn3.34+  Mn190  1  0.42565271  0.49547694  0.08356391  1
  Mn3.34+  Mn191  1  0.91524048  0.50404599  0.59012845  1
  Mn3.34+  Mn192  1  0.75062739  0.49963033  0.73626504  1
  Mn3.34+  Mn193  1  0.25440219  -0.00041210  0.58008249  1
  Mn3.34+  Mn194  1  0.43133936  0.50124067  0.41536487  1
  Mn3.34+  Mn195  1  0.75428741  0.00198616  0.75369306  1
  Mn3.34+  Mn196  1  0.42650597  0.49922796  0.74818245  1
  Mn3.34+  Mn197  1  0.58976838  0.49443331  0.25709820  1
  Mn3.34+  Mn198  1  0.91347183  0.49555175  0.24327520  1
  Mn3.34+  Mn199  1  0.58902386  0.50287974  0.91161577  1
  Mn3.34+  Mn200  1  0.74586068  0.49971755  0.08371210  1
  Mn3.34+  Mn201  1  0.41410261  0.00090368  0.75060034  1
  Mn3.34+  Mn202  1  0.74971126  -0.00055959  0.42063050  1
  Mn3.34+  Mn203  1  0.59372168  0.00253813  0.57653470  1
  Mn3.34+  Mn204  1  0.24329782  0.00207490  0.91218584  1
  Mn3.34+  Mn205  1  0.43087598  0.00389520  0.06819056  1
  Mn3.34+  Mn206  1  0.25478673  0.50143802  0.25187088  1
  Mn3.34+  Mn207  1  0.90235228  0.49997703  0.24616522  1
  Mn3.34+  Mn208  1  0.08248778  0.00249357  0.41332759  1
  Mn3.34+  Mn209  1  0.91211048  0.49796415  0.91889522  1
  Mn3.34+  Mn210  1  0.24134009  0.50103573  0.58241002  1
  Mn3.34+  Mn211  1  0.91378735  -0.00101921  0.57833534  1
  Mn3.34+  Mn212  1  0.41540391  0.50040857  0.08551051  1
  Mn3.34+  Mn213  1  0.06706350  0.50276090  0.74740846  1
  Mn3.34+  Mn214  1  0.42087431  0.49578936  0.41566826  1
  Mn3.34+  Mn215  1  0.25191721  0.49489813  0.58299297  1
  O2-  O216  1  0.00192094  0.15253702  -0.00200614  1
  O2-  O217  1  0.00457041  0.15860140  0.33618513  1
  O2-  O218  1  0.00710859  0.16317408  0.66076467  1
  O2-  O219  1  -0.00055473  0.64383515  -0.00190945  1
  O2-  O220  1  0.00595816  0.64349200  0.33013340  1
  O2-  O221  1  -0.00523360  0.69526037  0.66357214  1
  O2-  O222  1  0.32940385  0.16399813  -0.00444850  1
  O2-  O223  1  0.34075958  0.17146511  0.33623214  1
  O2-  O224  1  0.33222938  0.16733622  0.67303306  1
  O2-  O225  1  0.32918951  0.65670381  0.00050401  1
  O2-  O226  1  0.33663890  0.64966376  0.33001727  1
  O2-  O227  1  0.33572640  0.65694626  0.67575651  1
  O2-  O228  1  0.66979233  0.17276998  0.00201226  1
  O2-  O229  1  0.66703646  0.15758470  0.34371317  1
  O2-  O230  1  0.65800820  0.16587318  0.66549981  1
  O2-  O231  1  0.66655267  0.65253887  -0.00327340  1
  O2-  O232  1  0.67378564  0.66549935  0.33767783  1
  O2-  O233  1  0.67353603  0.65595125  0.66760259  1
  O2-  O234  1  0.15762521  0.15294640  -0.00906826  1
  O2-  O235  1  0.17129050  0.16128084  0.34374922  1
  O2-  O236  1  0.16336932  0.17219170  0.67241588  1
  O2-  O237  1  0.16549312  0.64985873  -0.00512970  1
  O2-  O238  1  0.17099391  0.64664634  0.33407122  1
  O2-  O239  1  0.17098024  0.68467300  0.66917937  1
  O2-  O240  1  0.50730930  0.15892313  0.00774762  1
  O2-  O241  1  0.49866257  0.16922923  0.32841079  1
  O2-  O242  1  0.49911817  0.15804522  0.66363199  1
  O2-  O243  1  0.49589445  0.66130540  -0.00585943  1
  O2-  O244  1  0.49947592  0.66309583  0.33698990  1
  O2-  O245  1  0.50129955  0.66139479  0.67545367  1
  O2-  O246  1  0.83115561  0.18117278  0.00411029  1
  O2-  O247  1  0.82325236  0.15371891  0.33770657  1
  O2-  O248  1  0.83592126  0.16637082  0.65807510  1
  O2-  O249  1  0.83260909  0.64776602  -0.00084359  1
  O2-  O250  1  0.83532687  0.65794524  0.33784479  1
  O2-  O251  1  0.83525654  0.67506466  0.66693867  1
  O2-  O252  1  0.00802550  0.34742979  -0.00909407  1
  O2-  O253  1  -0.00901291  0.34892076  0.34311542  1
  O2-  O254  1  0.00537789  0.34451796  0.66510729  1
  O2-  O255  1  -0.00385813  0.84565660  -0.00074878  1
  O2-  O256  1  0.00016854  0.85379069  0.33509978  1
  O2-  O257  1  0.00214257  0.83075010  0.66653953  1
  O2-  O258  1  0.32873608  0.34317634  0.00450346  1
  O2-  O259  1  0.33888914  0.33362279  0.33227535  1
  O2-  O260  1  0.33370454  0.33778053  0.65959755  1
  O2-  O261  1  0.34023340  0.82909711  -0.00050186  1
  O2-  O262  1  0.33401408  0.84989833  0.33794696  1
  O2-  O263  1  0.32958167  0.84233670  0.66877909  1
  O2-  O264  1  0.67228852  0.32906286  -0.00377428  1
  O2-  O265  1  0.66533045  0.32670321  0.32766707  1
  O2-  O266  1  0.66407474  0.33192441  0.66604567  1
  O2-  O267  1  0.67158275  0.84060193  -0.00571043  1
  O2-  O268  1  0.66679549  0.84202562  0.33323925  1
  O2-  O269  1  0.66616114  0.85087689  0.66842398  1
  O2-  O270  1  0.16357239  0.34244022  -0.00411716  1
  O2-  O271  1  0.15710592  0.32816517  0.32599751  1
  O2-  O272  1  0.16363465  0.32384373  0.66443027  1
  O2-  O273  1  0.15917087  0.84491540  -0.00849834  1
  O2-  O274  1  0.16708095  0.85012348  0.33447332  1
  O2-  O275  1  0.16267108  0.82962554  0.66363818  1
  O2-  O276  1  0.49808624  0.33040101  -0.00130245  1
  O2-  O277  1  0.49935977  0.31712539  0.33024787  1
  O2-  O278  1  0.50300093  0.33001001  0.66264975  1
  O2-  O279  1  0.49878308  0.83129640  -0.00388782  1
  O2-  O280  1  0.49680470  0.84623354  0.33650571  1
  O2-  O281  1  0.49823710  0.85109518  0.66836038  1
  O2-  O282  1  0.83065454  0.32917129  -0.00105845  1
  O2-  O283  1  0.83025797  0.34316461  0.33056989  1
  O2-  O284  1  0.83452037  0.34424897  0.66907018  1
  O2-  O285  1  0.83193016  0.84504071  -0.00461602  1
  O2-  O286  1  0.83558959  0.84073221  0.33760913  1
  O2-  O287  1  0.83831253  0.84181892  0.67146552  1
  O2-  O288  1  0.00710359  0.17473645  0.16665887  1
  O2-  O289  1  -0.00379607  0.19154722  0.49679557  1
  O2-  O290  1  -0.00227564  0.17862984  0.83393804  1
  O2-  O291  1  0.00020714  0.68114663  0.17171427  1
  O2-  O292  1  -0.00847702  0.68920673  0.50414332  1
  O2-  O293  1  0.00268037  0.68883702  0.83206100  1
  O2-  O294  1  0.34072625  0.18011536  0.17138138  1
  O2-  O295  1  0.32810960  0.18245418  0.49892717  1
  O2-  O296  1  0.32900021  0.17836327  0.83116745  1
  O2-  O297  1  0.33373409  0.69062278  0.16419704  1
  O2-  O298  1  0.33038507  0.68074132  0.48923154  1
  O2-  O299  1  0.33438287  0.67955267  0.83551427  1
  O2-  O300  1  0.67426034  0.17958613  0.15995650  1
  O2-  O301  1  0.67874367  0.18148620  0.51137679  1
  O2-  O302  1  0.65689009  0.17025376  0.83265718  1
  O2-  O303  1  0.66992002  0.67638561  0.16243437  1
  O2-  O304  1  0.67079710  0.67113585  0.49895042  1
  O2-  O305  1  0.66795647  0.67527345  0.83412908  1
  O2-  O306  1  0.16306125  0.17458182  0.16241650  1
  O2-  O307  1  0.16244681  0.18535908  0.50459168  1
  O2-  O308  1  0.16321785  0.18926808  0.82963544  1
  O2-  O309  1  0.16374292  0.68092347  0.17259635  1
  O2-  O310  1  0.16949852  0.68530385  0.49273913  1
  O2-  O311  1  0.16875252  0.68526581  0.82792673  1
  O2-  O312  1  0.50705096  0.17941894  0.17701179  1
  O2-  O313  1  0.50187292  0.19047312  0.49474922  1
  O2-  O314  1  0.50496492  0.17119713  0.82815221  1
  O2-  O315  1  0.49839076  0.68374512  0.15370086  1
  O2-  O316  1  0.49716152  0.67669125  0.49858839  1
  O2-  O317  1  0.49781794  0.68046611  0.83664479  1
  O2-  O318  1  0.82157781  0.17561214  0.16417435  1
  O2-  O319  1  0.83979446  0.17429474  0.49369223  1
  O2-  O320  1  0.83045964  0.17736713  0.84204462  1
  O2-  O321  1  0.83977294  0.68132600  0.15973578  1
  O2-  O322  1  0.83060940  0.68685599  0.50667837  1
  O2-  O323  1  0.82866779  0.68108949  0.83345322  1
  O2-  O324  1  0.00719929  0.32145505  0.17310515  1
  O2-  O325  1  0.00439429  0.31991032  0.50315241  1
  O2-  O326  1  -0.00461207  0.31719977  0.82637544  1
  O2-  O327  1  0.00147542  0.82012255  0.16810785  1
  O2-  O328  1  0.00426410  0.81835281  0.50655302  1
  O2-  O329  1  -0.00159726  0.81782471  0.83274868  1
  O2-  O330  1  0.33394506  0.32908186  0.16845532  1
  O2-  O331  1  0.33625115  0.31413053  0.50102148  1
  O2-  O332  1  0.33205221  0.32725140  0.83017688  1
  O2-  O333  1  0.34309600  0.81793807  0.17347520  1
  O2-  O334  1  0.33308265  0.82321730  0.50078066  1
  O2-  O335  1  0.33532296  0.82224187  0.83444189  1
  O2-  O336  1  0.66724812  0.30899388  0.16692673  1
  O2-  O337  1  0.66595420  0.30387997  0.50207155  1
  O2-  O338  1  0.67073325  0.32589548  0.83499692  1
  O2-  O339  1  0.66703431  0.82247266  0.16546627  1
  O2-  O340  1  0.66803271  0.82464719  0.50318031  1
  O2-  O341  1  0.66645264  0.82672587  0.83201115  1
  O2-  O342  1  0.16726486  0.32456298  0.16271074  1
  O2-  O343  1  0.16295749  0.30889085  0.49897212  1
  O2-  O344  1  0.16902366  0.31544022  0.83019474  1
  O2-  O345  1  0.16510996  0.82306416  0.16708439  1
  O2-  O346  1  0.17040521  0.81652174  0.49694236  1
  O2-  O347  1  0.17142423  0.81793848  0.82592679  1
  O2-  O348  1  0.49612460  0.31953106  0.17178167  1
  O2-  O349  1  0.49870701  0.31231979  0.50677696  1
  O2-  O350  1  0.51083790  0.32891217  0.82689060  1
  O2-  O351  1  0.49801631  0.82330946  0.17065619  1
  O2-  O352  1  0.48793291  0.82492671  0.51308484  1
  O2-  O353  1  0.50272845  0.82663019  0.83332260  1
  O2-  O354  1  0.83047516  0.31386721  0.16563119  1
  O2-  O355  1  0.83789377  0.32539179  0.49138863  1
  O2-  O356  1  0.83332061  0.32681358  0.83487744  1
  O2-  O357  1  0.83436325  0.82557209  0.16440976  1
  O2-  O358  1  0.83265052  0.82412106  0.50169353  1
  O2-  O359  1  0.83277132  0.81852233  0.83420771  1
  O2-  O360  1  0.08480865  0.07740185  0.11569021  1
  O2-  O361  1  0.06470970  0.08439021  0.45997488  1
  O2-  O362  1  0.10939548  0.07555056  0.77609132  1
  O2-  O363  1  0.08037728  0.57931102  0.11120897  1
  O2-  O364  1  0.10081490  0.58418812  0.45454470  1
  O2-  O365  1  0.10592159  0.58378366  0.77875667  1
  O2-  O366  1  0.43922840  0.07686899  0.11970148  1
  O2-  O367  1  0.42188370  0.08031320  0.44758042  1
  O2-  O368  1  0.42392364  0.08356587  0.76183948  1
  O2-  O369  1  0.42098712  0.58154770  0.11580467  1
  O2-  O370  1  0.40550018  0.58102287  0.45186126  1
  O2-  O371  1  0.40639368  0.58018428  0.77980790  1
  O2-  O372  1  0.73402833  0.08068591  0.10576525  1
  O2-  O373  1  0.76080076  0.07858363  0.46161571  1
  O2-  O374  1  0.72564295  0.08144964  0.73757122  1
  O2-  O375  1  0.75614037  0.58018813  0.11844286  1
  O2-  O376  1  0.75073476  0.58204036  0.43318646  1
  O2-  O377  1  0.74568597  0.57793006  0.77634466  1
  O2-  O378  1  0.26321292  0.07994758  0.25196647  1
  O2-  O379  1  0.24874229  0.07895859  0.54988070  1
  O2-  O380  1  0.24517927  0.08683259  0.88003884  1
  O2-  O381  1  0.25051065  0.58037273  0.20821752  1
  O2-  O382  1  0.25794058  0.58120766  0.56158622  1
  O2-  O383  1  0.25377991  0.58508097  0.88184415  1
  O2-  O384  1  0.60549921  0.07761179  0.24137727  1
  O2-  O385  1  0.59799250  0.08594681  0.55594957  1
  O2-  O386  1  0.58313324  0.07720646  0.89006944  1
  O2-  O387  1  0.58044341  0.56654377  0.21146144  1
  O2-  O388  1  0.58206100  0.57115038  0.57832232  1
  O2-  O389  1  0.57574776  0.58214883  0.87747161  1
  O2-  O390  1  0.88032891  0.07825039  0.24906112  1
  O2-  O391  1  0.91068988  0.08655275  0.55561863  1
  O2-  O392  1  0.91779804  0.08362165  0.89724476  1
  O2-  O393  1  0.92148119  0.58034276  0.20839411  1
  O2-  O394  1  0.89546099  0.58120008  0.55999921  1
  O2-  O395  1  0.91341977  0.57981878  0.88343273  1
  O2-  O396  1  0.09258622  0.41715209  0.09806925  1
  O2-  O397  1  0.07722658  0.42163233  0.45244520  1
  O2-  O398  1  0.08605944  0.42196620  0.79098677  1
  O2-  O399  1  0.07441317  0.92348329  0.11165122  1
  O2-  O400  1  0.10340753  0.92421419  0.46713987  1
  O2-  O401  1  0.08501526  0.91434692  0.76295950  1
  O2-  O402  1  0.41811247  0.41559921  0.11223214  1
  O2-  O403  1  0.42377023  0.41741358  0.45827265  1
  O2-  O404  1  0.42309844  0.41578293  0.74229396  1
  O2-  O405  1  0.41500100  0.92164524  0.11500137  1
  O2-  O406  1  0.40346618  0.91771139  0.45304203  1
  O2-  O407  1  0.41431056  0.91912071  0.77736952  1
  O2-  O408  1  0.74870592  0.42077355  0.11719514  1
  O2-  O409  1  0.75047750  0.41292249  0.43161855  1
  O2-  O410  1  0.74594190  0.42278781  0.77965554  1
  O2-  O411  1  0.75522796  0.91938560  0.08448280  1
  O2-  O412  1  0.74745043  0.91876145  0.44353953  1
  O2-  O413  1  0.76507693  0.92151354  0.78419846  1
  O2-  O414  1  0.24548008  0.42042162  0.22704580  1
  O2-  O415  1  0.22438433  0.41381643  0.56766670  1
  O2-  O416  1  0.23262027  0.41478173  0.89359701  1
  O2-  O417  1  0.26604924  0.91754153  0.22704498  1
  O2-  O418  1  0.25560127  0.91740751  0.55150471  1
  O2-  O419  1  0.25411920  0.91960840  0.88606383  1
  O2-  O420  1  0.58018238  0.41906645  0.22583219  1
  O2-  O421  1  0.56798880  0.41493070  0.57519087  1
  O2-  O422  1  0.59665949  0.41683591  0.89467387  1
  O2-  O423  1  0.56476506  0.91937791  0.24353035  1
  O2-  O424  1  0.57142446  0.91793765  0.54882729  1
  O2-  O425  1  0.59521876  0.91681867  0.89461464  1
  O2-  O426  1  0.91573881  0.41359135  0.22406624  1
  O2-  O427  1  0.93020799  0.42159279  0.54501043  1
  O2-  O428  1  0.91493755  0.41834683  0.89165845  1
  O2-  O429  1  0.92894383  0.92091897  0.21935417  1
  O2-  O430  1  0.93005454  0.91712072  0.55474029  1
  O2-  O431  1  0.91745361  0.91584951  0.89080231  1
  O2-  O432  1  -0.00394693  -0.00832610  -0.00253398  1
  O2-  O433  1  0.00112549  0.01733186  0.32502671  1
  O2-  O434  1  0.01009527  -0.00844284  0.65379684  1
  O2-  O435  1  0.00948032  0.50418711  -0.03087714  1
  O2-  O436  1  0.01114682  0.49996101  0.31331016  1
  O2-  O437  1  0.01420037  0.47851096  0.64603931  1
  O2-  O438  1  0.33379477  -0.00236661  -0.00553689  1
  O2-  O439  1  0.32496762  -0.00980083  0.34941209  1
  O2-  O440  1  0.34750289  -0.00783172  0.65041036  1
  O2-  O441  1  0.32240333  0.50296996  0.01982894  1
  O2-  O442  1  0.32976806  0.51221242  0.34418253  1
  O2-  O443  1  0.32032784  0.50238851  0.68596792  1
  O2-  O444  1  0.68175035  0.00605533  -0.01083621  1
  O2-  O445  1  0.65119731  0.01026868  0.37128388  1
  O2-  O446  1  0.66328592  -0.01305935  0.67033732  1
  O2-  O447  1  0.66649340  0.51048785  -0.00391034  1
  O2-  O448  1  0.68842196  0.49827833  0.29732897  1
  O2-  O449  1  0.65144327  0.49933880  0.69091898  1
  O2-  O450  1  0.15164172  0.00071480  -0.01701326  1
  O2-  O451  1  0.16526499  -0.01378269  0.32815805  1
  O2-  O452  1  0.16016133  -0.00703542  0.63641498  1
  O2-  O453  1  0.16438185  0.49904858  -0.00906881  1
  O2-  O454  1  0.17017665  0.51359604  0.32705913  1
  O2-  O455  1  0.17070492  0.50336251  0.67924500  1
  O2-  O456  1  0.51055095  -0.00957956  -0.00678693  1
  O2-  O457  1  0.49368054  0.00140003  0.33976392  1
  O2-  O458  1  0.50868057  -0.00011289  0.67332676  1
  O2-  O459  1  0.49340805  0.51449363  -0.00881191  1
  O2-  O460  1  0.49208007  0.50075310  0.31579052  1
  O2-  O461  1  0.47968816  0.50340448  0.65180406  1
  O2-  O462  1  0.82288237  -0.01181143  -0.00777400  1
  O2-  O463  1  0.84978161  -0.00298337  0.35952211  1
  O2-  O464  1  0.82303448  0.00824043  0.65339240  1
  O2-  O465  1  0.82910666  0.50911336  -0.00330277  1
  O2-  O466  1  0.84543361  0.48586747  0.34382992  1
  O2-  O467  1  0.84764766  0.49001614  0.68239155  1
  O2-  O468  1  0.92414807  0.75185900  0.27551947  1
  O2-  O469  1  0.74968912  0.75129167  0.39943552  1
  O2-  O470  1  0.75748737  0.24852433  0.39498866  1
  O2-  O471  1  0.41334138  0.25273011  0.07313521  1
  O2-  O472  1  0.74045499  0.75150013  0.73245500  1
  O2-  O473  1  0.58412739  0.75597399  0.26668646  1
  O2-  O474  1  0.75233208  0.74968289  0.05938266  1
  O2-  O475  1  0.25282961  0.25062898  0.93697791  1
  O2-  O476  1  0.93029791  0.24929948  0.93445572  1
  O2-  O477  1  0.24205447  0.74881366  0.94059199  1
  O2-  O478  1  0.58270288  0.75405919  0.60534186  1
  O2-  O479  1  0.91432430  0.25391612  0.60659189  1
  O2-  O480  1  0.58943700  0.74942269  0.93381001  1
  O2-  O481  1  0.07749290  0.24882196  0.06197887  1
  O2-  O482  1  0.41758753  0.75162458  0.73053835  1
  O2-  O483  1  0.08311516  0.74663311  0.05930181  1
  O2-  O484  1  0.41845148  0.24966571  0.73565121  1
  O2-  O485  1  0.91799042  0.25176458  0.26892601  1
  O2-  O486  1  0.57850732  0.24727433  0.92060532  1
  O2-  O487  1  0.91805355  0.74785438  0.94369904  1
  O2-  O488  1  0.07555688  0.74608925  0.38393677  1
  O2-  O489  1  0.24194510  0.74972758  0.27768499  1
  O2-  O490  1  0.74981131  0.25462731  0.73986384  1
  O2-  O491  1  0.25014542  0.25291974  0.25604081  1
  O2-  O492  1  0.41217237  0.75178013  0.39157332  1
