# generated using pymatgen
data_Ca108Mn108O277
_symmetry_space_group_name_H-M   'P 1'
_cell_length_a   16.02249672
_cell_length_b   22.29843762
_cell_length_c   16.38509126
_cell_angle_alpha   89.99492391
_cell_angle_beta   89.99693194
_cell_angle_gamma   90.00020321
_symmetry_Int_Tables_number   1
_chemical_formula_structural   Ca108Mn108O277
_chemical_formula_sum   'Ca108 Mn108 O277'
_cell_volume   5854.01037664
_cell_formula_units_Z   1
loop_
 _symmetry_equiv_pos_site_id
 _symmetry_equiv_pos_as_xyz
  1  'x, y, z'
loop_
 _atom_type_symbol
 _atom_type_oxidation_number
  Ca2+  2.0
  Mn3.34+  3.34
  O2-  -2.0
loop_
 _atom_site_type_symbol
 _atom_site_label
 _atom_site_symmetry_multiplicity
 _atom_site_fract_x
 _atom_site_fract_y
 _atom_site_fract_z
 _atom_site_occupancy
  Ca2+  Ca0  1  0.08478099  0.25642216  0.25155787  1
  Ca2+  Ca1  1  0.09559668  0.25350511  0.58375732  1
  Ca2+  Ca2  1  0.06808564  0.24778332  0.92429228  1
  Ca2+  Ca3  1  0.09981052  0.75055610  0.23660008  1
  Ca2+  Ca4  1  0.08422694  0.73170723  0.59227732  1
  Ca2+  Ca5  1  0.09845579  0.74346022  0.91174191  1
  Ca2+  Ca6  1  0.42046804  0.24709748  0.26323086  1
  Ca2+  Ca7  1  0.40708501  0.25294910  0.56879608  1
  Ca2+  Ca8  1  0.40924808  0.25709731  0.92237080  1
  Ca2+  Ca9  1  0.43452089  0.74192246  0.25834307  1
  Ca2+  Ca10  1  0.41062650  0.75644016  0.58810360  1
  Ca2+  Ca11  1  0.41043087  0.74876370  0.90740744  1
  Ca2+  Ca12  1  0.74490789  0.25503421  0.25774649  1
  Ca2+  Ca13  1  0.74432204  0.25632043  0.57095231  1
  Ca2+  Ca14  1  0.77563107  0.24476368  0.92747628  1
  Ca2+  Ca15  1  0.72006934  0.74718388  0.27190122  1
  Ca2+  Ca16  1  0.74870378  0.74296235  0.58794253  1
  Ca2+  Ca17  1  0.74429230  0.75839955  0.88809303  1
  Ca2+  Ca18  1  0.23188415  0.24736798  0.09246303  1
  Ca2+  Ca19  1  0.24330710  0.25243783  0.41534344  1
  Ca2+  Ca20  1  0.23763259  0.25348057  0.74612261  1
  Ca2+  Ca21  1  0.22583708  0.73632264  0.07986669  1
  Ca2+  Ca22  1  0.24560556  0.74704743  0.42350514  1
  Ca2+  Ca23  1  0.23751800  0.73729488  0.74889050  1
  Ca2+  Ca24  1  0.59323936  0.25635108  0.09811878  1
  Ca2+  Ca25  1  0.60012307  0.24413467  0.40288617  1
  Ca2+  Ca26  1  0.59762692  0.25259379  0.74709581  1
  Ca2+  Ca27  1  0.57562546  0.75549509  0.10542127  1
  Ca2+  Ca28  1  0.59849518  0.73945636  0.41464893  1
  Ca2+  Ca29  1  0.58914391  0.75030968  0.74384814  1
  Ca2+  Ca30  1  0.92033588  0.25179389  0.06915735  1
  Ca2+  Ca31  1  0.91576883  0.26565311  0.41047730  1
  Ca2+  Ca32  1  0.91732550  0.24132094  0.78058531  1
  Ca2+  Ca33  1  0.94598011  0.74999962  0.08357468  1
  Ca2+  Ca34  1  0.90021260  0.74406117  0.43907133  1
  Ca2+  Ca35  1  0.91888465  0.74379104  0.73510150  1
  Ca2+  Ca36  1  0.40690372  0.59440114  0.58434653  1
  Ca2+  Ca37  1  0.96312493  0.60295389  0.42899380  1
  Ca2+  Ca38  1  0.57914776  0.59571721  0.08808411  1
  Ca2+  Ca39  1  0.22366637  0.59256848  0.43557146  1
  Ca2+  Ca40  1  0.73888492  0.59846765  0.27317611  1
  Ca2+  Ca41  1  0.92090171  0.08271237  0.41564895  1
  Ca2+  Ca42  1  0.94543781  0.59504098  0.73022667  1
  Ca2+  Ca43  1  0.57631763  0.60310521  0.40948357  1
  Ca2+  Ca44  1  0.08772225  0.60062950  0.26697238  1
  Ca2+  Ca45  1  0.60362848  0.09580949  0.39980789  1
  Ca2+  Ca46  1  0.96213393  0.58792380  0.08666621  1
  Ca2+  Ca47  1  0.05635749  0.10227825  0.91389805  1
  Ca2+  Ca48  1  0.21185475  0.58915304  0.05848715  1
  Ca2+  Ca49  1  0.72655120  0.59821776  0.27064086  1
  Ca2+  Ca50  1  0.21354412  0.59367920  0.43402981  1
  Ca2+  Ca51  1  0.09230140  0.08373475  0.58615547  1
  Ca2+  Ca52  1  0.39964166  0.09032659  0.58208414  1
  Ca2+  Ca53  1  0.40639629  0.07562236  0.93435718  1
  Ca2+  Ca54  1  0.58806712  0.60842294  0.75367782  1
  Ca2+  Ca55  1  0.12234828  0.59637514  0.89099963  1
  Ca2+  Ca56  1  0.75744229  0.61083996  0.57607701  1
  Ca2+  Ca57  1  0.23721510  0.08555409  0.74573732  1
  Ca2+  Ca58  1  0.23251207  0.09255534  0.40149713  1
  Ca2+  Ca59  1  0.74130783  0.09128755  0.24722709  1
  Ca2+  Ca60  1  0.08683340  0.59536063  0.25992389  1
  Ca2+  Ca61  1  0.10851646  0.10468476  0.23965152  1
  Ca2+  Ca62  1  0.37373474  0.59690795  0.90671019  1
  Ca2+  Ca63  1  0.23929198  0.09490667  0.39393793  1
  Ca2+  Ca64  1  0.39643104  0.59381754  0.58499423  1
  Ca2+  Ca65  1  0.75783387  0.08962636  0.58833440  1
  Ca2+  Ca66  1  0.91166881  0.09247870  0.06502890  1
  Ca2+  Ca67  1  0.77736038  0.09342210  0.91794895  1
  Ca2+  Ca68  1  0.97388498  0.58450379  0.08774406  1
  Ca2+  Ca69  1  0.90798393  0.08305030  0.41577524  1
  Ca2+  Ca70  1  0.60624164  0.08299239  0.08619399  1
  Ca2+  Ca71  1  0.73765989  0.61056495  0.89844703  1
  Ca2+  Ca72  1  0.39508075  0.41454568  0.56977025  1
  Ca2+  Ca73  1  0.07262033  0.41168883  0.24551511  1
  Ca2+  Ca74  1  0.41894968  0.40038982  0.24910239  1
  Ca2+  Ca75  1  0.41854436  0.90013933  0.25013676  1
  Ca2+  Ca76  1  0.24499530  0.90674448  0.07919481  1
  Ca2+  Ca77  1  0.25652223  0.90652647  0.07902986  1
  Ca2+  Ca78  1  0.41982501  0.90297462  0.91603889  1
  Ca2+  Ca79  1  0.89596306  0.91593414  0.07735182  1
  Ca2+  Ca80  1  0.22462135  0.42765806  0.74823771  1
  Ca2+  Ca81  1  0.74608549  0.39127886  0.92328782  1
  Ca2+  Ca82  1  0.58583587  0.40406764  0.75680813  1
  Ca2+  Ca83  1  0.56909184  0.40769193  0.40694956  1
  Ca2+  Ca84  1  0.08355292  0.42399473  0.58281943  1
  Ca2+  Ca85  1  0.08879769  0.91312463  0.26549511  1
  Ca2+  Ca86  1  0.75149587  0.90450680  0.58559511  1
  Ca2+  Ca87  1  0.57302497  0.40419813  0.75721471  1
  Ca2+  Ca88  1  0.91756860  0.90755272  0.41678584  1
  Ca2+  Ca89  1  0.39015047  0.41786309  0.57762473  1
  Ca2+  Ca90  1  0.58289044  0.90049004  0.75859559  1
  Ca2+  Ca91  1  0.08350559  0.90239663  0.91214713  1
  Ca2+  Ca92  1  0.93595389  0.40428272  0.74429673  1
  Ca2+  Ca93  1  0.40550013  0.41539690  0.93075550  1
  Ca2+  Ca94  1  0.90865919  0.91462619  0.07683536  1
  Ca2+  Ca95  1  0.08722731  0.90755758  0.58469434  1
  Ca2+  Ca96  1  0.58047863  0.89399172  0.41540354  1
  Ca2+  Ca97  1  0.39580318  0.41894785  0.92813202  1
  Ca2+  Ca98  1  0.93029967  0.90757179  0.41574186  1
  Ca2+  Ca99  1  0.74379984  0.91029245  0.24982491  1
  Ca2+  Ca100  1  0.58059822  0.40662733  0.40635855  1
  Ca2+  Ca101  1  0.59935348  0.90919338  0.07708552  1
  Ca2+  Ca102  1  0.23606266  0.41775826  0.06843168  1
  Ca2+  Ca103  1  0.23993781  0.90137576  0.41670685  1
  Ca2+  Ca104  1  0.23644528  0.41099393  0.41363345  1
  Ca2+  Ca105  1  0.09759057  0.41613736  0.92532432  1
  Ca2+  Ca106  1  0.91512934  0.90264326  0.75457981  1
  Ca2+  Ca107  1  0.09203784  0.42142026  0.58763481  1
  Mn3.34+  Mn108  1  0.07954532  0.33807595  0.08611669  1
  Mn3.34+  Mn109  1  0.07787794  0.33711904  0.41781996  1
  Mn3.34+  Mn110  1  0.08291829  0.33384871  0.75449297  1
  Mn3.34+  Mn111  1  0.08238458  0.83427785  0.08583901  1
  Mn3.34+  Mn112  1  0.08241601  0.82982493  0.42026616  1
  Mn3.34+  Mn113  1  0.08621473  0.83077920  0.74943360  1
  Mn3.34+  Mn114  1  0.41496269  0.33283036  0.08939426  1
  Mn3.34+  Mn115  1  0.41363401  0.33333573  0.41695887  1
  Mn3.34+  Mn116  1  0.41109551  0.33264203  0.75108401  1
  Mn3.34+  Mn117  1  0.41818171  0.83452477  0.08371463  1
  Mn3.34+  Mn118  1  0.41597336  0.82765761  0.42113630  1
  Mn3.34+  Mn119  1  0.41393811  0.83323107  0.74752828  1
  Mn3.34+  Mn120  1  0.75551200  0.32909828  0.08806804  1
  Mn3.34+  Mn121  1  0.75359766  0.33023722  0.41470347  1
  Mn3.34+  Mn122  1  0.75623605  0.32793754  0.74759810  1
  Mn3.34+  Mn123  1  0.75046969  0.82760328  0.08380866  1
  Mn3.34+  Mn124  1  0.74935600  0.83156565  0.41959887  1
  Mn3.34+  Mn125  1  0.75000513  0.83371894  0.74708847  1
  Mn3.34+  Mn126  1  0.24880041  0.33259806  0.24664174  1
  Mn3.34+  Mn127  1  0.24499904  0.33529364  0.58285735  1
  Mn3.34+  Mn128  1  0.24570433  0.33485983  0.91254883  1
  Mn3.34+  Mn129  1  0.25269704  0.83243950  0.24989666  1
  Mn3.34+  Mn130  1  0.25114828  0.83319432  0.58843748  1
  Mn3.34+  Mn131  1  0.25123050  0.83391487  0.90704935  1
  Mn3.34+  Mn132  1  0.58818357  0.33513008  0.24278971  1
  Mn3.34+  Mn133  1  0.58409078  0.33510316  0.58061513  1
  Mn3.34+  Mn134  1  0.58252774  0.33068345  0.92025225  1
  Mn3.34+  Mn135  1  0.58266603  0.83394407  0.24911612  1
  Mn3.34+  Mn136  1  0.57900077  0.83066902  0.58240943  1
  Mn3.34+  Mn137  1  0.58661186  0.83199932  0.91748364  1
  Mn3.34+  Mn138  1  0.91258651  0.33906791  0.24702562  1
  Mn3.34+  Mn139  1  0.91493487  0.33887726  0.57839426  1
  Mn3.34+  Mn140  1  0.92062526  0.33317346  0.91872120  1
  Mn3.34+  Mn141  1  0.91401210  0.82994006  0.24779627  1
  Mn3.34+  Mn142  1  0.91898938  0.83270659  0.58552572  1
  Mn3.34+  Mn143  1  0.91459238  0.83245490  0.91295420  1
  Mn3.34+  Mn144  1  0.75260193  0.68093948  0.07758501  1
  Mn3.34+  Mn145  1  0.92321168  0.16996183  0.58701386  1
  Mn3.34+  Mn146  1  0.91939468  0.67203156  0.90554651  1
  Mn3.34+  Mn147  1  0.58866958  0.16606827  0.58369118  1
  Mn3.34+  Mn148  1  0.58763071  0.16807411  0.91711208  1
  Mn3.34+  Mn149  1  0.91715519  0.68559020  0.25971119  1
  Mn3.34+  Mn150  1  0.40349343  0.16527282  0.09244193  1
  Mn3.34+  Mn151  1  0.91184814  0.16897806  0.24848592  1
  Mn3.34+  Mn152  1  0.91971768  0.67747039  0.91513092  1
  Mn3.34+  Mn153  1  0.40881950  0.16705004  0.75401899  1
  Mn3.34+  Mn154  1  0.41303574  0.65884239  0.41928390  1
  Mn3.34+  Mn155  1  0.25506416  0.66806457  0.25021320  1
  Mn3.34+  Mn156  1  0.92159646  0.16372755  0.24630079  1
  Mn3.34+  Mn157  1  0.41426201  0.16967105  0.09110314  1
  Mn3.34+  Mn158  1  0.40948471  0.66225793  0.08660543  1
  Mn3.34+  Mn159  1  0.57619762  0.66970079  0.91231085  1
  Mn3.34+  Mn160  1  0.58198289  0.66938904  0.58125681  1
  Mn3.34+  Mn161  1  0.42190155  0.16079797  0.75702032  1
  Mn3.34+  Mn162  1  0.75239315  0.16373087  0.75657145  1
  Mn3.34+  Mn163  1  0.74956982  0.16413639  0.08662688  1
  Mn3.34+  Mn164  1  0.57894668  0.16060753  0.58269095  1
  Mn3.34+  Mn165  1  0.58393624  0.16664726  0.24927457  1
  Mn3.34+  Mn166  1  0.24197011  0.66775786  0.58939616  1
  Mn3.34+  Mn167  1  0.08553068  0.16756674  0.75442187  1
  Mn3.34+  Mn168  1  0.74347370  0.67355424  0.07974188  1
  Mn3.34+  Mn169  1  0.91285598  0.71037309  0.26046620  1
  Mn3.34+  Mn170  1  0.41978098  0.66679532  0.08684145  1
  Mn3.34+  Mn171  1  0.91952686  0.66755290  0.58149527  1
  Mn3.34+  Mn172  1  0.41175890  0.66938835  0.75396682  1
  Mn3.34+  Mn173  1  0.08505044  0.16972991  0.08308446  1
  Mn3.34+  Mn174  1  0.24840815  0.16511488  0.58237198  1
  Mn3.34+  Mn175  1  0.24490360  0.16271322  0.91628653  1
  Mn3.34+  Mn176  1  0.91473504  0.17604904  0.58860669  1
  Mn3.34+  Mn177  1  0.08223116  0.16995777  0.41940390  1
  Mn3.34+  Mn178  1  0.57846945  0.16234055  0.91510571  1
  Mn3.34+  Mn179  1  0.41446883  0.16815110  0.41407047  1
  Mn3.34+  Mn180  1  0.08732929  0.00365576  0.08383918  1
  Mn3.34+  Mn181  1  0.41689197  0.00064113  0.08410250  1
  Mn3.34+  Mn182  1  0.58179312  0.50491743  0.58306037  1
  Mn3.34+  Mn183  1  0.74995202  0.50356506  0.75657027  1
  Mn3.34+  Mn184  1  0.58225904  -0.00165083  0.58809290  1
  Mn3.34+  Mn185  1  0.75468890  0.49845004  0.42272690  1
  Mn3.34+  Mn186  1  0.59714950  0.50059877  0.58043469  1
  Mn3.34+  Mn187  1  0.74406688  -0.00121397  0.41594722  1
  Mn3.34+  Mn188  1  0.91376452  -0.00220521  0.92643797  1
  Mn3.34+  Mn189  1  0.92296737  0.50323852  0.58795861  1
  Mn3.34+  Mn190  1  0.59165686  -0.00170571  0.92968956  1
  Mn3.34+  Mn191  1  0.40771515  -0.00380562  0.74897904  1
  Mn3.34+  Mn192  1  0.92791693  0.50480687  0.91182642  1
  Mn3.34+  Mn193  1  0.27211301  0.50447099  0.25003520  1
  Mn3.34+  Mn194  1  0.41410070  0.49800659  0.08067447  1
  Mn3.34+  Mn195  1  0.56856384  -0.00755124  0.58751828  1
  Mn3.34+  Mn196  1  0.25785536  -0.00720713  0.59330100  1
  Mn3.34+  Mn197  1  0.41212261  -0.00482767  0.42481604  1
  Mn3.34+  Mn198  1  0.75162463  -0.00015514  0.74862814  1
  Mn3.34+  Mn199  1  0.42597925  0.00120013  0.42247689  1
  Mn3.34+  Mn200  1  0.25714873  0.49875010  0.24991650  1
  Mn3.34+  Mn201  1  0.91765018  -0.00064128  0.59402989  1
  Mn3.34+  Mn202  1  0.58448256  0.50353817  0.92129404  1
  Mn3.34+  Mn203  1  0.91560280  0.49984061  0.25269925  1
  Mn3.34+  Mn204  1  0.57122898  0.50099284  0.26269852  1
  Mn3.34+  Mn205  1  0.75451682  0.49412280  0.09359395  1
  Mn3.34+  Mn206  1  0.58034004  0.00138461  0.24945124  1
  Mn3.34+  Mn207  1  0.76763068  0.49189372  0.42030990  1
  Mn3.34+  Mn208  1  0.24599185  -0.00075115  0.91894970  1
  Mn3.34+  Mn209  1  0.92249883  -0.00014704  0.25323653  1
  Mn3.34+  Mn210  1  0.08388826  -0.00080117  0.74632834  1
  Mn3.34+  Mn211  1  0.24726015  0.00284844  0.25613759  1
  Mn3.34+  Mn212  1  0.40306620  0.50371618  0.74846838  1
  Mn3.34+  Mn213  1  0.91762314  0.49919591  0.91471640  1
  Mn3.34+  Mn214  1  0.76296740  0.49705227  0.75455186  1
  Mn3.34+  Mn215  1  0.74285693  0.49955578  0.09425962  1
  O2-  O216  1  -0.00012570  0.15945141  0.00843190  1
  O2-  O217  1  -0.00091295  0.14712583  0.33607550  1
  O2-  O218  1  0.00479532  0.16163395  0.66531180  1
  O2-  O219  1  -0.00663098  0.66251180  0.00043973  1
  O2-  O220  1  0.02096677  0.67369209  0.33432496  1
  O2-  O221  1  -0.00108952  0.66735491  0.66140342  1
  O2-  O222  1  0.33290535  0.16459170  -0.00085197  1
  O2-  O223  1  0.32531406  0.16824833  0.34748981  1
  O2-  O224  1  0.33086430  0.14958192  0.66983884  1
  O2-  O225  1  0.32925675  0.66317912  0.00908309  1
  O2-  O226  1  0.32943508  0.66831512  0.34254759  1
  O2-  O227  1  0.33529728  0.65963968  0.66580460  1
  O2-  O228  1  0.66367161  0.15735397  0.00352910  1
  O2-  O229  1  0.66793059  0.16041939  0.32262752  1
  O2-  O230  1  0.66817843  0.15244540  0.66521023  1
  O2-  O231  1  0.65779298  0.66717177  0.00190497  1
  O2-  O232  1  0.65633656  0.65890006  0.33190482  1
  O2-  O233  1  0.66045658  0.65638493  0.65878732  1
  O2-  O234  1  0.16244538  0.17290217  -0.00527953  1
  O2-  O235  1  0.16183270  0.16657894  0.33912437  1
  O2-  O236  1  0.16645860  0.15190060  0.66333939  1
  O2-  O237  1  0.16672511  0.67085011  -0.01323279  1
  O2-  O238  1  0.17745757  0.65811880  0.33330657  1
  O2-  O239  1  0.16852484  0.66324283  0.66534449  1
  O2-  O240  1  0.49451317  0.15706235  0.00071729  1
  O2-  O241  1  0.50478680  0.16049869  0.33893870  1
  O2-  O242  1  0.49797323  0.14753110  0.66375758  1
  O2-  O243  1  0.49425183  0.66216297  -0.00370924  1
  O2-  O244  1  0.49236059  0.67816984  0.34949466  1
  O2-  O245  1  0.49416493  0.64999896  0.66410550  1
  O2-  O246  1  0.82826179  0.15944292  0.00642057  1
  O2-  O247  1  0.83925380  0.14779335  0.33314357  1
  O2-  O248  1  0.83267881  0.16042895  0.66604067  1
  O2-  O249  1  0.82869877  0.66763208  -0.01015758  1
  O2-  O250  1  0.82822149  0.65428621  0.33446367  1
  O2-  O251  1  0.84301597  0.65791616  0.66485137  1
  O2-  O252  1  0.00843867  0.34652864  -0.00843495  1
  O2-  O253  1  0.00296617  0.34334654  0.33147245  1
  O2-  O254  1  0.00831169  0.34366474  0.66068349  1
  O2-  O255  1  -0.00617126  0.84793063  0.00682755  1
  O2-  O256  1  -0.00272611  0.82714929  0.33436986  1
  O2-  O257  1  -0.00203064  0.84637347  0.66842689  1
  O2-  O258  1  0.33031909  0.33959071  -0.00299323  1
  O2-  O259  1  0.33257438  0.33603719  0.33266609  1
  O2-  O260  1  0.32981055  0.35356802  0.66657756  1
  O2-  O261  1  0.33193350  0.83921053  -0.00120315  1
  O2-  O262  1  0.33497593  0.83740454  0.33275213  1
  O2-  O263  1  0.33622484  0.83884536  0.66399258  1
  O2-  O264  1  0.66543457  0.32351899  -0.00225657  1
  O2-  O265  1  0.65927502  0.34265402  0.33693483  1
  O2-  O266  1  0.66061717  0.34415003  0.67119818  1
  O2-  O267  1  0.66578656  0.80553095  0.00187711  1
  O2-  O268  1  0.66845085  0.84437612  0.33095607  1
  O2-  O269  1  0.66539853  0.84920445  0.66462100  1
  O2-  O270  1  0.16969047  0.33619213  -0.00068383  1
  O2-  O271  1  0.16934882  0.33752383  0.33362691  1
  O2-  O272  1  0.16409976  0.34948767  0.66456116  1
  O2-  O273  1  0.16881321  0.84247552  -0.00009456  1
  O2-  O274  1  0.16259480  0.83781383  0.33197609  1
  O2-  O275  1  0.16203649  0.84415403  0.66180876  1
  O2-  O276  1  0.48748446  0.34392491  -0.01125926  1
  O2-  O277  1  0.49772448  0.33997770  0.33622084  1
  O2-  O278  1  0.49343903  0.35715626  0.66342993  1
  O2-  O279  1  0.50573444  0.84231160  0.00550012  1
  O2-  O280  1  0.49777158  0.83826668  0.33091379  1
  O2-  O281  1  0.50522319  0.84267266  0.67154806  1
  O2-  O282  1  0.83354509  0.33590343  -0.00246059  1
  O2-  O283  1  0.83158070  0.33508964  0.33031827  1
  O2-  O284  1  0.84296572  0.33146014  0.67059412  1
  O2-  O285  1  0.83903792  0.81921799  0.00540403  1
  O2-  O286  1  0.83586988  0.84709022  0.33326496  1
  O2-  O287  1  0.83474116  0.84874333  0.66465629  1
  O2-  O288  1  -0.00171647  0.17732475  0.16677283  1
  O2-  O289  1  -0.00147434  0.18228275  0.50081523  1
  O2-  O290  1  0.01099886  0.17790854  0.83331983  1
  O2-  O291  1  0.00423666  0.66737585  0.16282130  1
  O2-  O292  1  -0.00459730  0.68380972  0.49936724  1
  O2-  O293  1  0.00596986  0.67743480  0.83396609  1
  O2-  O294  1  0.33103377  0.19008182  0.17086843  1
  O2-  O295  1  0.33495575  0.17476631  0.50479332  1
  O2-  O296  1  0.33254842  0.18855039  0.83936897  1
  O2-  O297  1  0.33550370  0.68040948  0.17021774  1
  O2-  O298  1  0.33490231  0.67931769  0.50123033  1
  O2-  O299  1  0.33658686  0.68150603  0.83374119  1
  O2-  O300  1  0.66211564  0.17857001  0.16472550  1
  O2-  O301  1  0.66521048  0.17285710  0.49994354  1
  O2-  O302  1  0.66512498  0.18629648  0.83480258  1
  O2-  O303  1  0.67285445  0.68184953  0.16822939  1
  O2-  O304  1  0.65828442  0.67452998  0.50335136  1
  O2-  O305  1  0.65847162  0.68605224  0.84062129  1
  O2-  O306  1  0.15638602  0.18449769  0.16976089  1
  O2-  O307  1  0.16813849  0.17792690  0.49650643  1
  O2-  O308  1  0.17256916  0.18227592  0.83008402  1
  O2-  O309  1  0.16883661  0.66937293  0.17559865  1
  O2-  O310  1  0.17346320  0.67634858  0.49941002  1
  O2-  O311  1  0.18226485  0.68059178  0.84922303  1
  O2-  O312  1  0.50018626  0.17942428  0.16539067  1
  O2-  O313  1  0.49738828  0.17566377  0.50378918  1
  O2-  O314  1  0.49781608  0.19236610  0.83931346  1
  O2-  O315  1  0.50275772  0.67305583  0.15964959  1
  O2-  O316  1  0.48833042  0.67754663  0.50549799  1
  O2-  O317  1  0.49995853  0.68472209  0.83002157  1
  O2-  O318  1  0.82720011  0.17889624  0.17069686  1
  O2-  O319  1  0.83826521  0.18338082  0.50559430  1
  O2-  O320  1  0.82497935  0.17609793  0.83596075  1
  O2-  O321  1  0.84284520  0.68746947  0.14711290  1
  O2-  O322  1  0.83289422  0.67680153  0.50888236  1
  O2-  O323  1  0.83506608  0.68866830  0.83431044  1
  O2-  O324  1  0.00289227  0.32525469  0.17156584  1
  O2-  O325  1  0.00112142  0.31563565  0.50520437  1
  O2-  O326  1  -0.00389099  0.32161828  0.82748135  1
  O2-  O327  1  0.00120899  0.81776229  0.17198514  1
  O2-  O328  1  -0.00513893  0.81882756  0.49578387  1
  O2-  O329  1  0.00205995  0.81711363  0.84057740  1
  O2-  O330  1  0.33369522  0.31360615  0.16992792  1
  O2-  O331  1  0.33163393  0.33005493  0.50097940  1
  O2-  O332  1  0.33333353  0.31477009  0.83703128  1
  O2-  O333  1  0.32928106  0.83083266  0.16036207  1
  O2-  O334  1  0.32811837  0.81606801  0.49463931  1
  O2-  O335  1  0.33699892  0.81622635  0.83556257  1
  O2-  O336  1  0.67230629  0.32095480  0.16963105  1
  O2-  O337  1  0.65559042  0.31998353  0.49233973  1
  O2-  O338  1  0.66357461  0.32386734  0.83197573  1
  O2-  O339  1  0.66656960  0.82500803  0.16452881  1
  O2-  O340  1  0.66889818  0.82427992  0.50182115  1
  O2-  O341  1  0.66028041  0.82314041  0.82623309  1
  O2-  O342  1  0.16557508  0.31775100  0.16914598  1
  O2-  O343  1  0.16633456  0.32073801  0.50136685  1
  O2-  O344  1  0.16538754  0.31708312  0.83490824  1
  O2-  O345  1  0.17059940  0.83091938  0.16210827  1
  O2-  O346  1  0.16468579  0.81831260  0.49530164  1
  O2-  O347  1  0.16350494  0.81880507  0.83758053  1
  O2-  O348  1  0.49640318  0.32267168  0.17100266  1
  O2-  O349  1  0.49267128  0.32923839  0.50663340  1
  O2-  O350  1  0.50647957  0.31900909  0.82714856  1
  O2-  O351  1  0.49630876  0.82929099  0.16927662  1
  O2-  O352  1  0.50582313  0.81029504  0.49208984  1
  O2-  O353  1  0.50036800  0.81739324  0.84131342  1
  O2-  O354  1  0.83749484  0.31392234  0.16564786  1
  O2-  O355  1  0.83239543  0.31612976  0.50189193  1
  O2-  O356  1  0.83074097  0.32465147  0.83591912  1
  O2-  O357  1  0.83418973  0.80316206  0.17097574  1
  O2-  O358  1  0.83808224  0.83121591  0.49687405  1
  O2-  O359  1  0.83971333  0.81901601  0.82561039  1
  O2-  O360  1  0.07931356  0.08393499  0.10638447  1
  O2-  O361  1  0.08429032  0.08649952  0.44346119  1
  O2-  O362  1  0.09349624  0.08035157  0.77947442  1
  O2-  O363  1  0.08661165  0.56026951  0.13994479  1
  O2-  O364  1  0.09262693  0.57545034  0.41734935  1
  O2-  O365  1  0.05864969  0.56077552  0.78547649  1
  O2-  O366  1  0.42228755  0.08282174  0.09914036  1
  O2-  O367  1  0.41299510  0.08267857  0.44211590  1
  O2-  O368  1  0.41111067  0.08204366  0.79499848  1
  O2-  O369  1  0.42925477  0.57925231  0.10170729  1
  O2-  O370  1  0.41242656  0.58049724  0.44736950  1
  O2-  O371  1  0.42504630  0.58517665  0.77860826  1
  O2-  O372  1  0.74682104  0.08319467  0.10962779  1
  O2-  O373  1  0.77093380  0.07392347  0.45473560  1
  O2-  O374  1  0.74862205  0.07963815  0.78143683  1
  O2-  O375  1  0.75152017  0.58331436  0.11771921  1
  O2-  O376  1  0.74277926  0.57586705  0.44618505  1
  O2-  O377  1  0.74761690  0.58262405  0.77401179  1
  O2-  O378  1  0.24419405  0.08125401  0.25372591  1
  O2-  O379  1  0.25039917  0.07066390  0.53521970  1
  O2-  O380  1  0.26034927  0.07751794  0.88412650  1
  O2-  O381  1  0.25599943  0.58205074  0.22030559  1
  O2-  O382  1  0.26448296  0.58456035  0.56015295  1
  O2-  O383  1  0.24839976  0.56540622  0.91980863  1
  O2-  O384  1  0.58838498  0.08234018  0.22334501  1
  O2-  O385  1  0.58236126  0.07521103  0.53706416  1
  O2-  O386  1  0.57458413  0.07653160  0.89232861  1
  O2-  O387  1  0.60807393  0.56757391  0.21006091  1
  O2-  O388  1  0.56696102  0.58370604  0.55045375  1
  O2-  O389  1  0.59404216  0.58258997  0.88920359  1
  O2-  O390  1  0.91259925  0.08114521  0.21402534  1
  O2-  O391  1  0.91907576  0.08100424  0.55355669  1
  O2-  O392  1  0.91800805  0.07280384  0.90031482  1
  O2-  O393  1  0.90079467  0.57601654  0.20627078  1
  O2-  O394  1  0.91242395  0.58134546  0.55619891  1
  O2-  O395  1  0.89710789  0.58531288  0.88250790  1
  O2-  O396  1  0.09983748  0.41641260  0.10398586  1
  O2-  O397  1  0.09488717  0.41765183  0.44558474  1
  O2-  O398  1  0.08190299  0.41424424  0.78208757  1
  O2-  O399  1  0.08462882  0.92259132  0.11916200  1
  O2-  O400  1  0.06821154  0.91345511  0.43709915  1
  O2-  O401  1  0.07004208  0.91974201  0.77792260  1
  O2-  O402  1  0.40378877  0.41702158  0.10842093  1
  O2-  O403  1  0.43118256  0.41740399  0.44238143  1
  O2-  O404  1  0.43513178  0.42415454  0.79691633  1
  O2-  O405  1  0.40224584  0.91991750  0.10902559  1
  O2-  O406  1  0.42359593  0.91498322  0.43754434  1
  O2-  O407  1  0.43014341  0.91596733  0.78163908  1
  O2-  O408  1  0.74522169  0.41291403  0.08624842  1
  O2-  O409  1  0.73702058  0.41427477  0.44014172  1
  O2-  O410  1  0.73486764  0.41766290  0.77829935  1
  O2-  O411  1  0.76767443  0.91352121  0.11399792  1
  O2-  O412  1  0.75612389  0.91849109  0.44136095  1
  O2-  O413  1  0.75363631  0.92015179  0.77200479  1
  O2-  O414  1  0.25925521  0.42129830  0.21537602  1
  O2-  O415  1  0.25039437  0.41858878  0.55242040  1
  O2-  O416  1  0.26265974  0.41768436  0.88691502  1
  O2-  O417  1  0.25027535  0.92286361  0.21863676  1
  O2-  O418  1  0.23645750  0.91742761  0.55099371  1
  O2-  O419  1  0.25191289  0.91919046  0.89791525  1
  O2-  O420  1  0.56743536  0.41965163  0.24360472  1
  O2-  O421  1  0.58793956  0.42060516  0.54557624  1
  O2-  O422  1  0.58942409  0.42213195  0.88972541  1
  O2-  O423  1  0.58467082  0.92069972  0.21901076  1
  O2-  O424  1  0.58280926  0.91486930  0.54833406  1
  O2-  O425  1  0.58024105  0.92138171  0.89670363  1
  O2-  O426  1  0.92616709  0.42153544  0.22940710  1
  O2-  O427  1  0.94034945  0.42428117  0.55899903  1
  O2-  O428  1  0.91442017  0.41837281  0.88623402  1
  O2-  O429  1  0.91654840  0.91887918  0.21205880  1
  O2-  O430  1  0.92240784  0.92035951  0.55193322  1
  O2-  O431  1  0.92249123  0.92165165  0.89088970  1
  O2-  O432  1  -0.00198596  -0.00914261  0.00497380  1
  O2-  O433  1  -0.01229063  -0.00347228  0.35014157  1
  O2-  O434  1  0.01460534  -0.00081880  0.65076238  1
  O2-  O435  1  0.00801520  0.51936674  -0.00546936  1
  O2-  O436  1  0.01190671  0.51438404  0.29726028  1
  O2-  O437  1  0.00341594  0.49691199  0.66084742  1
  O2-  O438  1  0.33449553  -0.00666810  -0.00230830  1
  O2-  O439  1  0.32960738  -0.00150668  0.34134246  1
  O2-  O440  1  0.32943031  0.02529109  0.66781911  1
  O2-  O441  1  0.33031819  0.48982141  0.00897232  1
  O2-  O442  1  0.33007938  0.48737003  0.34303501  1
  O2-  O443  1  0.35466490  0.49900539  0.63738962  1
  O2-  O444  1  0.65839824  0.00033110  0.01210720  1
  O2-  O445  1  0.67398225  0.00594257  0.32144280  1
  O2-  O446  1  0.66467258  -0.00332092  0.66729765  1
  O2-  O447  1  0.66708737  0.51144008  0.00465821  1
  O2-  O448  1  0.67114841  0.50412606  0.33571648  1
  O2-  O449  1  0.66909556  0.50097543  0.67141032  1
  O2-  O450  1  0.16923033  -0.01594746  0.00612325  1
  O2-  O451  1  0.16866106  -0.00298862  0.33381534  1
  O2-  O452  1  0.16759982  0.00853480  0.66114372  1
  O2-  O453  1  0.16695765  0.50434539  -0.01471512  1
  O2-  O454  1  0.16758993  0.50142047  0.31857327  1
  O2-  O455  1  0.16432273  0.47991795  0.65594698  1
  O2-  O456  1  0.49723437  -0.00316125  -0.00341903  1
  O2-  O457  1  0.50493352  -0.00423490  0.33903374  1
  O2-  O458  1  0.49350063  0.00985139  0.66947686  1
  O2-  O459  1  0.48364078  0.49391057  -0.02020187  1
  O2-  O460  1  0.51674985  0.49557014  0.35782988  1
  O2-  O461  1  0.51186620  0.48734958  0.67566617  1
  O2-  O462  1  0.84342541  -0.00168768  0.01035376  1
  O2-  O463  1  0.83758143  0.00024286  0.34328936  1
  O2-  O464  1  0.81821016  -0.00056896  0.64892495  1
  O2-  O465  1  0.83964832  0.51035784  0.00764037  1
  O2-  O466  1  0.83038416  0.51421471  0.32809764  1
  O2-  O467  1  0.84094472  0.50087167  0.67237537  1
  O2-  O468  1  0.58057630  0.25084623  0.26449480  1
  O2-  O469  1  0.75229190  0.75411547  0.40358182  1
  O2-  O470  1  0.25363465  0.25335929  0.60520655  1
  O2-  O471  1  0.08591687  0.75571276  0.07021359  1
  O2-  O472  1  0.92534048  0.25003460  0.27261160  1
  O2-  O473  1  0.58404552  0.75056764  0.60641861  1
  O2-  O474  1  0.57645973  0.25116919  0.60794717  1
  O2-  O475  1  0.90611784  0.75332932  0.59952598  1
  O2-  O476  1  0.24500545  0.75020982  0.25970101  1
  O2-  O477  1  0.42158414  0.24516649  0.71527355  1
  O2-  O478  1  0.42413916  0.75038906  0.72603446  1
  O2-  O479  1  0.25150418  0.75092747  0.60441899  1
  O2-  O480  1  0.42009917  0.25101765  0.41007851  1
  O2-  O481  1  0.42693158  0.25033266  0.06029055  1
  O2-  O482  1  0.74287866  0.24715693  0.72474507  1
  O2-  O483  1  0.92112471  0.25357123  0.92869450  1
  O2-  O484  1  0.74626549  0.75653296  0.72743385  1
  O2-  O485  1  0.09007849  0.25007510  0.72453121  1
  O2-  O486  1  0.74598646  0.25259205  0.39913663  1
  O2-  O487  1  0.07137520  0.25237816  0.06634798  1
  O2-  O488  1  0.58018921  0.75571878  0.25947377  1
  O2-  O489  1  0.07861077  0.25168507  0.39723200  1
  O2-  O490  1  0.75126717  0.24786672  0.06752987  1
  O2-  O491  1  0.42013750  0.75065603  0.07151663  1
  O2-  O492  1  0.08460757  0.75372084  0.73276823  1
