# generated using pymatgen
data_Ca108Mn108O277
_symmetry_space_group_name_H-M   'P 1'
_cell_length_a   16.02563105
_cell_length_b   22.30253358
_cell_length_c   16.38636698
_cell_angle_alpha   90.00452438
_cell_angle_beta   90.00029105
_cell_angle_gamma   90.00221751
_symmetry_Int_Tables_number   1
_chemical_formula_structural   Ca108Mn108O277
_chemical_formula_sum   'Ca108 Mn108 O277'
_cell_volume   5856.68703424
_cell_formula_units_Z   1
loop_
 _symmetry_equiv_pos_site_id
 _symmetry_equiv_pos_as_xyz
  1  'x, y, z'
loop_
 _atom_type_symbol
 _atom_type_oxidation_number
  Ca2+  2.0
  Mn3.34+  3.34
  O2-  -2.0
loop_
 _atom_site_type_symbol
 _atom_site_label
 _atom_site_symmetry_multiplicity
 _atom_site_fract_x
 _atom_site_fract_y
 _atom_site_fract_z
 _atom_site_occupancy
  Ca2+  Ca0  1  0.09931815  0.25004659  0.22648800  1
  Ca2+  Ca1  1  0.07606379  0.25296280  0.60089273  1
  Ca2+  Ca2  1  0.09905407  0.24651685  0.91696634  1
  Ca2+  Ca3  1  0.08997735  0.73567230  0.24993159  1
  Ca2+  Ca4  1  0.08287000  0.74785151  0.57360040  1
  Ca2+  Ca5  1  0.07979413  0.72633866  0.92613149  1
  Ca2+  Ca6  1  0.43392342  0.25312861  0.23494125  1
  Ca2+  Ca7  1  0.43087862  0.26128498  0.59850328  1
  Ca2+  Ca8  1  0.41674368  0.25058383  0.91088897  1
  Ca2+  Ca9  1  0.41278265  0.74782509  0.24059264  1
  Ca2+  Ca10  1  0.41625603  0.76364981  0.58718385  1
  Ca2+  Ca11  1  0.42193468  0.74319865  0.92808623  1
  Ca2+  Ca12  1  0.72100479  0.24880366  0.25181684  1
  Ca2+  Ca13  1  0.74688605  0.25447368  0.57680833  1
  Ca2+  Ca14  1  0.71884675  0.25046048  0.91633960  1
  Ca2+  Ca15  1  0.74866791  0.75377283  0.25543693  1
  Ca2+  Ca16  1  0.74913506  0.75522885  0.56757928  1
  Ca2+  Ca17  1  0.74861406  0.74346650  0.92118301  1
  Ca2+  Ca18  1  0.23550498  0.25686396  0.06936473  1
  Ca2+  Ca19  1  0.23461321  0.26043177  0.40516696  1
  Ca2+  Ca20  1  0.23746896  0.25368171  0.76642978  1
  Ca2+  Ca21  1  0.23710884  0.73624358  0.07568736  1
  Ca2+  Ca22  1  0.22632120  0.73873309  0.40837326  1
  Ca2+  Ca23  1  0.24336432  0.74981921  0.77257629  1
  Ca2+  Ca24  1  0.57204988  0.25133721  0.07348002  1
  Ca2+  Ca25  1  0.58776976  0.25755258  0.40947542  1
  Ca2+  Ca26  1  0.56719487  0.25242362  0.76159159  1
  Ca2+  Ca27  1  0.58208187  0.74266402  0.07713271  1
  Ca2+  Ca28  1  0.59655028  0.75499490  0.41034174  1
  Ca2+  Ca29  1  0.57901236  0.74872943  0.77640872  1
  Ca2+  Ca30  1  0.95346434  0.25237385  0.07532517  1
  Ca2+  Ca31  1  0.92590606  0.25851987  0.43331630  1
  Ca2+  Ca32  1  0.94723784  0.25105608  0.74616122  1
  Ca2+  Ca33  1  0.91885382  0.73624969  0.06969616  1
  Ca2+  Ca34  1  0.91034599  0.74800529  0.41311482  1
  Ca2+  Ca35  1  0.92630255  0.74920501  0.77834827  1
  Ca2+  Ca36  1  0.75534916  0.60630969  0.58013753  1
  Ca2+  Ca37  1  0.92967022  0.07849540  0.07904813  1
  Ca2+  Ca38  1  0.74645446  0.60478947  0.91492917  1
  Ca2+  Ca39  1  0.58809582  0.09660162  0.07256473  1
  Ca2+  Ca40  1  0.19216634  0.58436293  0.40365204  1
  Ca2+  Ca41  1  0.26207344  0.08754331  0.40689390  1
  Ca2+  Ca42  1  0.23318764  0.08400161  0.04660956  1
  Ca2+  Ca43  1  0.41848087  0.60455691  0.23875447  1
  Ca2+  Ca44  1  0.59854652  0.60873914  0.41823361  1
  Ca2+  Ca45  1  0.91251656  0.08331928  0.42197429  1
  Ca2+  Ca46  1  0.58004859  0.59936019  0.06739486  1
  Ca2+  Ca47  1  0.56911699  0.08129713  0.41204677  1
  Ca2+  Ca48  1  0.74569925  0.60388685  0.58283235  1
  Ca2+  Ca49  1  0.43612573  0.07778876  0.59292793  1
  Ca2+  Ca50  1  0.94433249  0.60692015  0.40936889  1
  Ca2+  Ca51  1  0.21908979  0.57517701  0.77213623  1
  Ca2+  Ca52  1  0.92759779  0.60438634  0.76700183  1
  Ca2+  Ca53  1  0.55654132  0.08222227  0.41218290  1
  Ca2+  Ca54  1  0.22859904  0.09074753  0.04578845  1
  Ca2+  Ca55  1  0.08509104  0.58811083  0.59082505  1
  Ca2+  Ca56  1  0.27331788  0.08407490  0.41072393  1
  Ca2+  Ca57  1  0.92399037  0.08360092  0.42191795  1
  Ca2+  Ca58  1  0.07609289  0.08705732  0.60850627  1
  Ca2+  Ca59  1  0.95145803  0.60428494  0.41627888  1
  Ca2+  Ca60  1  0.75002543  0.61261875  0.24790208  1
  Ca2+  Ca61  1  0.75472603  0.07719752  0.59522256  1
  Ca2+  Ca62  1  0.59191824  0.60298163  0.42267992  1
  Ca2+  Ca63  1  0.22195686  0.09643153  0.77479127  1
  Ca2+  Ca64  1  0.74148869  0.61651783  0.24466949  1
  Ca2+  Ca65  1  0.94052985  0.08667051  0.73826803  1
  Ca2+  Ca66  1  0.57643164  0.10339318  0.75838633  1
  Ca2+  Ca67  1  0.74377105  0.08106361  0.25186777  1
  Ca2+  Ca68  1  0.08691042  0.10001458  0.24119640  1
  Ca2+  Ca69  1  0.42323160  0.58769723  0.92564348  1
  Ca2+  Ca70  1  0.08833829  0.59099664  0.59964368  1
  Ca2+  Ca71  1  0.59058035  0.59332973  0.77469880  1
  Ca2+  Ca72  1  0.07624323  0.90778679  0.58926220  1
  Ca2+  Ca73  1  0.09346071  0.41607675  0.59094640  1
  Ca2+  Ca74  1  0.08792694  0.41967084  0.26189110  1
  Ca2+  Ca75  1  0.24290740  0.41129532  0.75507049  1
  Ca2+  Ca76  1  0.09983821  0.41698114  0.91344951  1
  Ca2+  Ca77  1  0.57726486  0.41752981  0.06557297  1
  Ca2+  Ca78  1  0.90133446  0.90603419  0.41327399  1
  Ca2+  Ca79  1  0.42157191  0.89187749  0.25109871  1
  Ca2+  Ca80  1  0.56296820  0.40702413  0.42826089  1
  Ca2+  Ca81  1  0.73410616  0.41487205  0.59148494  1
  Ca2+  Ca82  1  0.94693497  0.41992143  0.74497391  1
  Ca2+  Ca83  1  0.74503037  0.41144450  0.59574650  1
  Ca2+  Ca84  1  0.91662332  0.90571644  0.74491342  1
  Ca2+  Ca85  1  0.24922043  0.89926304  0.75534683  1
  Ca2+  Ca86  1  0.39934231  0.40685722  0.25782751  1
  Ca2+  Ca87  1  0.56607071  0.41665741  0.75329850  1
  Ca2+  Ca88  1  0.74160971  0.41447976  0.91723628  1
  Ca2+  Ca89  1  0.75338464  0.40249054  0.24530177  1
  Ca2+  Ca90  1  0.92653085  0.41407731  0.07678230  1
  Ca2+  Ca91  1  0.08901775  0.90342696  0.91238395  1
  Ca2+  Ca92  1  0.91122520  0.90659897  0.40855225  1
  Ca2+  Ca93  1  0.24530500  0.41834480  0.41198879  1
  Ca2+  Ca94  1  0.27535964  0.89979477  0.42117713  1
  Ca2+  Ca95  1  0.26442288  0.89547347  0.41835174  1
  Ca2+  Ca96  1  0.58440878  0.89518439  0.73695368  1
  Ca2+  Ca97  1  0.56604324  0.41786117  0.06562786  1
  Ca2+  Ca98  1  0.91033025  0.90261442  0.09244655  1
  Ca2+  Ca99  1  0.75410214  0.41666809  0.91751167  1
  Ca2+  Ca100  1  0.75365771  0.89764010  0.25291127  1
  Ca2+  Ca101  1  0.76614308  0.40200304  0.24550821  1
  Ca2+  Ca102  1  0.09974485  0.90299421  0.91204626  1
  Ca2+  Ca103  1  0.57609759  0.41384812  0.74924825  1
  Ca2+  Ca104  1  0.94450980  0.41546239  0.41803824  1
  Ca2+  Ca105  1  0.75409534  0.89346329  0.91220952  1
  Ca2+  Ca106  1  0.09674616  0.41615299  0.26505788  1
  Ca2+  Ca107  1  0.40495019  0.90251353  0.92189037  1
  Mn3.34+  Mn108  1  0.08832381  0.34202819  0.08164949  1
  Mn3.34+  Mn109  1  0.08696197  0.33394897  0.42339677  1
  Mn3.34+  Mn110  1  0.08839344  0.33728889  0.75241535  1
  Mn3.34+  Mn111  1  0.08324610  0.82509311  0.08865150  1
  Mn3.34+  Mn112  1  0.08270145  0.82597836  0.41601870  1
  Mn3.34+  Mn113  1  0.08247753  0.82946289  0.74741912  1
  Mn3.34+  Mn114  1  0.40684095  0.34175769  0.08081516  1
  Mn3.34+  Mn115  1  0.41060989  0.33305167  0.42326003  1
  Mn3.34+  Mn116  1  0.40823130  0.33641455  0.75008172  1
  Mn3.34+  Mn117  1  0.41556268  0.83324591  0.08471132  1
  Mn3.34+  Mn118  1  0.42890645  0.83328736  0.41868892  1
  Mn3.34+  Mn119  1  0.41704418  0.83204322  0.75063394  1
  Mn3.34+  Mn120  1  0.75540866  0.32941521  0.08332453  1
  Mn3.34+  Mn121  1  0.75137525  0.33414094  0.41864947  1
  Mn3.34+  Mn122  1  0.75342869  0.33088730  0.75425205  1
  Mn3.34+  Mn123  1  0.74727912  0.83168604  0.08546050  1
  Mn3.34+  Mn124  1  0.74399580  0.82690609  0.41703265  1
  Mn3.34+  Mn125  1  0.75100061  0.82406634  0.74571557  1
  Mn3.34+  Mn126  1  0.25250520  0.33336011  0.24624165  1
  Mn3.34+  Mn127  1  0.25443397  0.33664082  0.57978355  1
  Mn3.34+  Mn128  1  0.25423027  0.34320446  0.91773732  1
  Mn3.34+  Mn129  1  0.24765147  0.82644350  0.24368513  1
  Mn3.34+  Mn130  1  0.24995581  0.83268567  0.58488603  1
  Mn3.34+  Mn131  1  0.25208983  0.83130644  0.92322282  1
  Mn3.34+  Mn132  1  0.57861156  0.33344708  0.24829437  1
  Mn3.34+  Mn133  1  0.57965462  0.33343232  0.58201394  1
  Mn3.34+  Mn134  1  0.57565867  0.33429025  0.91256419  1
  Mn3.34+  Mn135  1  0.58335997  0.82939324  0.24303133  1
  Mn3.34+  Mn136  1  0.58535796  0.84079949  0.57919386  1
  Mn3.34+  Mn137  1  0.58196675  0.83183434  0.92083019  1
  Mn3.34+  Mn138  1  0.92171496  0.32964513  0.24908803  1
  Mn3.34+  Mn139  1  0.91838141  0.33478844  0.58521894  1
  Mn3.34+  Mn140  1  0.92051600  0.33719921  0.91245490  1
  Mn3.34+  Mn141  1  0.92133574  0.83813943  0.24395844  1
  Mn3.34+  Mn142  1  0.91147258  0.84087659  0.58316364  1
  Mn3.34+  Mn143  1  0.91703115  0.83246273  0.91933880  1
  Mn3.34+  Mn144  1  0.24507961  0.65378318  0.92504151  1
  Mn3.34+  Mn145  1  0.91674347  0.67530453  0.58632279  1
  Mn3.34+  Mn146  1  0.91257397  0.16388161  0.24288297  1
  Mn3.34+  Mn147  1  0.41614560  0.16954954  0.75675485  1
  Mn3.34+  Mn148  1  0.41746514  0.66080327  0.75590658  1
  Mn3.34+  Mn149  1  0.92035753  0.17435980  0.24793217  1
  Mn3.34+  Mn150  1  0.41515874  0.66887717  0.42212990  1
  Mn3.34+  Mn151  1  0.74723212  0.16673993  0.08085957  1
  Mn3.34+  Mn152  1  0.41149219  0.18334831  0.41469779  1
  Mn3.34+  Mn153  1  0.41296101  0.66734695  0.08396943  1
  Mn3.34+  Mn154  1  0.92538554  0.66275216  0.23879115  1
  Mn3.34+  Mn155  1  0.75082933  0.67236000  0.75296370  1
  Mn3.34+  Mn156  1  0.58011681  0.66484660  0.58740240  1
  Mn3.34+  Mn157  1  0.42396154  0.16036407  0.08515408  1
  Mn3.34+  Mn158  1  0.25032231  0.16726629  0.24265717  1
  Mn3.34+  Mn159  1  0.74815663  0.17321868  0.74894262  1
  Mn3.34+  Mn160  1  0.40560747  0.66330438  0.42455226  1
  Mn3.34+  Mn161  1  0.75675776  0.16730334  0.75193471  1
  Mn3.34+  Mn162  1  0.75907079  0.16782206  0.08298086  1
  Mn3.34+  Mn163  1  0.57938451  0.16778918  0.58578100  1
  Mn3.34+  Mn164  1  0.08600803  0.16941557  0.41798261  1
  Mn3.34+  Mn165  1  0.24824330  0.17012255  0.58582770  1
  Mn3.34+  Mn166  1  0.24138793  0.66241158  0.24127613  1
  Mn3.34+  Mn167  1  0.91953616  0.16562204  0.58211713  1
  Mn3.34+  Mn168  1  0.24855695  0.17009789  0.91106136  1
  Mn3.34+  Mn169  1  0.25710169  0.17613708  0.58779082  1
  Mn3.34+  Mn170  1  0.41995838  0.17714087  0.41740618  1
  Mn3.34+  Mn171  1  0.41370325  0.16480483  0.08615193  1
  Mn3.34+  Mn172  1  0.73814687  0.16527464  0.41891750  1
  Mn3.34+  Mn173  1  0.08503942  0.66564372  0.75574152  1
  Mn3.34+  Mn174  1  0.40707952  0.66225349  0.74325092  1
  Mn3.34+  Mn175  1  0.75225724  0.67027583  0.08051747  1
  Mn3.34+  Mn176  1  0.91758037  0.16651248  0.91435127  1
  Mn3.34+  Mn177  1  0.92833527  0.16174990  0.91329263  1
  Mn3.34+  Mn178  1  0.25051180  0.66135668  0.57998264  1
  Mn3.34+  Mn179  1  0.74867650  0.16017146  0.42077665  1
  Mn3.34+  Mn180  1  0.07729950  -0.00979355  0.08938761  1
  Mn3.34+  Mn181  1  0.26662986  -0.00045201  0.24101131  1
  Mn3.34+  Mn182  1  0.91842916  0.49966248  0.58191928  1
  Mn3.34+  Mn183  1  0.75332249  0.50019102  0.41741694  1
  Mn3.34+  Mn184  1  0.57842754  -0.00626717  0.24711730  1
  Mn3.34+  Mn185  1  0.41572061  0.50180760  0.72272180  1
  Mn3.34+  Mn186  1  0.25273414  -0.00640815  0.23860258  1
  Mn3.34+  Mn187  1  0.92271683  0.50107070  0.23948839  1
  Mn3.34+  Mn188  1  0.12733323  0.52392156  0.06423524  1
  Mn3.34+  Mn189  1  0.75281989  0.50433199  0.08041850  1
  Mn3.34+  Mn190  1  0.57834226  0.00338609  0.91930293  1
  Mn3.34+  Mn191  1  0.41098458  -0.00022384  0.75439260  1
  Mn3.34+  Mn192  1  0.25324380  0.50311096  0.25379479  1
  Mn3.34+  Mn193  1  0.08272612  -0.00134069  0.74310640  1
  Mn3.34+  Mn194  1  0.41283883  -0.00407521  0.08119401  1
  Mn3.34+  Mn195  1  0.40756884  0.50343286  0.06743940  1
  Mn3.34+  Mn196  1  0.08495150  0.00023927  0.42127583  1
  Mn3.34+  Mn197  1  0.09348356  -0.01173564  0.09073179  1
  Mn3.34+  Mn198  1  0.41086176  0.50109027  0.42502691  1
  Mn3.34+  Mn199  1  0.25837137  0.50116038  0.59367420  1
  Mn3.34+  Mn200  1  0.58328690  0.50554527  0.24891564  1
  Mn3.34+  Mn201  1  0.73654459  -0.00766459  0.42662834  1
  Mn3.34+  Mn202  1  0.75066303  0.50319687  0.74797929  1
  Mn3.34+  Mn203  1  0.73825562  -0.00294148  0.75135563  1
  Mn3.34+  Mn204  1  0.75239951  0.00326617  0.75355007  1
  Mn3.34+  Mn205  1  0.25434790  0.00001941  0.58585915  1
  Mn3.34+  Mn206  1  0.56850536  0.49966638  0.24744509  1
  Mn3.34+  Mn207  1  0.92087517  0.50257309  0.92753114  1
  Mn3.34+  Mn208  1  0.76411693  0.50427021  0.41694464  1
  Mn3.34+  Mn209  1  0.11956785  0.53986756  0.08878000  1
  Mn3.34+  Mn210  1  0.90731688  -0.00056464  0.92291361  1
  Mn3.34+  Mn211  1  0.09496633  -0.00499907  0.41727011  1
  Mn3.34+  Mn212  1  0.59149798  -0.00254034  0.92234358  1
  Mn3.34+  Mn213  1  0.56743586  0.00135887  0.24496961  1
  Mn3.34+  Mn214  1  0.75040594  -0.00453085  0.08619868  1
  Mn3.34+  Mn215  1  0.42533471  0.00516515  0.75868294  1
  O2-  O216  1  -0.00704709  0.15183912  0.00538278  1
  O2-  O217  1  -0.00448010  0.14508504  0.33444173  1
  O2-  O218  1  -0.00125628  0.16030638  0.65817446  1
  O2-  O219  1  -0.00264803  0.65985921  0.00547129  1
  O2-  O220  1  -0.00388259  0.67127770  0.32651403  1
  O2-  O221  1  0.00317308  0.66356350  0.66220082  1
  O2-  O222  1  0.33303696  0.15670261  0.00551496  1
  O2-  O223  1  0.33064753  0.15982398  0.33497450  1
  O2-  O224  1  0.34002073  0.15662456  0.66284385  1
  O2-  O225  1  0.33533939  0.65995992  -0.00530002  1
  O2-  O226  1  0.33103992  0.64816614  0.33865255  1
  O2-  O227  1  0.33008888  0.67517323  0.66426103  1
  O2-  O228  1  0.66703929  0.17636566  0.00368101  1
  O2-  O229  1  0.66139200  0.14052661  0.33702313  1
  O2-  O230  1  0.67198765  0.15114140  0.66434514  1
  O2-  O231  1  0.67022243  0.66146061  0.00615107  1
  O2-  O232  1  0.66312326  0.65800816  0.33439463  1
  O2-  O233  1  0.67046446  0.66993533  0.66230856  1
  O2-  O234  1  0.17455083  0.16863368  -0.00080347  1
  O2-  O235  1  0.17254585  0.14494937  0.33906889  1
  O2-  O236  1  0.16817025  0.15893487  0.66530949  1
  O2-  O237  1  0.16681611  0.65679425  -0.00419756  1
  O2-  O238  1  0.16920610  0.65971120  0.32550730  1
  O2-  O239  1  0.16876955  0.65659208  0.66462943  1
  O2-  O240  1  0.50000247  0.15669100  0.00559151  1
  O2-  O241  1  0.50536664  0.16246700  0.34382512  1
  O2-  O242  1  0.49772217  0.15371480  0.66610138  1
  O2-  O243  1  0.49113643  0.65909973  0.00319661  1
  O2-  O244  1  0.49923818  0.65692976  0.34072444  1
  O2-  O245  1  0.50178041  0.66220745  0.67186061  1
  O2-  O246  1  0.83356512  0.15600276  -0.00371036  1
  O2-  O247  1  0.83057715  0.15148833  0.32966902  1
  O2-  O248  1  0.83430756  0.15363596  0.66644998  1
  O2-  O249  1  0.83028312  0.66110435  0.00194135  1
  O2-  O250  1  0.84514387  0.65564782  0.33455836  1
  O2-  O251  1  0.83120548  0.66677905  0.66546993  1
  O2-  O252  1  0.00094629  0.34978532  0.00194216  1
  O2-  O253  1  0.00383890  0.34765388  0.33236049  1
  O2-  O254  1  0.00282097  0.34586262  0.66471240  1
  O2-  O255  1  0.00126645  0.85470135  -0.00290865  1
  O2-  O256  1  -0.00735534  0.84011934  0.34024724  1
  O2-  O257  1  -0.00322420  0.84359388  0.66673814  1
  O2-  O258  1  0.33129424  0.33338124  0.00012550  1
  O2-  O259  1  0.32722386  0.33723435  0.34042739  1
  O2-  O260  1  0.32883175  0.32637043  0.66615762  1
  O2-  O261  1  0.33269602  0.84327377  0.00133969  1
  O2-  O262  1  0.33873669  0.83817088  0.33457711  1
  O2-  O263  1  0.32580572  0.82417993  0.67251704  1
  O2-  O264  1  0.66548631  0.34288357  0.00018779  1
  O2-  O265  1  0.66555044  0.35210607  0.33239675  1
  O2-  O266  1  0.67021244  0.34533508  0.66965920  1
  O2-  O267  1  0.67081050  0.84242770  -0.00357880  1
  O2-  O268  1  0.66979958  0.82865894  0.32626914  1
  O2-  O269  1  0.66328865  0.81225164  0.66595965  1
  O2-  O270  1  0.16572575  0.34643440  -0.00309880  1
  O2-  O271  1  0.16795069  0.34757192  0.33605206  1
  O2-  O272  1  0.16893059  0.34188049  0.66363652  1
  O2-  O273  1  0.16171053  0.84231157  -0.00183227  1
  O2-  O274  1  0.17538686  0.84334433  0.34334699  1
  O2-  O275  1  0.16379986  0.84263527  0.66533076  1
  O2-  O276  1  0.49853942  0.35117797  -0.00137797  1
  O2-  O277  1  0.49332760  0.34210540  0.33193430  1
  O2-  O278  1  0.50281478  0.34603884  0.66844178  1
  O2-  O279  1  0.49316721  0.84478711  -0.00536440  1
  O2-  O280  1  0.50340104  0.82279163  0.32782700  1
  O2-  O281  1  0.50422931  0.82613888  0.66358992  1
  O2-  O282  1  0.83256935  0.34763275  -0.00358928  1
  O2-  O283  1  0.83902452  0.34347917  0.33493254  1
  O2-  O284  1  0.83114237  0.34814708  0.66565967  1
  O2-  O285  1  0.83586420  0.84643953  0.00352855  1
  O2-  O286  1  0.83886413  0.82993927  0.33246172  1
  O2-  O287  1  0.83914149  0.80817159  0.66753877  1
  O2-  O288  1  0.00637700  0.18265062  0.17268437  1
  O2-  O289  1  -0.00720903  0.17535678  0.49003884  1
  O2-  O290  1  -0.00294645  0.17520652  0.82726436  1
  O2-  O291  1  -0.00781163  0.69391627  0.17039795  1
  O2-  O292  1  -0.00704156  0.67769495  0.50158602  1
  O2-  O293  1  0.00464679  0.67281063  0.82953712  1
  O2-  O294  1  0.33962650  0.18289526  0.16619040  1
  O2-  O295  1  0.32694373  0.19031228  0.49567561  1
  O2-  O296  1  0.32947001  0.18356782  0.82719703  1
  O2-  O297  1  0.33584235  0.67680701  0.17177011  1
  O2-  O298  1  0.33085320  0.69032069  0.50424536  1
  O2-  O299  1  0.33213287  0.67542033  0.83254536  1
  O2-  O300  1  0.67224549  0.18340879  0.16251060  1
  O2-  O301  1  0.66199681  0.18572093  0.50523422  1
  O2-  O302  1  0.66394860  0.19001666  0.82122593  1
  O2-  O303  1  0.67554217  0.68231528  0.17046873  1
  O2-  O304  1  0.65846972  0.68060438  0.50710436  1
  O2-  O305  1  0.67147562  0.68038132  0.82762257  1
  O2-  O306  1  0.17205310  0.17052487  0.16697467  1
  O2-  O307  1  0.16879373  0.18952833  0.50509372  1
  O2-  O308  1  0.17103371  0.17836749  0.83667818  1
  O2-  O309  1  0.17066644  0.67551263  0.16622262  1
  O2-  O310  1  0.16508466  0.67579934  0.51013765  1
  O2-  O311  1  0.17173580  0.66997950  0.82922274  1
  O2-  O312  1  0.50428476  0.17739416  0.16074737  1
  O2-  O313  1  0.49611295  0.19302034  0.50162812  1
  O2-  O314  1  0.49708480  0.17816472  0.82674633  1
  O2-  O315  1  0.49297750  0.67805032  0.16169207  1
  O2-  O316  1  0.50311530  0.68233192  0.49962153  1
  O2-  O317  1  0.49726087  0.66505148  0.83374074  1
  O2-  O318  1  0.83591651  0.19656692  0.16157466  1
  O2-  O319  1  0.83467413  0.17946114  0.49761527  1
  O2-  O320  1  0.83407322  0.18904540  0.83521489  1
  O2-  O321  1  0.82900318  0.68276753  0.17760185  1
  O2-  O322  1  0.83204283  0.67657299  0.51082062  1
  O2-  O323  1  0.83099287  0.68158266  0.82545799  1
  O2-  O324  1  0.00190897  0.31834844  0.16966797  1
  O2-  O325  1  0.00102517  0.32424034  0.50213336  1
  O2-  O326  1  -0.00311691  0.32989367  0.82738501  1
  O2-  O327  1  -0.00715632  0.81535049  0.16346646  1
  O2-  O328  1  -0.00126104  0.81508200  0.50113022  1
  O2-  O329  1  0.00347852  0.83144283  0.83426590  1
  O2-  O330  1  0.34129850  0.32351352  0.17661287  1
  O2-  O331  1  0.33269793  0.30346310  0.50113238  1
  O2-  O332  1  0.32973251  0.32376547  0.82886990  1
  O2-  O333  1  0.33971195  0.82166139  0.17342347  1
  O2-  O334  1  0.32963515  0.82158476  0.49878598  1
  O2-  O335  1  0.33144239  0.82999622  0.83596931  1
  O2-  O336  1  0.67159736  0.32374897  0.16863437  1
  O2-  O337  1  0.66792443  0.32081187  0.50253135  1
  O2-  O338  1  0.66429023  0.31940849  0.83051874  1
  O2-  O339  1  0.66945599  0.81427298  0.16807199  1
  O2-  O340  1  0.66482111  0.82011732  0.50015214  1
  O2-  O341  1  0.66843989  0.82206428  0.83128872  1
  O2-  O342  1  0.16337999  0.33141034  0.17347711  1
  O2-  O343  1  0.16671753  0.31424962  0.50367852  1
  O2-  O344  1  0.16498821  0.32553287  0.83642085  1
  O2-  O345  1  0.16562902  0.80968301  0.16775880  1
  O2-  O346  1  0.16812027  0.81692520  0.50075512  1
  O2-  O347  1  0.16306862  0.82588268  0.83282971  1
  O2-  O348  1  0.50536833  0.33022284  0.15770161  1
  O2-  O349  1  0.50337304  0.31615463  0.49294076  1
  O2-  O350  1  0.50209590  0.33305577  0.82481492  1
  O2-  O351  1  0.49939253  0.81256999  0.16580299  1
  O2-  O352  1  0.50641056  0.81490322  0.50128612  1
  O2-  O353  1  0.50251585  0.83256024  0.83046261  1
  O2-  O354  1  0.83014498  0.31294594  0.17544299  1
  O2-  O355  1  0.83253800  0.32134683  0.50498215  1
  O2-  O356  1  0.82665617  0.31578590  0.83900598  1
  O2-  O357  1  0.83199748  0.81858815  0.17276931  1
  O2-  O358  1  0.83905249  0.82506748  0.49410380  1
  O2-  O359  1  0.83215694  0.82018853  0.83546594  1
  O2-  O360  1  0.08630012  0.07240922  0.11265615  1
  O2-  O361  1  0.09550179  0.08068807  0.46125467  1
  O2-  O362  1  0.08194840  0.07415778  0.76840203  1
  O2-  O363  1  0.04742644  0.59441507  0.10606227  1
  O2-  O364  1  0.06219125  0.56707474  0.46587218  1
  O2-  O365  1  0.07854266  0.58331869  0.74467208  1
  O2-  O366  1  0.42233299  0.07870635  0.11365770  1
  O2-  O367  1  0.41163293  0.08655729  0.45019141  1
  O2-  O368  1  0.41202889  0.08438558  0.77875858  1
  O2-  O369  1  0.41900096  0.57693497  0.10825046  1
  O2-  O370  1  0.43296509  0.58308200  0.45115670  1
  O2-  O371  1  0.41022747  0.57748311  0.77845376  1
  O2-  O372  1  0.75330396  0.07974112  0.11421689  1
  O2-  O373  1  0.73771069  0.07543576  0.46267767  1
  O2-  O374  1  0.74704148  0.08186059  0.78788342  1
  O2-  O375  1  0.74346450  0.58441121  0.11349651  1
  O2-  O376  1  0.74342666  0.58444641  0.44401979  1
  O2-  O377  1  0.74530521  0.58569764  0.75373672  1
  O2-  O378  1  0.25756034  0.08077261  0.21281573  1
  O2-  O379  1  0.25631254  0.08357467  0.54331327  1
  O2-  O380  1  0.24860489  0.08658383  0.90826903  1
  O2-  O381  1  0.26205556  0.57936102  0.22504047  1
  O2-  O382  1  0.24273703  0.57477131  0.53997400  1
  O2-  O383  1  0.26482287  0.58048565  0.89637677  1
  O2-  O384  1  0.59990818  0.07283825  0.20145388  1
  O2-  O385  1  0.57089844  0.08614266  0.54457078  1
  O2-  O386  1  0.59080132  0.07980654  0.88847570  1
  O2-  O387  1  0.58175254  0.58326359  0.21588804  1
  O2-  O388  1  0.61573684  0.57663085  0.54952140  1
  O2-  O389  1  0.59702387  0.56911757  0.90294956  1
  O2-  O390  1  0.90463139  0.08031078  0.21362362  1
  O2-  O391  1  0.91703436  0.08179190  0.55523464  1
  O2-  O392  1  0.91166246  0.08093927  0.87973447  1
  O2-  O393  1  0.89604250  0.58109441  0.23443225  1
  O2-  O394  1  0.90428849  0.57948804  0.55149322  1
  O2-  O395  1  0.88634150  0.56720131  0.88163703  1
  O2-  O396  1  0.06929885  0.42699028  0.12946524  1
  O2-  O397  1  0.08891429  0.41511711  0.44313854  1
  O2-  O398  1  0.09039508  0.42096301  0.76754555  1
  O2-  O399  1  0.07243768  0.90963267  0.11619514  1
  O2-  O400  1  0.08187205  0.91348824  0.44185725  1
  O2-  O401  1  0.08562854  0.91872163  0.77380246  1
  O2-  O402  1  0.43031693  0.43376368  0.12411653  1
  O2-  O403  1  0.41630020  0.42012000  0.44306955  1
  O2-  O404  1  0.42293539  0.42167072  0.76269082  1
  O2-  O405  1  0.41834219  0.91839739  0.11544319  1
  O2-  O406  1  0.41007700  0.91335073  0.42795780  1
  O2-  O407  1  0.41363417  0.91886937  0.76792985  1
  O2-  O408  1  0.76015484  0.42228329  0.11620298  1
  O2-  O409  1  0.75176471  0.42011017  0.45274626  1
  O2-  O410  1  0.74689959  0.42243319  0.78261798  1
  O2-  O411  1  0.75530146  0.91542798  0.11686264  1
  O2-  O412  1  0.76227596  0.91193153  0.41430657  1
  O2-  O413  1  0.75481295  0.91621793  0.76436247  1
  O2-  O414  1  0.24734106  0.42008766  0.23130062  1
  O2-  O415  1  0.24750001  0.42413259  0.54909036  1
  O2-  O416  1  0.24588317  0.41939499  0.88858359  1
  O2-  O417  1  0.25974341  0.91206211  0.23922896  1
  O2-  O418  1  0.23342196  0.92074737  0.54822472  1
  O2-  O419  1  0.23402516  0.91702153  0.89030402  1
  O2-  O420  1  0.59500936  0.42009714  0.21455360  1
  O2-  O421  1  0.59827941  0.41600331  0.55817781  1
  O2-  O422  1  0.60328955  0.41890054  0.88595268  1
  O2-  O423  1  0.57301210  0.91443817  0.22933341  1
  O2-  O424  1  0.59132982  0.91545071  0.59254273  1
  O2-  O425  1  0.59285247  0.92118257  0.88113740  1
  O2-  O426  1  0.90204906  0.41896828  0.21384240  1
  O2-  O427  1  0.91081650  0.41915212  0.55497884  1
  O2-  O428  1  0.89876038  0.42852343  0.87599780  1
  O2-  O429  1  0.90096089  0.91776196  0.24066049  1
  O2-  O430  1  0.93443391  0.92251152  0.54201893  1
  O2-  O431  1  0.91362997  0.92002450  0.88179994  1
  O2-  O432  1  -0.00026357  -0.00279836  0.00565454  1
  O2-  O433  1  -0.00667204  0.01408828  0.35286491  1
  O2-  O434  1  -0.00032992  -0.00251865  0.67529666  1
  O2-  O435  1  -0.00322009  0.48307968  -0.00153705  1
  O2-  O436  1  -0.00297502  0.48467088  0.32454726  1
  O2-  O437  1  0.00263095  0.49993162  0.64785537  1
  O2-  O438  1  0.31350803  0.00716509  0.03789393  1
  O2-  O439  1  0.30972957  0.00001690  0.35715321  1
  O2-  O440  1  0.33721084  0.00707186  0.66976321  1
  O2-  O441  1  0.34317148  0.50680641  -0.01011133  1
  O2-  O442  1  0.33625017  0.49180952  0.33337129  1
  O2-  O443  1  0.29945506  0.49980954  0.70526377  1
  O2-  O444  1  0.66429093  0.00707054  0.00865431  1
  O2-  O445  1  0.66988060  0.01074778  0.32712984  1
  O2-  O446  1  0.66934294  0.01764466  0.66828806  1
  O2-  O447  1  0.66767619  0.47626953  0.01041061  1
  O2-  O448  1  0.66099284  0.49630915  0.34113609  1
  O2-  O449  1  0.67514399  0.48279222  0.66600463  1
  O2-  O450  1  0.16214287  0.00136537  0.00384980  1
  O2-  O451  1  0.15630010  0.01725387  0.31652519  1
  O2-  O452  1  0.16448928  0.00193526  0.66599434  1
  O2-  O453  1  0.15995770  0.49093889  -0.02317086  1
  O2-  O454  1  0.16595669  0.49473564  0.32605917  1
  O2-  O455  1  0.15697792  0.50486713  0.63314847  1
  O2-  O456  1  0.49445701  -0.00262287  -0.00100815  1
  O2-  O457  1  0.49833726  0.01482532  0.33744956  1
  O2-  O458  1  0.50668896  0.01214218  0.68296362  1
  O2-  O459  1  0.50915167  0.50367930  0.02376795  1
  O2-  O460  1  0.50508156  0.50205973  0.34703774  1
  O2-  O461  1  0.53028973  0.50674550  0.72158806  1
  O2-  O462  1  0.84708739  -0.00317095  0.02716870  1
  O2-  O463  1  0.84306119  0.00784702  0.37717354  1
  O2-  O464  1  0.83952910  0.01071696  0.68321409  1
  O2-  O465  1  0.82587446  0.48889105  -0.01077676  1
  O2-  O466  1  0.82233901  0.48674213  0.31764310  1
  O2-  O467  1  0.82948102  0.49236278  0.65620784  1
  O2-  O468  1  0.42157649  0.24847983  0.06730999  1
  O2-  O469  1  0.92884273  0.24878860  0.93955728  1
  O2-  O470  1  0.75113340  0.74996458  0.40591853  1
  O2-  O471  1  0.92802806  0.75415199  0.93174816  1
  O2-  O472  1  0.09154483  0.26090339  0.06641198  1
  O2-  O473  1  0.40807605  0.75104227  0.06288989  1
  O2-  O474  1  0.25271371  0.25361068  0.92994301  1
  O2-  O475  1  0.24994228  0.74902237  0.92615353  1
  O2-  O476  1  0.08545367  0.74976756  0.73000756  1
  O2-  O477  1  0.58753911  0.25031974  0.61664237  1
  O2-  O478  1  0.75572626  0.75251982  0.05813357  1
  O2-  O479  1  0.57602358  0.75389007  0.93051203  1
  O2-  O480  1  0.42417353  0.25199841  0.73444283  1
  O2-  O481  1  0.08467314  0.75017590  0.39634456  1
  O2-  O482  1  0.42376052  0.74702156  0.75105447  1
  O2-  O483  1  0.91702352  0.25090803  0.60232104  1
  O2-  O484  1  0.08660352  0.25622117  0.73601778  1
  O2-  O485  1  0.56910280  0.25678338  0.93289772  1
  O2-  O486  1  0.57996555  0.25562274  0.27030355  1
  O2-  O487  1  0.41226650  0.74795400  0.39628355  1
  O2-  O488  1  0.07859905  0.25030111  0.38347956  1
  O2-  O489  1  0.07851254  0.75015743  0.05826736  1
  O2-  O490  1  0.24070726  0.25027819  0.26752721  1
  O2-  O491  1  0.74480234  0.24971592  0.38884632  1
  O2-  O492  1  0.25636672  0.74674425  0.27139759  1
