# generated using pymatgen
data_Ca108Mn108O277
_symmetry_space_group_name_H-M   'P 1'
_cell_length_a   16.03189898
_cell_length_b   22.31161787
_cell_length_c   16.39339047
_cell_angle_alpha   89.99991849
_cell_angle_beta   89.99610191
_cell_angle_gamma   90.00569389
_symmetry_Int_Tables_number   1
_chemical_formula_structural   Ca108Mn108O277
_chemical_formula_sum   'Ca108 Mn108 O277'
_cell_volume   5863.87644583
_cell_formula_units_Z   1
loop_
 _symmetry_equiv_pos_site_id
 _symmetry_equiv_pos_as_xyz
  1  'x, y, z'
loop_
 _atom_type_symbol
 _atom_type_oxidation_number
  Ca2+  2.0
  Mn3.34+  3.34
  O2-  -2.0
loop_
 _atom_site_type_symbol
 _atom_site_label
 _atom_site_symmetry_multiplicity
 _atom_site_fract_x
 _atom_site_fract_y
 _atom_site_fract_z
 _atom_site_occupancy
  Ca2+  Ca0  1  0.10248203  0.25865562  0.24504946  1
  Ca2+  Ca1  1  0.09826639  0.24409756  0.60366332  1
  Ca2+  Ca2  1  0.09195958  0.25149551  0.91268285  1
  Ca2+  Ca3  1  0.11351126  0.73545308  0.25179275  1
  Ca2+  Ca4  1  0.09624673  0.75431979  0.57632190  1
  Ca2+  Ca5  1  0.08828060  0.74673357  0.91757699  1
  Ca2+  Ca6  1  0.40893553  0.25008507  0.24957506  1
  Ca2+  Ca7  1  0.43158536  0.24836982  0.58157545  1
  Ca2+  Ca8  1  0.40379827  0.26056392  0.91897584  1
  Ca2+  Ca9  1  0.39580579  0.73756048  0.23766140  1
  Ca2+  Ca10  1  0.42013506  0.74749933  0.58486577  1
  Ca2+  Ca11  1  0.41396743  0.74765469  0.92230714  1
  Ca2+  Ca12  1  0.73764389  0.25312917  0.25211412  1
  Ca2+  Ca13  1  0.72457334  0.24725128  0.56913349  1
  Ca2+  Ca14  1  0.74960940  0.25157664  0.92656797  1
  Ca2+  Ca15  1  0.75072191  0.75109754  0.25571877  1
  Ca2+  Ca16  1  0.73845609  0.74927474  0.57956781  1
  Ca2+  Ca17  1  0.74644442  0.75158450  0.90861433  1
  Ca2+  Ca18  1  0.25922992  0.24567838  0.08893379  1
  Ca2+  Ca19  1  0.26701353  0.24569152  0.39960118  1
  Ca2+  Ca20  1  0.25946994  0.25321294  0.75851609  1
  Ca2+  Ca21  1  0.26516232  0.74103305  0.10118642  1
  Ca2+  Ca22  1  0.24540580  0.74440330  0.40696489  1
  Ca2+  Ca23  1  0.25324750  0.74608743  0.74433486  1
  Ca2+  Ca24  1  0.56863795  0.25847973  0.08963251  1
  Ca2+  Ca25  1  0.57828683  0.25255902  0.42569610  1
  Ca2+  Ca26  1  0.56454577  0.24812880  0.72959551  1
  Ca2+  Ca27  1  0.55573857  0.74274206  0.08561074  1
  Ca2+  Ca28  1  0.58866018  0.75325831  0.42245903  1
  Ca2+  Ca29  1  0.57855897  0.74933640  0.74330746  1
  Ca2+  Ca30  1  0.91183262  0.24949856  0.07319287  1
  Ca2+  Ca31  1  0.89778743  0.25256876  0.41533728  1
  Ca2+  Ca32  1  0.92230893  0.25448999  0.75869469  1
  Ca2+  Ca33  1  0.92924249  0.75226920  0.08614876  1
  Ca2+  Ca34  1  0.92377742  0.75999036  0.42008763  1
  Ca2+  Ca35  1  0.91481223  0.76138073  0.75058890  1
  Ca2+  Ca36  1  0.91856589  0.58195966  0.76348953  1
  Ca2+  Ca37  1  0.26786697  0.59599149  0.09614941  1
  Ca2+  Ca38  1  0.73563959  0.09464497  0.57145312  1
  Ca2+  Ca39  1  0.96072097  0.10309532  0.75415401  1
  Ca2+  Ca40  1  0.08320532  0.07092988  0.59699916  1
  Ca2+  Ca41  1  0.75978700  0.10621799  0.94716431  1
  Ca2+  Ca42  1  0.12794608  0.10408656  0.23986156  1
  Ca2+  Ca43  1  0.57260796  0.09792269  0.41431406  1
  Ca2+  Ca44  1  0.77035734  0.10802564  0.94399899  1
  Ca2+  Ca45  1  0.38569391  0.10528285  0.25191807  1
  Ca2+  Ca46  1  0.24943412  0.59524703  0.39555678  1
  Ca2+  Ca47  1  0.39611505  0.60134085  0.24811219  1
  Ca2+  Ca48  1  0.59143884  0.59438067  0.41308622  1
  Ca2+  Ca49  1  0.74609252  0.10918642  0.22798824  1
  Ca2+  Ca50  1  0.08937148  0.57528939  0.92455790  1
  Ca2+  Ca51  1  0.92313426  0.58471667  0.05272682  1
  Ca2+  Ca52  1  0.09413354  0.58857930  0.58563900  1
  Ca2+  Ca53  1  0.58180435  0.59122299  0.40955609  1
  Ca2+  Ca54  1  0.93462320  0.58426433  0.05408449  1
  Ca2+  Ca55  1  0.43982329  0.10390087  0.58510685  1
  Ca2+  Ca56  1  0.09105840  0.07465333  0.60162857  1
  Ca2+  Ca57  1  0.40588723  0.57703069  0.61418270  1
  Ca2+  Ca58  1  0.08386957  0.12067264  0.90225047  1
  Ca2+  Ca59  1  0.39418873  0.56550070  0.89686021  1
  Ca2+  Ca60  1  0.58146348  0.09461324  0.41028785  1
  Ca2+  Ca61  1  0.54152888  0.59273731  0.09478445  1
  Ca2+  Ca62  1  0.91804658  0.07885003  0.40566935  1
  Ca2+  Ca63  1  0.90833338  0.11996537  0.08614702  1
  Ca2+  Ca64  1  0.11643649  0.10396430  0.24458854  1
  Ca2+  Ca65  1  0.91879467  0.58296264  0.41206220  1
  Ca2+  Ca66  1  0.95112284  0.10325966  0.74997077  1
  Ca2+  Ca67  1  0.92835777  0.58554949  0.76598312  1
  Ca2+  Ca68  1  0.41681487  0.57719606  0.61430430  1
  Ca2+  Ca69  1  0.22883848  0.10677272  0.75909897  1
  Ca2+  Ca70  1  0.75819205  0.58866595  0.93177464  1
  Ca2+  Ca71  1  0.59186056  0.10446770  0.09959684  1
  Ca2+  Ca72  1  0.90991615  0.89656165  0.08477091  1
  Ca2+  Ca73  1  0.41553798  0.40392945  0.24512181  1
  Ca2+  Ca74  1  0.09855499  0.41665908  0.92453756  1
  Ca2+  Ca75  1  0.75793623  0.39898657  0.91978343  1
  Ca2+  Ca76  1  0.41802780  0.90844114  0.58256604  1
  Ca2+  Ca77  1  0.09583314  0.90356998  0.90377378  1
  Ca2+  Ca78  1  0.57242664  0.90588965  0.74479986  1
  Ca2+  Ca79  1  0.27677967  0.41928133  0.76337163  1
  Ca2+  Ca80  1  0.58348786  0.40648378  0.41143094  1
  Ca2+  Ca81  1  0.93379052  0.92319973  0.42032504  1
  Ca2+  Ca82  1  0.23904508  0.91822887  0.73116194  1
  Ca2+  Ca83  1  0.74885692  0.39620698  0.92332351  1
  Ca2+  Ca84  1  0.24035346  0.90877035  0.41379298  1
  Ca2+  Ca85  1  0.41429626  0.90486598  0.26336594  1
  Ca2+  Ca86  1  0.92419178  0.40395734  0.06709924  1
  Ca2+  Ca87  1  0.55903952  0.41151866  0.74754700  1
  Ca2+  Ca88  1  0.09083375  0.40106720  0.58168855  1
  Ca2+  Ca89  1  0.74577772  0.91765203  0.26447547  1
  Ca2+  Ca90  1  0.41943647  0.90673161  0.91545143  1
  Ca2+  Ca91  1  0.59434479  0.91106115  0.08549229  1
  Ca2+  Ca92  1  0.57936145  0.91235566  0.40581419  1
  Ca2+  Ca93  1  0.07831080  0.40160615  0.58315688  1
  Ca2+  Ca94  1  0.41720020  0.41002051  0.59172730  1
  Ca2+  Ca95  1  0.58156339  0.91120537  0.08670577  1
  Ca2+  Ca96  1  0.73727357  0.92058098  0.25991177  1
  Ca2+  Ca97  1  0.24970066  0.40176140  0.40973545  1
  Ca2+  Ca98  1  0.07724337  0.91311463  0.57655379  1
  Ca2+  Ca99  1  0.74501828  0.90083739  0.92464941  1
  Ca2+  Ca100  1  0.91690098  0.39703158  0.42192017  1
  Ca2+  Ca101  1  0.93979194  0.93744444  0.70547800  1
  Ca2+  Ca102  1  0.75575428  0.90632495  0.58034438  1
  Ca2+  Ca103  1  0.08297485  0.90341744  0.90424310  1
  Ca2+  Ca104  1  0.22895468  0.92228984  0.73223118  1
  Ca2+  Ca105  1  0.08358311  0.91737523  0.26997738  1
  Ca2+  Ca106  1  0.25073116  0.89888524  0.08848070  1
  Ca2+  Ca107  1  0.74735589  0.39741847  0.57836074  1
  Mn3.34+  Mn108  1  0.08767958  0.33528727  0.08499405  1
  Mn3.34+  Mn109  1  0.08228416  0.32842901  0.41394990  1
  Mn3.34+  Mn110  1  0.08473974  0.33675991  0.75772560  1
  Mn3.34+  Mn111  1  0.08654823  0.83080070  0.08891028  1
  Mn3.34+  Mn112  1  0.08271797  0.83581541  0.41762235  1
  Mn3.34+  Mn113  1  0.08233843  0.82991804  0.74467662  1
  Mn3.34+  Mn114  1  0.41414383  0.33892327  0.07912101  1
  Mn3.34+  Mn115  1  0.41649496  0.33411982  0.41757620  1
  Mn3.34+  Mn116  1  0.41416967  0.33667017  0.75319673  1
  Mn3.34+  Mn117  1  0.41529646  0.83324077  0.08461960  1
  Mn3.34+  Mn118  1  0.41499798  0.83169194  0.41979372  1
  Mn3.34+  Mn119  1  0.41383496  0.83316382  0.74994449  1
  Mn3.34+  Mn120  1  0.74739087  0.32905854  0.09368385  1
  Mn3.34+  Mn121  1  0.74954566  0.33534056  0.40945003  1
  Mn3.34+  Mn122  1  0.74939897  0.33289037  0.74862789  1
  Mn3.34+  Mn123  1  0.74879403  0.82271031  0.08828414  1
  Mn3.34+  Mn124  1  0.75323358  0.83334691  0.42099779  1
  Mn3.34+  Mn125  1  0.75107735  0.83481392  0.74891970  1
  Mn3.34+  Mn126  1  0.25089088  0.33327657  0.24340348  1
  Mn3.34+  Mn127  1  0.25373985  0.32870827  0.58311208  1
  Mn3.34+  Mn128  1  0.25080637  0.34011631  0.91990262  1
  Mn3.34+  Mn129  1  0.24964188  0.83292105  0.25192812  1
  Mn3.34+  Mn130  1  0.25315941  0.83278643  0.57548020  1
  Mn3.34+  Mn131  1  0.25437566  0.83218732  0.91594793  1
  Mn3.34+  Mn132  1  0.58174850  0.33440831  0.24902799  1
  Mn3.34+  Mn133  1  0.58200864  0.33605999  0.58241736  1
  Mn3.34+  Mn134  1  0.57588765  0.33699064  0.91580054  1
  Mn3.34+  Mn135  1  0.58103612  0.83026918  0.24888719  1
  Mn3.34+  Mn136  1  0.58227602  0.83362319  0.58051999  1
  Mn3.34+  Mn137  1  0.58109194  0.83190470  0.91196310  1
  Mn3.34+  Mn138  1  0.92054601  0.32798608  0.24263921  1
  Mn3.34+  Mn139  1  0.91536730  0.32730026  0.58425508  1
  Mn3.34+  Mn140  1  0.92302209  0.33455559  0.91250461  1
  Mn3.34+  Mn141  1  0.91749917  0.83510224  0.25248282  1
  Mn3.34+  Mn142  1  0.91710011  0.83795274  0.58375472  1
  Mn3.34+  Mn143  1  0.91753705  0.82760759  0.91632483  1
  Mn3.34+  Mn144  1  0.41663177  0.66653371  0.42443073  1
  Mn3.34+  Mn145  1  0.25538816  0.66233860  0.91331221  1
  Mn3.34+  Mn146  1  0.90736522  0.66161954  0.58136441  1
  Mn3.34+  Mn147  1  0.25354087  0.16607966  0.58136785  1
  Mn3.34+  Mn148  1  0.41132811  0.16588628  0.74796736  1
  Mn3.34+  Mn149  1  0.75206400  0.16746822  0.41508550  1
  Mn3.34+  Mn150  1  0.25327456  0.17140149  0.91895880  1
  Mn3.34+  Mn151  1  0.41592169  0.66553304  0.74889234  1
  Mn3.34+  Mn152  1  0.07797147  0.17325421  0.42448153  1
  Mn3.34+  Mn153  1  0.91594691  0.67400634  0.91153816  1
  Mn3.34+  Mn154  1  0.92094123  0.66780942  0.58327514  1
  Mn3.34+  Mn155  1  0.58657904  0.66652455  0.58522643  1
  Mn3.34+  Mn156  1  0.08543642  0.66672784  0.41580847  1
  Mn3.34+  Mn157  1  0.57530863  0.65831683  0.91021667  1
  Mn3.34+  Mn158  1  0.08292372  0.17558378  0.08107574  1
  Mn3.34+  Mn159  1  0.08970101  0.16572166  0.42730527  1
  Mn3.34+  Mn160  1  0.41011183  0.16959765  0.08514570  1
  Mn3.34+  Mn161  1  0.58536987  0.66323555  0.91292565  1
  Mn3.34+  Mn162  1  0.75109227  0.66681886  0.41534733  1
  Mn3.34+  Mn163  1  0.90977403  0.66587646  0.25016839  1
  Mn3.34+  Mn164  1  0.25061333  0.66799374  0.58134330  1
  Mn3.34+  Mn165  1  0.74982143  0.16734957  0.74679114  1
  Mn3.34+  Mn166  1  0.74015982  0.16184607  0.74903508  1
  Mn3.34+  Mn167  1  0.74736947  0.66861793  0.74704696  1
  Mn3.34+  Mn168  1  0.91796606  0.17095551  0.24999357  1
  Mn3.34+  Mn169  1  0.74430322  0.66882100  0.09169991  1
  Mn3.34+  Mn170  1  0.92315072  0.65966045  0.24812206  1
  Mn3.34+  Mn171  1  0.24664118  0.65645943  0.91083828  1
  Mn3.34+  Mn172  1  0.57628445  0.16919002  0.91669404  1
  Mn3.34+  Mn173  1  0.56638894  0.16226443  0.91485355  1
  Mn3.34+  Mn174  1  0.08981812  0.66567371  0.08611182  1
  Mn3.34+  Mn175  1  0.58058287  0.16936011  0.24678615  1
  Mn3.34+  Mn176  1  0.58637491  0.66496080  0.24530623  1
  Mn3.34+  Mn177  1  0.91644841  0.16215734  0.57322026  1
  Mn3.34+  Mn178  1  0.08730433  0.66663340  0.74819694  1
  Mn3.34+  Mn179  1  0.41199335  0.16745970  0.41821411  1
  Mn3.34+  Mn180  1  0.91229400  0.49205151  0.25250142  1
  Mn3.34+  Mn181  1  0.25247329  0.00871322  0.91791918  1
  Mn3.34+  Mn182  1  0.57925349  -0.00643514  0.58248504  1
  Mn3.34+  Mn183  1  0.74266703  0.50113301  0.74899515  1
  Mn3.34+  Mn184  1  0.73223189  0.50664827  0.74622255  1
  Mn3.34+  Mn185  1  0.74950003  0.00051526  0.41712713  1
  Mn3.34+  Mn186  1  0.92524725  0.00343314  0.90823731  1
  Mn3.34+  Mn187  1  0.91162974  -0.00372503  0.90746286  1
  Mn3.34+  Mn188  1  0.09371083  0.50321195  0.74348619  1
  Mn3.34+  Mn189  1  0.91316866  0.49962934  0.59186921  1
  Mn3.34+  Mn190  1  0.57663450  0.49717925  0.92292536  1
  Mn3.34+  Mn191  1  0.24530322  0.49593765  0.26513289  1
  Mn3.34+  Mn192  1  0.92477084  0.49834925  0.25174300  1
  Mn3.34+  Mn193  1  0.58787007  0.49797358  0.25923200  1
  Mn3.34+  Mn194  1  0.73900860  0.00403107  0.74670419  1
  Mn3.34+  Mn195  1  0.40021821  0.00782569  0.08078678  1
  Mn3.34+  Mn196  1  0.75399819  -0.00085524  0.08628371  1
  Mn3.34+  Mn197  1  0.09328866  0.00462602  0.08129677  1
  Mn3.34+  Mn198  1  0.41118928  0.00446477  0.08192199  1
  Mn3.34+  Mn199  1  0.41631408  0.00199193  0.41256642  1
  Mn3.34+  Mn200  1  0.91915498  0.00257642  0.24989501  1
  Mn3.34+  Mn201  1  0.25323581  -0.00079161  0.25696507  1
  Mn3.34+  Mn202  1  0.75176813  0.50104546  0.41669244  1
  Mn3.34+  Mn203  1  0.58428409  -0.00114632  0.91696357  1
  Mn3.34+  Mn204  1  0.08894618  0.49799224  0.07761627  1
  Mn3.34+  Mn205  1  0.08699431  0.50095725  0.41409142  1
  Mn3.34+  Mn206  1  0.73320706  0.49554124  0.09682224  1
  Mn3.34+  Mn207  1  0.74522820  0.50293628  0.09986227  1
  Mn3.34+  Mn208  1  0.75295692  -0.00224893  0.74821712  1
  Mn3.34+  Mn209  1  0.41808344  0.00408368  0.74766754  1
  Mn3.34+  Mn210  1  0.40663696  0.49273466  0.06169510  1
  Mn3.34+  Mn211  1  0.41557105  0.50115076  0.41373776  1
  Mn3.34+  Mn212  1  0.24582922  0.49832505  0.57750573  1
  Mn3.34+  Mn213  1  0.07996416  -0.00185223  0.08476423  1
  Mn3.34+  Mn214  1  0.26224182  0.00265255  0.57428746  1
  Mn3.34+  Mn215  1  0.58411943  0.49954900  0.58053781  1
  O2-  O216  1  -0.00051367  0.17529483  0.00407657  1
  O2-  O217  1  0.00557286  0.15490998  0.33485790  1
  O2-  O218  1  0.00156264  0.16417607  0.64990856  1
  O2-  O219  1  0.00060697  0.66209934  -0.00479770  1
  O2-  O220  1  -0.00471054  0.64754195  0.33621162  1
  O2-  O221  1  -0.00183429  0.64385903  0.66552549  1
  O2-  O222  1  0.33512700  0.15872907  0.00109679  1
  O2-  O223  1  0.33019652  0.16278138  0.34497380  1
  O2-  O224  1  0.32631546  0.14590733  0.66722634  1
  O2-  O225  1  0.33766637  0.64521905  -0.01374556  1
  O2-  O226  1  0.33958703  0.66702613  0.34282541  1
  O2-  O227  1  0.33482687  0.65705057  0.66203694  1
  O2-  O228  1  0.65996524  0.16411333  -0.00187099  1
  O2-  O229  1  0.67018318  0.15137789  0.33249860  1
  O2-  O230  1  0.66982380  0.15089629  0.66339429  1
  O2-  O231  1  0.66563833  0.65482299  0.00125574  1
  O2-  O232  1  0.66390799  0.66549748  0.33485999  1
  O2-  O233  1  0.66801202  0.65763723  0.66615022  1
  O2-  O234  1  0.16247053  0.17574687  -0.00292989  1
  O2-  O235  1  0.16327786  0.16765736  0.33804486  1
  O2-  O236  1  0.15938904  0.15316696  0.65006338  1
  O2-  O237  1  0.16633380  0.64317074  -0.00327506  1
  O2-  O238  1  0.16441394  0.66216693  0.34085245  1
  O2-  O239  1  0.16725699  0.65158267  0.66340429  1
  O2-  O240  1  0.50102801  0.14869025  0.00643471  1
  O2-  O241  1  0.49311111  0.15117373  0.32951262  1
  O2-  O242  1  0.49118390  0.16782450  0.67001114  1
  O2-  O243  1  0.49724751  0.65109687  -0.00912353  1
  O2-  O244  1  0.50444366  0.66182211  0.33912090  1
  O2-  O245  1  0.49405184  0.65704683  0.65829382  1
  O2-  O246  1  0.82700867  0.18051331  -0.00088841  1
  O2-  O247  1  0.84273350  0.16100421  0.33909132  1
  O2-  O248  1  0.84135849  0.14633791  0.67130023  1
  O2-  O249  1  0.83458263  0.66884775  0.00516805  1
  O2-  O250  1  0.83330409  0.64353813  0.33023358  1
  O2-  O251  1  0.84466907  0.64449117  0.67522714  1
  O2-  O252  1  -0.00271032  0.32475648  0.00094436  1
  O2-  O253  1  -0.00056120  0.30637915  0.33345191  1
  O2-  O254  1  0.00524288  0.31642211  0.66494252  1
  O2-  O255  1  0.00255905  0.84567586  0.00015952  1
  O2-  O256  1  -0.00540923  0.85361518  0.33981089  1
  O2-  O257  1  -0.00054700  0.84815550  0.66593830  1
  O2-  O258  1  0.33110724  0.34202854  0.00248247  1
  O2-  O259  1  0.33558706  0.34403298  0.33423571  1
  O2-  O260  1  0.32858454  0.35076050  0.66755364  1
  O2-  O261  1  0.33685558  0.85065833  -0.00105447  1
  O2-  O262  1  0.32944804  0.84507706  0.33901499  1
  O2-  O263  1  0.32818230  0.85419680  0.66915120  1
  O2-  O264  1  0.67350053  0.33643392  -0.00123150  1
  O2-  O265  1  0.66695194  0.34811844  0.33261270  1
  O2-  O266  1  0.65974065  0.35489010  0.67127533  1
  O2-  O267  1  0.66695730  0.84273041  0.00498025  1
  O2-  O268  1  0.66731584  0.84251687  0.33058772  1
  O2-  O269  1  0.66550148  0.85420004  0.66361635  1
  O2-  O270  1  0.15474882  0.33431105  -0.01023177  1
  O2-  O271  1  0.16883727  0.33220780  0.33822653  1
  O2-  O272  1  0.16071166  0.34310972  0.66582119  1
  O2-  O273  1  0.16686467  0.85211913  -0.00516590  1
  O2-  O274  1  0.16394763  0.84686879  0.33086937  1
  O2-  O275  1  0.16663397  0.85228088  0.65468208  1
  O2-  O276  1  0.50038185  0.34212631  0.00059102  1
  O2-  O277  1  0.49853761  0.34980707  0.33666262  1
  O2-  O278  1  0.49661199  0.34221155  0.66233099  1
  O2-  O279  1  0.50252602  0.85330150  0.00475167  1
  O2-  O280  1  0.49941591  0.82843772  0.33363506  1
  O2-  O281  1  0.49671897  0.84558497  0.66428316  1
  O2-  O282  1  0.83109828  0.32057106  0.00101222  1
  O2-  O283  1  0.84270010  0.33270834  0.33435845  1
  O2-  O284  1  0.82834990  0.33034864  0.66054168  1
  O2-  O285  1  0.83438536  0.82428682  0.00339349  1
  O2-  O286  1  0.82874126  0.85713722  0.33149431  1
  O2-  O287  1  0.83845542  0.85703724  0.67193232  1
  O2-  O288  1  -0.00135441  0.18649572  0.16918158  1
  O2-  O289  1  -0.00276832  0.19863064  0.49777845  1
  O2-  O290  1  -0.00255819  0.18194577  0.81961658  1
  O2-  O291  1  -0.00028189  0.68211150  0.16659583  1
  O2-  O292  1  0.00002215  0.68306876  0.50252424  1
  O2-  O293  1  -0.00659991  0.68636728  0.82509109  1
  O2-  O294  1  0.33998539  0.18138914  0.16604705  1
  O2-  O295  1  0.34686561  0.17905099  0.51300071  1
  O2-  O296  1  0.32988295  0.17959293  0.83141576  1
  O2-  O297  1  0.33761230  0.66840525  0.16202618  1
  O2-  O298  1  0.33389940  0.68714716  0.50143969  1
  O2-  O299  1  0.33403830  0.68488659  0.83203299  1
  O2-  O300  1  0.66157099  0.18284810  0.17084576  1
  O2-  O301  1  0.66689207  0.16631736  0.48728061  1
  O2-  O302  1  0.66622083  0.18199635  0.84079042  1
  O2-  O303  1  0.66382668  0.69747974  0.16564591  1
  O2-  O304  1  0.66263825  0.68010444  0.49396006  1
  O2-  O305  1  0.66630704  0.68284220  0.83826293  1
  O2-  O306  1  0.15757275  0.18224080  0.16742218  1
  O2-  O307  1  0.17259113  0.19485439  0.49586310  1
  O2-  O308  1  0.17344506  0.18583800  0.83527986  1
  O2-  O309  1  0.17262997  0.67414293  0.15506950  1
  O2-  O310  1  0.16603986  0.67993826  0.50104071  1
  O2-  O311  1  0.16510868  0.68382382  0.83842048  1
  O2-  O312  1  0.50043009  0.18373070  0.16695517  1
  O2-  O313  1  0.50662741  0.17084696  0.48596204  1
  O2-  O314  1  0.49635434  0.18031049  0.83089660  1
  O2-  O315  1  0.50088852  0.67557022  0.17438044  1
  O2-  O316  1  0.50615852  0.68478222  0.49636123  1
  O2-  O317  1  0.49852543  0.68518782  0.82915217  1
  O2-  O318  1  0.83431236  0.18397173  0.17879170  1
  O2-  O319  1  0.82614242  0.18451271  0.50729420  1
  O2-  O320  1  0.82424502  0.18091659  0.83076818  1
  O2-  O321  1  0.83588128  0.68735564  0.16574318  1
  O2-  O322  1  0.83634483  0.68282005  0.49574531  1
  O2-  O323  1  0.83187322  0.68770248  0.83355813  1
  O2-  O324  1  0.00216656  0.30965268  0.16098894  1
  O2-  O325  1  -0.00177029  0.31804587  0.49847216  1
  O2-  O326  1  0.00489650  0.31304336  0.83648802  1
  O2-  O327  1  -0.00655537  0.82449584  0.16506826  1
  O2-  O328  1  0.00395787  0.82139967  0.50511346  1
  O2-  O329  1  0.00660379  0.81544164  0.84247630  1
  O2-  O330  1  0.33989057  0.32520152  0.16979018  1
  O2-  O331  1  0.33036826  0.32069759  0.49777465  1
  O2-  O332  1  0.33153272  0.32726197  0.83169143  1
  O2-  O333  1  0.33566349  0.82603787  0.16878389  1
  O2-  O334  1  0.33637331  0.81206072  0.50017865  1
  O2-  O335  1  0.33040114  0.82325573  0.83017853  1
  O2-  O336  1  0.66148012  0.31372963  0.16689590  1
  O2-  O337  1  0.66723983  0.32978031  0.49931226  1
  O2-  O338  1  0.67984584  0.32441085  0.84355388  1
  O2-  O339  1  0.66280623  0.81385820  0.16630275  1
  O2-  O340  1  0.66797056  0.81991896  0.50027243  1
  O2-  O341  1  0.66478153  0.81612675  0.83078201  1
  O2-  O342  1  0.17256834  0.31765305  0.15782488  1
  O2-  O343  1  0.15845410  0.31958960  0.50804762  1
  O2-  O344  1  0.16888582  0.31583246  0.82824030  1
  O2-  O345  1  0.17256789  0.81951278  0.16393224  1
  O2-  O346  1  0.17229825  0.82100793  0.49212848  1
  O2-  O347  1  0.16568390  0.82107793  0.83309454  1
  O2-  O348  1  0.49404735  0.32138029  0.17557498  1
  O2-  O349  1  0.49874194  0.32481978  0.49942969  1
  O2-  O350  1  0.50769543  0.32181781  0.82302735  1
  O2-  O351  1  0.50283726  0.82144898  0.16340761  1
  O2-  O352  1  0.49888440  0.81496836  0.49851246  1
  O2-  O353  1  0.49358697  0.81904636  0.83420360  1
  O2-  O354  1  0.83302472  0.30639081  0.16657265  1
  O2-  O355  1  0.83279211  0.32019482  0.50008873  1
  O2-  O356  1  0.83560299  0.31441232  0.83911142  1
  O2-  O357  1  0.83171897  0.81438181  0.16875932  1
  O2-  O358  1  0.83402327  0.82173367  0.50482424  1
  O2-  O359  1  0.83120393  0.81773894  0.84053268  1
  O2-  O360  1  0.07408849  0.08410413  0.11403789  1
  O2-  O361  1  0.06912675  0.08258655  0.46109141  1
  O2-  O362  1  0.08210708  0.07326308  0.78320036  1
  O2-  O363  1  0.06719542  0.57996237  0.10533789  1
  O2-  O364  1  0.08217470  0.58127139  0.44776314  1
  O2-  O365  1  0.06791978  0.58227014  0.79151078  1
  O2-  O366  1  0.42862615  0.08493915  0.12087525  1
  O2-  O367  1  0.42532771  0.08156770  0.44464786  1
  O2-  O368  1  0.40933490  0.08191557  0.77066187  1
  O2-  O369  1  0.41665815  0.55059635  0.13352148  1
  O2-  O370  1  0.42375848  0.57733078  0.46502906  1
  O2-  O371  1  0.41467740  0.58364669  0.75943164  1
  O2-  O372  1  0.75508791  0.08227058  0.08425254  1
  O2-  O373  1  0.76627676  0.08090293  0.43845495  1
  O2-  O374  1  0.74300028  0.07962665  0.80222196  1
  O2-  O375  1  0.73500046  0.58263531  0.12264851  1
  O2-  O376  1  0.73232754  0.58272863  0.44305634  1
  O2-  O377  1  0.76746171  0.58083146  0.79803342  1
  O2-  O378  1  0.25120899  0.07263564  0.20689814  1
  O2-  O379  1  0.23198972  0.08225142  0.55333894  1
  O2-  O380  1  0.22807108  0.08898447  0.89633644  1
  O2-  O381  1  0.24915512  0.56724681  0.22472555  1
  O2-  O382  1  0.26362794  0.58006814  0.55027748  1
  O2-  O383  1  0.24687372  0.57881647  0.87676580  1
  O2-  O384  1  0.59294537  0.08623993  0.23081993  1
  O2-  O385  1  0.58855839  0.06982793  0.54593886  1
  O2-  O386  1  0.60700582  0.08276610  0.90190935  1
  O2-  O387  1  0.59208236  0.57663883  0.22347892  1
  O2-  O388  1  0.57226611  0.58050278  0.54951738  1
  O2-  O389  1  0.59235083  0.57759550  0.87582442  1
  O2-  O390  1  0.91860616  0.08107357  0.21820272  1
  O2-  O391  1  0.92964527  0.08684337  0.54368694  1
  O2-  O392  1  0.89788665  0.08321605  0.88785900  1
  O2-  O393  1  0.91001283  0.57412294  0.19420871  1
  O2-  O394  1  0.92063652  0.58111501  0.54435704  1
  O2-  O395  1  0.91383090  0.58298957  0.90183881  1
  O2-  O396  1  0.06796548  0.42067730  0.09765171  1
  O2-  O397  1  0.07688916  0.42006409  0.44793247  1
  O2-  O398  1  0.08949303  0.42245388  0.77916475  1
  O2-  O399  1  0.08728874  0.92038847  0.12374553  1
  O2-  O400  1  0.08885209  0.91838116  0.43978523  1
  O2-  O401  1  0.08832410  0.91747338  0.77097354  1
  O2-  O402  1  0.41875061  0.42348626  0.10852950  1
  O2-  O403  1  0.40928842  0.42082231  0.44548954  1
  O2-  O404  1  0.41943736  0.41783750  0.76652983  1
  O2-  O405  1  0.42997525  0.92520200  0.12986244  1
  O2-  O406  1  0.41650569  0.92163973  0.44147341  1
  O2-  O407  1  0.42041830  0.92234419  0.78142474  1
  O2-  O408  1  0.76906160  0.41701193  0.08715165  1
  O2-  O409  1  0.77174662  0.42053663  0.44333232  1
  O2-  O410  1  0.76235030  0.42162886  0.78704655  1
  O2-  O411  1  0.74709981  0.91756274  0.12023357  1
  O2-  O412  1  0.74613732  0.91979160  0.44575889  1
  O2-  O413  1  0.74611883  0.92149735  0.79352570  1
  O2-  O414  1  0.25829587  0.41996380  0.23717065  1
  O2-  O415  1  0.23102291  0.41711819  0.54999033  1
  O2-  O416  1  0.23341642  0.41696006  0.89218912  1
  O2-  O417  1  0.25060934  0.91937284  0.22585198  1
  O2-  O418  1  0.26850572  0.91908178  0.54666576  1
  O2-  O419  1  0.23190236  0.92805263  0.86665695  1
  O2-  O420  1  0.57117262  0.41952184  0.23162079  1
  O2-  O421  1  0.58250062  0.42148242  0.54777098  1
  O2-  O422  1  0.60873262  0.42017404  0.88285378  1
  O2-  O423  1  0.60408325  0.92117164  0.21871431  1
  O2-  O424  1  0.57612851  0.91566569  0.54502367  1
  O2-  O425  1  0.58550088  0.91645073  0.88157319  1
  O2-  O426  1  0.91766009  0.41621491  0.20862491  1
  O2-  O427  1  0.94140383  0.41815120  0.56062192  1
  O2-  O428  1  0.88999056  0.41563993  0.92355861  1
  O2-  O429  1  0.89806794  0.92431367  0.21368439  1
  O2-  O430  1  0.92132895  0.91990082  0.56066702  1
  O2-  O431  1  0.93999476  0.91718649  0.88529312  1
  O2-  O432  1  -0.01020176  0.00048380  0.00765955  1
  O2-  O433  1  -0.00656355  -0.00131014  0.32697665  1
  O2-  O434  1  -0.00147935  0.02272549  0.67295096  1
  O2-  O435  1  -0.00344057  0.50325982  0.01031324  1
  O2-  O436  1  -0.00635395  0.50055818  0.34654976  1
  O2-  O437  1  -0.00466185  0.51960064  0.67946004  1
  O2-  O438  1  0.32643193  -0.02531421  0.00207977  1
  O2-  O439  1  0.35592106  -0.00385703  0.31067990  1
  O2-  O440  1  0.32003081  -0.00848161  0.68148256  1
  O2-  O441  1  0.32548185  0.51638230  0.00605937  1
  O2-  O442  1  0.34257687  0.50942376  0.32418714  1
  O2-  O443  1  0.33750453  0.49095900  0.63969948  1
  O2-  O444  1  0.66455616  -0.01892142  0.01065683  1
  O2-  O445  1  0.67334812  -0.01111420  0.33725587  1
  O2-  O446  1  0.67892656  -0.00882999  0.64741871  1
  O2-  O447  1  0.67213397  0.50408360  -0.00410696  1
  O2-  O448  1  0.64481294  0.49781564  0.37102899  1
  O2-  O449  1  0.67639845  0.48735909  0.64875165  1
  O2-  O450  1  0.15134300  -0.01629216  -0.01532068  1
  O2-  O451  1  0.14526953  0.00907840  0.29018579  1
  O2-  O452  1  0.15930809  -0.01324154  0.63715341  1
  O2-  O453  1  0.15695398  0.50239485  -0.00373386  1
  O2-  O454  1  0.19357517  0.49770318  0.36934146  1
  O2-  O455  1  0.14072749  0.49585822  0.62896906  1
  O2-  O456  1  0.50191185  -0.01293622  0.00825491  1
  O2-  O457  1  0.52215033  0.00254693  0.37635023  1
  O2-  O458  1  0.49114868  -0.01265050  0.65665088  1
  O2-  O459  1  0.48786321  0.52091567  -0.00437793  1
  O2-  O460  1  0.50182451  0.52208591  0.33979923  1
  O2-  O461  1  0.49357900  0.49510207  0.64203325  1
  O2-  O462  1  0.82785873  -0.00778361  -0.00835530  1
  O2-  O463  1  0.83638870  -0.00729663  0.33463265  1
  O2-  O464  1  0.84036110  0.01490924  0.68010311  1
  O2-  O465  1  0.83158738  0.51960589  0.02142973  1
  O2-  O466  1  0.83613200  0.51023327  0.33808096  1
  O2-  O467  1  0.84098731  0.51452241  0.68756459  1
  O2-  O468  1  0.57763003  0.74767817  0.94554770  1
  O2-  O469  1  0.58618198  0.25639381  0.59456097  1
  O2-  O470  1  0.58076052  0.25203306  0.28301421  1
  O2-  O471  1  0.74028375  0.24972376  0.39659192  1
  O2-  O472  1  0.24884838  0.74281467  0.94883575  1
  O2-  O473  1  0.25327273  0.75428305  0.26674309  1
  O2-  O474  1  0.42164081  0.25143753  0.39621941  1
  O2-  O475  1  0.24482369  0.75218933  0.60935243  1
  O2-  O476  1  0.41162232  0.75203198  0.72259823  1
  O2-  O477  1  0.41990977  0.25178590  0.05967537  1
  O2-  O478  1  0.75989601  0.75109065  0.39232004  1
  O2-  O479  1  0.41276040  0.75570204  0.06024134  1
  O2-  O480  1  0.26249444  0.25349739  0.93896100  1
  O2-  O481  1  0.25572301  0.25529319  0.26166210  1
  O2-  O482  1  0.90986783  0.74933030  0.61319660  1
  O2-  O483  1  0.57559907  0.25046140  0.93869644  1
  O2-  O484  1  0.08697185  0.74877924  0.71610348  1
  O2-  O485  1  0.40776383  0.25130752  0.72747027  1
  O2-  O486  1  0.25194355  0.24825008  0.61629683  1
  O2-  O487  1  0.73106127  0.24883963  0.72001020  1
  O2-  O488  1  0.58802752  0.75155565  0.60765968  1
  O2-  O489  1  0.75491995  0.75360583  0.71765742  1
  O2-  O490  1  0.07581240  0.75107339  0.39096793  1
  O2-  O491  1  0.08407799  0.74843042  0.05778827  1
  O2-  O492  1  0.91525710  0.74988383  0.28362219  1
