# generated using pymatgen
data_Ca108Mn108O277
_symmetry_space_group_name_H-M   'P 1'
_cell_length_a   16.02728535
_cell_length_b   22.30658747
_cell_length_c   16.38972812
_cell_angle_alpha   90.00268767
_cell_angle_beta   89.99683505
_cell_angle_gamma   89.99995891
_symmetry_Int_Tables_number   1
_chemical_formula_structural   Ca108Mn108O277
_chemical_formula_sum   'Ca108 Mn108 O277'
_cell_volume   5859.55793953
_cell_formula_units_Z   1
loop_
 _symmetry_equiv_pos_site_id
 _symmetry_equiv_pos_as_xyz
  1  'x, y, z'
loop_
 _atom_type_symbol
 _atom_type_oxidation_number
  Ca2+  2.0
  Mn3.34+  3.34
  O2-  -2.0
loop_
 _atom_site_type_symbol
 _atom_site_label
 _atom_site_symmetry_multiplicity
 _atom_site_fract_x
 _atom_site_fract_y
 _atom_site_fract_z
 _atom_site_occupancy
  Ca2+  Ca0  1  0.07510832  0.25206873  0.24048669  1
  Ca2+  Ca1  1  0.08376947  0.25654779  0.59749768  1
  Ca2+  Ca2  1  0.09491357  0.25747429  0.91183109  1
  Ca2+  Ca3  1  0.09055662  0.75537365  0.23093044  1
  Ca2+  Ca4  1  0.09966411  0.75223811  0.59685843  1
  Ca2+  Ca5  1  0.09516301  0.73559547  0.91827467  1
  Ca2+  Ca6  1  0.42793406  0.24452434  0.24818084  1
  Ca2+  Ca7  1  0.42695031  0.25742952  0.58148763  1
  Ca2+  Ca8  1  0.43361817  0.25233659  0.92179158  1
  Ca2+  Ca9  1  0.42173776  0.74900642  0.24970997  1
  Ca2+  Ca10  1  0.39929751  0.75263151  0.57885644  1
  Ca2+  Ca11  1  0.41757385  0.72720296  0.92493241  1
  Ca2+  Ca12  1  0.73879612  0.24390590  0.24054981  1
  Ca2+  Ca13  1  0.73574123  0.25381364  0.55725720  1
  Ca2+  Ca14  1  0.72662958  0.25488354  0.92786011  1
  Ca2+  Ca15  1  0.73749349  0.74433902  0.23785353  1
  Ca2+  Ca16  1  0.75626322  0.74938986  0.59060903  1
  Ca2+  Ca17  1  0.74508971  0.75138614  0.92189783  1
  Ca2+  Ca18  1  0.26545072  0.26222155  0.08109828  1
  Ca2+  Ca19  1  0.27076813  0.24914915  0.40539978  1
  Ca2+  Ca20  1  0.26269352  0.26011572  0.76022660  1
  Ca2+  Ca21  1  0.25516169  0.74068205  0.07895643  1
  Ca2+  Ca22  1  0.26981045  0.75983558  0.41629297  1
  Ca2+  Ca23  1  0.25113009  0.74437636  0.74970112  1
  Ca2+  Ca24  1  0.59644275  0.22855290  0.07238782  1
  Ca2+  Ca25  1  0.59826131  0.22427251  0.40398868  1
  Ca2+  Ca26  1  0.57611930  0.25173960  0.76752773  1
  Ca2+  Ca27  1  0.58189255  0.73523768  0.08464089  1
  Ca2+  Ca28  1  0.57074656  0.75432782  0.39814559  1
  Ca2+  Ca29  1  0.58417778  0.74815573  0.76297743  1
  Ca2+  Ca30  1  0.88546206  0.24805909  0.08555505  1
  Ca2+  Ca31  1  0.87935216  0.24201185  0.40023265  1
  Ca2+  Ca32  1  0.92149541  0.25985709  0.75303339  1
  Ca2+  Ca33  1  0.91284680  0.74628618  0.08814791  1
  Ca2+  Ca34  1  0.90561615  0.75483421  0.40724435  1
  Ca2+  Ca35  1  0.92099675  0.74578487  0.75209225  1
  Ca2+  Ca36  1  0.91340573  0.59092524  0.41910555  1
  Ca2+  Ca37  1  0.26442677  0.59492583  0.42206468  1
  Ca2+  Ca38  1  0.25706507  0.58047148  0.04752391  1
  Ca2+  Ca39  1  0.72804307  0.08879802  0.56994126  1
  Ca2+  Ca40  1  0.94986856  0.08650296  0.74728304  1
  Ca2+  Ca41  1  0.20841255  0.10213699  0.75850724  1
  Ca2+  Ca42  1  0.89769453  0.07461457  0.38711984  1
  Ca2+  Ca43  1  0.44223379  0.07711101  0.57426322  1
  Ca2+  Ca44  1  0.74148477  0.61078877  0.90455484  1
  Ca2+  Ca45  1  0.10395700  0.58605852  0.60108454  1
  Ca2+  Ca46  1  0.73130722  0.09602166  0.95118004  1
  Ca2+  Ca47  1  0.90078023  0.59251316  0.42052083  1
  Ca2+  Ca48  1  0.58147794  0.09667762  0.74831319  1
  Ca2+  Ca49  1  0.91048445  0.59020916  0.07552095  1
  Ca2+  Ca50  1  0.73097980  0.61057576  0.90451565  1
  Ca2+  Ca51  1  0.08420779  0.59246328  0.24236394  1
  Ca2+  Ca52  1  0.22002078  0.10247546  0.75306707  1
  Ca2+  Ca53  1  0.73416123  0.09714607  0.23021800  1
  Ca2+  Ca54  1  0.25639991  0.07085401  0.37727301  1
  Ca2+  Ca55  1  0.58765723  0.61656083  0.76908066  1
  Ca2+  Ca56  1  0.07646850  0.08020782  0.26606575  1
  Ca2+  Ca57  1  0.90693696  0.07227396  0.38326239  1
  Ca2+  Ca58  1  0.08712795  0.08021584  0.26586437  1
  Ca2+  Ca59  1  0.72878468  0.10165922  0.95711527  1
  Ca2+  Ca60  1  0.43562587  0.10956826  0.92168175  1
  Ca2+  Ca61  1  0.09299026  0.07022176  0.57884117  1
  Ca2+  Ca62  1  0.26098201  0.11165774  0.12271737  1
  Ca2+  Ca63  1  0.38660806  0.58863231  0.58351859  1
  Ca2+  Ca64  1  0.07139119  0.59258805  0.24220312  1
  Ca2+  Ca65  1  0.25072701  0.06647350  0.38364184  1
  Ca2+  Ca66  1  0.43081606  0.09596587  0.25557017  1
  Ca2+  Ca67  1  0.71762870  0.08938612  0.57111166  1
  Ca2+  Ca68  1  0.91013406  0.60475268  0.75038378  1
  Ca2+  Ca69  1  0.93969427  0.08400174  0.74416269  1
  Ca2+  Ca70  1  0.76407290  0.59726288  0.61277358  1
  Ca2+  Ca71  1  0.59300215  0.09680814  0.74896227  1
  Ca2+  Ca72  1  0.91735093  0.91661619  0.40483304  1
  Ca2+  Ca73  1  0.58986182  0.90738205  0.72673249  1
  Ca2+  Ca74  1  0.06567405  0.89824028  0.90749361  1
  Ca2+  Ca75  1  0.09445253  0.92634581  0.28988481  1
  Ca2+  Ca76  1  0.75134406  0.41178171  0.92550436  1
  Ca2+  Ca77  1  0.42152588  0.40350905  0.24309655  1
  Ca2+  Ca78  1  0.92707368  0.92020489  0.40652305  1
  Ca2+  Ca79  1  0.42322321  0.88529979  0.90944150  1
  Ca2+  Ca80  1  0.73430165  0.90881098  0.24905341  1
  Ca2+  Ca81  1  0.39479856  0.41693850  0.92702173  1
  Ca2+  Ca82  1  0.07499853  0.89523286  0.90460920  1
  Ca2+  Ca83  1  0.40729238  0.90667653  0.57207856  1
  Ca2+  Ca84  1  0.58537999  0.89476488  0.09136398  1
  Ca2+  Ca85  1  0.07199906  0.40398234  0.24242091  1
  Ca2+  Ca86  1  0.10799831  0.41693759  0.59085815  1
  Ca2+  Ca87  1  0.90995883  0.89641959  0.74270354  1
  Ca2+  Ca88  1  0.08452723  0.40310730  0.24530714  1
  Ca2+  Ca89  1  0.11022910  0.91720135  0.57333680  1
  Ca2+  Ca90  1  0.11304453  0.42124377  0.92163863  1
  Ca2+  Ca91  1  0.90786143  0.90195525  0.09114744  1
  Ca2+  Ca92  1  0.41389705  0.88981924  0.91199822  1
  Ca2+  Ca93  1  0.91720401  0.40401828  0.41357166  1
  Ca2+  Ca94  1  0.75293378  0.40598102  0.59061342  1
  Ca2+  Ca95  1  0.25764264  0.40576036  0.41959323  1
  Ca2+  Ca96  1  0.09594853  0.41400512  0.59368754  1
  Ca2+  Ca97  1  0.24997537  0.89874010  0.09598727  1
  Ca2+  Ca98  1  0.90570204  0.40436495  0.41413712  1
  Ca2+  Ca99  1  0.57803234  0.40338161  0.40870231  1
  Ca2+  Ca100  1  0.10545022  0.92325843  0.28599764  1
  Ca2+  Ca101  1  0.58478542  0.40143365  0.75463014  1
  Ca2+  Ca102  1  0.74432520  0.90752860  0.24637746  1
  Ca2+  Ca103  1  0.58817401  0.40646201  0.41453294  1
  Ca2+  Ca104  1  0.92061629  0.41030213  0.74927870  1
  Ca2+  Ca105  1  0.39553096  0.41085680  0.58661210  1
  Ca2+  Ca106  1  0.43306503  0.40287148  0.24239667  1
  Ca2+  Ca107  1  0.74167678  0.90221942  0.59069049  1
  Mn3.34+  Mn108  1  0.08206623  0.33916061  0.07435505  1
  Mn3.34+  Mn109  1  0.08698390  0.32871082  0.42249550  1
  Mn3.34+  Mn110  1  0.08966659  0.34105581  0.75917158  1
  Mn3.34+  Mn111  1  0.08235224  0.83200729  0.08609243  1
  Mn3.34+  Mn112  1  0.08611381  0.83020256  0.42466515  1
  Mn3.34+  Mn113  1  0.08599448  0.83038864  0.74375193  1
  Mn3.34+  Mn114  1  0.42072945  0.33725600  0.07825324  1
  Mn3.34+  Mn115  1  0.41691300  0.33155295  0.41975516  1
  Mn3.34+  Mn116  1  0.41438698  0.33643397  0.75371079  1
  Mn3.34+  Mn117  1  0.41640996  0.82755257  0.09060167  1
  Mn3.34+  Mn118  1  0.41859295  0.83992372  0.41142023  1
  Mn3.34+  Mn119  1  0.41382963  0.82726391  0.74343597  1
  Mn3.34+  Mn120  1  0.74611523  0.33821148  0.08363277  1
  Mn3.34+  Mn121  1  0.74586561  0.33282336  0.41153566  1
  Mn3.34+  Mn122  1  0.75235646  0.33405971  0.75594600  1
  Mn3.34+  Mn123  1  0.74888296  0.82832715  0.08146643  1
  Mn3.34+  Mn124  1  0.74322473  0.83534439  0.42481887  1
  Mn3.34+  Mn125  1  0.74872520  0.82648969  0.75162257  1
  Mn3.34+  Mn126  1  0.25029446  0.32642337  0.24644817  1
  Mn3.34+  Mn127  1  0.25273842  0.33051953  0.58524530  1
  Mn3.34+  Mn128  1  0.25475500  0.33869413  0.91591812  1
  Mn3.34+  Mn129  1  0.25459583  0.83631951  0.25321439  1
  Mn3.34+  Mn130  1  0.25229160  0.83922817  0.58169411  1
  Mn3.34+  Mn131  1  0.24775262  0.82837551  0.91604498  1
  Mn3.34+  Mn132  1  0.59083376  0.33184166  0.23885842  1
  Mn3.34+  Mn133  1  0.58132507  0.33230739  0.58754675  1
  Mn3.34+  Mn134  1  0.58089995  0.33846115  0.92124119  1
  Mn3.34+  Mn135  1  0.57710182  0.83518885  0.24995015  1
  Mn3.34+  Mn136  1  0.58143404  0.83525469  0.57762052  1
  Mn3.34+  Mn137  1  0.58768185  0.82478346  0.91524955  1
  Mn3.34+  Mn138  1  0.90809862  0.33264818  0.24110992  1
  Mn3.34+  Mn139  1  0.91677048  0.33435618  0.58381161  1
  Mn3.34+  Mn140  1  0.91836828  0.33743350  0.92123153  1
  Mn3.34+  Mn141  1  0.91744515  0.83425719  0.24833104  1
  Mn3.34+  Mn142  1  0.91802968  0.82890342  0.57722834  1
  Mn3.34+  Mn143  1  0.90848090  0.82988034  0.91430421  1
  Mn3.34+  Mn144  1  0.08968664  0.17216566  0.08002636  1
  Mn3.34+  Mn145  1  0.74144289  0.66493857  0.41566705  1
  Mn3.34+  Mn146  1  0.08261026  0.17499387  0.41892113  1
  Mn3.34+  Mn147  1  0.08546617  0.66579331  0.07791366  1
  Mn3.34+  Mn148  1  0.57551997  0.67881990  0.57833930  1
  Mn3.34+  Mn149  1  0.92114430  0.66393665  0.91501873  1
  Mn3.34+  Mn150  1  0.25675002  0.66941061  0.24461890  1
  Mn3.34+  Mn151  1  0.41819091  0.66705649  0.41091966  1
  Mn3.34+  Mn152  1  0.41813105  0.17215295  0.08667211  1
  Mn3.34+  Mn153  1  0.58868166  0.67334452  0.57743133  1
  Mn3.34+  Mn154  1  0.42290419  0.66038867  0.08420125  1
  Mn3.34+  Mn155  1  0.91029889  0.16871972  0.57944098  1
  Mn3.34+  Mn156  1  0.58585690  0.15994095  0.24405843  1
  Mn3.34+  Mn157  1  0.74351554  0.66100033  0.08891495  1
  Mn3.34+  Mn158  1  0.92425911  0.16227414  0.57505639  1
  Mn3.34+  Mn159  1  0.09072777  0.18151897  0.41663851  1
  Mn3.34+  Mn160  1  0.58001665  0.66124989  0.24890108  1
  Mn3.34+  Mn161  1  0.57661127  0.16791489  0.57838715  1
  Mn3.34+  Mn162  1  0.09022002  0.67820207  0.41857155  1
  Mn3.34+  Mn163  1  0.25174859  0.66800711  0.58649229  1
  Mn3.34+  Mn164  1  0.08775184  0.66533278  0.75398169  1
  Mn3.34+  Mn165  1  0.91713214  0.17120064  0.91589080  1
  Mn3.34+  Mn166  1  0.75302975  0.16582545  0.75188136  1
  Mn3.34+  Mn167  1  0.42143323  0.16139085  0.41536052  1
  Mn3.34+  Mn168  1  0.91058684  0.16563126  0.24254895  1
  Mn3.34+  Mn169  1  0.41524261  0.16733641  0.75117370  1
  Mn3.34+  Mn170  1  0.08129910  0.67257381  0.42097687  1
  Mn3.34+  Mn171  1  0.91868853  0.67459939  0.58168469  1
  Mn3.34+  Mn172  1  0.25283856  0.65534998  0.90920676  1
  Mn3.34+  Mn173  1  0.41314519  0.66733878  0.75525341  1
  Mn3.34+  Mn174  1  0.26085986  0.16484438  0.57752610  1
  Mn3.34+  Mn175  1  0.90985438  0.66774014  0.24447254  1
  Mn3.34+  Mn176  1  0.25380930  0.17149074  0.91940855  1
  Mn3.34+  Mn177  1  0.24655560  0.16002070  0.57455983  1
  Mn3.34+  Mn178  1  0.07825327  0.16609408  0.08124026  1
  Mn3.34+  Mn179  1  0.92980978  0.16486716  0.91286533  1
  Mn3.34+  Mn180  1  0.39607897  0.50720247  0.75067555  1
  Mn3.34+  Mn181  1  0.57540486  -0.00214974  0.91297026  1
  Mn3.34+  Mn182  1  0.74803518  0.49916149  0.07636787  1
  Mn3.34+  Mn183  1  0.38742511  0.50104072  0.74859284  1
  Mn3.34+  Mn184  1  0.90456157  -0.00358799  0.91404642  1
  Mn3.34+  Mn185  1  0.75173918  0.50165217  0.75212702  1
  Mn3.34+  Mn186  1  0.92143363  0.50346821  0.59157064  1
  Mn3.34+  Mn187  1  0.41541404  0.50344086  0.06755619  1
  Mn3.34+  Mn188  1  0.58856306  -0.00947100  0.91424167  1
  Mn3.34+  Mn189  1  0.24773270  0.00338586  0.91751888  1
  Mn3.34+  Mn190  1  0.39837165  -0.00630352  0.73926292  1
  Mn3.34+  Mn191  1  0.91512189  0.49909072  0.92015010  1
  Mn3.34+  Mn192  1  0.09461263  -0.00675503  0.74569553  1
  Mn3.34+  Mn193  1  0.42295528  0.50430151  0.41219313  1
  Mn3.34+  Mn194  1  0.58861550  0.50130388  0.25286413  1
  Mn3.34+  Mn195  1  0.75096129  0.00187386  0.08295899  1
  Mn3.34+  Mn196  1  0.42904897  0.00344719  0.09960777  1
  Mn3.34+  Mn197  1  0.75048195  0.00069444  0.75606552  1
  Mn3.34+  Mn198  1  0.88943022  0.50061191  0.24858851  1
  Mn3.34+  Mn199  1  0.58516744  0.50310659  0.58348880  1
  Mn3.34+  Mn200  1  0.08766922  0.50097480  0.06402279  1
  Mn3.34+  Mn201  1  0.06883340  0.00355290  0.07862923  1
  Mn3.34+  Mn202  1  0.41891591  -0.00185193  0.10024587  1
  Mn3.34+  Mn203  1  0.72690594  -0.00618696  0.39793426  1
  Mn3.34+  Mn204  1  0.74571587  0.50340961  0.41144247  1
  Mn3.34+  Mn205  1  0.42777256  -0.00517836  0.38689371  1
  Mn3.34+  Mn206  1  0.58364264  0.49930410  0.92926181  1
  Mn3.34+  Mn207  1  0.57451782  0.50669671  0.58720130  1
  Mn3.34+  Mn208  1  0.26241839  -0.00199704  0.91818760  1
  Mn3.34+  Mn209  1  0.26610388  0.50343225  0.24000486  1
  Mn3.34+  Mn210  1  0.25497184  0.50074416  0.23956311  1
  Mn3.34+  Mn211  1  0.41034826  0.00083094  0.74443156  1
  Mn3.34+  Mn212  1  0.09359547  0.50453993  0.74840696  1
  Mn3.34+  Mn213  1  0.08008208  -0.00154180  0.08165449  1
  Mn3.34+  Mn214  1  0.90980391  -0.00091096  0.58588177  1
  Mn3.34+  Mn215  1  0.08674431  0.50468247  0.41340016  1
  O2-  O216  1  0.00460919  0.14432054  0.00250733  1
  O2-  O217  1  0.00380682  0.15841799  0.33384145  1
  O2-  O218  1  0.00074620  0.15522051  0.66194858  1
  O2-  O219  1  -0.00800431  0.66866995  0.00715053  1
  O2-  O220  1  -0.00225776  0.65719133  0.33490322  1
  O2-  O221  1  0.00149939  0.66772717  0.66274245  1
  O2-  O222  1  0.33327158  0.15176618  0.00267029  1
  O2-  O223  1  0.33160907  0.14831661  0.34390111  1
  O2-  O224  1  0.32411069  0.14040343  0.67728455  1
  O2-  O225  1  0.33272780  0.65896041  -0.00005159  1
  O2-  O226  1  0.32753441  0.65831396  0.33662523  1
  O2-  O227  1  0.33397494  0.65501027  0.66528826  1
  O2-  O228  1  0.67077206  0.17371458  -0.01220000  1
  O2-  O229  1  0.66568281  0.15808895  0.32132861  1
  O2-  O230  1  0.66946119  0.15763699  0.66523822  1
  O2-  O231  1  0.67174374  0.66576476  0.00350742  1
  O2-  O232  1  0.66919045  0.68096831  0.33380933  1
  O2-  O233  1  0.66519787  0.67803144  0.66214077  1
  O2-  O234  1  0.17100637  0.15128139  0.00312697  1
  O2-  O235  1  0.16634969  0.17540316  0.32990285  1
  O2-  O236  1  0.15960199  0.15635598  0.65067609  1
  O2-  O237  1  0.16946948  0.65813035  0.00148426  1
  O2-  O238  1  0.16304051  0.64889683  0.33279649  1
  O2-  O239  1  0.16478549  0.66111274  0.66475540  1
  O2-  O240  1  0.49742010  0.16421420  0.00745286  1
  O2-  O241  1  0.49851350  0.16166608  0.33215136  1
  O2-  O242  1  0.49517008  0.14777796  0.66585385  1
  O2-  O243  1  0.50081626  0.67016130  0.00839084  1
  O2-  O244  1  0.50183811  0.66543712  0.33503794  1
  O2-  O245  1  0.50171554  0.66096430  0.66356035  1
  O2-  O246  1  0.84002823  0.15569973  -0.00680444  1
  O2-  O247  1  0.83881222  0.15194330  0.32937169  1
  O2-  O248  1  0.83319393  0.14005565  0.66758852  1
  O2-  O249  1  0.83163043  0.65754174  -0.00317851  1
  O2-  O250  1  0.83596618  0.65797704  0.33909357  1
  O2-  O251  1  0.83924359  0.67798811  0.66253679  1
  O2-  O252  1  0.01063808  0.35655336  -0.01349719  1
  O2-  O253  1  0.00688233  0.34398561  0.33789363  1
  O2-  O254  1  0.00900815  0.34582636  0.66547503  1
  O2-  O255  1  -0.00337434  0.84451392  -0.00078217  1
  O2-  O256  1  -0.00020470  0.84298268  0.33603658  1
  O2-  O257  1  -0.00429233  0.83400206  0.66569640  1
  O2-  O258  1  0.33088045  0.34453264  0.00519440  1
  O2-  O259  1  0.33377125  0.34521778  0.33285373  1
  O2-  O260  1  0.33172799  0.34432401  0.66681961  1
  O2-  O261  1  0.33173006  0.84643622  0.00177254  1
  O2-  O262  1  0.33141189  0.83882083  0.33532914  1
  O2-  O263  1  0.33798436  0.84912857  0.66325269  1
  O2-  O264  1  0.67013137  0.34680400  -0.00635696  1
  O2-  O265  1  0.66316857  0.34912221  0.33227925  1
  O2-  O266  1  0.67176531  0.33880545  0.66562198  1
  O2-  O267  1  0.66142889  0.82790038  0.00462217  1
  O2-  O268  1  0.67457232  0.83695261  0.32949614  1
  O2-  O269  1  0.66566000  0.81677933  0.66547300  1
  O2-  O270  1  0.16672776  0.34110320  -0.00476516  1
  O2-  O271  1  0.16753650  0.31977264  0.33455417  1
  O2-  O272  1  0.16162613  0.33569564  0.66220589  1
  O2-  O273  1  0.16047442  0.85455673  -0.00031563  1
  O2-  O274  1  0.15789430  0.83772974  0.33130548  1
  O2-  O275  1  0.16010289  0.84539803  0.65898414  1
  O2-  O276  1  0.49049718  0.35158594  -0.00960160  1
  O2-  O277  1  0.49782775  0.34944647  0.33478108  1
  O2-  O278  1  0.49483007  0.35293102  0.66474909  1
  O2-  O279  1  0.49951104  0.83634142  -0.00313868  1
  O2-  O280  1  0.50079892  0.83663576  0.33214904  1
  O2-  O281  1  0.50405069  0.83801252  0.66818099  1
  O2-  O282  1  0.83248378  0.34303625  -0.00352892  1
  O2-  O283  1  0.83771819  0.34139190  0.33696141  1
  O2-  O284  1  0.83708291  0.34459648  0.67002205  1
  O2-  O285  1  0.83836284  0.83145032  0.00635914  1
  O2-  O286  1  0.83544498  0.84762443  0.34285485  1
  O2-  O287  1  0.83334284  0.82402546  0.66367225  1
  O2-  O288  1  0.00355975  0.17831666  0.16917205  1
  O2-  O289  1  -0.00200233  0.20012811  0.49247989  1
  O2-  O290  1  -0.00427437  0.18070784  0.82438392  1
  O2-  O291  1  0.00389365  0.67569161  0.17318918  1
  O2-  O292  1  -0.00360243  0.69446157  0.49544292  1
  O2-  O293  1  0.00065454  0.68253476  0.83221223  1
  O2-  O294  1  0.33440081  0.18825872  0.16718558  1
  O2-  O295  1  0.33930672  0.17865773  0.50074924  1
  O2-  O296  1  0.33855271  0.17795209  0.83644056  1
  O2-  O297  1  0.33142620  0.68152887  0.16562657  1
  O2-  O298  1  0.33217654  0.67874591  0.50083596  1
  O2-  O299  1  0.33106930  0.68131558  0.83198997  1
  O2-  O300  1  0.66286777  0.17566619  0.17102709  1
  O2-  O301  1  0.66572844  0.17330415  0.50968333  1
  O2-  O302  1  0.66713022  0.18148171  0.81772684  1
  O2-  O303  1  0.66459732  0.67660911  0.16725428  1
  O2-  O304  1  0.66630512  0.69347643  0.49826808  1
  O2-  O305  1  0.66848088  0.68452411  0.84080011  1
  O2-  O306  1  0.16361037  0.18752379  0.16288446  1
  O2-  O307  1  0.16928666  0.20127737  0.49713106  1
  O2-  O308  1  0.17910004  0.18424455  0.82812632  1
  O2-  O309  1  0.15955820  0.67468845  0.17300720  1
  O2-  O310  1  0.17069501  0.68823607  0.50002243  1
  O2-  O311  1  0.16941263  0.67620706  0.83217245  1
  O2-  O312  1  0.49555448  0.18087745  0.16945908  1
  O2-  O313  1  0.49506175  0.17639951  0.50364631  1
  O2-  O314  1  0.50269770  0.17240003  0.82091191  1
  O2-  O315  1  0.49653933  0.67857975  0.17085289  1
  O2-  O316  1  0.49673289  0.68581626  0.50074561  1
  O2-  O317  1  0.49764548  0.68411944  0.82512814  1
  O2-  O318  1  0.83078672  0.17508704  0.17286333  1
  O2-  O319  1  0.82677896  0.17333453  0.50285330  1
  O2-  O320  1  0.83802917  0.18764431  0.82481532  1
  O2-  O321  1  0.83695531  0.67672047  0.16218767  1
  O2-  O322  1  0.83547065  0.68438639  0.49462439  1
  O2-  O323  1  0.83761450  0.68383146  0.84330083  1
  O2-  O324  1  0.00442665  0.32957788  0.17161951  1
  O2-  O325  1  -0.00333708  0.32254570  0.49703297  1
  O2-  O326  1  0.00252260  0.31794538  0.82882524  1
  O2-  O327  1  -0.00679067  0.82016024  0.16142522  1
  O2-  O328  1  -0.00029992  0.80791966  0.49739130  1
  O2-  O329  1  0.00074654  0.81555034  0.83952227  1
  O2-  O330  1  0.34014421  0.32593142  0.17442710  1
  O2-  O331  1  0.33159393  0.32220470  0.49885914  1
  O2-  O332  1  0.34317617  0.31723491  0.84252491  1
  O2-  O333  1  0.32908961  0.82467180  0.16476433  1
  O2-  O334  1  0.33826212  0.82681491  0.50285809  1
  O2-  O335  1  0.33806748  0.82210373  0.83837153  1
  O2-  O336  1  0.66365494  0.31455899  0.16090678  1
  O2-  O337  1  0.66453921  0.33137181  0.49601871  1
  O2-  O338  1  0.66532521  0.32172485  0.83022548  1
  O2-  O339  1  0.67184050  0.82624479  0.16908071  1
  O2-  O340  1  0.66380348  0.81068925  0.50217589  1
  O2-  O341  1  0.66633688  0.81307768  0.83236532  1
  O2-  O342  1  0.15993019  0.31926016  0.17132962  1
  O2-  O343  1  0.16506208  0.31374086  0.50475641  1
  O2-  O344  1  0.17160041  0.31745034  0.83244947  1
  O2-  O345  1  0.16794030  0.82223452  0.16070489  1
  O2-  O346  1  0.16829637  0.81478459  0.50083171  1
  O2-  O347  1  0.15707235  0.82715597  0.84226368  1
  O2-  O348  1  0.49265068  0.32645204  0.17412212  1
  O2-  O349  1  0.50305148  0.32730503  0.49620385  1
  O2-  O350  1  0.50421052  0.32700916  0.82684979  1
  O2-  O351  1  0.50685021  0.81929932  0.15894263  1
  O2-  O352  1  0.49603170  0.82071132  0.50650509  1
  O2-  O353  1  0.49436606  0.81349545  0.83909931  1
  O2-  O354  1  0.82690571  0.31987993  0.16772504  1
  O2-  O355  1  0.83286741  0.32574511  0.49501145  1
  O2-  O356  1  0.83560194  0.31522912  0.83366076  1
  O2-  O357  1  0.82752972  0.83036970  0.17533526  1
  O2-  O358  1  0.83067781  0.81002039  0.49981568  1
  O2-  O359  1  0.83474633  0.81033955  0.82842436  1
  O2-  O360  1  0.09225553  0.08039606  0.12512564  1
  O2-  O361  1  0.09302716  0.08874498  0.43865130  1
  O2-  O362  1  0.07929503  0.07351938  0.78932934  1
  O2-  O363  1  0.07868568  0.57668525  0.11008203  1
  O2-  O364  1  0.05424406  0.58462266  0.45574178  1
  O2-  O365  1  0.06156523  0.58344132  0.75818016  1
  O2-  O366  1  0.40446492  0.08456786  0.12047880  1
  O2-  O367  1  0.40235906  0.06333536  0.44377438  1
  O2-  O368  1  0.42198910  0.07610970  0.79162115  1
  O2-  O369  1  0.40526861  0.57596982  0.10965993  1
  O2-  O370  1  0.40933054  0.58330820  0.44670730  1
  O2-  O371  1  0.43198963  0.58348338  0.77512511  1
  O2-  O372  1  0.74338917  0.08000176  0.09364414  1
  O2-  O373  1  0.77783724  0.06156565  0.45584490  1
  O2-  O374  1  0.74213896  0.07568425  0.81119052  1
  O2-  O375  1  0.76331259  0.57792227  0.10552102  1
  O2-  O376  1  0.76368120  0.58027209  0.45979716  1
  O2-  O377  1  0.75196029  0.58314387  0.76742897  1
  O2-  O378  1  0.21673447  0.07781052  0.24192410  1
  O2-  O379  1  0.23663700  0.08489094  0.52553589  1
  O2-  O380  1  0.25465097  0.08377333  0.88553279  1
  O2-  O381  1  0.24071874  0.58469290  0.21249947  1
  O2-  O382  1  0.24144985  0.58818685  0.55400087  1
  O2-  O383  1  0.25567657  0.57939766  0.90302731  1
  O2-  O384  1  0.57295634  0.08417492  0.22170538  1
  O2-  O385  1  0.58507444  0.08337109  0.56493955  1
  O2-  O386  1  0.58975455  0.07790596  0.88331766  1
  O2-  O387  1  0.58938081  0.58011597  0.23107174  1
  O2-  O388  1  0.58813927  0.58731265  0.55849433  1
  O2-  O389  1  0.60664480  0.56911614  0.88047394  1
  O2-  O390  1  0.93883967  0.08162093  0.24450173  1
  O2-  O391  1  0.93906424  0.08093535  0.53298742  1
  O2-  O392  1  0.91193720  0.08107288  0.87667306  1
  O2-  O393  1  0.92818879  0.58290511  0.22248984  1
  O2-  O394  1  0.91198167  0.58417481  0.55527686  1
  O2-  O395  1  0.89731296  0.57712542  0.88324913  1
  O2-  O396  1  0.09007725  0.42652820  0.11399671  1
  O2-  O397  1  0.08657407  0.42155793  0.45392006  1
  O2-  O398  1  0.08188963  0.42662681  0.78716660  1
  O2-  O399  1  0.07332508  0.91905634  0.12203521  1
  O2-  O400  1  0.06417768  0.91923404  0.43975471  1
  O2-  O401  1  0.06706251  0.91360860  0.77093700  1
  O2-  O402  1  0.41534702  0.42768306  0.11419250  1
  O2-  O403  1  0.41905059  0.42205507  0.44950240  1
  O2-  O404  1  0.41535292  0.42351916  0.78668041  1
  O2-  O405  1  0.42871669  0.91491311  0.09962287  1
  O2-  O406  1  0.42817839  0.92741388  0.44089020  1
  O2-  O407  1  0.42643269  0.91606121  0.77800509  1
  O2-  O408  1  0.74971635  0.42329254  0.10743919  1
  O2-  O409  1  0.75998600  0.42189578  0.44654772  1
  O2-  O410  1  0.75345461  0.42162813  0.77899341  1
  O2-  O411  1  0.75359283  0.91928938  0.10829867  1
  O2-  O412  1  0.75717040  0.92289170  0.45838912  1
  O2-  O413  1  0.74812362  0.91741886  0.73826288  1
  O2-  O414  1  0.23062049  0.41700676  0.23765744  1
  O2-  O415  1  0.23918682  0.41207679  0.55349094  1
  O2-  O416  1  0.25353408  0.41515374  0.88884792  1
  O2-  O417  1  0.22651810  0.91788945  0.22690356  1
  O2-  O418  1  0.24966107  0.91781557  0.56012392  1
  O2-  O419  1  0.25635931  0.91660040  0.89152126  1
  O2-  O420  1  0.57257563  0.41933210  0.22428691  1
  O2-  O421  1  0.58839403  0.42160473  0.55223178  1
  O2-  O422  1  0.59270111  0.42427170  0.88598121  1
  O2-  O423  1  0.59946886  0.91568986  0.22323430  1
  O2-  O424  1  0.59956499  0.91388016  0.58442070  1
  O2-  O425  1  0.56382770  0.91289931  0.88058508  1
  O2-  O426  1  0.93165300  0.41774675  0.24957097  1
  O2-  O427  1  0.91960700  0.42370334  0.54720884  1
  O2-  O428  1  0.90927212  0.42009252  0.88449512  1
  O2-  O429  1  0.91666360  0.91700845  0.23539359  1
  O2-  O430  1  0.91253007  0.91757128  0.54527424  1
  O2-  O431  1  0.92934841  0.91709509  0.87374319  1
  O2-  O432  1  0.00813762  -0.01933298  -0.01645933  1
  O2-  O433  1  -0.00249950  0.00090112  0.34127207  1
  O2-  O434  1  0.00498553  0.01061222  0.66626157  1
  O2-  O435  1  -0.00026214  0.50652772  -0.00137148  1
  O2-  O436  1  0.00911947  0.51024662  0.31615018  1
  O2-  O437  1  -0.00173116  0.48232066  0.67367964  1
  O2-  O438  1  0.33332778  0.00090390  0.01334043  1
  O2-  O439  1  0.33997006  0.00175772  0.32529008  1
  O2-  O440  1  0.34178027  0.01983417  0.65068741  1
  O2-  O441  1  0.32704871  0.49455762  0.01356337  1
  O2-  O442  1  0.32086065  0.49550394  0.34652040  1
  O2-  O443  1  0.34825186  0.49850042  0.64066805  1
  O2-  O444  1  0.66370368  0.00216648  0.00098936  1
  O2-  O445  1  0.69737051  0.00092986  0.28861771  1
  O2-  O446  1  0.67518902  0.02812128  0.67434627  1
  O2-  O447  1  0.68590573  0.50197452  -0.02291893  1
  O2-  O448  1  0.64489941  0.48768190  0.35928874  1
  O2-  O449  1  0.67486150  0.49678304  0.65939493  1
  O2-  O450  1  0.17352680  -0.00471152  0.00892265  1
  O2-  O451  1  0.15406804  0.00713781  0.33248042  1
  O2-  O452  1  0.17309289  0.02498753  0.67304527  1
  O2-  O453  1  0.16841874  0.50072717  -0.00084891  1
  O2-  O454  1  0.16030498  0.51086317  0.31339936  1
  O2-  O455  1  0.15058169  0.49691568  0.64752952  1
  O2-  O456  1  0.49707582  0.00226843  0.00158749  1
  O2-  O457  1  0.50044605  0.01306810  0.32111833  1
  O2-  O458  1  0.51131243  0.00619176  0.68653371  1
  O2-  O459  1  0.48561959  0.49044394  -0.01700153  1
  O2-  O460  1  0.48811962  0.48052668  0.32041762  1
  O2-  O461  1  0.50703312  0.49465450  0.68425898  1
  O2-  O462  1  0.82836367  0.00737566  -0.00090413  1
  O2-  O463  1  0.84028191  -0.01137270  0.35391823  1
  O2-  O464  1  0.84563821  0.02257168  0.68579480  1
  O2-  O465  1  0.83776459  0.50469520  0.00168640  1
  O2-  O466  1  0.86295587  0.50101102  0.37795139  1
  O2-  O467  1  0.83340966  0.50601946  0.66717731  1
  O2-  O468  1  0.58161093  0.75098063  0.25825196  1
  O2-  O469  1  0.41310450  0.25143488  0.39519037  1
  O2-  O470  1  0.91493887  0.24853690  0.61384644  1
  O2-  O471  1  0.41574564  0.24881376  0.72293893  1
  O2-  O472  1  0.41396294  0.75103528  0.39689678  1
  O2-  O473  1  0.26347960  0.24476202  0.61452895  1
  O2-  O474  1  0.93252076  0.25158722  0.94790272  1
  O2-  O475  1  0.41518520  0.25473705  0.06033121  1
  O2-  O476  1  0.74945459  0.25736478  0.06569964  1
  O2-  O477  1  0.57621222  0.25974497  0.93167192  1
  O2-  O478  1  0.40425767  0.74838373  0.72061939  1
  O2-  O479  1  0.08738462  0.75176337  0.06434492  1
  O2-  O480  1  0.75824402  0.74710008  0.07683379  1
  O2-  O481  1  0.91404700  0.75041478  0.26867155  1
  O2-  O482  1  0.57645420  0.24948348  0.60775974  1
  O2-  O483  1  0.74097964  0.25377849  0.40061308  1
  O2-  O484  1  0.09587697  0.74968239  0.73436252  1
  O2-  O485  1  0.25202874  0.25001857  0.94344239  1
  O2-  O486  1  0.24214474  0.74954007  0.27093875  1
  O2-  O487  1  0.92115024  0.25001550  0.26720017  1
  O2-  O488  1  0.07091035  0.25436883  0.05487190  1
  O2-  O489  1  0.40674306  0.74884199  0.06718011  1
  O2-  O490  1  0.57980578  0.25393973  0.27115126  1
  O2-  O491  1  0.24499409  0.74982214  0.93784599  1
  O2-  O492  1  0.25472356  0.75238872  0.60985260  1
