# generated using pymatgen
data_Ca108Mn108O277
_symmetry_space_group_name_H-M   'P 1'
_cell_length_a   16.01948287
_cell_length_b   22.29610959
_cell_length_c   16.38256815
_cell_angle_alpha   89.99975239
_cell_angle_beta   90.00005864
_cell_angle_gamma   90.00081354
_symmetry_Int_Tables_number   1
_chemical_formula_structural   Ca108Mn108O277
_chemical_formula_sum   'Ca108 Mn108 O277'
_cell_volume   5851.39701832
_cell_formula_units_Z   1
loop_
 _symmetry_equiv_pos_site_id
 _symmetry_equiv_pos_as_xyz
  1  'x, y, z'
loop_
 _atom_type_symbol
 _atom_type_oxidation_number
  Ca2+  2.0
  Mn3.34+  3.34
  O2-  -2.0
loop_
 _atom_site_type_symbol
 _atom_site_label
 _atom_site_symmetry_multiplicity
 _atom_site_fract_x
 _atom_site_fract_y
 _atom_site_fract_z
 _atom_site_occupancy
  Ca2+  Ca0  1  0.09408094  0.25784717  0.24368125  1
  Ca2+  Ca1  1  0.05970389  0.24844905  0.58061607  1
  Ca2+  Ca2  1  0.06985466  0.25384978  0.93114559  1
  Ca2+  Ca3  1  0.08845150  0.75144244  0.24482222  1
  Ca2+  Ca4  1  0.09037544  0.74755111  0.59085458  1
  Ca2+  Ca5  1  0.09517921  0.75778976  0.91716218  1
  Ca2+  Ca6  1  0.40894600  0.25909443  0.25407775  1
  Ca2+  Ca7  1  0.42623798  0.26441287  0.57444305  1
  Ca2+  Ca8  1  0.42032593  0.25306821  0.92458748  1
  Ca2+  Ca9  1  0.40249956  0.73410795  0.23166605  1
  Ca2+  Ca10  1  0.41154756  0.75074545  0.58381237  1
  Ca2+  Ca11  1  0.41097323  0.74956173  0.93740863  1
  Ca2+  Ca12  1  0.74604598  0.25867189  0.25113186  1
  Ca2+  Ca13  1  0.77409434  0.25019522  0.60531183  1
  Ca2+  Ca14  1  0.76819366  0.25158968  0.90276606  1
  Ca2+  Ca15  1  0.76884918  0.73486783  0.25031228  1
  Ca2+  Ca16  1  0.74867822  0.73398227  0.58517773  1
  Ca2+  Ca17  1  0.73983513  0.74882676  0.90809245  1
  Ca2+  Ca18  1  0.24179282  0.25347064  0.08774833  1
  Ca2+  Ca19  1  0.24842864  0.25131309  0.40049512  1
  Ca2+  Ca20  1  0.25105282  0.25599853  0.76187348  1
  Ca2+  Ca21  1  0.26847742  0.74231025  0.08740133  1
  Ca2+  Ca22  1  0.25180417  0.74881533  0.40296562  1
  Ca2+  Ca23  1  0.24650898  0.75368911  0.75721385  1
  Ca2+  Ca24  1  0.58073162  0.26064812  0.07945800  1
  Ca2+  Ca25  1  0.57495069  0.25674857  0.40805047  1
  Ca2+  Ca26  1  0.60982582  0.24941475  0.76414812  1
  Ca2+  Ca27  1  0.55985450  0.74708143  0.08187997  1
  Ca2+  Ca28  1  0.58554936  0.75042935  0.41853474  1
  Ca2+  Ca29  1  0.58949845  0.73861553  0.75333822  1
  Ca2+  Ca30  1  0.92579133  0.25364482  0.06591081  1
  Ca2+  Ca31  1  0.92545100  0.25172279  0.43259539  1
  Ca2+  Ca32  1  0.89512062  0.24375192  0.75720489  1
  Ca2+  Ca33  1  0.92268010  0.75366334  0.10562435  1
  Ca2+  Ca34  1  0.91415908  0.74803501  0.40241083  1
  Ca2+  Ca35  1  0.91672533  0.74038213  0.74751719  1
  Ca2+  Ca36  1  0.74288170  0.59202002  0.91758084  1
  Ca2+  Ca37  1  0.05973613  0.57978628  0.92697627  1
  Ca2+  Ca38  1  0.09024869  0.59450848  0.58979873  1
  Ca2+  Ca39  1  0.24837247  0.10064267  0.07581589  1
  Ca2+  Ca40  1  0.08190192  0.10647182  0.92743926  1
  Ca2+  Ca41  1  0.75262052  0.58930390  0.91400105  1
  Ca2+  Ca42  1  0.41477104  0.59251714  0.95812010  1
  Ca2+  Ca43  1  0.24338018  0.59833787  0.73467168  1
  Ca2+  Ca44  1  0.78479546  0.09759402  0.60255997  1
  Ca2+  Ca45  1  0.07758579  0.59487183  0.58988459  1
  Ca2+  Ca46  1  0.58551891  0.08345887  0.39437596  1
  Ca2+  Ca47  1  0.77492445  0.09560419  0.60526102  1
  Ca2+  Ca48  1  0.71893170  0.58976239  0.59350000  1
  Ca2+  Ca49  1  0.91360096  0.09963982  0.05915609  1
  Ca2+  Ca50  1  0.08451140  0.58332242  0.24363796  1
  Ca2+  Ca51  1  0.45088886  0.59300817  0.58092325  1
  Ca2+  Ca52  1  0.55777660  0.60142569  0.09427715  1
  Ca2+  Ca53  1  0.08444968  0.08976652  0.29650631  1
  Ca2+  Ca54  1  0.05017432  0.57751020  0.92390671  1
  Ca2+  Ca55  1  0.90376080  0.58422800  0.74055210  1
  Ca2+  Ca56  1  0.90026894  0.58767390  0.73202885  1
  Ca2+  Ca57  1  0.40531381  0.08860897  0.58546735  1
  Ca2+  Ca58  1  0.59580671  0.59711370  0.42965206  1
  Ca2+  Ca59  1  0.25137858  0.58641281  0.39717031  1
  Ca2+  Ca60  1  0.04582073  0.10729107  0.54037189  1
  Ca2+  Ca61  1  0.22251646  0.09692973  0.41146444  1
  Ca2+  Ca62  1  0.90640679  0.59370908  0.08925712  1
  Ca2+  Ca63  1  0.75938158  0.10885603  0.90091813  1
  Ca2+  Ca64  1  0.74850403  0.08272936  0.24538971  1
  Ca2+  Ca65  1  0.09490351  0.58339173  0.24473856  1
  Ca2+  Ca66  1  0.90280108  0.11074856  0.75730004  1
  Ca2+  Ca67  1  0.40430941  0.08964193  0.93403844  1
  Ca2+  Ca68  1  0.73709644  0.08135825  0.24387678  1
  Ca2+  Ca69  1  0.90058713  0.60164280  0.41850405  1
  Ca2+  Ca70  1  0.76716345  0.11338354  0.89772820  1
  Ca2+  Ca71  1  0.25510525  0.09495285  0.75724075  1
  Ca2+  Ca72  1  0.59171573  0.41225484  0.42048131  1
  Ca2+  Ca73  1  0.24710036  0.39779473  0.74918482  1
  Ca2+  Ca74  1  0.92256738  0.89956560  0.75351688  1
  Ca2+  Ca75  1  0.58030844  0.41264118  0.42002343  1
  Ca2+  Ca76  1  0.42426412  0.89784713  0.24301165  1
  Ca2+  Ca77  1  0.56524825  0.89913123  0.74997460  1
  Ca2+  Ca78  1  0.76159704  0.90610456  0.92673169  1
  Ca2+  Ca79  1  0.41841267  0.41098825  0.94266999  1
  Ca2+  Ca80  1  0.60292391  0.42241242  0.73184062  1
  Ca2+  Ca81  1  0.75628753  0.41232740  0.91381678  1
  Ca2+  Ca82  1  0.75778186  0.41203850  0.24593954  1
  Ca2+  Ca83  1  0.75769156  0.90353039  0.57460217  1
  Ca2+  Ca84  1  0.09019331  0.40590032  0.58500004  1
  Ca2+  Ca85  1  0.95013507  0.42840485  0.06382952  1
  Ca2+  Ca86  1  0.24494431  0.90435973  0.41489881  1
  Ca2+  Ca87  1  0.74385329  0.90755298  0.25367370  1
  Ca2+  Ca88  1  0.91008524  0.90153854  0.75159049  1
  Ca2+  Ca89  1  0.42648817  0.41182126  0.58164666  1
  Ca2+  Ca90  1  0.91618816  0.40844657  0.75697946  1
  Ca2+  Ca91  1  0.76812885  0.41463856  0.91069853  1
  Ca2+  Ca92  1  0.08025544  0.90457063  0.57562315  1
  Ca2+  Ca93  1  0.07849990  0.90498321  0.25599260  1
  Ca2+  Ca94  1  0.26216054  0.90076337  0.07930973  1
  Ca2+  Ca95  1  0.57808370  0.90017602  0.74979642  1
  Ca2+  Ca96  1  0.07773243  0.40463177  0.58275276  1
  Ca2+  Ca97  1  0.09300208  0.90418010  0.57576750  1
  Ca2+  Ca98  1  0.42947365  0.41197537  0.94133198  1
  Ca2+  Ca99  1  0.92018199  0.91733120  0.40555747  1
  Ca2+  Ca100  1  0.24689775  0.41490088  0.38821662  1
  Ca2+  Ca101  1  0.75544300  0.90761856  0.25339364  1
  Ca2+  Ca102  1  0.74769602  0.90309194  0.56685675  1
  Ca2+  Ca103  1  0.74517652  0.41187580  0.24573406  1
  Ca2+  Ca104  1  0.74755139  0.41969252  0.59451061  1
  Ca2+  Ca105  1  0.43465257  0.89934774  0.23893187  1
  Ca2+  Ca106  1  0.74888488  0.90643198  0.92642885  1
  Ca2+  Ca107  1  0.23992053  0.41936264  0.11405530  1
  Mn3.34+  Mn108  1  0.08534365  0.34054713  0.08589684  1
  Mn3.34+  Mn109  1  0.08172240  0.33461675  0.41310911  1
  Mn3.34+  Mn110  1  0.08119236  0.33350580  0.75504279  1
  Mn3.34+  Mn111  1  0.08566741  0.83373100  0.08144005  1
  Mn3.34+  Mn112  1  0.08256225  0.83465831  0.41553917  1
  Mn3.34+  Mn113  1  0.08873881  0.82958470  0.75547275  1
  Mn3.34+  Mn114  1  0.41386588  0.33726491  0.09182597  1
  Mn3.34+  Mn115  1  0.41314246  0.33690406  0.41413729  1
  Mn3.34+  Mn116  1  0.41963252  0.33334131  0.75163159  1
  Mn3.34+  Mn117  1  0.41823879  0.83457733  0.08066754  1
  Mn3.34+  Mn118  1  0.41892464  0.83100457  0.42088413  1
  Mn3.34+  Mn119  1  0.40616299  0.83388455  0.75436499  1
  Mn3.34+  Mn120  1  0.75109959  0.33504948  0.08298414  1
  Mn3.34+  Mn121  1  0.75595567  0.33654821  0.42112778  1
  Mn3.34+  Mn122  1  0.75100323  0.33833201  0.74934064  1
  Mn3.34+  Mn123  1  0.74800650  0.82797023  0.08750570  1
  Mn3.34+  Mn124  1  0.74909862  0.83106415  0.41705213  1
  Mn3.34+  Mn125  1  0.75038257  0.82940201  0.75171822  1
  Mn3.34+  Mn126  1  0.24937058  0.33824508  0.24920408  1
  Mn3.34+  Mn127  1  0.25019580  0.33039383  0.57782407  1
  Mn3.34+  Mn128  1  0.24591065  0.33262288  0.91909293  1
  Mn3.34+  Mn129  1  0.25002759  0.82955820  0.24854910  1
  Mn3.34+  Mn130  1  0.25611283  0.83529185  0.58160350  1
  Mn3.34+  Mn131  1  0.25122946  0.83085040  0.91756476  1
  Mn3.34+  Mn132  1  0.57878945  0.33615103  0.24391345  1
  Mn3.34+  Mn133  1  0.58691673  0.33902924  0.58253091  1
  Mn3.34+  Mn134  1  0.58502136  0.33394645  0.91657957  1
  Mn3.34+  Mn135  1  0.58630283  0.82495938  0.24804807  1
  Mn3.34+  Mn136  1  0.58096649  0.82529522  0.57891071  1
  Mn3.34+  Mn137  1  0.57736589  0.83159229  0.92050207  1
  Mn3.34+  Mn138  1  0.92345824  0.33703279  0.24913115  1
  Mn3.34+  Mn139  1  0.91460983  0.33429341  0.58323808  1
  Mn3.34+  Mn140  1  0.92300157  0.33554633  0.91620243  1
  Mn3.34+  Mn141  1  0.91995967  0.83052539  0.24844623  1
  Mn3.34+  Mn142  1  0.91687151  0.82375033  0.57691173  1
  Mn3.34+  Mn143  1  0.92141153  0.82896077  0.92282843  1
  Mn3.34+  Mn144  1  0.74513477  0.66445377  0.74754676  1
  Mn3.34+  Mn145  1  0.08834023  0.17071389  0.08356124  1
  Mn3.34+  Mn146  1  0.42498187  0.66405556  0.74867561  1
  Mn3.34+  Mn147  1  0.08242257  0.66797906  0.75609401  1
  Mn3.34+  Mn148  1  0.24822595  0.17042659  0.25075192  1
  Mn3.34+  Mn149  1  0.24299127  0.17550378  0.57855691  1
  Mn3.34+  Mn150  1  0.07873101  0.17053532  0.75219757  1
  Mn3.34+  Mn151  1  0.91595535  0.17048413  0.24837082  1
  Mn3.34+  Mn152  1  0.41330280  0.16822201  0.75742955  1
  Mn3.34+  Mn153  1  0.91408180  0.67050152  0.91553448  1
  Mn3.34+  Mn154  1  0.74690473  0.66903934  0.08719072  1
  Mn3.34+  Mn155  1  0.76027960  0.16042054  0.42087618  1
  Mn3.34+  Mn156  1  0.58777231  0.16918997  0.91903629  1
  Mn3.34+  Mn157  1  0.42412629  0.16618666  0.08780089  1
  Mn3.34+  Mn158  1  0.41491021  0.16061370  0.08789511  1
  Mn3.34+  Mn159  1  0.74950485  0.66872740  0.42029089  1
  Mn3.34+  Mn160  1  0.09549371  0.66017110  0.08537984  1
  Mn3.34+  Mn161  1  0.58216764  0.17022815  0.24786702  1
  Mn3.34+  Mn162  1  0.07747182  0.66967848  0.41962462  1
  Mn3.34+  Mn163  1  0.41480941  0.66903263  0.74918592  1
  Mn3.34+  Mn164  1  0.42304742  0.16264687  0.75902606  1
  Mn3.34+  Mn165  1  0.74686847  0.16876065  0.08512677  1
  Mn3.34+  Mn166  1  0.58719826  0.17054591  0.58524381  1
  Mn3.34+  Mn167  1  0.58961896  0.66454516  0.24876682  1
  Mn3.34+  Mn168  1  0.08966977  0.16686346  0.75438367  1
  Mn3.34+  Mn169  1  0.57369987  0.16467743  0.58518900  1
  Mn3.34+  Mn170  1  0.25023773  0.66556818  0.91527256  1
  Mn3.34+  Mn171  1  0.41697871  0.16801318  0.40979771  1
  Mn3.34+  Mn172  1  0.75022968  0.16559975  0.41907044  1
  Mn3.34+  Mn173  1  0.40945369  0.66600450  0.41226466  1
  Mn3.34+  Mn174  1  0.92884611  0.16339696  0.24800980  1
  Mn3.34+  Mn175  1  0.42228290  0.66262799  0.41707583  1
  Mn3.34+  Mn176  1  0.25155742  0.16938118  0.57678473  1
  Mn3.34+  Mn177  1  0.58216080  0.66599652  0.91794196  1
  Mn3.34+  Mn178  1  0.08541585  0.66529869  0.08517587  1
  Mn3.34+  Mn179  1  0.08778133  0.66502997  0.42120654  1
  Mn3.34+  Mn180  1  0.57617044  -0.00096568  0.92934646  1
  Mn3.34+  Mn181  1  0.92155181  -0.00124549  0.25289080  1
  Mn3.34+  Mn182  1  0.58142026  0.50140203  0.92121353  1
  Mn3.34+  Mn183  1  0.75464763  -0.00236070  0.07919116  1
  Mn3.34+  Mn184  1  0.41436812  0.00097190  0.42325827  1
  Mn3.34+  Mn185  1  0.42731899  -0.00578506  0.42230607  1
  Mn3.34+  Mn186  1  0.24506200  -0.00763879  0.91401570  1
  Mn3.34+  Mn187  1  0.40662002  -0.00216766  0.75033813  1
  Mn3.34+  Mn188  1  0.75239675  0.50313946  0.41446135  1
  Mn3.34+  Mn189  1  0.57680747  0.00158850  0.23860162  1
  Mn3.34+  Mn190  1  0.57163452  -0.00517903  0.57666916  1
  Mn3.34+  Mn191  1  0.91270128  0.50084883  0.58234745  1
  Mn3.34+  Mn192  1  0.56881507  0.00539891  0.93308044  1
  Mn3.34+  Mn193  1  0.57619599  0.50082076  0.25320655  1
  Mn3.34+  Mn194  1  0.25097842  0.50430050  0.92460564  1
  Mn3.34+  Mn195  1  0.58194773  -0.00046835  0.57705725  1
  Mn3.34+  Mn196  1  0.25494379  0.00115535  0.58465437  1
  Mn3.34+  Mn197  1  0.41693819  0.49757455  0.74797867  1
  Mn3.34+  Mn198  1  0.92138754  -0.00171645  0.57635655  1
  Mn3.34+  Mn199  1  0.25605504  0.00512977  0.24512043  1
  Mn3.34+  Mn200  1  0.08181159  0.49628334  0.40630615  1
  Mn3.34+  Mn201  1  0.25799194  -0.00114396  0.91535429  1
  Mn3.34+  Mn202  1  0.24564300  0.00001910  0.24494357  1
  Mn3.34+  Mn203  1  0.91835846  0.49901932  0.25739036  1
  Mn3.34+  Mn204  1  0.41276915  0.49965713  0.39473990  1
  Mn3.34+  Mn205  1  0.23868133  0.49707026  0.92522856  1
  Mn3.34+  Mn206  1  0.08762983  0.49907527  0.75359301  1
  Mn3.34+  Mn207  1  0.08200525  0.00033482  0.75581506  1
  Mn3.34+  Mn208  1  0.75187506  0.50312401  0.07582893  1
  Mn3.34+  Mn209  1  0.08564701  0.00392502  0.08530336  1
  Mn3.34+  Mn210  1  0.09519580  -0.00681312  0.75503981  1
  Mn3.34+  Mn211  1  0.74959947  -0.00163363  0.75046510  1
  Mn3.34+  Mn212  1  0.42971903  0.50421958  0.74691085  1
  Mn3.34+  Mn213  1  0.92065607  0.00100281  0.91368385  1
  Mn3.34+  Mn214  1  0.24994574  0.50236272  0.57729039  1
  Mn3.34+  Mn215  1  0.07182003  -0.00222529  0.08430231  1
  O2-  O216  1  0.00492285  0.16306828  0.00664116  1
  O2-  O217  1  0.00217366  0.17139738  0.33086070  1
  O2-  O218  1  0.00765087  0.15349928  0.67030197  1
  O2-  O219  1  -0.00338070  0.66084671  0.00209815  1
  O2-  O220  1  0.00314541  0.64751402  0.33772678  1
  O2-  O221  1  -0.00311090  0.65451036  0.67750544  1
  O2-  O222  1  0.33659893  0.16584858  0.00266795  1
  O2-  O223  1  0.32625438  0.15945197  0.33848205  1
  O2-  O224  1  0.32974172  0.16050776  0.66670478  1
  O2-  O225  1  0.32858995  0.66625015  -0.00765884  1
  O2-  O226  1  0.33213413  0.65960708  0.33658981  1
  O2-  O227  1  0.33642937  0.66068099  0.66626242  1
  O2-  O228  1  0.66974395  0.16691884  -0.00095234  1
  O2-  O229  1  0.67635349  0.15119208  0.33134628  1
  O2-  O230  1  0.66965765  0.15476547  0.65767338  1
  O2-  O231  1  0.67035195  0.66127811  -0.00400991  1
  O2-  O232  1  0.66581535  0.68443314  0.33457214  1
  O2-  O233  1  0.66818523  0.66988358  0.66904429  1
  O2-  O234  1  0.16701696  0.16589347  0.00425946  1
  O2-  O235  1  0.16834949  0.17088021  0.32805640  1
  O2-  O236  1  0.17083331  0.15903334  0.66999525  1
  O2-  O237  1  0.15224208  0.64880915  -0.01441089  1
  O2-  O238  1  0.16239449  0.65564637  0.33649164  1
  O2-  O239  1  0.15772595  0.66014451  0.66845756  1
  O2-  O240  1  0.49783222  0.15845243  -0.00134584  1
  O2-  O241  1  0.51274435  0.15906372  0.34193206  1
  O2-  O242  1  0.49102654  0.14780374  0.66666666  1
  O2-  O243  1  0.50518137  0.66570398  -0.00245105  1
  O2-  O244  1  0.50842818  0.66327595  0.33785700  1
  O2-  O245  1  0.49851202  0.67338002  0.66204121  1
  O2-  O246  1  0.82584179  0.16711214  0.00302438  1
  O2-  O247  1  0.83084643  0.14536990  0.32345960  1
  O2-  O248  1  0.83506742  0.16574082  0.66884456  1
  O2-  O249  1  0.82574022  0.66848908  -0.00835785  1
  O2-  O250  1  0.83074450  0.67391843  0.34341144  1
  O2-  O251  1  0.83269530  0.66070472  0.67178239  1
  O2-  O252  1  -0.00075694  0.34024534  0.00178145  1
  O2-  O253  1  0.00181068  0.31688397  0.33622509  1
  O2-  O254  1  0.00422457  0.34694142  0.66422302  1
  O2-  O255  1  0.00070406  0.81429549  0.00023223  1
  O2-  O256  1  -0.00405339  0.84733832  0.33801375  1
  O2-  O257  1  -0.00415706  0.84001500  0.66446902  1
  O2-  O258  1  0.33873989  0.32909545  -0.00761870  1
  O2-  O259  1  0.33061713  0.33576635  0.33627245  1
  O2-  O260  1  0.33140273  0.33290748  0.66676193  1
  O2-  O261  1  0.33163740  0.83300475  0.00458546  1
  O2-  O262  1  0.33595107  0.84963628  0.33016187  1
  O2-  O263  1  0.32878462  0.81657681  0.66600370  1
  O2-  O264  1  0.67498359  0.33634192  -0.00792090  1
  O2-  O265  1  0.66793518  0.34707629  0.33415886  1
  O2-  O266  1  0.67014182  0.34659902  0.66397311  1
  O2-  O267  1  0.67336857  0.83754494  -0.00632791  1
  O2-  O268  1  0.67262716  0.82431348  0.32959180  1
  O2-  O269  1  0.66794514  0.84284111  0.66519098  1
  O2-  O270  1  0.16994621  0.32326451  0.00234344  1
  O2-  O271  1  0.16820051  0.32664970  0.33706399  1
  O2-  O272  1  0.16774220  0.33654798  0.66351989  1
  O2-  O273  1  0.17015880  0.83762040  0.00300078  1
  O2-  O274  1  0.16685723  0.84522485  0.33334827  1
  O2-  O275  1  0.16068685  0.83635128  0.65568906  1
  O2-  O276  1  0.50135166  0.33909906  0.00161151  1
  O2-  O277  1  0.50681492  0.34778238  0.33937438  1
  O2-  O278  1  0.50165145  0.35110100  0.66432053  1
  O2-  O279  1  0.49938007  0.82933886  0.00104915  1
  O2-  O280  1  0.50045513  0.83408821  0.32856561  1
  O2-  O281  1  0.50870283  0.83102563  0.66958098  1
  O2-  O282  1  0.83198288  0.33864012  -0.00372260  1
  O2-  O283  1  0.82640580  0.34796505  0.32544211  1
  O2-  O284  1  0.83545892  0.34993736  0.66898034  1
  O2-  O285  1  0.82830418  0.82385898  -0.00261965  1
  O2-  O286  1  0.83218639  0.83942980  0.33393220  1
  O2-  O287  1  0.83446681  0.84387226  0.66311871  1
  O2-  O288  1  0.00232843  0.17449651  0.16421744  1
  O2-  O289  1  0.00462417  0.18984592  0.49278401  1
  O2-  O290  1  0.00174870  0.17121231  0.83481594  1
  O2-  O291  1  0.00585975  0.67399858  0.16684050  1
  O2-  O292  1  0.00357358  0.67988901  0.50564977  1
  O2-  O293  1  0.00102974  0.68384002  0.83984514  1
  O2-  O294  1  0.33224788  0.17833868  0.16434004  1
  O2-  O295  1  0.33826700  0.18569473  0.50326944  1
  O2-  O296  1  0.32992214  0.18343554  0.83340795  1
  O2-  O297  1  0.33489922  0.66417972  0.15559949  1
  O2-  O298  1  0.33598349  0.67885385  0.49841082  1
  O2-  O299  1  0.32953614  0.67560284  0.82573614  1
  O2-  O300  1  0.67719200  0.18157476  0.17582737  1
  O2-  O301  1  0.65192669  0.17625850  0.48756960  1
  O2-  O302  1  0.67017792  0.17842558  0.84435486  1
  O2-  O303  1  0.66462778  0.68922346  0.16217164  1
  O2-  O304  1  0.66549526  0.68411091  0.49432768  1
  O2-  O305  1  0.67321150  0.67009609  0.83930798  1
  O2-  O306  1  0.17060942  0.18042299  0.16560728  1
  O2-  O307  1  0.16536730  0.18743253  0.49783824  1
  O2-  O308  1  0.16700939  0.18140288  0.83174609  1
  O2-  O309  1  0.16703195  0.66807319  0.17397829  1
  O2-  O310  1  0.16200226  0.68336976  0.50411190  1
  O2-  O311  1  0.16715277  0.67561011  0.83073956  1
  O2-  O312  1  0.50219894  0.18090119  0.16550877  1
  O2-  O313  1  0.49382708  0.17903017  0.50813700  1
  O2-  O314  1  0.50073662  0.17501075  0.84271537  1
  O2-  O315  1  0.50927385  0.68166618  0.17622918  1
  O2-  O316  1  0.49876502  0.67251246  0.49568248  1
  O2-  O317  1  0.50027295  0.67140085  0.83406516  1
  O2-  O318  1  0.83832681  0.17498873  0.16352224  1
  O2-  O319  1  0.82480822  0.17510589  0.51072850  1
  O2-  O320  1  0.83229330  0.17654284  0.83606558  1
  O2-  O321  1  0.83396424  0.68323210  0.15040402  1
  O2-  O322  1  0.82979244  0.68652601  0.49398787  1
  O2-  O323  1  0.83409528  0.67993848  0.83417671  1
  O2-  O324  1  -0.00198060  0.32694420  0.16395895  1
  O2-  O325  1  0.00462171  0.32736917  0.50454604  1
  O2-  O326  1  -0.00684642  0.32792117  0.82459076  1
  O2-  O327  1  0.00730520  0.82666307  0.17285464  1
  O2-  O328  1  0.00756505  0.81776469  0.50589819  1
  O2-  O329  1  -0.01070415  0.81977285  0.82757184  1
  O2-  O330  1  0.32808546  0.32519535  0.16292206  1
  O2-  O331  1  0.33469917  0.32036271  0.50055428  1
  O2-  O332  1  0.33012488  0.31627026  0.83587543  1
  O2-  O333  1  0.33764217  0.82687321  0.17159758  1
  O2-  O334  1  0.32642161  0.81589555  0.49432570  1
  O2-  O335  1  0.33344348  0.81770072  0.83893648  1
  O2-  O336  1  0.66840886  0.32006744  0.16685449  1
  O2-  O337  1  0.65866014  0.32402066  0.49041429  1
  O2-  O338  1  0.66786742  0.33118869  0.83444608  1
  O2-  O339  1  0.66955397  0.81335428  0.16956616  1
  O2-  O340  1  0.67472047  0.81462682  0.50716470  1
  O2-  O341  1  0.66684760  0.83377120  0.83451854  1
  O2-  O342  1  0.17053742  0.32648354  0.16468214  1
  O2-  O343  1  0.16190561  0.31205335  0.50363821  1
  O2-  O344  1  0.16683625  0.31894209  0.83238477  1
  O2-  O345  1  0.16868446  0.82755846  0.16882143  1
  O2-  O346  1  0.16468370  0.82077275  0.50036486  1
  O2-  O347  1  0.16987282  0.82080344  0.83398848  1
  O2-  O348  1  0.49646541  0.32063234  0.16936926  1
  O2-  O349  1  0.50150076  0.33302021  0.49898201  1
  O2-  O350  1  0.49380215  0.33037879  0.84188832  1
  O2-  O351  1  0.49645580  0.82111768  0.17154579  1
  O2-  O352  1  0.49977598  0.80643744  0.50261888  1
  O2-  O353  1  0.50918676  0.82839583  0.82642326  1
  O2-  O354  1  0.82710362  0.31969748  0.16504262  1
  O2-  O355  1  0.82863846  0.32409128  0.50739080  1
  O2-  O356  1  0.83209978  0.32983220  0.83318710  1
  O2-  O357  1  0.82889317  0.82087995  0.17339282  1
  O2-  O358  1  0.83099555  0.81317646  0.50053265  1
  O2-  O359  1  0.83466764  0.82188715  0.83706480  1
  O2-  O360  1  0.08930974  0.08365009  0.11269956  1
  O2-  O361  1  0.09429333  0.07400016  0.42931456  1
  O2-  O362  1  0.10220509  0.08062890  0.78202696  1
  O2-  O363  1  0.08136656  0.57861674  0.10602271  1
  O2-  O364  1  0.08227805  0.57696504  0.45594940  1
  O2-  O365  1  0.08191785  0.58155086  0.78416178  1
  O2-  O366  1  0.40043968  0.08234987  0.10100615  1
  O2-  O367  1  0.42443902  0.08151505  0.44927884  1
  O2-  O368  1  0.40394667  0.08109522  0.79211471  1
  O2-  O369  1  0.42264113  0.58275916  0.09408647  1
  O2-  O370  1  0.41599729  0.57775245  0.44499215  1
  O2-  O371  1  0.40828859  0.58202734  0.78232169  1
  O2-  O372  1  0.76020443  0.07862131  0.11053614  1
  O2-  O373  1  0.74109818  0.07912881  0.45249836  1
  O2-  O374  1  0.76316609  0.07846798  0.76583563  1
  O2-  O375  1  0.75102850  0.58349797  0.09409511  1
  O2-  O376  1  0.75003920  0.58454902  0.44485811  1
  O2-  O377  1  0.76627552  0.58110389  0.78039620  1
  O2-  O378  1  0.24103942  0.08629076  0.22415661  1
  O2-  O379  1  0.25726363  0.08284324  0.54525382  1
  O2-  O380  1  0.25027498  0.07798730  0.89003269  1
  O2-  O381  1  0.22313627  0.56909421  0.24242511  1
  O2-  O382  1  0.22870501  0.57836128  0.54886233  1
  O2-  O383  1  0.25017865  0.58031755  0.88155779  1
  O2-  O384  1  0.59791961  0.08465262  0.23248389  1
  O2-  O385  1  0.57271027  0.08058535  0.54814083  1
  O2-  O386  1  0.59509319  0.08372092  0.89768640  1
  O2-  O387  1  0.58703186  0.57987037  0.22617334  1
  O2-  O388  1  0.58764505  0.56850028  0.55502027  1
  O2-  O389  1  0.59924974  0.58153125  0.90419939  1
  O2-  O390  1  0.91385422  0.07943059  0.21616935  1
  O2-  O391  1  0.91249846  0.07850688  0.56709920  1
  O2-  O392  1  0.90495094  0.07931947  0.89290940  1
  O2-  O393  1  0.94718702  0.56861834  0.21221400  1
  O2-  O394  1  0.93665041  0.57619394  0.55210652  1
  O2-  O395  1  0.92410887  0.57949464  0.87091478  1
  O2-  O396  1  0.09258807  0.41937107  0.09377396  1
  O2-  O397  1  0.10255109  0.42142389  0.45065342  1
  O2-  O398  1  0.09532768  0.41630783  0.75364276  1
  O2-  O399  1  0.08882551  0.91809421  0.10681777  1
  O2-  O400  1  0.07873259  0.91659683  0.44421230  1
  O2-  O401  1  0.06508556  0.91311576  0.77080741  1
  O2-  O402  1  0.39675946  0.41566017  0.07854623  1
  O2-  O403  1  0.41685743  0.42312790  0.44428614  1
  O2-  O404  1  0.40165214  0.41924924  0.78076301  1
  O2-  O405  1  0.40476516  0.91806705  0.11357642  1
  O2-  O406  1  0.40996658  0.91431634  0.44275803  1
  O2-  O407  1  0.43189340  0.91587130  0.76573226  1
  O2-  O408  1  0.75359087  0.42425655  0.11147947  1
  O2-  O409  1  0.73510012  0.42330339  0.45102493  1
  O2-  O410  1  0.74568847  0.42410034  0.77886016  1
  O2-  O411  1  0.74888118  0.91774353  0.11427402  1
  O2-  O412  1  0.76735682  0.92146248  0.44321970  1
  O2-  O413  1  0.76437535  0.91612284  0.77914856  1
  O2-  O414  1  0.24649930  0.41728265  0.24653586  1
  O2-  O415  1  0.23483186  0.41985902  0.56127457  1
  O2-  O416  1  0.26565336  0.42026064  0.88894286  1
  O2-  O417  1  0.25545526  0.91768746  0.22549307  1
  O2-  O418  1  0.22823641  0.92182924  0.55028613  1
  O2-  O419  1  0.25140694  0.91322754  0.90764362  1
  O2-  O420  1  0.60184594  0.41958603  0.22754578  1
  O2-  O421  1  0.58843642  0.41921817  0.55668478  1
  O2-  O422  1  0.57092555  0.42121381  0.89210427  1
  O2-  O423  1  0.57614649  0.91802990  0.22911175  1
  O2-  O424  1  0.60268633  0.91400343  0.56055443  1
  O2-  O425  1  0.59421654  0.92104543  0.88529997  1
  O2-  O426  1  0.89860722  0.42315044  0.21446542  1
  O2-  O427  1  0.93500549  0.42116889  0.56749943  1
  O2-  O428  1  0.90076828  0.42041473  0.89658213  1
  O2-  O429  1  0.90171646  0.91801599  0.23684014  1
  O2-  O430  1  0.91910890  0.91587605  0.55224312  1
  O2-  O431  1  0.90029466  0.91927272  0.88577856  1
  O2-  O432  1  -0.00394128  0.01807756  0.00099685  1
  O2-  O433  1  0.00754891  -0.00777643  0.31534659  1
  O2-  O434  1  -0.00590283  -0.00987302  0.67276638  1
  O2-  O435  1  -0.01542599  0.52244815  0.00623857  1
  O2-  O436  1  -0.00149805  0.51538716  0.33557803  1
  O2-  O437  1  -0.00534200  0.51119039  0.67587130  1
  O2-  O438  1  0.31616599  0.00813566  0.00882732  1
  O2-  O439  1  0.33283093  -0.00188136  0.33769377  1
  O2-  O440  1  0.32977046  0.02475875  0.66762821  1
  O2-  O441  1  0.33750503  0.50082499  -0.00645637  1
  O2-  O442  1  0.30893081  0.50062747  0.36642023  1
  O2-  O443  1  0.33126586  0.50598008  0.66547322  1
  O2-  O444  1  0.67634585  -0.01173959  -0.01285814  1
  O2-  O445  1  0.67628804  -0.00150084  0.29894795  1
  O2-  O446  1  0.67392335  0.00088518  0.65280852  1
  O2-  O447  1  0.68827858  0.49412201  -0.03215279  1
  O2-  O448  1  0.66892791  0.48849075  0.33423636  1
  O2-  O449  1  0.67413310  0.49887183  0.64699295  1
  O2-  O450  1  0.16044670  0.00626319  -0.00496575  1
  O2-  O451  1  0.17190935  0.00042755  0.33129531  1
  O2-  O452  1  0.15817776  -0.00077046  0.65653509  1
  O2-  O453  1  0.14538727  0.51286831  -0.01966664  1
  O2-  O454  1  0.15877093  0.51529755  0.33419522  1
  O2-  O455  1  0.15774818  0.50905583  0.65447610  1
  O2-  O456  1  0.47253712  0.01078575  -0.01430220  1
  O2-  O457  1  0.50282200  0.00451773  0.33314133  1
  O2-  O458  1  0.50356669  -0.00030340  0.67263429  1
  O2-  O459  1  0.48612120  0.50195137  -0.02354025  1
  O2-  O460  1  0.52241767  0.49777646  0.36372713  1
  O2-  O461  1  0.49836578  0.48952039  0.66042883  1
  O2-  O462  1  0.82671648  -0.00371007  -0.01692618  1
  O2-  O463  1  0.81835587  0.00226343  0.29722753  1
  O2-  O464  1  0.82764050  -0.01027927  0.65074631  1
  O2-  O465  1  0.83083386  0.50753593  -0.00374650  1
  O2-  O466  1  0.82793798  0.49686967  0.32346846  1
  O2-  O467  1  0.83330090  0.51044799  0.66004978  1
  O2-  O468  1  0.74799643  0.74918254  0.74150953  1
  O2-  O469  1  0.59021770  0.74899023  0.91725004  1
  O2-  O470  1  0.90265985  0.25119985  0.26337004  1
  O2-  O471  1  0.43100761  0.24844373  0.72733640  1
  O2-  O472  1  0.57712431  0.25404687  0.60410114  1
  O2-  O473  1  0.92101597  0.25611772  0.92505702  1
  O2-  O474  1  0.42364209  0.75154165  0.74767278  1
  O2-  O475  1  0.25840592  0.25170980  0.25761734  1
  O2-  O476  1  0.07710531  0.25219811  0.07791713  1
  O2-  O477  1  0.91660755  0.25653673  0.60145462  1
  O2-  O478  1  0.75517286  0.24750599  0.39442964  1
  O2-  O479  1  0.42755971  0.25314947  0.39911672  1
  O2-  O480  1  0.74864346  0.25817045  0.73951914  1
  O2-  O481  1  0.08140184  0.74902675  0.73176633  1
  O2-  O482  1  0.42407799  0.24827560  0.07114284  1
  O2-  O483  1  0.41067023  0.74972611  0.39046330  1
  O2-  O484  1  0.92664958  0.75282831  0.26267215  1
  O2-  O485  1  0.25160983  0.75161998  0.26163580  1
  O2-  O486  1  0.58472914  0.25266193  0.27162112  1
  O2-  O487  1  0.09750196  0.74664035  0.07570340  1
  O2-  O488  1  0.41147913  0.75207719  0.08034090  1
  O2-  O489  1  0.24325447  0.74797744  0.93132542  1
  O2-  O490  1  0.07941074  0.25280640  0.72585390  1
  O2-  O491  1  0.08160340  0.75254587  0.38694158  1
  O2-  O492  1  0.57456876  0.25160147  0.92891350  1
