# generated using pymatgen
data_Ca108Mn108O277
_symmetry_space_group_name_H-M   'P 1'
_cell_length_a   16.03133140
_cell_length_b   22.30924716
_cell_length_c   16.39383184
_cell_angle_alpha   90.00067948
_cell_angle_beta   90.00068545
_cell_angle_gamma   90.00195966
_symmetry_Int_Tables_number   1
_chemical_formula_structural   Ca108Mn108O277
_chemical_formula_sum   'Ca108 Mn108 O277'
_cell_volume   5863.20369719
_cell_formula_units_Z   1
loop_
 _symmetry_equiv_pos_site_id
 _symmetry_equiv_pos_as_xyz
  1  'x, y, z'
loop_
 _atom_type_symbol
 _atom_type_oxidation_number
  Ca2+  2.0
  Mn3.34+  3.34
  O2-  -2.0
loop_
 _atom_site_type_symbol
 _atom_site_label
 _atom_site_symmetry_multiplicity
 _atom_site_fract_x
 _atom_site_fract_y
 _atom_site_fract_z
 _atom_site_occupancy
  Ca2+  Ca0  1  0.08350626  0.25622417  0.23654764  1
  Ca2+  Ca1  1  0.11032068  0.24793315  0.59755760  1
  Ca2+  Ca2  1  0.10662173  0.25020471  0.91917612  1
  Ca2+  Ca3  1  0.09163713  0.74484750  0.24747049  1
  Ca2+  Ca4  1  0.11220728  0.74231500  0.57943421  1
  Ca2+  Ca5  1  0.07305065  0.76782657  0.91790456  1
  Ca2+  Ca6  1  0.40883677  0.25879696  0.24841418  1
  Ca2+  Ca7  1  0.40618169  0.23031504  0.59859933  1
  Ca2+  Ca8  1  0.40467085  0.25045701  0.90169443  1
  Ca2+  Ca9  1  0.40375040  0.75438143  0.24681440  1
  Ca2+  Ca10  1  0.40388410  0.75051862  0.59961430  1
  Ca2+  Ca11  1  0.42367677  0.75219352  0.89384575  1
  Ca2+  Ca12  1  0.76132325  0.24679165  0.24418266  1
  Ca2+  Ca13  1  0.73918110  0.25478556  0.58245442  1
  Ca2+  Ca14  1  0.73580843  0.24862622  0.91035033  1
  Ca2+  Ca15  1  0.75022670  0.74693509  0.24177680  1
  Ca2+  Ca16  1  0.75312428  0.75664728  0.59315943  1
  Ca2+  Ca17  1  0.74657758  0.75270533  0.91844985  1
  Ca2+  Ca18  1  0.24764958  0.25036656  0.07954012  1
  Ca2+  Ca19  1  0.26148504  0.25500105  0.41122984  1
  Ca2+  Ca20  1  0.25383762  0.23425419  0.75642962  1
  Ca2+  Ca21  1  0.24154624  0.75679798  0.09651383  1
  Ca2+  Ca22  1  0.25726740  0.74832641  0.42652453  1
  Ca2+  Ca23  1  0.26692873  0.75020581  0.73750185  1
  Ca2+  Ca24  1  0.59052821  0.24866566  0.07648553  1
  Ca2+  Ca25  1  0.59037798  0.25757063  0.41672626  1
  Ca2+  Ca26  1  0.56246784  0.24387438  0.74995089  1
  Ca2+  Ca27  1  0.59227757  0.74325169  0.07548894  1
  Ca2+  Ca28  1  0.58953468  0.75704075  0.41308508  1
  Ca2+  Ca29  1  0.57126287  0.74384414  0.76082512  1
  Ca2+  Ca30  1  0.91810380  0.25960186  0.10100920  1
  Ca2+  Ca31  1  0.90001489  0.25120731  0.39302042  1
  Ca2+  Ca32  1  0.91557986  0.25623167  0.75045886  1
  Ca2+  Ca33  1  0.92328051  0.75400151  0.07554905  1
  Ca2+  Ca34  1  0.91983950  0.74985480  0.41385119  1
  Ca2+  Ca35  1  0.90705954  0.75011335  0.75855502  1
  Ca2+  Ca36  1  0.61976275  0.59345319  0.07602149  1
  Ca2+  Ca37  1  0.40301088  0.11241988  0.91007995  1
  Ca2+  Ca38  1  0.43746015  0.58825124  0.91854583  1
  Ca2+  Ca39  1  0.57709179  0.09906672  0.41702073  1
  Ca2+  Ca40  1  0.12343900  0.09775140  0.90044992  1
  Ca2+  Ca41  1  0.58767359  0.09891970  0.41738620  1
  Ca2+  Ca42  1  0.26562461  0.11342293  0.42737591  1
  Ca2+  Ca43  1  0.07858990  0.58542600  0.25839018  1
  Ca2+  Ca44  1  0.57697743  0.56655106  0.41522914  1
  Ca2+  Ca45  1  0.41662716  0.10659307  0.24928345  1
  Ca2+  Ca46  1  0.73575205  0.58119534  0.24702885  1
  Ca2+  Ca47  1  0.93016417  0.07972341  0.74349817  1
  Ca2+  Ca48  1  0.60449264  0.10133598  0.07570012  1
  Ca2+  Ca49  1  0.07852619  0.11133137  0.23732716  1
  Ca2+  Ca50  1  0.09836723  0.07732715  0.63179162  1
  Ca2+  Ca51  1  0.26034463  0.57296790  0.07558779  1
  Ca2+  Ca52  1  0.90162392  0.11117423  0.10026068  1
  Ca2+  Ca53  1  0.75781988  0.11485989  0.24169177  1
  Ca2+  Ca54  1  0.89138514  0.11016671  0.09889240  1
  Ca2+  Ca55  1  0.06798113  0.11091199  0.23881063  1
  Ca2+  Ca56  1  0.75146365  0.57684831  0.61768860  1
  Ca2+  Ca57  1  0.40660125  0.59404575  0.58439560  1
  Ca2+  Ca58  1  0.40717199  0.10952063  0.24635072  1
  Ca2+  Ca59  1  0.07591175  0.58170089  0.92516268  1
  Ca2+  Ca60  1  0.90401611  0.58437697  0.07024803  1
  Ca2+  Ca61  1  0.72491347  0.08670032  0.92415812  1
  Ca2+  Ca62  1  0.55625566  0.10295177  0.76238673  1
  Ca2+  Ca63  1  0.25471458  0.10815508  0.06868566  1
  Ca2+  Ca64  1  0.89462647  0.58702137  0.07330934  1
  Ca2+  Ca65  1  0.75240935  0.60632305  0.89615755  1
  Ca2+  Ca66  1  0.21697344  0.61603815  0.43526448  1
  Ca2+  Ca67  1  0.09142206  0.58512070  0.25853410  1
  Ca2+  Ca68  1  0.25223963  0.58917477  0.73965094  1
  Ca2+  Ca69  1  0.74308008  0.60934329  0.89345384  1
  Ca2+  Ca70  1  0.41515805  0.59086050  0.58855263  1
  Ca2+  Ca71  1  0.26142610  0.59246461  0.74379277  1
  Ca2+  Ca72  1  0.08035728  0.90222259  0.24270131  1
  Ca2+  Ca73  1  0.24915767  0.90981934  0.06383102  1
  Ca2+  Ca74  1  0.77540058  0.41104058  0.25385180  1
  Ca2+  Ca75  1  0.27800792  0.90502097  0.42028411  1
  Ca2+  Ca76  1  0.24025297  0.91036860  0.75341901  1
  Ca2+  Ca77  1  0.22815469  0.91212008  0.75388084  1
  Ca2+  Ca78  1  0.91165240  0.91197438  0.06827086  1
  Ca2+  Ca79  1  0.92235453  0.41275773  0.74907793  1
  Ca2+  Ca80  1  0.07271498  0.40211476  0.58949614  1
  Ca2+  Ca81  1  0.42648330  0.40568841  0.57429314  1
  Ca2+  Ca82  1  0.91583621  0.90421201  0.42482926  1
  Ca2+  Ca83  1  0.74143093  0.91159478  0.26132942  1
  Ca2+  Ca84  1  0.75593561  0.90897951  0.60170956  1
  Ca2+  Ca85  1  0.41257205  0.41544464  0.94331832  1
  Ca2+  Ca86  1  0.42894162  0.91226373  0.91907194  1
  Ca2+  Ca87  1  0.76503969  0.41242179  0.25441842  1
  Ca2+  Ca88  1  0.57422450  0.40670684  0.08125865  1
  Ca2+  Ca89  1  0.06443488  0.40515808  0.24391007  1
  Ca2+  Ca90  1  0.59703789  0.91879562  0.06051835  1
  Ca2+  Ca91  1  0.26546582  0.90517102  0.41915358  1
  Ca2+  Ca92  1  0.26273725  0.40302505  0.40679278  1
  Ca2+  Ca93  1  0.43677130  0.40354150  0.57215625  1
  Ca2+  Ca94  1  0.74879759  0.90848190  0.90955594  1
  Ca2+  Ca95  1  0.94443113  0.91730732  0.74731551  1
  Ca2+  Ca96  1  0.74724121  0.39920560  0.91870628  1
  Ca2+  Ca97  1  0.43632190  0.91465992  0.26505940  1
  Ca2+  Ca98  1  0.42744526  0.91332145  0.25850901  1
  Ca2+  Ca99  1  0.09038062  0.40361293  0.91652824  1
  Ca2+  Ca100  1  0.06733848  0.90194073  0.24261044  1
  Ca2+  Ca101  1  0.58605027  0.91997666  0.06052064  1
  Ca2+  Ca102  1  0.90293033  0.90351409  0.42559020  1
  Ca2+  Ca103  1  0.23432989  0.40186232  0.75905191  1
  Ca2+  Ca104  1  0.58035020  0.90818082  0.41325463  1
  Ca2+  Ca105  1  0.59510636  0.40183742  0.74920506  1
  Ca2+  Ca106  1  0.93285915  0.41280386  0.74809049  1
  Ca2+  Ca107  1  0.58761514  0.41232882  0.41432012  1
  Mn3.34+  Mn108  1  0.08366501  0.33598174  0.08052170  1
  Mn3.34+  Mn109  1  0.08181489  0.33247482  0.42085543  1
  Mn3.34+  Mn110  1  0.08271908  0.33240465  0.75300917  1
  Mn3.34+  Mn111  1  0.08091202  0.83331791  0.07585160  1
  Mn3.34+  Mn112  1  0.08531092  0.82689084  0.42361935  1
  Mn3.34+  Mn113  1  0.08156133  0.83240323  0.75108885  1
  Mn3.34+  Mn114  1  0.41292290  0.34163091  0.08965607  1
  Mn3.34+  Mn115  1  0.42088678  0.33822687  0.41432069  1
  Mn3.34+  Mn116  1  0.41509889  0.33494550  0.75253722  1
  Mn3.34+  Mn117  1  0.41674903  0.83194650  0.08136719  1
  Mn3.34+  Mn118  1  0.42698940  0.83076242  0.42357668  1
  Mn3.34+  Mn119  1  0.42012657  0.83644808  0.74693033  1
  Mn3.34+  Mn120  1  0.74847324  0.33324085  0.08445195  1
  Mn3.34+  Mn121  1  0.75236558  0.33678202  0.41964221  1
  Mn3.34+  Mn122  1  0.75116781  0.33100757  0.74565637  1
  Mn3.34+  Mn123  1  0.74997486  0.83046644  0.08382809  1
  Mn3.34+  Mn124  1  0.74723996  0.83080997  0.42151982  1
  Mn3.34+  Mn125  1  0.74588713  0.83409664  0.75315645  1
  Mn3.34+  Mn126  1  0.24721560  0.32926868  0.24553936  1
  Mn3.34+  Mn127  1  0.25132619  0.33066990  0.58326697  1
  Mn3.34+  Mn128  1  0.25402376  0.33181716  0.92019704  1
  Mn3.34+  Mn129  1  0.24832803  0.83274311  0.24660151  1
  Mn3.34+  Mn130  1  0.25236585  0.83376868  0.58510948  1
  Mn3.34+  Mn131  1  0.25077407  0.83255518  0.91348869  1
  Mn3.34+  Mn132  1  0.58350553  0.33367379  0.24592447  1
  Mn3.34+  Mn133  1  0.59049639  0.33532230  0.58101331  1
  Mn3.34+  Mn134  1  0.57910438  0.33211594  0.91483926  1
  Mn3.34+  Mn135  1  0.58697253  0.82954035  0.24221655  1
  Mn3.34+  Mn136  1  0.58293975  0.83588078  0.58612361  1
  Mn3.34+  Mn137  1  0.58403969  0.83446150  0.91065594  1
  Mn3.34+  Mn138  1  0.91988375  0.33262548  0.24932446  1
  Mn3.34+  Mn139  1  0.91285656  0.33385386  0.57330387  1
  Mn3.34+  Mn140  1  0.91710774  0.33354642  0.92190057  1
  Mn3.34+  Mn141  1  0.91022775  0.83312494  0.24401880  1
  Mn3.34+  Mn142  1  0.92214145  0.83013658  0.58766718  1
  Mn3.34+  Mn143  1  0.91403614  0.83496450  0.91079706  1
  Mn3.34+  Mn144  1  0.41605559  0.66007289  0.41258667  1
  Mn3.34+  Mn145  1  0.58389728  0.65880563  0.24370382  1
  Mn3.34+  Mn146  1  0.74992030  0.16836119  0.41443043  1
  Mn3.34+  Mn147  1  0.42537284  0.66564833  0.41019987  1
  Mn3.34+  Mn148  1  0.08408014  0.66485962  0.08326727  1
  Mn3.34+  Mn149  1  0.41572881  0.66143650  0.09003401  1
  Mn3.34+  Mn150  1  0.42027557  0.16618500  0.42427370  1
  Mn3.34+  Mn151  1  0.58824192  0.17429116  0.24256022  1
  Mn3.34+  Mn152  1  0.91667060  0.66354320  0.57629472  1
  Mn3.34+  Mn153  1  0.08775526  0.17655829  0.42151806  1
  Mn3.34+  Mn154  1  0.58611584  0.66915954  0.58758220  1
  Mn3.34+  Mn155  1  0.24828435  0.66358575  0.24691184  1
  Mn3.34+  Mn156  1  0.59394275  0.65935586  0.59237410  1
  Mn3.34+  Mn157  1  0.74221956  0.66042368  0.42197486  1
  Mn3.34+  Mn158  1  0.91079717  0.16172818  0.90761118  1
  Mn3.34+  Mn159  1  0.90468493  0.16135476  0.58049279  1
  Mn3.34+  Mn160  1  0.08391805  0.66554056  0.75267221  1
  Mn3.34+  Mn161  1  0.91796892  0.66647702  0.24906432  1
  Mn3.34+  Mn162  1  0.07536288  0.17128831  0.42194495  1
  Mn3.34+  Mn163  1  0.58277264  0.66949901  0.91401302  1
  Mn3.34+  Mn164  1  0.42082794  0.17335154  0.08286383  1
  Mn3.34+  Mn165  1  0.91446001  0.16697196  0.58170988  1
  Mn3.34+  Mn166  1  0.58207191  0.16776763  0.91588573  1
  Mn3.34+  Mn167  1  0.07482835  0.65954654  0.75341485  1
  Mn3.34+  Mn168  1  0.58257782  0.16967446  0.58667205  1
  Mn3.34+  Mn169  1  0.92157630  0.16572980  0.91016365  1
  Mn3.34+  Mn170  1  0.74341183  0.16298565  0.74666548  1
  Mn3.34+  Mn171  1  0.91459456  0.66981967  0.91395079  1
  Mn3.34+  Mn172  1  0.92569928  0.65797997  0.57284586  1
  Mn3.34+  Mn173  1  0.08981123  0.16686450  0.75125146  1
  Mn3.34+  Mn174  1  0.24452031  0.66764255  0.91875986  1
  Mn3.34+  Mn175  1  0.08450666  0.16889874  0.07541875  1
  Mn3.34+  Mn176  1  0.90857577  0.66086892  0.24625841  1
  Mn3.34+  Mn177  1  0.42559948  0.65661388  0.09366444  1
  Mn3.34+  Mn178  1  0.75263877  0.65486388  0.42429380  1
  Mn3.34+  Mn179  1  0.25403153  0.67320810  0.92038648  1
  Mn3.34+  Mn180  1  0.23978117  0.49170573  0.58869562  1
  Mn3.34+  Mn181  1  0.41689874  0.00329547  0.07951904  1
  Mn3.34+  Mn182  1  0.75112330  0.00200744  0.74709263  1
  Mn3.34+  Mn183  1  0.77071132  0.50315320  0.40611468  1
  Mn3.34+  Mn184  1  0.22676013  0.49952717  0.58750153  1
  Mn3.34+  Mn185  1  0.74095417  0.49404731  0.73612081  1
  Mn3.34+  Mn186  1  0.28455947  0.50027341  0.26628948  1
  Mn3.34+  Mn187  1  0.27333235  0.49542072  0.26263673  1
  Mn3.34+  Mn188  1  0.92183329  0.49529024  0.58618681  1
  Mn3.34+  Mn189  1  0.58582568  0.50050460  0.91809925  1
  Mn3.34+  Mn190  1  0.07609563  0.00477219  0.42716144  1
  Mn3.34+  Mn191  1  0.58159274  0.00367993  0.59527819  1
  Mn3.34+  Mn192  1  0.57212445  0.49761204  0.26178025  1
  Mn3.34+  Mn193  1  0.26845700  0.00809115  0.59142287  1
  Mn3.34+  Mn194  1  0.08154526  0.00045571  0.43590942  1
  Mn3.34+  Mn195  1  0.90662142  -0.00073138  0.25462128  1
  Mn3.34+  Mn196  1  0.25110196  0.50085681  0.92068018  1
  Mn3.34+  Mn197  1  0.75002347  0.00056383  0.42200785  1
  Mn3.34+  Mn198  1  0.06105624  0.50157541  0.41574381  1
  Mn3.34+  Mn199  1  0.23802388  0.00156811  0.24107952  1
  Mn3.34+  Mn200  1  0.57174673  -0.00223189  0.59620059  1
  Mn3.34+  Mn201  1  0.92242917  -0.00311137  0.92466007  1
  Mn3.34+  Mn202  1  0.42636943  0.49476252  0.74895037  1
  Mn3.34+  Mn203  1  0.92215373  0.00225039  0.59172238  1
  Mn3.34+  Mn204  1  0.43732359  0.50268087  0.74772890  1
  Mn3.34+  Mn205  1  0.08244262  0.00144172  0.06746514  1
  Mn3.34+  Mn206  1  0.91652876  0.50372355  0.91344454  1
  Mn3.34+  Mn207  1  0.75085686  0.49530367  0.07855840  1
  Mn3.34+  Mn208  1  0.07356602  0.49468455  0.41635870  1
  Mn3.34+  Mn209  1  0.59195518  0.00524060  0.24653507  1
  Mn3.34+  Mn210  1  0.24967968  0.00432076  0.24561396  1
  Mn3.34+  Mn211  1  0.08287678  0.49712476  0.07902128  1
  Mn3.34+  Mn212  1  0.25664365  0.00134434  0.92293182  1
  Mn3.34+  Mn213  1  0.25396820  0.00306078  0.59096939  1
  Mn3.34+  Mn214  1  0.41659531  -0.00223093  0.75817369  1
  Mn3.34+  Mn215  1  0.75219810  -0.00251074  0.08463865  1
  O2-  O216  1  -0.00303702  0.14117968  -0.00290345  1
  O2-  O217  1  0.00795612  0.17238645  0.33059162  1
  O2-  O218  1  -0.00106456  0.15324530  0.65963363  1
  O2-  O219  1  -0.00291232  0.64594825  0.00383348  1
  O2-  O220  1  0.00021157  0.66112546  0.32567345  1
  O2-  O221  1  0.00014580  0.65670561  0.66022467  1
  O2-  O222  1  0.34170300  0.17694966  0.00587855  1
  O2-  O223  1  0.34675783  0.17136420  0.33720739  1
  O2-  O224  1  0.33060591  0.16139595  0.68179716  1
  O2-  O225  1  0.34212680  0.64765332  -0.00925484  1
  O2-  O226  1  0.32700867  0.64979876  0.33480147  1
  O2-  O227  1  0.33375098  0.64516214  0.66546093  1
  O2-  O228  1  0.67065931  0.16668924  -0.00800338  1
  O2-  O229  1  0.66326506  0.15335077  0.32918420  1
  O2-  O230  1  0.66203073  0.14935975  0.66696247  1
  O2-  O231  1  0.67451263  0.66467437  -0.00768800  1
  O2-  O232  1  0.66135718  0.64862474  0.33450890  1
  O2-  O233  1  0.66548403  0.68943181  0.66971394  1
  O2-  O234  1  0.16342894  0.16340208  -0.00088986  1
  O2-  O235  1  0.16262830  0.14946084  0.33925457  1
  O2-  O236  1  0.16201980  0.16289727  0.67122931  1
  O2-  O237  1  0.17564020  0.64885535  0.00757338  1
  O2-  O238  1  0.16027765  0.65866114  0.31701030  1
  O2-  O239  1  0.16958318  0.65668376  0.67657390  1
  O2-  O240  1  0.50884609  0.16362922  0.00831252  1
  O2-  O241  1  0.50380587  0.16082260  0.33234707  1
  O2-  O242  1  0.50118213  0.16396815  0.66080923  1
  O2-  O243  1  0.51284706  0.64636870  0.01458687  1
  O2-  O244  1  0.50852632  0.66204379  0.33466013  1
  O2-  O245  1  0.49835773  0.65907651  0.65996191  1
  O2-  O246  1  0.83131996  0.15052041  -0.01171613  1
  O2-  O247  1  0.82831226  0.16349029  0.33810394  1
  O2-  O248  1  0.83695423  0.14330622  0.67491735  1
  O2-  O249  1  0.83589616  0.65742759  -0.00425408  1
  O2-  O250  1  0.82781074  0.64026379  0.32822796  1
  O2-  O251  1  0.83596421  0.67652127  0.65593039  1
  O2-  O252  1  0.00352856  0.34798801  -0.00471679  1
  O2-  O253  1  0.00537110  0.33025673  0.33046153  1
  O2-  O254  1  -0.00417949  0.34363096  0.67017387  1
  O2-  O255  1  -0.00636003  0.84739265  -0.00035081  1
  O2-  O256  1  -0.00069567  0.84171906  0.33464383  1
  O2-  O257  1  -0.00365012  0.83793709  0.67275065  1
  O2-  O258  1  0.34021253  0.33222451  -0.00107879  1
  O2-  O259  1  0.33598011  0.32837678  0.33605581  1
  O2-  O260  1  0.33577179  0.36572193  0.66495147  1
  O2-  O261  1  0.33691669  0.84365081  -0.00478246  1
  O2-  O262  1  0.33721706  0.84821422  0.32494369  1
  O2-  O263  1  0.32714093  0.85149228  0.67227554  1
  O2-  O264  1  0.66256308  0.34216407  0.00266014  1
  O2-  O265  1  0.67101674  0.35449759  0.32546403  1
  O2-  O266  1  0.67037592  0.34533094  0.66425787  1
  O2-  O267  1  0.66582106  0.83336692  0.00326223  1
  O2-  O268  1  0.66393406  0.84129615  0.33132138  1
  O2-  O269  1  0.66992483  0.82401976  0.66469938  1
  O2-  O270  1  0.16597855  0.33726140  -0.00299610  1
  O2-  O271  1  0.16573444  0.34462893  0.33564592  1
  O2-  O272  1  0.16341474  0.34670672  0.66470857  1
  O2-  O273  1  0.17560663  0.82988901  0.00286958  1
  O2-  O274  1  0.16608239  0.85240084  0.33728594  1
  O2-  O275  1  0.16957185  0.84188986  0.66915148  1
  O2-  O276  1  0.49769468  0.33622262  0.00146597  1
  O2-  O277  1  0.50690217  0.33507593  0.34014018  1
  O2-  O278  1  0.50140227  0.34769688  0.66744533  1
  O2-  O279  1  0.50422634  0.84902263  0.00543281  1
  O2-  O280  1  0.50458026  0.83693264  0.33059308  1
  O2-  O281  1  0.50062227  0.82377981  0.66246549  1
  O2-  O282  1  0.82466185  0.32771767  -0.00343640  1
  O2-  O283  1  0.83214428  0.33783429  0.33085387  1
  O2-  O284  1  0.84090739  0.35198167  0.67201324  1
  O2-  O285  1  0.82843525  0.83853041  -0.00275438  1
  O2-  O286  1  0.83173209  0.84968251  0.33456723  1
  O2-  O287  1  0.83231811  0.82470324  0.66769732  1
  O2-  O288  1  -0.00122585  0.17223759  0.15564889  1
  O2-  O289  1  -0.00267336  0.19384920  0.49853780  1
  O2-  O290  1  -0.00677279  0.17935351  0.82580283  1
  O2-  O291  1  0.00021943  0.68527371  0.16565642  1
  O2-  O292  1  -0.00114380  0.69530954  0.50404523  1
  O2-  O293  1  -0.00028738  0.67800388  0.83592797  1
  O2-  O294  1  0.34429618  0.18190957  0.16571442  1
  O2-  O295  1  0.33933257  0.18569991  0.49099668  1
  O2-  O296  1  0.33792073  0.17752980  0.82754659  1
  O2-  O297  1  0.32582284  0.67858461  0.16010157  1
  O2-  O298  1  0.34648733  0.67241843  0.50222636  1
  O2-  O299  1  0.32098102  0.68389722  0.82996694  1
  O2-  O300  1  0.66490915  0.17975304  0.16497183  1
  O2-  O301  1  0.65717222  0.17664795  0.48944738  1
  O2-  O302  1  0.65966194  0.17967929  0.82502964  1
  O2-  O303  1  0.66334955  0.68109822  0.17213253  1
  O2-  O304  1  0.66541619  0.69317730  0.50963666  1
  O2-  O305  1  0.66547694  0.68312023  0.83985919  1
  O2-  O306  1  0.15716433  0.17422897  0.16254481  1
  O2-  O307  1  0.17121272  0.19028751  0.49088744  1
  O2-  O308  1  0.15742759  0.17951507  0.83287253  1
  O2-  O309  1  0.16375637  0.68212824  0.16417327  1
  O2-  O310  1  0.16358334  0.69697042  0.47899159  1
  O2-  O311  1  0.15767518  0.69390742  0.84921963  1
  O2-  O312  1  0.49675922  0.18476122  0.17432108  1
  O2-  O313  1  0.50858534  0.18539186  0.49140258  1
  O2-  O314  1  0.49584825  0.17871001  0.84234125  1
  O2-  O315  1  0.49844688  0.69235316  0.17633616  1
  O2-  O316  1  0.50568673  0.69319049  0.50492587  1
  O2-  O317  1  0.49520481  0.67335910  0.84812050  1
  O2-  O318  1  0.82977543  0.18243722  0.15472927  1
  O2-  O319  1  0.82682138  0.18122891  0.50137108  1
  O2-  O320  1  0.82723443  0.18400711  0.83233001  1
  O2-  O321  1  0.83823192  0.67805454  0.16069454  1
  O2-  O322  1  0.83870431  0.68923123  0.49827260  1
  O2-  O323  1  0.82918828  0.68426606  0.84205823  1
  O2-  O324  1  0.00381841  0.32573243  0.16785487  1
  O2-  O325  1  0.00654383  0.31170312  0.50705550  1
  O2-  O326  1  -0.00612616  0.32606393  0.82921273  1
  O2-  O327  1  0.00462880  0.82025615  0.17271076  1
  O2-  O328  1  -0.00439268  0.81525980  0.49568255  1
  O2-  O329  1  -0.00654773  0.82079717  0.82801382  1
  O2-  O330  1  0.33119339  0.31452530  0.16141211  1
  O2-  O331  1  0.33889953  0.32391976  0.50116071  1
  O2-  O332  1  0.33021981  0.33370890  0.83026414  1
  O2-  O333  1  0.32974513  0.82808169  0.16154118  1
  O2-  O334  1  0.33408571  0.82566007  0.49483689  1
  O2-  O335  1  0.32869560  0.81834709  0.83237018  1
  O2-  O336  1  0.66619242  0.31363545  0.16333509  1
  O2-  O337  1  0.66218810  0.32553724  0.49216512  1
  O2-  O338  1  0.66813903  0.32688604  0.83379797  1
  O2-  O339  1  0.66710641  0.80703493  0.16313431  1
  O2-  O340  1  0.66758577  0.81510401  0.50241893  1
  O2-  O341  1  0.66600765  0.81447209  0.83490163  1
  O2-  O342  1  0.16238228  0.32069200  0.16463733  1
  O2-  O343  1  0.17075970  0.31211901  0.49729829  1
  O2-  O344  1  0.16424844  0.32632458  0.83399385  1
  O2-  O345  1  0.15860404  0.82166089  0.17258636  1
  O2-  O346  1  0.17928251  0.82708395  0.49187848  1
  O2-  O347  1  0.17027381  0.81420403  0.82835618  1
  O2-  O348  1  0.50034205  0.31716289  0.16178606  1
  O2-  O349  1  0.49512515  0.31948173  0.50475147  1
  O2-  O350  1  0.50143643  0.31841701  0.83086673  1
  O2-  O351  1  0.49281899  0.81910726  0.17396318  1
  O2-  O352  1  0.50826019  0.81439892  0.49902254  1
  O2-  O353  1  0.49647557  0.83198303  0.83697844  1
  O2-  O354  1  0.82652266  0.32413026  0.17077963  1
  O2-  O355  1  0.83043854  0.31333265  0.49758390  1
  O2-  O356  1  0.83512656  0.32843366  0.83233644  1
  O2-  O357  1  0.83291810  0.81421370  0.16003090  1
  O2-  O358  1  0.84117161  0.81768633  0.50045957  1
  O2-  O359  1  0.82689819  0.81354214  0.83489302  1
  O2-  O360  1  0.09169312  0.07967912  0.10833004  1
  O2-  O361  1  0.08222520  0.08635386  0.45351348  1
  O2-  O362  1  0.07420607  0.08539435  0.77102821  1
  O2-  O363  1  0.08681758  0.57739708  0.12344980  1
  O2-  O364  1  0.08320236  0.57982333  0.43361801  1
  O2-  O365  1  0.10142741  0.58340885  0.79002721  1
  O2-  O366  1  0.40931196  0.08167041  0.11161728  1
  O2-  O367  1  0.43505931  0.08518995  0.42283096  1
  O2-  O368  1  0.42490889  0.06955652  0.79395735  1
  O2-  O369  1  0.40574244  0.57731874  0.11475525  1
  O2-  O370  1  0.44051512  0.58278071  0.45186315  1
  O2-  O371  1  0.39635664  0.57410091  0.78982531  1
  O2-  O372  1  0.76664159  0.07451380  0.11633213  1
  O2-  O373  1  0.72350643  0.08222249  0.43195410  1
  O2-  O374  1  0.74938934  0.07925415  0.78674250  1
  O2-  O375  1  0.76412324  0.57359421  0.11472234  1
  O2-  O376  1  0.73278087  0.57516484  0.47336997  1
  O2-  O377  1  0.75141437  0.56944886  0.76926106  1
  O2-  O378  1  0.27099149  0.08549149  0.22990858  1
  O2-  O379  1  0.22423005  0.07769298  0.54334196  1
  O2-  O380  1  0.26326041  0.07941163  0.91326334  1
  O2-  O381  1  0.23149720  0.57352597  0.21351920  1
  O2-  O382  1  0.27231528  0.57159320  0.54525743  1
  O2-  O383  1  0.24259966  0.58099089  0.87895165  1
  O2-  O384  1  0.57693407  0.08778958  0.21862927  1
  O2-  O385  1  0.57107454  0.08124528  0.54985578  1
  O2-  O386  1  0.58468136  0.08623530  0.90067315  1
  O2-  O387  1  0.58969447  0.56957980  0.20787721  1
  O2-  O388  1  0.57311652  0.58375075  0.55182315  1
  O2-  O389  1  0.60043208  0.58251726  0.89339747  1
  O2-  O390  1  0.94196710  0.07683900  0.21994329  1
  O2-  O391  1  0.93096520  0.08089123  0.54944452  1
  O2-  O392  1  0.91323611  0.07785853  0.87810085  1
  O2-  O393  1  0.93488844  0.58147817  0.20617219  1
  O2-  O394  1  0.89303806  0.57595428  0.55736696  1
  O2-  O395  1  0.90332598  0.58538999  0.88694922  1
  O2-  O396  1  0.08703046  0.41781528  0.10670293  1
  O2-  O397  1  0.08669962  0.41916494  0.45355879  1
  O2-  O398  1  0.07314788  0.41555688  0.77829658  1
  O2-  O399  1  0.08769641  0.92138202  0.10904271  1
  O2-  O400  1  0.05858317  0.91824510  0.44856607  1
  O2-  O401  1  0.09097874  0.91137485  0.77483384  1
  O2-  O402  1  0.42720384  0.41895929  0.09019389  1
  O2-  O403  1  0.41315146  0.41793156  0.44078625  1
  O2-  O404  1  0.43988828  0.42005272  0.78747424  1
  O2-  O405  1  0.42068308  0.92626618  0.12516788  1
  O2-  O406  1  0.41970605  0.91492043  0.42192076  1
  O2-  O407  1  0.39032721  0.92006729  0.78747933  1
  O2-  O408  1  0.73595833  0.41941068  0.11699409  1
  O2-  O409  1  0.74757048  0.42146264  0.42707444  1
  O2-  O410  1  0.74934680  0.42419867  0.78571513  1
  O2-  O411  1  0.73230315  0.91810976  0.11671684  1
  O2-  O412  1  0.76434471  0.91876906  0.46236019  1
  O2-  O413  1  0.75798922  0.92139775  0.77402044  1
  O2-  O414  1  0.25255214  0.41727903  0.23527827  1
  O2-  O415  1  0.23767465  0.41625436  0.54111814  1
  O2-  O416  1  0.24761364  0.42104401  0.89790418  1
  O2-  O417  1  0.22239286  0.92071171  0.21293795  1
  O2-  O418  1  0.25357750  0.92371426  0.54864300  1
  O2-  O419  1  0.24577045  0.92210427  0.88721767  1
  O2-  O420  1  0.59432288  0.42252295  0.21863678  1
  O2-  O421  1  0.56877134  0.41634659  0.55355015  1
  O2-  O422  1  0.58466100  0.41947152  0.89346367  1
  O2-  O423  1  0.58197468  0.92137076  0.20714862  1
  O2-  O424  1  0.59620941  0.92292322  0.54435395  1
  O2-  O425  1  0.59886865  0.91662896  0.91731467  1
  O2-  O426  1  0.90983882  0.41419927  0.23370222  1
  O2-  O427  1  0.92876251  0.41732791  0.54791347  1
  O2-  O428  1  0.91635955  0.42187584  0.88947222  1
  O2-  O429  1  0.93069606  0.91937578  0.20741910  1
  O2-  O430  1  0.91083338  0.92191600  0.55801151  1
  O2-  O431  1  0.90285882  0.91623809  0.88339015  1
  O2-  O432  1  -0.02911633  0.00465547  0.03971527  1
  O2-  O433  1  0.01208956  -0.01042372  0.32598182  1
  O2-  O434  1  -0.00219830  0.00374264  0.66772839  1
  O2-  O435  1  -0.00912488  0.51960732  0.00657271  1
  O2-  O436  1  0.00949792  0.50637586  0.31279245  1
  O2-  O437  1  -0.00200914  0.48070207  0.66559152  1
  O2-  O438  1  0.34351898  -0.01904136  -0.00388093  1
  O2-  O439  1  0.32913956  -0.02399513  0.32236870  1
  O2-  O440  1  0.33572215  -0.00721500  0.67888866  1
  O2-  O441  1  0.34006502  0.51323128  -0.02293977  1
  O2-  O442  1  0.31575869  0.50715663  0.37155353  1
  O2-  O443  1  0.32888252  0.50211364  0.67333688  1
  O2-  O444  1  0.65862494  0.00847851  0.02963553  1
  O2-  O445  1  0.65147154  -0.01526309  0.35030857  1
  O2-  O446  1  0.67867159  -0.00947552  0.65663729  1
  O2-  O447  1  0.66104135  0.50417432  0.00525677  1
  O2-  O448  1  0.65949617  0.50959660  0.33737001  1
  O2-  O449  1  0.65621367  0.49832497  0.67605522  1
  O2-  O450  1  0.18508456  0.00253185  0.01730586  1
  O2-  O451  1  0.17327307  -0.00299511  0.34871263  1
  O2-  O452  1  0.17333559  -0.00715080  0.67179198  1
  O2-  O453  1  0.16227432  0.51379403  -0.00745393  1
  O2-  O454  1  0.16290350  0.50177641  0.32566385  1
  O2-  O455  1  0.17882818  0.50802106  0.69248197  1
  O2-  O456  1  0.50312179  -0.00828994  0.01750526  1
  O2-  O457  1  0.47950081  0.00464080  0.28796841  1
  O2-  O458  1  0.50958668  0.00377674  0.69278015  1
  O2-  O459  1  0.49512020  0.50332240  -0.02548997  1
  O2-  O460  1  0.50482176  0.49208259  0.34226242  1
  O2-  O461  1  0.47602394  0.50558714  0.63568057  1
  O2-  O462  1  0.81583956  -0.01050550  -0.01056449  1
  O2-  O463  1  0.83631471  -0.02485810  0.34413655  1
  O2-  O464  1  0.84229563  -0.00832175  0.67348043  1
  O2-  O465  1  0.82680477  0.51188355  -0.00773726  1
  O2-  O466  1  0.81032881  0.50288241  0.29582778  1
  O2-  O467  1  0.83014815  0.49186187  0.66756815  1
  O2-  O468  1  0.25401361  0.75062546  0.27050312  1
  O2-  O469  1  0.25858799  0.75496506  0.60061249  1
  O2-  O470  1  0.56738761  0.75118821  0.93885340  1
  O2-  O471  1  0.07204562  0.25123145  0.73032057  1
  O2-  O472  1  0.07452050  0.74592894  0.72580602  1
  O2-  O473  1  0.92628636  0.24739258  0.93937763  1
  O2-  O474  1  0.07744751  0.74796540  0.05620235  1
  O2-  O475  1  0.90386243  0.74807003  0.27772666  1
  O2-  O476  1  0.40703887  0.25753353  0.73275003  1
  O2-  O477  1  0.26052874  0.25613582  0.61700582  1
  O2-  O478  1  0.90153947  0.24779638  0.61263862  1
  O2-  O479  1  0.59212492  0.25270914  0.27659770  1
  O2-  O480  1  0.59473902  0.25153871  0.60762453  1
  O2-  O481  1  0.91713707  0.25272464  0.25493839  1
  O2-  O482  1  0.75281354  0.74395852  0.38494345  1
  O2-  O483  1  0.74113945  0.25197915  0.39148733  1
  O2-  O484  1  0.92815314  0.75069835  0.93931877  1
  O2-  O485  1  0.25320012  0.25339176  0.92270297  1
  O2-  O486  1  0.41570622  0.75572348  0.73874941  1
  O2-  O487  1  0.23617372  0.25290831  0.26769756  1
  O2-  O488  1  0.75713381  0.24845049  0.72346598  1
  O2-  O489  1  0.07196138  0.25089880  0.05996977  1
  O2-  O490  1  0.59088837  0.25261316  0.93418810  1
  O2-  O491  1  0.41424432  0.74150113  0.05661987  1
  O2-  O492  1  0.40822317  0.74775974  0.38785133  1
