# generated using pymatgen
data_Ca108Mn108O277
_symmetry_space_group_name_H-M   'P 1'
_cell_length_a   16.02640048
_cell_length_b   22.30693638
_cell_length_c   16.39014218
_cell_angle_alpha   90.00325205
_cell_angle_beta   89.99505817
_cell_angle_gamma   90.00639500
_symmetry_Int_Tables_number   1
_chemical_formula_structural   Ca108Mn108O277
_chemical_formula_sum   'Ca108 Mn108 O277'
_cell_volume   5859.47405887
_cell_formula_units_Z   1
loop_
 _symmetry_equiv_pos_site_id
 _symmetry_equiv_pos_as_xyz
  1  'x, y, z'
loop_
 _atom_type_symbol
 _atom_type_oxidation_number
  Ca2+  2.0
  Mn3.34+  3.34
  O2-  -2.0
loop_
 _atom_site_type_symbol
 _atom_site_label
 _atom_site_symmetry_multiplicity
 _atom_site_fract_x
 _atom_site_fract_y
 _atom_site_fract_z
 _atom_site_occupancy
  Ca2+  Ca0  1  0.07399962  0.25061180  0.25387609  1
  Ca2+  Ca1  1  0.08459457  0.23740473  0.59976674  1
  Ca2+  Ca2  1  0.09532549  0.25211543  0.90097525  1
  Ca2+  Ca3  1  0.08124630  0.75065859  0.21981897  1
  Ca2+  Ca4  1  0.07282171  0.75779792  0.57796950  1
  Ca2+  Ca5  1  0.08551219  0.74596800  0.93872890  1
  Ca2+  Ca6  1  0.43416408  0.25340194  0.24784720  1
  Ca2+  Ca7  1  0.42745760  0.24023399  0.60708164  1
  Ca2+  Ca8  1  0.40207372  0.24664148  0.88893766  1
  Ca2+  Ca9  1  0.43691680  0.74678296  0.24195969  1
  Ca2+  Ca10  1  0.41228467  0.75962879  0.57859200  1
  Ca2+  Ca11  1  0.43183821  0.75593803  0.92852212  1
  Ca2+  Ca12  1  0.75249537  0.25511348  0.25565391  1
  Ca2+  Ca13  1  0.73741999  0.25170210  0.59308843  1
  Ca2+  Ca14  1  0.75052050  0.25693824  0.89663524  1
  Ca2+  Ca15  1  0.72550521  0.74481156  0.23829755  1
  Ca2+  Ca16  1  0.76150199  0.74037739  0.57945293  1
  Ca2+  Ca17  1  0.73156025  0.75423358  0.92893842  1
  Ca2+  Ca18  1  0.24217486  0.26189991  0.06665893  1
  Ca2+  Ca19  1  0.23220763  0.25327351  0.42409708  1
  Ca2+  Ca20  1  0.24599524  0.25315810  0.76418758  1
  Ca2+  Ca21  1  0.24299490  0.74369584  0.07908493  1
  Ca2+  Ca22  1  0.25363809  0.76011014  0.42338978  1
  Ca2+  Ca23  1  0.25086790  0.76385869  0.74422309  1
  Ca2+  Ca24  1  0.58087319  0.25798498  0.08512708  1
  Ca2+  Ca25  1  0.59289398  0.24892840  0.41627342  1
  Ca2+  Ca26  1  0.57413609  0.24520055  0.74601560  1
  Ca2+  Ca27  1  0.58246515  0.74988107  0.08987034  1
  Ca2+  Ca28  1  0.57565096  0.73709846  0.40351376  1
  Ca2+  Ca29  1  0.57953233  0.75164378  0.75514134  1
  Ca2+  Ca30  1  0.92763021  0.26010311  0.08203583  1
  Ca2+  Ca31  1  0.92558404  0.23619329  0.41094225  1
  Ca2+  Ca32  1  0.92890632  0.25081192  0.75334397  1
  Ca2+  Ca33  1  0.91957712  0.75037675  0.08365748  1
  Ca2+  Ca34  1  0.91937981  0.75201559  0.43116844  1
  Ca2+  Ca35  1  0.91706347  0.74597845  0.72935502  1
  Ca2+  Ca36  1  0.06255067  0.59530647  0.58567186  1
  Ca2+  Ca37  1  0.25018782  0.58305611  0.40837146  1
  Ca2+  Ca38  1  0.25076002  0.11151457  0.76031263  1
  Ca2+  Ca39  1  0.07551103  0.10489360  0.57588054  1
  Ca2+  Ca40  1  0.26021729  0.10876359  0.75782834  1
  Ca2+  Ca41  1  0.25177111  0.58803496  0.74884021  1
  Ca2+  Ca42  1  0.43049862  0.08940029  0.25008125  1
  Ca2+  Ca43  1  0.92908176  0.10338647  0.74909289  1
  Ca2+  Ca44  1  0.56395182  0.10644099  0.74371058  1
  Ca2+  Ca45  1  0.93028137  0.07428085  0.07621163  1
  Ca2+  Ca46  1  0.42127220  0.58737219  0.93893591  1
  Ca2+  Ca47  1  0.41805640  0.08933465  0.60014288  1
  Ca2+  Ca48  1  0.94703916  0.58457859  0.07244204  1
  Ca2+  Ca49  1  0.93667910  0.07690530  0.06886474  1
  Ca2+  Ca50  1  0.25455865  0.07836986  0.06886753  1
  Ca2+  Ca51  1  0.41002808  0.08617399  0.59527698  1
  Ca2+  Ca52  1  0.74321842  0.10844293  0.25093477  1
  Ca2+  Ca53  1  0.46325182  0.58554226  0.24158669  1
  Ca2+  Ca54  1  0.08939812  0.10533799  0.89674435  1
  Ca2+  Ca55  1  0.58529725  0.59564843  0.07835624  1
  Ca2+  Ca56  1  0.08078245  0.10174437  0.89991533  1
  Ca2+  Ca57  1  0.45237485  0.60563219  0.57704866  1
  Ca2+  Ca58  1  0.89380643  0.60228226  0.43180978  1
  Ca2+  Ca59  1  0.56984185  0.08093621  0.07677417  1
  Ca2+  Ca60  1  0.59006758  0.11111073  0.42213430  1
  Ca2+  Ca61  1  0.75374641  0.10805470  0.25069502  1
  Ca2+  Ca62  1  0.21736915  0.10629784  0.41917014  1
  Ca2+  Ca63  1  0.26256380  0.58332263  0.41069114  1
  Ca2+  Ca64  1  0.40890158  0.10569754  0.90160492  1
  Ca2+  Ca65  1  0.72865248  0.11265259  0.58061192  1
  Ca2+  Ca66  1  0.68930303  0.59302001  0.26265978  1
  Ca2+  Ca67  1  0.21298442  0.57891014  0.08137245  1
  Ca2+  Ca68  1  0.74411179  0.09574428  0.91131583  1
  Ca2+  Ca69  1  0.46385890  0.60524209  0.57178182  1
  Ca2+  Ca70  1  0.08221117  0.58347951  0.94954990  1
  Ca2+  Ca71  1  0.45455305  0.58593953  0.24732496  1
  Ca2+  Ca72  1  0.58201361  0.89757961  0.41838034  1
  Ca2+  Ca73  1  0.07611593  0.39111316  0.57695198  1
  Ca2+  Ca74  1  0.41711098  0.91628515  0.24703349  1
  Ca2+  Ca75  1  0.74875409  0.90174862  0.24602215  1
  Ca2+  Ca76  1  0.73808629  0.40642674  0.25411575  1
  Ca2+  Ca77  1  0.92734766  0.90694580  0.41783869  1
  Ca2+  Ca78  1  0.42215605  0.39346194  0.58060739  1
  Ca2+  Ca79  1  0.41891485  0.40414687  0.24415931  1
  Ca2+  Ca80  1  0.73936595  0.41350005  0.60208363  1
  Ca2+  Ca81  1  0.57635805  0.40651963  0.08754679  1
  Ca2+  Ca82  1  0.58331539  0.40835909  0.40380022  1
  Ca2+  Ca83  1  0.76977387  0.41003490  0.90295856  1
  Ca2+  Ca84  1  0.42925093  0.91394559  0.24441721  1
  Ca2+  Ca85  1  0.25653549  0.91360287  0.08188948  1
  Ca2+  Ca86  1  0.92244006  0.90868548  0.75200728  1
  Ca2+  Ca87  1  0.10308353  0.91919149  0.59198229  1
  Ca2+  Ca88  1  0.59455351  0.40037716  0.75692830  1
  Ca2+  Ca89  1  0.59445085  0.40880106  0.40469586  1
  Ca2+  Ca90  1  0.91705833  0.91417524  0.07606003  1
  Ca2+  Ca91  1  0.25702406  0.92342019  0.73144516  1
  Ca2+  Ca92  1  0.93464180  0.41523474  0.06104996  1
  Ca2+  Ca93  1  0.90987065  0.90982117  0.75329567  1
  Ca2+  Ca94  1  0.40659805  0.91463652  0.58893642  1
  Ca2+  Ca95  1  0.91584646  0.90648969  0.41654830  1
  Ca2+  Ca96  1  0.42518579  0.91940683  0.93208131  1
  Ca2+  Ca97  1  0.25329563  0.91747322  0.41952728  1
  Ca2+  Ca98  1  0.08779377  0.91341800  0.24490537  1
  Ca2+  Ca99  1  0.07679718  0.92420652  0.93352024  1
  Ca2+  Ca100  1  0.08488183  0.41225534  0.93867255  1
  Ca2+  Ca101  1  0.91821691  0.39419715  0.41666323  1
  Ca2+  Ca102  1  0.57753492  0.89746963  0.75088549  1
  Ca2+  Ca103  1  0.90646330  0.91430694  0.07437119  1
  Ca2+  Ca104  1  0.24407052  0.91434739  0.08142894  1
  Ca2+  Ca105  1  0.74213288  0.89516890  0.58610722  1
  Ca2+  Ca106  1  0.06778431  0.92854378  0.93538470  1
  Ca2+  Ca107  1  0.08723547  0.39170471  0.57550935  1
  Mn3.34+  Mn108  1  0.09042882  0.34034108  0.09000330  1
  Mn3.34+  Mn109  1  0.08822477  0.33480796  0.40675094  1
  Mn3.34+  Mn110  1  0.08438406  0.33053923  0.75430624  1
  Mn3.34+  Mn111  1  0.08652364  0.83528415  0.08438789  1
  Mn3.34+  Mn112  1  0.08895528  0.83806808  0.41493173  1
  Mn3.34+  Mn113  1  0.08690783  0.83387073  0.75529649  1
  Mn3.34+  Mn114  1  0.40953791  0.33898218  0.07834187  1
  Mn3.34+  Mn115  1  0.41016573  0.32787529  0.41656922  1
  Mn3.34+  Mn116  1  0.41525665  0.33123065  0.75334239  1
  Mn3.34+  Mn117  1  0.41795037  0.83541774  0.08426784  1
  Mn3.34+  Mn118  1  0.41731997  0.83543739  0.41862100  1
  Mn3.34+  Mn119  1  0.41502636  0.83426965  0.75376202  1
  Mn3.34+  Mn120  1  0.75241258  0.33471734  0.08361324  1
  Mn3.34+  Mn121  1  0.75506267  0.33299010  0.42162170  1
  Mn3.34+  Mn122  1  0.75436745  0.33711607  0.75038713  1
  Mn3.34+  Mn123  1  0.74493288  0.83496108  0.08211978  1
  Mn3.34+  Mn124  1  0.74703667  0.82590384  0.41739562  1
  Mn3.34+  Mn125  1  0.74809370  0.82456916  0.75444993  1
  Mn3.34+  Mn126  1  0.25111893  0.33634998  0.24658009  1
  Mn3.34+  Mn127  1  0.25464854  0.32513374  0.58673715  1
  Mn3.34+  Mn128  1  0.25175716  0.33512105  0.91488387  1
  Mn3.34+  Mn129  1  0.25171152  0.83408120  0.25301546  1
  Mn3.34+  Mn130  1  0.24951348  0.83841163  0.58311747  1
  Mn3.34+  Mn131  1  0.25071302  0.83443349  0.91032894  1
  Mn3.34+  Mn132  1  0.58317752  0.32886883  0.24501332  1
  Mn3.34+  Mn133  1  0.58353900  0.32896769  0.58240718  1
  Mn3.34+  Mn134  1  0.58130768  0.33282307  0.91745521  1
  Mn3.34+  Mn135  1  0.58415986  0.83273871  0.24776091  1
  Mn3.34+  Mn136  1  0.58291218  0.82721331  0.57978684  1
  Mn3.34+  Mn137  1  0.58518403  0.83732951  0.92081284  1
  Mn3.34+  Mn138  1  0.91853297  0.32752671  0.24532992  1
  Mn3.34+  Mn139  1  0.91201331  0.32761354  0.58507493  1
  Mn3.34+  Mn140  1  0.92158587  0.33461843  0.91470521  1
  Mn3.34+  Mn141  1  0.91679624  0.83641412  0.24727538  1
  Mn3.34+  Mn142  1  0.91764555  0.83505858  0.58214800  1
  Mn3.34+  Mn143  1  0.91250466  0.83217040  0.91068200  1
  Mn3.34+  Mn144  1  0.41577683  0.67380092  0.41398755  1
  Mn3.34+  Mn145  1  0.40729502  0.17672561  0.41520009  1
  Mn3.34+  Mn146  1  0.41492537  0.66885540  0.75381515  1
  Mn3.34+  Mn147  1  0.74445905  0.66858044  0.08416992  1
  Mn3.34+  Mn148  1  0.07433822  0.66132217  0.41599162  1
  Mn3.34+  Mn149  1  0.89679510  0.65465852  0.90707353  1
  Mn3.34+  Mn150  1  0.42627001  0.66468757  0.75550151  1
  Mn3.34+  Mn151  1  0.41498322  0.16133541  0.08680453  1
  Mn3.34+  Mn152  1  0.91555343  0.16898378  0.57944390  1
  Mn3.34+  Mn153  1  0.24748461  0.16875601  0.24985227  1
  Mn3.34+  Mn154  1  0.58224165  0.16883977  0.91136408  1
  Mn3.34+  Mn155  1  0.25082164  0.66023991  0.91548718  1
  Mn3.34+  Mn156  1  0.08696022  0.67105396  0.75383715  1
  Mn3.34+  Mn157  1  0.41800497  0.16967918  0.41727820  1
  Mn3.34+  Mn158  1  0.41125648  0.17323420  0.08472596  1
  Mn3.34+  Mn159  1  0.24297700  0.65918371  0.24181692  1
  Mn3.34+  Mn160  1  0.91169724  0.65271132  0.90592295  1
  Mn3.34+  Mn161  1  0.74520305  0.65330007  0.74750256  1
  Mn3.34+  Mn162  1  0.73495578  0.64830276  0.74482975  1
  Mn3.34+  Mn163  1  0.91997575  0.66031434  0.24345750  1
  Mn3.34+  Mn164  1  0.41751558  0.66832863  0.08260017  1
  Mn3.34+  Mn165  1  0.07668624  0.66606291  0.75607040  1
  Mn3.34+  Mn166  1  0.25186847  0.66812663  0.58426195  1
  Mn3.34+  Mn167  1  0.74939868  0.16948028  0.74851575  1
  Mn3.34+  Mn168  1  0.09176772  0.16129913  0.09314935  1
  Mn3.34+  Mn169  1  0.75439451  0.17632778  0.07455516  1
  Mn3.34+  Mn170  1  0.24865577  0.16529141  0.57958892  1
  Mn3.34+  Mn171  1  0.08262216  0.16687757  0.09066942  1
  Mn3.34+  Mn172  1  0.58668956  0.66370325  0.91690510  1
  Mn3.34+  Mn173  1  0.73568858  0.66487880  0.42617849  1
  Mn3.34+  Mn174  1  0.75539529  0.17337722  0.42115894  1
  Mn3.34+  Mn175  1  0.90758277  0.66705634  0.24644767  1
  Mn3.34+  Mn176  1  0.74328785  0.16829465  0.07803327  1
  Mn3.34+  Mn177  1  0.91585473  0.16707393  0.91282938  1
  Mn3.34+  Mn178  1  0.25315410  0.66407409  0.24353294  1
  Mn3.34+  Mn179  1  0.08379427  0.66708145  0.41379382  1
  Mn3.34+  Mn180  1  0.91495951  0.49244177  0.25392119  1
  Mn3.34+  Mn181  1  0.09054299  0.49664587  0.39897354  1
  Mn3.34+  Mn182  1  0.42230892  0.00173577  0.41142821  1
  Mn3.34+  Mn183  1  0.25538156  -0.00353146  0.91954425  1
  Mn3.34+  Mn184  1  0.92828542  0.49829904  0.25286240  1
  Mn3.34+  Mn185  1  0.41608497  0.49504927  0.75805748  1
  Mn3.34+  Mn186  1  0.25165448  0.49519744  0.92479027  1
  Mn3.34+  Mn187  1  0.73792744  -0.00005614  0.75671159  1
  Mn3.34+  Mn188  1  0.76186373  0.50705087  0.07990533  1
  Mn3.34+  Mn189  1  0.74920050  0.50076052  0.07618156  1
  Mn3.34+  Mn190  1  0.06953585  0.50248309  0.76361544  1
  Mn3.34+  Mn191  1  0.58445190  -0.00312084  0.57856475  1
  Mn3.34+  Mn192  1  0.59051856  0.49943924  0.59353130  1
  Mn3.34+  Mn193  1  0.75579835  0.00362968  0.42619142  1
  Mn3.34+  Mn194  1  0.24284872  0.49848648  0.58570116  1
  Mn3.34+  Mn195  1  0.90252366  0.49834480  0.59108519  1
  Mn3.34+  Mn196  1  0.42350239  0.50080132  0.41093056  1
  Mn3.34+  Mn197  1  0.08617351  -0.00332886  0.74289351  1
  Mn3.34+  Mn198  1  0.07934084  0.00228998  0.41149675  1
  Mn3.34+  Mn199  1  0.92493936  0.00943114  0.26204855  1
  Mn3.34+  Mn200  1  0.25717470  0.49275201  0.58680024  1
  Mn3.34+  Mn201  1  0.41019435  0.49859613  0.07473150  1
  Mn3.34+  Mn202  1  0.59173103  0.00120940  0.24435454  1
  Mn3.34+  Mn203  1  0.40895400  0.49495157  0.40843236  1
  Mn3.34+  Mn204  1  0.74345620  0.50214348  0.41586724  1
  Mn3.34+  Mn205  1  0.90194436  0.50374073  0.60298866  1
  Mn3.34+  Mn206  1  0.58113794  0.50091580  0.91643089  1
  Mn3.34+  Mn207  1  0.74105584  -0.00218061  0.42687591  1
  Mn3.34+  Mn208  1  0.08287155  0.49633516  0.76362465  1
  Mn3.34+  Mn209  1  0.41699942  -0.00297338  0.74805054  1
  Mn3.34+  Mn210  1  0.74928167  -0.00329338  0.76078262  1
  Mn3.34+  Mn211  1  0.73853369  -0.00062213  0.07994660  1
  Mn3.34+  Mn212  1  0.91478289  0.00523250  0.58604723  1
  Mn3.34+  Mn213  1  0.42750996  0.50153586  0.75775814  1
  Mn3.34+  Mn214  1  0.24465184  0.00944880  0.25927324  1
  Mn3.34+  Mn215  1  0.57927554  0.00278211  0.92029473  1
  O2-  O216  1  0.00126910  0.15178428  0.00027966  1
  O2-  O217  1  0.01454106  0.17991679  0.33501063  1
  O2-  O218  1  -0.00547612  0.15945613  0.66057863  1
  O2-  O219  1  -0.01087857  0.66980114  -0.01215635  1
  O2-  O220  1  -0.00508567  0.64387342  0.33365732  1
  O2-  O221  1  0.00146605  0.65833370  0.67306829  1
  O2-  O222  1  0.32938283  0.15674113  0.00792909  1
  O2-  O223  1  0.33238464  0.16467896  0.33089829  1
  O2-  O224  1  0.33199655  0.15468794  0.65916899  1
  O2-  O225  1  0.33628699  0.66726109  -0.00495321  1
  O2-  O226  1  0.32832798  0.64906678  0.33191103  1
  O2-  O227  1  0.34770927  0.63845864  0.66231296  1
  O2-  O228  1  0.66425530  0.15445065  -0.00130039  1
  O2-  O229  1  0.67293482  0.16581813  0.33762639  1
  O2-  O230  1  0.66365163  0.16132091  0.67867980  1
  O2-  O231  1  0.66729595  0.65908712  -0.00050978  1
  O2-  O232  1  0.67529884  0.67865151  0.33673359  1
  O2-  O233  1  0.67203133  0.69849507  0.67633478  1
  O2-  O234  1  0.16414502  0.14632019  0.00669578  1
  O2-  O235  1  0.17301319  0.18261670  0.33085317  1
  O2-  O236  1  0.17190319  0.14639318  0.65770419  1
  O2-  O237  1  0.17144909  0.66537809  -0.00701848  1
  O2-  O238  1  0.16700685  0.64366999  0.33898607  1
  O2-  O239  1  0.16881619  0.64625608  0.66903601  1
  O2-  O240  1  0.49729328  0.15486901  -0.00055742  1
  O2-  O241  1  0.49351219  0.15930179  0.33328713  1
  O2-  O242  1  0.48988099  0.15170419  0.65357015  1
  O2-  O243  1  0.49992615  0.65582611  0.00168003  1
  O2-  O244  1  0.49282004  0.65717530  0.33530139  1
  O2-  O245  1  0.50643190  0.66807896  0.67018287  1
  O2-  O246  1  0.83524684  0.14526847  0.00147077  1
  O2-  O247  1  0.82622107  0.16933203  0.33136113  1
  O2-  O248  1  0.82830654  0.15078512  0.66690754  1
  O2-  O249  1  0.83297727  0.67088916  -0.00079369  1
  O2-  O250  1  0.83238139  0.65643718  0.32829228  1
  O2-  O251  1  0.82589019  0.67134757  0.67268172  1
  O2-  O252  1  0.00244869  0.33588087  -0.00001405  1
  O2-  O253  1  -0.00306591  0.33542127  0.33601609  1
  O2-  O254  1  0.00039383  0.34109708  0.66265220  1
  O2-  O255  1  0.00211211  0.84757416  -0.00347686  1
  O2-  O256  1  0.00275091  0.85311643  0.32994507  1
  O2-  O257  1  0.00158637  0.85450390  0.66582011  1
  O2-  O258  1  0.33805857  0.32039039  -0.00439975  1
  O2-  O259  1  0.33508278  0.30572271  0.33020472  1
  O2-  O260  1  0.33857765  0.34109607  0.66215216  1
  O2-  O261  1  0.32579582  0.84402875  0.00338234  1
  O2-  O262  1  0.33675046  0.85799772  0.33343792  1
  O2-  O263  1  0.33270037  0.84982971  0.66869440  1
  O2-  O264  1  0.66772496  0.34120447  0.00288219  1
  O2-  O265  1  0.66719895  0.33759297  0.33842329  1
  O2-  O266  1  0.66645563  0.34198652  0.66351428  1
  O2-  O267  1  0.66632860  0.83796009  0.00106653  1
  O2-  O268  1  0.66722407  0.83919458  0.33334006  1
  O2-  O269  1  0.66514583  0.82950123  0.66842181  1
  O2-  O270  1  0.16763591  0.34107691  -0.00022629  1
  O2-  O271  1  0.16869654  0.31449244  0.32847636  1
  O2-  O272  1  0.16379177  0.34260018  0.66291185  1
  O2-  O273  1  0.16458169  0.84807991  -0.00631373  1
  O2-  O274  1  0.17171811  0.85318790  0.33632442  1
  O2-  O275  1  0.17099198  0.85049156  0.67348998  1
  O2-  O276  1  0.50478455  0.33487399  0.00886575  1
  O2-  O277  1  0.49680029  0.34622121  0.33327063  1
  O2-  O278  1  0.50430966  0.34433001  0.66408357  1
  O2-  O279  1  0.49223948  0.84584406  -0.00489968  1
  O2-  O280  1  0.49736663  0.84663859  0.33147645  1
  O2-  O281  1  0.49773967  0.84093168  0.66130317  1
  O2-  O282  1  0.83370726  0.33873760  0.00136538  1
  O2-  O283  1  0.82781543  0.33871304  0.32898650  1
  O2-  O284  1  0.82655519  0.34443661  0.65677303  1
  O2-  O285  1  0.84196938  0.83706857  0.00534599  1
  O2-  O286  1  0.83521611  0.84660769  0.33872980  1
  O2-  O287  1  0.83498198  0.84136878  0.66983847  1
  O2-  O288  1  -0.00799651  0.17023449  0.15587558  1
  O2-  O289  1  -0.00185164  0.18315758  0.50684800  1
  O2-  O290  1  -0.00124700  0.17661606  0.83999148  1
  O2-  O291  1  -0.00784579  0.67590310  0.16162421  1
  O2-  O292  1  -0.00204271  0.67686587  0.49730244  1
  O2-  O293  1  -0.00775980  0.69411604  0.83516482  1
  O2-  O294  1  0.33662005  0.19515971  0.16887444  1
  O2-  O295  1  0.33233769  0.19214821  0.49798800  1
  O2-  O296  1  0.32880804  0.17314980  0.82903871  1
  O2-  O297  1  0.33655728  0.68658855  0.16461490  1
  O2-  O298  1  0.32932328  0.67826482  0.49503755  1
  O2-  O299  1  0.32480456  0.68107582  0.82534282  1
  O2-  O300  1  0.67301555  0.19024407  0.16119018  1
  O2-  O301  1  0.67064512  0.18567994  0.49538272  1
  O2-  O302  1  0.67218754  0.17936310  0.83878483  1
  O2-  O303  1  0.66375012  0.67391972  0.16019808  1
  O2-  O304  1  0.66644965  0.69315732  0.49573605  1
  O2-  O305  1  0.66587477  0.67949929  0.83069866  1
  O2-  O306  1  0.17316807  0.18815752  0.16666455  1
  O2-  O307  1  0.16677976  0.17787459  0.50373057  1
  O2-  O308  1  0.16312797  0.16312433  0.83297458  1
  O2-  O309  1  0.16838986  0.67667410  0.16041450  1
  O2-  O310  1  0.16358997  0.67997161  0.49855644  1
  O2-  O311  1  0.16608035  0.68598700  0.83417668  1
  O2-  O312  1  0.50001993  0.18432658  0.15774812  1
  O2-  O313  1  0.49884292  0.18986476  0.48943670  1
  O2-  O314  1  0.50376988  0.17576385  0.83636304  1
  O2-  O315  1  0.49536136  0.66894462  0.16426364  1
  O2-  O316  1  0.49000991  0.68441216  0.49986662  1
  O2-  O317  1  0.49715319  0.68603546  0.84113239  1
  O2-  O318  1  0.82769195  0.18614410  0.15892957  1
  O2-  O319  1  0.82835554  0.19025706  0.50614154  1
  O2-  O320  1  0.83417670  0.17294728  0.83458941  1
  O2-  O321  1  0.83024113  0.68464965  0.16358789  1
  O2-  O322  1  0.82758387  0.68757011  0.48073068  1
  O2-  O323  1  0.82648870  0.68739357  0.83049283  1
  O2-  O324  1  0.00115487  0.32213513  0.16398546  1
  O2-  O325  1  0.00363983  0.32129216  0.50130777  1
  O2-  O326  1  0.00218549  0.31739351  0.83607274  1
  O2-  O327  1  -0.00027213  0.83301370  0.15947946  1
  O2-  O328  1  -0.00410181  0.83005735  0.49171771  1
  O2-  O329  1  -0.00539696  0.81790267  0.82645230  1
  O2-  O330  1  0.33470843  0.31607415  0.16699380  1
  O2-  O331  1  0.33832301  0.31176695  0.50579017  1
  O2-  O332  1  0.33066488  0.32360787  0.82975092  1
  O2-  O333  1  0.33321038  0.82163816  0.16963796  1
  O2-  O334  1  0.33382522  0.82497131  0.50077526  1
  O2-  O335  1  0.33529787  0.81279063  0.83837622  1
  O2-  O336  1  0.66915354  0.31672424  0.16616944  1
  O2-  O337  1  0.66632339  0.32037732  0.49600129  1
  O2-  O338  1  0.66562858  0.32074258  0.83070761  1
  O2-  O339  1  0.66999615  0.82792546  0.17136257  1
  O2-  O340  1  0.66887568  0.81229358  0.50169124  1
  O2-  O341  1  0.66196475  0.81753684  0.83033589  1
  O2-  O342  1  0.17032421  0.31831184  0.16931504  1
  O2-  O343  1  0.15974406  0.31890352  0.50369181  1
  O2-  O344  1  0.16431110  0.32620572  0.83515226  1
  O2-  O345  1  0.17167689  0.82413500  0.16289587  1
  O2-  O346  1  0.16493586  0.82160193  0.50390264  1
  O2-  O347  1  0.16403751  0.80967427  0.84007377  1
  O2-  O348  1  0.49833469  0.32094299  0.16552934  1
  O2-  O349  1  0.50647976  0.32287404  0.49098295  1
  O2-  O350  1  0.50625106  0.32014061  0.83109905  1
  O2-  O351  1  0.49395327  0.83003859  0.17230640  1
  O2-  O352  1  0.50370187  0.81276981  0.49377975  1
  O2-  O353  1  0.50174479  0.82218305  0.82923170  1
  O2-  O354  1  0.83151817  0.31238203  0.16530856  1
  O2-  O355  1  0.84062433  0.31781379  0.49407261  1
  O2-  O356  1  0.83370410  0.32521492  0.83448083  1
  O2-  O357  1  0.83410796  0.82323067  0.16798506  1
  O2-  O358  1  0.83429166  0.82153454  0.49712968  1
  O2-  O359  1  0.83561085  0.80688408  0.82907541  1
  O2-  O360  1  0.07584702  0.07801940  0.10477723  1
  O2-  O361  1  0.09342247  0.07341368  0.44965033  1
  O2-  O362  1  0.07581911  0.07411964  0.76775704  1
  O2-  O363  1  0.07792231  0.57120546  0.08916990  1
  O2-  O364  1  0.09489677  0.57646452  0.45135619  1
  O2-  O365  1  0.08945768  0.58329273  0.79670927  1
  O2-  O366  1  0.42452633  0.08061381  0.11443971  1
  O2-  O367  1  0.41850827  0.08429394  0.45183150  1
  O2-  O368  1  0.40552945  0.07472061  0.77238737  1
  O2-  O369  1  0.41349300  0.58023509  0.11181471  1
  O2-  O370  1  0.39886941  0.57939702  0.45544385  1
  O2-  O371  1  0.40673592  0.58000562  0.79794502  1
  O2-  O372  1  0.73922113  0.08266015  0.11323058  1
  O2-  O373  1  0.74226166  0.08431784  0.44489968  1
  O2-  O374  1  0.74700196  0.08281610  0.77740896  1
  O2-  O375  1  0.74495833  0.58397726  0.11761036  1
  O2-  O376  1  0.75233193  0.58273928  0.43308992  1
  O2-  O377  1  0.75690358  0.57476547  0.78689749  1
  O2-  O378  1  0.27105966  0.08365151  0.21264988  1
  O2-  O379  1  0.27797988  0.08605845  0.54540350  1
  O2-  O380  1  0.24740267  0.07270757  0.89189591  1
  O2-  O381  1  0.25065150  0.57940070  0.21410517  1
  O2-  O382  1  0.25069513  0.57777922  0.54374287  1
  O2-  O383  1  0.24660732  0.57202440  0.87964606  1
  O2-  O384  1  0.60967692  0.07893852  0.21477073  1
  O2-  O385  1  0.57363239  0.07321722  0.54591563  1
  O2-  O386  1  0.58861375  0.08106196  0.88176186  1
  O2-  O387  1  0.57822872  0.56143214  0.20318520  1
  O2-  O388  1  0.58024490  0.56816422  0.53783833  1
  O2-  O389  1  0.56427701  0.58061437  0.88919894  1
  O2-  O390  1  0.87444335  0.07104902  0.19791737  1
  O2-  O391  1  0.91346828  0.08485391  0.55764130  1
  O2-  O392  1  0.93809713  0.08142845  0.90153238  1
  O2-  O393  1  0.90938945  0.57570599  0.20723684  1
  O2-  O394  1  0.92848645  0.57761254  0.55230109  1
  O2-  O395  1  0.94491875  0.57501010  0.89343002  1
  O2-  O396  1  0.07545491  0.41759648  0.09002200  1
  O2-  O397  1  0.07299368  0.42133770  0.44496301  1
  O2-  O398  1  0.07705227  0.41579860  0.76892076  1
  O2-  O399  1  0.10319307  0.91942360  0.10205425  1
  O2-  O400  1  0.07427435  0.92675970  0.45931249  1
  O2-  O401  1  0.07989468  0.91965511  0.79199833  1
  O2-  O402  1  0.43111530  0.42350064  0.11325389  1
  O2-  O403  1  0.41948393  0.41734304  0.44658099  1
  O2-  O404  1  0.43300333  0.41510009  0.76562129  1
  O2-  O405  1  0.39558314  0.91991591  0.11346450  1
  O2-  O406  1  0.43169671  0.91914769  0.45238648  1
  O2-  O407  1  0.41709662  0.91816605  0.78358891  1
  O2-  O408  1  0.74685376  0.42340441  0.11937311  1
  O2-  O409  1  0.74074687  0.42247189  0.45312954  1
  O2-  O410  1  0.73945650  0.41420083  0.77321369  1
  O2-  O411  1  0.76396991  0.91880506  0.10810332  1
  O2-  O412  1  0.74637645  0.91683161  0.45129084  1
  O2-  O413  1  0.76649185  0.91459172  0.77899771  1
  O2-  O414  1  0.27585308  0.41109325  0.24786249  1
  O2-  O415  1  0.24219292  0.41215555  0.55874698  1
  O2-  O416  1  0.23956040  0.42183254  0.89077382  1
  O2-  O417  1  0.24454245  0.92931762  0.21280713  1
  O2-  O418  1  0.25013103  0.91889322  0.55842699  1
  O2-  O419  1  0.24248438  0.92205052  0.87459324  1
  O2-  O420  1  0.59167683  0.41081658  0.23034876  1
  O2-  O421  1  0.57952482  0.42436909  0.54183056  1
  O2-  O422  1  0.59464701  0.41933371  0.89608838  1
  O2-  O423  1  0.57338282  0.91921626  0.23573353  1
  O2-  O424  1  0.59491779  0.91637095  0.55460418  1
  O2-  O425  1  0.57640757  0.92347919  0.88638449  1
  O2-  O426  1  0.90632486  0.41534923  0.21558532  1
  O2-  O427  1  0.92919020  0.41801199  0.55397332  1
  O2-  O428  1  0.92179674  0.41465748  0.91116245  1
  O2-  O429  1  0.91651650  0.92796901  0.21048911  1
  O2-  O430  1  0.89942736  0.92256802  0.54924879  1
  O2-  O431  1  0.93370067  0.92326606  0.88339150  1
  O2-  O432  1  -0.00469909  -0.01499296  0.01775071  1
  O2-  O433  1  -0.00067105  -0.02481207  0.34109190  1
  O2-  O434  1  -0.00195338  -0.01980799  0.67183365  1
  O2-  O435  1  0.01197594  0.50376651  0.01217109  1
  O2-  O436  1  -0.01404791  0.50498278  0.35349482  1
  O2-  O437  1  0.00700590  0.50522434  0.66086655  1
  O2-  O438  1  0.31828974  -0.00955512  0.00999644  1
  O2-  O439  1  0.33830146  -0.01419262  0.32428446  1
  O2-  O440  1  0.33731114  0.00025792  0.67111194  1
  O2-  O441  1  0.32572515  0.52089570  0.00237865  1
  O2-  O442  1  0.34612335  0.53108563  0.32438777  1
  O2-  O443  1  0.32563882  0.51104904  0.67994579  1
  O2-  O444  1  0.66113477  0.01850158  -0.00237600  1
  O2-  O445  1  0.66703398  0.00027320  0.33619660  1
  O2-  O446  1  0.66668179  -0.00497188  0.66524969  1
  O2-  O447  1  0.66577948  0.50567006  0.00001710  1
  O2-  O448  1  0.65912228  0.48814559  0.34739226  1
  O2-  O449  1  0.64908742  0.47933067  0.67503228  1
  O2-  O450  1  0.16328922  -0.00416358  -0.01299604  1
  O2-  O451  1  0.16973908  -0.01115372  0.34461009  1
  O2-  O452  1  0.17142213  -0.00267967  0.67958979  1
  O2-  O453  1  0.16272715  0.50402903  -0.01684262  1
  O2-  O454  1  0.20002909  0.49992471  0.37659475  1
  O2-  O455  1  0.16576002  0.51428714  0.67531229  1
  O2-  O456  1  0.48199850  0.01165343  -0.03185155  1
  O2-  O457  1  0.49228951  0.00766181  0.30748985  1
  O2-  O458  1  0.49490180  0.00033849  0.65794169  1
  O2-  O459  1  0.50226098  0.50705784  0.00717847  1
  O2-  O460  1  0.49598382  0.49078178  0.32202420  1
  O2-  O461  1  0.48619493  0.51095067  0.65108260  1
  O2-  O462  1  0.84791043  0.00275549  0.03959343  1
  O2-  O463  1  0.83565474  -0.01548420  0.34289327  1
  O2-  O464  1  0.84193700  -0.00566628  0.68523103  1
  O2-  O465  1  0.85694201  0.49799158  0.02183805  1
  O2-  O466  1  0.82427865  0.49398651  0.32795281  1
  O2-  O467  1  0.81053988  0.48768521  0.66236805  1
  O2-  O468  1  0.92822273  0.75663003  0.59473793  1
  O2-  O469  1  0.57882832  0.75414391  0.25830853  1
  O2-  O470  1  0.90683249  0.24682900  0.94062223  1
  O2-  O471  1  0.24345069  0.24741829  0.61612152  1
  O2-  O472  1  0.93239424  0.74964178  0.27357196  1
  O2-  O473  1  0.08514278  0.24734710  0.06142782  1
  O2-  O474  1  0.42698940  0.75199922  0.06684060  1
  O2-  O475  1  0.08130940  0.75579983  0.07252248  1
  O2-  O476  1  0.08688722  0.75214408  0.71505630  1
  O2-  O477  1  0.40045471  0.75396540  0.38331466  1
  O2-  O478  1  0.59052168  0.24905545  0.94202633  1
  O2-  O479  1  0.08692006  0.25260670  0.73879809  1
  O2-  O480  1  0.58158990  0.75030499  0.94028718  1
  O2-  O481  1  0.25545931  0.75212814  0.60718422  1
  O2-  O482  1  0.42020880  0.25327059  0.74066941  1
  O2-  O483  1  0.08030252  0.75003193  0.38711831  1
  O2-  O484  1  0.57793475  0.25354109  0.27450848  1
  O2-  O485  1  0.74436171  0.75188620  0.06986585  1
  O2-  O486  1  0.40767976  0.75178880  0.72018564  1
  O2-  O487  1  0.23833539  0.74334727  0.27934260  1
  O2-  O488  1  0.91285781  0.25039904  0.61517216  1
  O2-  O489  1  0.58209112  0.25332260  0.60540440  1
  O2-  O490  1  0.75726949  0.25064298  0.73402337  1
  O2-  O491  1  0.92486301  0.25029210  0.26497643  1
  O2-  O492  1  0.24160816  0.25422718  0.92295516  1
