# generated using pymatgen
data_Ca108Mn108O277
_symmetry_space_group_name_H-M   'P 1'
_cell_length_a   16.02250077
_cell_length_b   22.30025613
_cell_length_c   16.38400140
_cell_angle_alpha   90.00123058
_cell_angle_beta   89.99949536
_cell_angle_gamma   89.99836635
_symmetry_Int_Tables_number   1
_chemical_formula_structural   Ca108Mn108O277
_chemical_formula_sum   'Ca108 Mn108 O277'
_cell_volume   5854.09988693
_cell_formula_units_Z   1
loop_
 _symmetry_equiv_pos_site_id
 _symmetry_equiv_pos_as_xyz
  1  'x, y, z'
loop_
 _atom_type_symbol
 _atom_type_oxidation_number
  Ca2+  2.0
  Mn3.34+  3.34
  O2-  -2.0
loop_
 _atom_site_type_symbol
 _atom_site_label
 _atom_site_symmetry_multiplicity
 _atom_site_fract_x
 _atom_site_fract_y
 _atom_site_fract_z
 _atom_site_occupancy
  Ca2+  Ca0  1  0.09075028  0.24990321  0.24574797  1
  Ca2+  Ca1  1  0.08326013  0.26634621  0.58620820  1
  Ca2+  Ca2  1  0.08172167  0.25156902  0.92000996  1
  Ca2+  Ca3  1  0.08363271  0.74593627  0.23768311  1
  Ca2+  Ca4  1  0.05920444  0.74043374  0.60178420  1
  Ca2+  Ca5  1  0.06710924  0.74631064  0.90756015  1
  Ca2+  Ca6  1  0.41096197  0.24583351  0.24713804  1
  Ca2+  Ca7  1  0.40880941  0.26135462  0.58693267  1
  Ca2+  Ca8  1  0.41235624  0.24808238  0.91667584  1
  Ca2+  Ca9  1  0.43299943  0.75459017  0.26386582  1
  Ca2+  Ca10  1  0.42903014  0.75063388  0.58736619  1
  Ca2+  Ca11  1  0.42505480  0.75339968  0.90206083  1
  Ca2+  Ca12  1  0.75196076  0.24828658  0.25017144  1
  Ca2+  Ca13  1  0.75715100  0.26394321  0.58109765  1
  Ca2+  Ca14  1  0.76021631  0.24583708  0.92734348  1
  Ca2+  Ca15  1  0.73240810  0.75081817  0.25290539  1
  Ca2+  Ca16  1  0.75426219  0.73357033  0.59824476  1
  Ca2+  Ca17  1  0.76642240  0.74668409  0.90306771  1
  Ca2+  Ca18  1  0.25925691  0.23254536  0.07576327  1
  Ca2+  Ca19  1  0.25008281  0.24826098  0.40444983  1
  Ca2+  Ca20  1  0.24884106  0.24111895  0.76702386  1
  Ca2+  Ca21  1  0.23719611  0.75977306  0.08018786  1
  Ca2+  Ca22  1  0.26469388  0.75885252  0.41702249  1
  Ca2+  Ca23  1  0.24440905  0.75243075  0.75617315  1
  Ca2+  Ca24  1  0.59859869  0.25141495  0.08102087  1
  Ca2+  Ca25  1  0.60458740  0.24919904  0.41246349  1
  Ca2+  Ca26  1  0.58864241  0.26568776  0.75756346  1
  Ca2+  Ca27  1  0.58907270  0.76036785  0.08325394  1
  Ca2+  Ca28  1  0.57337032  0.74909535  0.41533214  1
  Ca2+  Ca29  1  0.58762927  0.75661039  0.75298218  1
  Ca2+  Ca30  1  0.90274054  0.24840076  0.07525831  1
  Ca2+  Ca31  1  0.89812116  0.25721955  0.41531172  1
  Ca2+  Ca32  1  0.91313358  0.26085129  0.75398070  1
  Ca2+  Ca33  1  0.92159750  0.74682765  0.06373796  1
  Ca2+  Ca34  1  0.91180708  0.74572704  0.44279483  1
  Ca2+  Ca35  1  0.92291869  0.72200799  0.74718743  1
  Ca2+  Ca36  1  0.05265853  0.60479782  0.90031542  1
  Ca2+  Ca37  1  0.77022388  0.10336497  0.91787694  1
  Ca2+  Ca38  1  0.37307270  0.10131201  0.93453333  1
  Ca2+  Ca39  1  0.27716199  0.57282946  0.39443133  1
  Ca2+  Ca40  1  0.08507547  0.10487993  0.91622604  1
  Ca2+  Ca41  1  0.59753179  0.60405450  0.74219486  1
  Ca2+  Ca42  1  0.44376160  0.60291948  0.57703921  1
  Ca2+  Ca43  1  0.24591779  0.59184951  0.09140029  1
  Ca2+  Ca44  1  0.08172204  0.10642558  0.56823229  1
  Ca2+  Ca45  1  0.91523215  0.60127455  0.05990407  1
  Ca2+  Ca46  1  0.62479244  0.06981338  0.39484003  1
  Ca2+  Ca47  1  0.55031946  0.08368730  0.08116940  1
  Ca2+  Ca48  1  0.09557383  0.10532367  0.91610369  1
  Ca2+  Ca49  1  0.91288573  0.09243829  0.05090516  1
  Ca2+  Ca50  1  0.56005817  0.08555977  0.08184061  1
  Ca2+  Ca51  1  0.03373273  0.58681821  0.60961018  1
  Ca2+  Ca52  1  0.22685034  0.60106306  0.76227720  1
  Ca2+  Ca53  1  0.77568902  0.60532508  0.91193808  1
  Ca2+  Ca54  1  0.28900059  0.57598473  0.39716616  1
  Ca2+  Ca55  1  0.73326358  0.09656924  0.57395085  1
  Ca2+  Ca56  1  0.04056521  0.59100445  0.61422332  1
  Ca2+  Ca57  1  0.42047877  0.08104613  0.61592803  1
  Ca2+  Ca58  1  0.58618767  0.60423619  0.74114962  1
  Ca2+  Ca59  1  0.10834446  0.09554455  0.24866456  1
  Ca2+  Ca60  1  0.59396627  0.59710188  0.08899329  1
  Ca2+  Ca61  1  0.43054218  0.07914744  0.61098989  1
  Ca2+  Ca62  1  0.42307045  0.59444331  0.91419893  1
  Ca2+  Ca63  1  0.89882463  0.58734329  0.43507038  1
  Ca2+  Ca64  1  0.38519565  0.08313725  0.22103657  1
  Ca2+  Ca65  1  0.24834352  0.09281949  0.39332505  1
  Ca2+  Ca66  1  0.09832672  0.09286234  0.25125755  1
  Ca2+  Ca67  1  0.87113288  0.08554630  0.40732092  1
  Ca2+  Ca68  1  0.23320467  0.59365020  0.09204431  1
  Ca2+  Ca69  1  0.90947143  0.09921482  0.04812084  1
  Ca2+  Ca70  1  0.91532300  0.10473987  0.78597878  1
  Ca2+  Ca71  1  0.74449111  0.09628747  0.57512836  1
  Ca2+  Ca72  1  0.89927286  0.90736679  0.40788387  1
  Ca2+  Ca73  1  0.57875214  0.41590001  0.40193816  1
  Ca2+  Ca74  1  0.26941167  0.91316369  0.38658730  1
  Ca2+  Ca75  1  0.41216558  0.41069760  0.58180301  1
  Ca2+  Ca76  1  0.74482377  0.89877250  0.91694169  1
  Ca2+  Ca77  1  0.09451392  0.89701928  0.58026551  1
  Ca2+  Ca78  1  0.57827405  0.40669781  0.08015225  1
  Ca2+  Ca79  1  0.58325798  0.91806756  0.39537695  1
  Ca2+  Ca80  1  0.27077310  0.90975094  0.75459306  1
  Ca2+  Ca81  1  0.56995300  0.41859428  0.40624279  1
  Ca2+  Ca82  1  0.77648351  0.41590828  0.58630362  1
  Ca2+  Ca83  1  0.08562733  0.90519439  0.24327504  1
  Ca2+  Ca84  1  0.88740161  0.90859113  0.40678386  1
  Ca2+  Ca85  1  0.91947198  0.40034395  0.07669783  1
  Ca2+  Ca86  1  0.42306329  0.92054647  0.92919844  1
  Ca2+  Ca87  1  0.75160578  0.40009932  0.90871589  1
  Ca2+  Ca88  1  0.73454659  0.40669406  0.25465568  1
  Ca2+  Ca89  1  0.91742450  0.91106183  0.07222634  1
  Ca2+  Ca90  1  0.73339707  0.90247559  0.57723584  1
  Ca2+  Ca91  1  0.06990952  0.40122294  0.92114023  1
  Ca2+  Ca92  1  0.09832976  0.90410933  0.24207134  1
  Ca2+  Ca93  1  0.72812290  0.91626060  0.26343725  1
  Ca2+  Ca94  1  0.25624112  0.40521333  0.74823108  1
  Ca2+  Ca95  1  0.89874879  0.90516679  0.76622271  1
  Ca2+  Ca96  1  0.24369693  0.40570012  0.74846555  1
  Ca2+  Ca97  1  0.07959189  0.90565683  0.92394521  1
  Ca2+  Ca98  1  0.08064868  0.40158217  0.25340141  1
  Ca2+  Ca99  1  0.08183368  0.89650438  0.58117633  1
  Ca2+  Ca100  1  0.41718328  0.41833831  0.25824307  1
  Ca2+  Ca101  1  0.25089028  0.40683180  0.41426560  1
  Ca2+  Ca102  1  0.91023732  0.90612518  0.76530521  1
  Ca2+  Ca103  1  0.43118940  0.90413149  0.58721721  1
  Ca2+  Ca104  1  0.42762829  0.40085775  0.91690230  1
  Ca2+  Ca105  1  0.42414764  0.42364066  0.26092540  1
  Ca2+  Ca106  1  0.09218950  0.40115755  0.25317837  1
  Ca2+  Ca107  1  0.43157512  0.91688478  0.92584993  1
  Mn3.34+  Mn108  1  0.08588786  0.33172346  0.08357872  1
  Mn3.34+  Mn109  1  0.07848216  0.33254550  0.42277715  1
  Mn3.34+  Mn110  1  0.07832292  0.33502360  0.74969309  1
  Mn3.34+  Mn111  1  0.08580186  0.83215817  0.08097146  1
  Mn3.34+  Mn112  1  0.08635554  0.82994609  0.41416528  1
  Mn3.34+  Mn113  1  0.08680933  0.82984684  0.75634132  1
  Mn3.34+  Mn114  1  0.41411708  0.33349597  0.08400178  1
  Mn3.34+  Mn115  1  0.41780883  0.33087850  0.42049296  1
  Mn3.34+  Mn116  1  0.41926240  0.33059489  0.75107823  1
  Mn3.34+  Mn117  1  0.41542921  0.83795104  0.08748630  1
  Mn3.34+  Mn118  1  0.42092219  0.83527401  0.41627010  1
  Mn3.34+  Mn119  1  0.42041453  0.83744633  0.75396698  1
  Mn3.34+  Mn120  1  0.74989647  0.32980588  0.08409899  1
  Mn3.34+  Mn121  1  0.75093917  0.33573137  0.41936426  1
  Mn3.34+  Mn122  1  0.75208138  0.33614946  0.74791470  1
  Mn3.34+  Mn123  1  0.75054188  0.83075331  0.08730582  1
  Mn3.34+  Mn124  1  0.74040013  0.83124503  0.41905727  1
  Mn3.34+  Mn125  1  0.74253860  0.83308871  0.74991870  1
  Mn3.34+  Mn126  1  0.25405782  0.33155290  0.24601874  1
  Mn3.34+  Mn127  1  0.24562968  0.33710417  0.57764310  1
  Mn3.34+  Mn128  1  0.24996278  0.32740757  0.92000828  1
  Mn3.34+  Mn129  1  0.26755143  0.84242607  0.23541506  1
  Mn3.34+  Mn130  1  0.25717793  0.83183450  0.58346620  1
  Mn3.34+  Mn131  1  0.25268919  0.83601272  0.91950941  1
  Mn3.34+  Mn132  1  0.58020085  0.33304405  0.24271913  1
  Mn3.34+  Mn133  1  0.58450884  0.33473676  0.58273681  1
  Mn3.34+  Mn134  1  0.58630398  0.33466155  0.91552470  1
  Mn3.34+  Mn135  1  0.57882645  0.83658885  0.24488274  1
  Mn3.34+  Mn136  1  0.58375952  0.83374447  0.58163135  1
  Mn3.34+  Mn137  1  0.58556894  0.83068237  0.91894037  1
  Mn3.34+  Mn138  1  0.91292537  0.33609300  0.25020879  1
  Mn3.34+  Mn139  1  0.92361294  0.34526238  0.58222351  1
  Mn3.34+  Mn140  1  0.91478652  0.33428562  0.91181343  1
  Mn3.34+  Mn141  1  0.91223958  0.83034780  0.24261394  1
  Mn3.34+  Mn142  1  0.91049691  0.83116340  0.58459129  1
  Mn3.34+  Mn143  1  0.91619483  0.83271834  0.91868049  1
  Mn3.34+  Mn144  1  0.90849004  0.16050812  0.24791045  1
  Mn3.34+  Mn145  1  0.08482404  0.66467501  0.41053006  1
  Mn3.34+  Mn146  1  0.25351301  0.17303727  0.58380783  1
  Mn3.34+  Mn147  1  0.92460382  0.16957763  0.58239392  1
  Mn3.34+  Mn148  1  0.57573302  0.17362901  0.58529508  1
  Mn3.34+  Mn149  1  0.90801238  0.66812544  0.24220392  1
  Mn3.34+  Mn150  1  0.24757088  0.67387585  0.91684299  1
  Mn3.34+  Mn151  1  0.91379297  0.17401884  0.58354449  1
  Mn3.34+  Mn152  1  0.58857910  0.66693040  0.91694969  1
  Mn3.34+  Mn153  1  0.75924445  0.66467154  0.74731973  1
  Mn3.34+  Mn154  1  0.41803991  0.16423596  0.41605678  1
  Mn3.34+  Mn155  1  0.41531114  0.66904169  0.75388286  1
  Mn3.34+  Mn156  1  0.41243624  0.67393691  0.08696843  1
  Mn3.34+  Mn157  1  0.57830617  0.16604848  0.25050378  1
  Mn3.34+  Mn158  1  0.74654506  0.66616856  0.41848951  1
  Mn3.34+  Mn159  1  0.58273744  0.66066425  0.25003449  1
  Mn3.34+  Mn160  1  0.42183204  0.67947625  0.08549675  1
  Mn3.34+  Mn161  1  0.24548526  0.66397383  0.58196786  1
  Mn3.34+  Mn162  1  0.23935359  0.16780024  0.58236703  1
  Mn3.34+  Mn163  1  0.59202257  0.15920664  0.24842308  1
  Mn3.34+  Mn164  1  0.74936522  0.67287075  0.08946609  1
  Mn3.34+  Mn165  1  0.07157611  0.65799955  0.40921681  1
  Mn3.34+  Mn166  1  0.25693594  0.16889976  0.24440393  1
  Mn3.34+  Mn167  1  0.08327792  0.17442035  0.75538462  1
  Mn3.34+  Mn168  1  0.73677584  0.66120020  0.42114327  1
  Mn3.34+  Mn169  1  0.58798601  0.16533825  0.91130282  1
  Mn3.34+  Mn170  1  0.57744214  0.16117113  0.90892269  1
  Mn3.34+  Mn171  1  0.91883900  0.16518236  0.24851694  1
  Mn3.34+  Mn172  1  0.75439071  0.16912213  0.75449767  1
  Mn3.34+  Mn173  1  0.09063459  0.16947752  0.08420308  1
  Mn3.34+  Mn174  1  0.42856582  0.66598823  0.41809824  1
  Mn3.34+  Mn175  1  0.25552375  0.65859347  0.58074769  1
  Mn3.34+  Mn176  1  0.58454958  0.17974096  0.58699114  1
  Mn3.34+  Mn177  1  0.25250230  0.67102020  0.25150504  1
  Mn3.34+  Mn178  1  0.07930800  0.66899154  0.08709534  1
  Mn3.34+  Mn179  1  0.40991942  0.16445294  0.75949165  1
  Mn3.34+  Mn180  1  0.90608643  0.50346216  0.25367079  1
  Mn3.34+  Mn181  1  0.58558782  0.50350371  0.57801561  1
  Mn3.34+  Mn182  1  0.59650145  0.50798649  0.57880269  1
  Mn3.34+  Mn183  1  0.58414479  0.50002596  0.91760656  1
  Mn3.34+  Mn184  1  0.26094505  0.00194720  0.57261443  1
  Mn3.34+  Mn185  1  0.41904389  0.00318999  0.40412500  1
  Mn3.34+  Mn186  1  0.75272355  0.00270502  0.08627161  1
  Mn3.34+  Mn187  1  0.07383170  0.50370608  0.08465321  1
  Mn3.34+  Mn188  1  0.42186497  0.50407986  0.08445641  1
  Mn3.34+  Mn189  1  0.75675102  0.50468330  0.09092309  1
  Mn3.34+  Mn190  1  0.76124133  0.49993161  0.73673685  1
  Mn3.34+  Mn191  1  0.73095666  0.00397013  0.74814119  1
  Mn3.34+  Mn192  1  0.24457514  0.00040811  0.93149577  1
  Mn3.34+  Mn193  1  0.08786873  0.00596910  0.75243631  1
  Mn3.34+  Mn194  1  0.24127476  0.49724054  0.92043241  1
  Mn3.34+  Mn195  1  0.08931579  0.00522879  0.41751366  1
  Mn3.34+  Mn196  1  0.91555656  -0.00047511  0.58130482  1
  Mn3.34+  Mn197  1  0.73965432  0.49905575  0.40994476  1
  Mn3.34+  Mn198  1  0.91664200  0.50057418  0.91418620  1
  Mn3.34+  Mn199  1  0.24560798  -0.00152499  0.56935009  1
  Mn3.34+  Mn200  1  0.25258789  0.50188801  0.91902199  1
  Mn3.34+  Mn201  1  0.90493355  0.00276455  0.58571687  1
  Mn3.34+  Mn202  1  0.58622059  -0.00096211  0.91101527  1
  Mn3.34+  Mn203  1  0.74608904  0.50008608  0.09075286  1
  Mn3.34+  Mn204  1  0.10076799  0.00140513  0.76066193  1
  Mn3.34+  Mn205  1  0.41933436  0.49905026  0.74734231  1
  Mn3.34+  Mn206  1  0.07575245  0.49353417  0.74496250  1
  Mn3.34+  Mn207  1  0.73893343  -0.00232710  0.09187853  1
  Mn3.34+  Mn208  1  0.91892027  0.51020243  0.25538170  1
  Mn3.34+  Mn209  1  0.08545071  0.00071023  0.07710593  1
  Mn3.34+  Mn210  1  0.07958373  0.49672553  0.42248428  1
  Mn3.34+  Mn211  1  0.89978087  -0.00097005  0.24943573  1
  Mn3.34+  Mn212  1  0.58854415  -0.00351239  0.59556950  1
  Mn3.34+  Mn213  1  0.24497384  0.49943852  0.58954273  1
  Mn3.34+  Mn214  1  0.24478249  0.49887191  0.25068272  1
  Mn3.34+  Mn215  1  0.07836499  0.00020914  0.41813331  1
  O2-  O216  1  0.00807124  0.16128110  0.00561917  1
  O2-  O217  1  0.00109343  0.15118958  0.32508752  1
  O2-  O218  1  -0.00259539  0.15386144  0.66937567  1
  O2-  O219  1  0.00679885  0.66166680  0.00504919  1
  O2-  O220  1  -0.00798695  0.67647028  0.32587024  1
  O2-  O221  1  -0.00141632  0.66727397  0.66611966  1
  O2-  O222  1  0.33930630  0.18643155  -0.00729094  1
  O2-  O223  1  0.33613960  0.15455825  0.33166856  1
  O2-  O224  1  0.33146994  0.15210567  0.66232187  1
  O2-  O225  1  0.33141211  0.67523653  0.00192970  1
  O2-  O226  1  0.32373861  0.66135381  0.34317129  1
  O2-  O227  1  0.32958728  0.64886839  0.67160872  1
  O2-  O228  1  0.66030320  0.14925896  -0.00392823  1
  O2-  O229  1  0.66548325  0.15724823  0.33260301  1
  O2-  O230  1  0.66784709  0.15940658  0.66588691  1
  O2-  O231  1  0.66681068  0.66115820  0.00105095  1
  O2-  O232  1  0.66679500  0.66195113  0.33290059  1
  O2-  O233  1  0.66144357  0.67516730  0.68130201  1
  O2-  O234  1  0.16351468  0.16981298  0.00096250  1
  O2-  O235  1  0.16729573  0.16606365  0.32549865  1
  O2-  O236  1  0.16209917  0.15557394  0.66645927  1
  O2-  O237  1  0.17374694  0.65928406  0.00836587  1
  O2-  O238  1  0.16328460  0.65979461  0.32863375  1
  O2-  O239  1  0.16111246  0.64732858  0.65706940  1
  O2-  O240  1  0.49950647  0.15735790  -0.00429161  1
  O2-  O241  1  0.50428781  0.14994386  0.33408993  1
  O2-  O242  1  0.49321813  0.16509955  0.66418775  1
  O2-  O243  1  0.49915719  0.65743691  -0.00046866  1
  O2-  O244  1  0.49829248  0.66545423  0.33112136  1
  O2-  O245  1  0.49587208  0.66484312  0.67471647  1
  O2-  O246  1  0.84410200  0.16757919  -0.00675012  1
  O2-  O247  1  0.83494546  0.16452320  0.33339713  1
  O2-  O248  1  0.83322832  0.14738255  0.66234998  1
  O2-  O249  1  0.82800255  0.67430180  0.00900085  1
  O2-  O250  1  0.83158851  0.66118110  0.33716752  1
  O2-  O251  1  0.82845135  0.66177672  0.66851348  1
  O2-  O252  1  -0.00522670  0.33196820  0.00122197  1
  O2-  O253  1  0.00605491  0.33295792  0.32900466  1
  O2-  O254  1  -0.00057054  0.33604155  0.66636642  1
  O2-  O255  1  -0.00241781  0.84446474  0.00330228  1
  O2-  O256  1  -0.00497337  0.84759538  0.33135002  1
  O2-  O257  1  -0.00148211  0.85171695  0.66901760  1
  O2-  O258  1  0.33619234  0.31813216  -0.00190355  1
  O2-  O259  1  0.33641754  0.35218727  0.33163581  1
  O2-  O260  1  0.33321227  0.34957013  0.66391049  1
  O2-  O261  1  0.33426436  0.81176823  -0.00011719  1
  O2-  O262  1  0.33376367  0.83329836  0.33144249  1
  O2-  O263  1  0.33750736  0.84812508  0.66676643  1
  O2-  O264  1  0.66612241  0.34674321  0.00307112  1
  O2-  O265  1  0.65601175  0.34847549  0.33816933  1
  O2-  O266  1  0.66608395  0.32945671  0.66352951  1
  O2-  O267  1  0.67222722  0.82635059  -0.00095516  1
  O2-  O268  1  0.66591089  0.83990758  0.33417382  1
  O2-  O269  1  0.66924353  0.82697457  0.66009229  1
  O2-  O270  1  0.15914802  0.32815703  -0.00715686  1
  O2-  O271  1  0.16639346  0.33073385  0.33162106  1
  O2-  O272  1  0.16854079  0.34802796  0.66741691  1
  O2-  O273  1  0.16291292  0.83414723  -0.00576552  1
  O2-  O274  1  0.16690741  0.82847537  0.32827780  1
  O2-  O275  1  0.16651564  0.84639285  0.66864239  1
  O2-  O276  1  0.49980150  0.33647592  0.00262881  1
  O2-  O277  1  0.49673492  0.34468855  0.32848135  1
  O2-  O278  1  0.49643231  0.33292589  0.66016430  1
  O2-  O279  1  0.49316718  0.82945063  -0.00120977  1
  O2-  O280  1  0.50430430  0.83899889  0.33845056  1
  O2-  O281  1  0.50182178  0.82907111  0.66408498  1
  O2-  O282  1  0.83282554  0.33488967  -0.00242149  1
  O2-  O283  1  0.82482720  0.34442999  0.32542120  1
  O2-  O284  1  0.83124148  0.34291326  0.66358219  1
  O2-  O285  1  0.83280509  0.83819222  0.00040871  1
  O2-  O286  1  0.83033330  0.84058614  0.32965860  1
  O2-  O287  1  0.83176888  0.85246854  0.66749404  1
  O2-  O288  1  0.00606634  0.16823772  0.17161067  1
  O2-  O289  1  0.00110675  0.18535528  0.50142520  1
  O2-  O290  1  0.00291800  0.18314946  0.83307030  1
  O2-  O291  1  -0.00654087  0.68685020  0.16310825  1
  O2-  O292  1  -0.00075840  0.67085066  0.49731741  1
  O2-  O293  1  0.00302791  0.67841995  0.83550334  1
  O2-  O294  1  0.33748720  0.17799037  0.16974882  1
  O2-  O295  1  0.33133058  0.17509092  0.49908895  1
  O2-  O296  1  0.33626141  0.17736868  0.83811549  1
  O2-  O297  1  0.33320175  0.68970223  0.16963466  1
  O2-  O298  1  0.33340943  0.67999809  0.50222324  1
  O2-  O299  1  0.33336791  0.68225470  0.83736863  1
  O2-  O300  1  0.66002769  0.17567291  0.16414917  1
  O2-  O301  1  0.67034753  0.18007186  0.51010430  1
  O2-  O302  1  0.67015353  0.18209560  0.83430144  1
  O2-  O303  1  0.66051313  0.68500868  0.16149476  1
  O2-  O304  1  0.66507490  0.68763286  0.49880872  1
  O2-  O305  1  0.66726778  0.67143310  0.83582970  1
  O2-  O306  1  0.16466562  0.17671581  0.17122681  1
  O2-  O307  1  0.16646893  0.18672387  0.50092872  1
  O2-  O308  1  0.15722557  0.18117255  0.83908212  1
  O2-  O309  1  0.17485128  0.68285080  0.16494638  1
  O2-  O310  1  0.17018005  0.67877260  0.49383268  1
  O2-  O311  1  0.16874840  0.68261582  0.84131598  1
  O2-  O312  1  0.50317872  0.17789298  0.16745782  1
  O2-  O313  1  0.49759930  0.18573683  0.50269382  1
  O2-  O314  1  0.50315559  0.18382792  0.83067349  1
  O2-  O315  1  0.50400752  0.68286681  0.16411633  1
  O2-  O316  1  0.49453952  0.68268430  0.50208536  1
  O2-  O317  1  0.50360862  0.67383533  0.83151372  1
  O2-  O318  1  0.84204171  0.17450975  0.16039204  1
  O2-  O319  1  0.82968983  0.17017109  0.50480362  1
  O2-  O320  1  0.83426770  0.18218390  0.82961900  1
  O2-  O321  1  0.82929503  0.69643868  0.16911449  1
  O2-  O322  1  0.83002487  0.67209373  0.49517732  1
  O2-  O323  1  0.82891426  0.67295723  0.83194010  1
  O2-  O324  1  0.00522075  0.33216929  0.17340329  1
  O2-  O325  1  -0.00404338  0.31351226  0.49750480  1
  O2-  O326  1  0.00316797  0.31763907  0.83966164  1
  O2-  O327  1  0.00907089  0.82272276  0.17418049  1
  O2-  O328  1  0.00084023  0.83172602  0.50217471  1
  O2-  O329  1  -0.00177813  0.83377869  0.83257169  1
  O2-  O330  1  0.34039768  0.32361399  0.17198651  1
  O2-  O331  1  0.33348138  0.32367150  0.49921924  1
  O2-  O332  1  0.32872654  0.31979455  0.83158104  1
  O2-  O333  1  0.33980904  0.80366197  0.16315021  1
  O2-  O334  1  0.33337071  0.82904690  0.49753547  1
  O2-  O335  1  0.33023436  0.81955416  0.83571294  1
  O2-  O336  1  0.67083537  0.32355299  0.17211644  1
  O2-  O337  1  0.66402356  0.31751837  0.50016176  1
  O2-  O338  1  0.67191043  0.32464090  0.83900572  1
  O2-  O339  1  0.66954560  0.81909073  0.16875434  1
  O2-  O340  1  0.66637964  0.81624751  0.50178822  1
  O2-  O341  1  0.66876532  0.82466977  0.83861786  1
  O2-  O342  1  0.16176033  0.32596851  0.17477720  1
  O2-  O343  1  0.16916707  0.31424423  0.49363442  1
  O2-  O344  1  0.17111021  0.31915743  0.83153074  1
  O2-  O345  1  0.16762143  0.82360705  0.16972693  1
  O2-  O346  1  0.16388869  0.82482103  0.50760303  1
  O2-  O347  1  0.16912184  0.82111236  0.83546908  1
  O2-  O348  1  0.50158097  0.31122889  0.16240983  1
  O2-  O349  1  0.50375621  0.31390938  0.49777599  1
  O2-  O350  1  0.49718010  0.32188285  0.83892865  1
  O2-  O351  1  0.49822134  0.81747597  0.16254408  1
  O2-  O352  1  0.49777103  0.82012064  0.50421471  1
  O2-  O353  1  0.49721287  0.82774387  0.83994350  1
  O2-  O354  1  0.83887135  0.32544948  0.16020987  1
  O2-  O355  1  0.83131765  0.32750251  0.50066149  1
  O2-  O356  1  0.82952289  0.31687199  0.83854668  1
  O2-  O357  1  0.83760292  0.81065081  0.16097977  1
  O2-  O358  1  0.83672013  0.82821039  0.49332166  1
  O2-  O359  1  0.83413798  0.83008717  0.83408065  1
  O2-  O360  1  0.08729354  0.08073994  0.11206584  1
  O2-  O361  1  0.09245646  0.08550778  0.43914786  1
  O2-  O362  1  0.07346686  0.08633039  0.77581109  1
  O2-  O363  1  0.09332896  0.58497126  0.11378093  1
  O2-  O364  1  0.08218856  0.57911553  0.45190502  1
  O2-  O365  1  0.08922451  0.56797851  0.77818285  1
  O2-  O366  1  0.43378567  0.06696284  0.10433739  1
  O2-  O367  1  0.41203289  0.07216329  0.46917366  1
  O2-  O368  1  0.41938937  0.08482780  0.75577903  1
  O2-  O369  1  0.38894150  0.58605087  0.09967604  1
  O2-  O370  1  0.41192140  0.58335612  0.44633207  1
  O2-  O371  1  0.42551412  0.58188898  0.77716478  1
  O2-  O372  1  0.75571941  0.08208233  0.10037339  1
  O2-  O373  1  0.75342312  0.06064094  0.45970212  1
  O2-  O374  1  0.76383102  0.08450196  0.78221873  1
  O2-  O375  1  0.75363052  0.58645654  0.10680936  1
  O2-  O376  1  0.75085052  0.57915605  0.44107881  1
  O2-  O377  1  0.73480116  0.57775356  0.77406167  1
  O2-  O378  1  0.24371538  0.08596210  0.23459155  1
  O2-  O379  1  0.23708599  0.08297127  0.54702707  1
  O2-  O380  1  0.22394539  0.07212007  0.88542920  1
  O2-  O381  1  0.25613356  0.58074416  0.22471858  1
  O2-  O382  1  0.25147720  0.57662848  0.53143447  1
  O2-  O383  1  0.25974895  0.58384702  0.89496663  1
  O2-  O384  1  0.57869884  0.07955555  0.22011502  1
  O2-  O385  1  0.58266854  0.08039231  0.55924588  1
  O2-  O386  1  0.59207130  0.07922212  0.88120197  1
  O2-  O387  1  0.58364250  0.58442370  0.21969153  1
  O2-  O388  1  0.58597515  0.58933120  0.58875610  1
  O2-  O389  1  0.57825800  0.58069389  0.88282425  1
  O2-  O390  1  0.92174288  0.07780760  0.21185338  1
  O2-  O391  1  0.92680707  0.08326501  0.54948004  1
  O2-  O392  1  0.95378008  0.07593040  0.90909991  1
  O2-  O393  1  0.91029836  0.58304182  0.20244273  1
  O2-  O394  1  0.93813276  0.55773489  0.54443760  1
  O2-  O395  1  0.91349862  0.57968022  0.90676410  1
  O2-  O396  1  0.07514178  0.42078309  0.11113570  1
  O2-  O397  1  0.10019370  0.41701539  0.40986313  1
  O2-  O398  1  0.10359962  0.42016674  0.78844573  1
  O2-  O399  1  0.08063394  0.91914417  0.10846765  1
  O2-  O400  1  0.09067863  0.91744267  0.43660997  1
  O2-  O401  1  0.08874580  0.91949631  0.77682906  1
  O2-  O402  1  0.43093717  0.42309271  0.11664204  1
  O2-  O403  1  0.43450747  0.41380671  0.44725228  1
  O2-  O404  1  0.39955241  0.41768920  0.78167191  1
  O2-  O405  1  0.40538101  0.91432547  0.06803485  1
  O2-  O406  1  0.41493049  0.92348912  0.44133890  1
  O2-  O407  1  0.40755183  0.91851246  0.78650528  1
  O2-  O408  1  0.75224934  0.41758146  0.11096623  1
  O2-  O409  1  0.72959098  0.42205727  0.45300363  1
  O2-  O410  1  0.75477526  0.42326029  0.77452489  1
  O2-  O411  1  0.76219518  0.91909756  0.11636949  1
  O2-  O412  1  0.75381329  0.91320110  0.44034232  1
  O2-  O413  1  0.75797932  0.92094979  0.78028009  1
  O2-  O414  1  0.23206945  0.41640971  0.23544442  1
  O2-  O415  1  0.25527890  0.41879640  0.55022257  1
  O2-  O416  1  0.25136366  0.41658128  0.88811178  1
  O2-  O417  1  0.22964425  0.92024704  0.24914374  1
  O2-  O418  1  0.23356401  0.91768260  0.55840274  1
  O2-  O419  1  0.25103199  0.92296169  0.88972378  1
  O2-  O420  1  0.57464781  0.41297260  0.21765764  1
  O2-  O421  1  0.58337804  0.42257574  0.54796120  1
  O2-  O422  1  0.57816180  0.41818714  0.90230131  1
  O2-  O423  1  0.58916702  0.91604396  0.23932964  1
  O2-  O424  1  0.58905881  0.92099988  0.55011438  1
  O2-  O425  1  0.57480831  0.91620668  0.90753667  1
  O2-  O426  1  0.92631198  0.42367719  0.21947279  1
  O2-  O427  1  0.91549374  0.41924900  0.55978682  1
  O2-  O428  1  0.92008124  0.41877795  0.89991572  1
  O2-  O429  1  0.92431151  0.91947240  0.21917808  1
  O2-  O430  1  0.92105689  0.91825350  0.55298983  1
  O2-  O431  1  0.91666677  0.92053293  0.89722387  1
  O2-  O432  1  -0.01678028  0.00485529  0.04217390  1
  O2-  O433  1  0.00057988  0.00049985  0.32733752  1
  O2-  O434  1  0.00918115  -0.00149924  0.65966001  1
  O2-  O435  1  0.00567212  0.49896444  -0.00829461  1
  O2-  O436  1  0.01050854  0.49843796  0.32477563  1
  O2-  O437  1  0.00105795  0.50028167  0.67335674  1
  O2-  O438  1  0.35179872  0.00151320  -0.04139042  1
  O2-  O439  1  0.32053359  0.00709067  0.35877763  1
  O2-  O440  1  0.33342489  0.00031965  0.65711860  1
  O2-  O441  1  0.33483541  0.49860566  0.00174458  1
  O2-  O442  1  0.33356935  0.49343141  0.33007196  1
  O2-  O443  1  0.32557965  0.49057016  0.67802413  1
  O2-  O444  1  0.66560308  -0.00015851  0.00071982  1
  O2-  O445  1  0.66749261  -0.01228618  0.33508979  1
  O2-  O446  1  0.70194603  0.00416148  0.62437330  1
  O2-  O447  1  0.65957574  0.50389756  0.01159340  1
  O2-  O448  1  0.66366747  0.48153045  0.33612493  1
  O2-  O449  1  0.65970524  0.50018093  0.67819281  1
  O2-  O450  1  0.13347087  -0.00193869  -0.03117463  1
  O2-  O451  1  0.15350441  0.00850164  0.31690878  1
  O2-  O452  1  0.16611033  -0.00093169  0.65774389  1
  O2-  O453  1  0.17405402  0.51101225  0.01580104  1
  O2-  O454  1  0.17854111  0.50990463  0.35275571  1
  O2-  O455  1  0.16943213  0.50003248  0.68366814  1
  O2-  O456  1  0.50289103  0.00765485  -0.02015634  1
  O2-  O457  1  0.51661422  0.00740208  0.36173257  1
  O2-  O458  1  0.48100574  -0.00744778  0.62738212  1
  O2-  O459  1  0.49487177  0.50583488  -0.00727978  1
  O2-  O460  1  0.49893125  0.47470806  0.32999946  1
  O2-  O461  1  0.48942111  0.50011095  0.64844654  1
  O2-  O462  1  0.83545259  0.00720048  0.01175708  1
  O2-  O463  1  0.84613220  -0.01138124  0.34976974  1
  O2-  O464  1  0.85119052  -0.00535185  0.68923385  1
  O2-  O465  1  0.83196571  0.49832832  0.00041220  1
  O2-  O466  1  0.83487059  0.49782767  0.34352975  1
  O2-  O467  1  0.82687041  0.49705959  0.65798895  1
  O2-  O468  1  0.75312578  0.24941615  0.72492141  1
  O2-  O469  1  0.08341877  0.75077685  0.06461331  1
  O2-  O470  1  0.40679803  0.25059417  0.39170802  1
  O2-  O471  1  0.90541309  0.25538449  0.60637370  1
  O2-  O472  1  0.75637464  0.75137614  0.74501043  1
  O2-  O473  1  0.59008942  0.24931120  0.93624483  1
  O2-  O474  1  0.08761989  0.25184393  0.72353548  1
  O2-  O475  1  0.92044015  0.75349553  0.92379962  1
  O2-  O476  1  0.75619240  0.74907173  0.39654050  1
  O2-  O477  1  0.58855969  0.24782532  0.27336484  1
  O2-  O478  1  0.41135134  0.75083925  0.73556078  1
  O2-  O479  1  0.91750575  0.24941271  0.26156956  1
  O2-  O480  1  0.08320951  0.75364995  0.73612372  1
  O2-  O481  1  0.74589516  0.25245701  0.06967515  1
  O2-  O482  1  0.41179466  0.75114670  0.40220865  1
  O2-  O483  1  0.57642895  0.74820349  0.92496159  1
  O2-  O484  1  0.25569878  0.25517078  0.61371324  1
  O2-  O485  1  0.25710409  0.25171021  0.26640603  1
  O2-  O486  1  0.91330020  0.75352559  0.59458710  1
  O2-  O487  1  0.07597606  0.74805119  0.40825436  1
  O2-  O488  1  0.07071639  0.24963572  0.08515756  1
  O2-  O489  1  0.75160918  0.25773863  0.39724449  1
  O2-  O490  1  0.58256408  0.74991775  0.27045751  1
  O2-  O491  1  0.25167586  0.74805742  0.60720136  1
  O2-  O492  1  0.40763295  0.24916802  0.72904841  1
