# generated using pymatgen
data_Ca108Mn108O277
_symmetry_space_group_name_H-M   'P 1'
_cell_length_a   16.01546846
_cell_length_b   22.28973748
_cell_length_c   16.37934448
_cell_angle_alpha   90.00183491
_cell_angle_beta   89.99961655
_cell_angle_gamma   90.00419900
_symmetry_Int_Tables_number   1
_chemical_formula_structural   Ca108Mn108O277
_chemical_formula_sum   'Ca108 Mn108 O277'
_cell_volume   5847.10799633
_cell_formula_units_Z   1
loop_
 _symmetry_equiv_pos_site_id
 _symmetry_equiv_pos_as_xyz
  1  'x, y, z'
loop_
 _atom_type_symbol
 _atom_type_oxidation_number
  Ca2+  2.0
  Mn3.34+  3.34
  O2-  -2.0
loop_
 _atom_site_type_symbol
 _atom_site_label
 _atom_site_symmetry_multiplicity
 _atom_site_fract_x
 _atom_site_fract_y
 _atom_site_fract_z
 _atom_site_occupancy
  Ca2+  Ca0  1  0.08566990  0.25127233  0.25111182  1
  Ca2+  Ca1  1  0.09610726  0.25678313  0.58595140  1
  Ca2+  Ca2  1  0.05891976  0.23436172  0.91938298  1
  Ca2+  Ca3  1  0.07979817  0.75889840  0.25781768  1
  Ca2+  Ca4  1  0.09935908  0.75630992  0.58821347  1
  Ca2+  Ca5  1  0.08343873  0.74934506  0.91122059  1
  Ca2+  Ca6  1  0.42481748  0.24937152  0.25237270  1
  Ca2+  Ca7  1  0.39902680  0.24038367  0.58118784  1
  Ca2+  Ca8  1  0.42151122  0.25066013  0.91325377  1
  Ca2+  Ca9  1  0.42690471  0.75671834  0.23590863  1
  Ca2+  Ca10  1  0.40652288  0.74525385  0.60436773  1
  Ca2+  Ca11  1  0.41083540  0.73692191  0.91840152  1
  Ca2+  Ca12  1  0.74057281  0.24621550  0.22736439  1
  Ca2+  Ca13  1  0.74673540  0.25324596  0.58350373  1
  Ca2+  Ca14  1  0.76463396  0.23994631  0.93257781  1
  Ca2+  Ca15  1  0.72990079  0.75046288  0.25415056  1
  Ca2+  Ca16  1  0.75014928  0.75410767  0.58355552  1
  Ca2+  Ca17  1  0.76728618  0.75162943  0.91058948  1
  Ca2+  Ca18  1  0.23783494  0.24914048  0.08087457  1
  Ca2+  Ca19  1  0.24130890  0.24834848  0.43751317  1
  Ca2+  Ca20  1  0.24117316  0.24044492  0.72908818  1
  Ca2+  Ca21  1  0.26603601  0.75585373  0.07050771  1
  Ca2+  Ca22  1  0.24842459  0.76647845  0.42270851  1
  Ca2+  Ca23  1  0.26143279  0.74930911  0.75364892  1
  Ca2+  Ca24  1  0.60129125  0.24729840  0.08074569  1
  Ca2+  Ca25  1  0.58102884  0.25128507  0.42355911  1
  Ca2+  Ca26  1  0.57860112  0.24825798  0.74304825  1
  Ca2+  Ca27  1  0.55895932  0.74864466  0.09581899  1
  Ca2+  Ca28  1  0.57430423  0.75676790  0.40298709  1
  Ca2+  Ca29  1  0.56348803  0.75067126  0.75114257  1
  Ca2+  Ca30  1  0.90548405  0.23641135  0.06598405  1
  Ca2+  Ca31  1  0.92840397  0.25535728  0.43149632  1
  Ca2+  Ca32  1  0.92638957  0.25305837  0.75938548  1
  Ca2+  Ca33  1  0.92810381  0.75452167  0.06931061  1
  Ca2+  Ca34  1  0.92886470  0.75537759  0.41128930  1
  Ca2+  Ca35  1  0.92893097  0.74915870  0.77393247  1
  Ca2+  Ca36  1  0.23770769  0.08491860  0.06763390  1
  Ca2+  Ca37  1  0.25583118  0.09980846  0.42000789  1
  Ca2+  Ca38  1  0.76241040  0.09546208  0.94241439  1
  Ca2+  Ca39  1  0.07356206  0.58751021  0.25524627  1
  Ca2+  Ca40  1  0.41777890  0.08977824  0.91290272  1
  Ca2+  Ca41  1  0.75638267  0.08938024  0.94110475  1
  Ca2+  Ca42  1  0.93175979  0.59967164  0.07236033  1
  Ca2+  Ca43  1  0.60186274  0.08981462  0.08224944  1
  Ca2+  Ca44  1  0.93371537  0.08317558  0.41293097  1
  Ca2+  Ca45  1  0.91219459  0.10019980  0.07580664  1
  Ca2+  Ca46  1  0.24888906  0.08456929  0.06820030  1
  Ca2+  Ca47  1  0.72154281  0.07649433  0.58122319  1
  Ca2+  Ca48  1  0.91711305  0.60602723  0.77039178  1
  Ca2+  Ca49  1  0.27529993  0.60287485  0.06996268  1
  Ca2+  Ca50  1  0.43839130  0.60727099  0.23722255  1
  Ca2+  Ca51  1  0.06847356  0.60783119  0.91836236  1
  Ca2+  Ca52  1  0.23089025  0.58472131  0.43249627  1
  Ca2+  Ca53  1  0.09229816  0.10171236  0.58026519  1
  Ca2+  Ca54  1  0.41405310  0.08087344  0.26812724  1
  Ca2+  Ca55  1  0.40549986  0.08728097  0.91207430  1
  Ca2+  Ca56  1  0.55281936  0.60888779  0.09271872  1
  Ca2+  Ca57  1  0.57998185  0.58890111  0.40480445  1
  Ca2+  Ca58  1  0.10069992  0.58466372  0.58108460  1
  Ca2+  Ca59  1  0.08634314  0.09136873  0.25613397  1
  Ca2+  Ca60  1  0.94158173  0.57551237  0.41116281  1
  Ca2+  Ca61  1  0.56081663  0.61113567  0.75370809  1
  Ca2+  Ca62  1  0.59206530  0.08751118  0.07966008  1
  Ca2+  Ca63  1  0.92829853  0.10332988  0.76328610  1
  Ca2+  Ca64  1  0.92107429  0.08190718  0.41375881  1
  Ca2+  Ca65  1  0.75160099  0.09160092  0.23412688  1
  Ca2+  Ca66  1  0.10213337  0.10433162  0.57752756  1
  Ca2+  Ca67  1  0.76439853  0.60790476  0.90837863  1
  Ca2+  Ca68  1  0.42163205  0.08413023  0.27419987  1
  Ca2+  Ca69  1  0.92919816  0.57718521  0.41053731  1
  Ca2+  Ca70  1  0.76267498  0.09117763  0.23074683  1
  Ca2+  Ca71  1  0.26793934  0.60566796  0.74541136  1
  Ca2+  Ca72  1  0.09165035  0.91026564  0.25632148  1
  Ca2+  Ca73  1  0.92126728  0.40850743  0.73936996  1
  Ca2+  Ca74  1  0.40105808  0.40472923  0.57967105  1
  Ca2+  Ca75  1  0.56984969  0.40467131  0.08016489  1
  Ca2+  Ca76  1  0.57683010  0.40132169  0.74722646  1
  Ca2+  Ca77  1  0.74502585  0.40452166  0.91538033  1
  Ca2+  Ca78  1  0.57351105  0.40511841  0.41658464  1
  Ca2+  Ca79  1  0.91129905  0.89693463  0.75121421  1
  Ca2+  Ca80  1  0.57699814  0.90839119  0.74587083  1
  Ca2+  Ca81  1  0.24867070  0.39859754  0.08330600  1
  Ca2+  Ca82  1  0.75344605  0.91273197  0.24056675  1
  Ca2+  Ca83  1  0.24980714  0.40638907  0.72837791  1
  Ca2+  Ca84  1  0.07896218  0.40728815  0.26737287  1
  Ca2+  Ca85  1  0.41959759  0.40215162  0.25267207  1
  Ca2+  Ca86  1  0.56604087  0.91865526  0.41714344  1
  Ca2+  Ca87  1  0.73330388  0.91547282  0.57904156  1
  Ca2+  Ca88  1  0.93151282  0.90846435  0.41740675  1
  Ca2+  Ca89  1  0.74495641  0.91121877  0.24677056  1
  Ca2+  Ca90  1  0.40722075  0.90318750  0.92046505  1
  Ca2+  Ca91  1  0.41910796  0.39981672  0.92119447  1
  Ca2+  Ca92  1  0.10204630  0.90133238  0.92445616  1
  Ca2+  Ca93  1  0.74589396  0.91420896  0.58177952  1
  Ca2+  Ca94  1  0.74661139  0.40795223  0.25766453  1
  Ca2+  Ca95  1  0.08447932  0.39694324  0.91914542  1
  Ca2+  Ca96  1  0.75270024  0.41083019  0.57760219  1
  Ca2+  Ca97  1  0.92144729  0.91076338  0.41512669  1
  Ca2+  Ca98  1  0.92737041  0.40386139  0.08398773  1
  Ca2+  Ca99  1  0.76534002  0.41034671  0.57726566  1
  Ca2+  Ca100  1  0.22583625  0.41527244  0.43619650  1
  Ca2+  Ca101  1  0.75946311  0.40742248  0.25786802  1
  Ca2+  Ca102  1  0.25741256  0.90148984  0.75825928  1
  Ca2+  Ca103  1  0.74502996  0.90357330  0.92276850  1
  Ca2+  Ca104  1  0.75793014  0.40468140  0.91523488  1
  Ca2+  Ca105  1  0.58189682  0.90208169  0.08385763  1
  Ca2+  Ca106  1  0.94002291  0.41460437  0.42408281  1
  Ca2+  Ca107  1  0.42674562  0.90588431  0.57999461  1
  Mn3.34+  Mn108  1  0.08314204  0.33056394  0.08672473  1
  Mn3.34+  Mn109  1  0.08480123  0.33389088  0.41784998  1
  Mn3.34+  Mn110  1  0.08523571  0.33166850  0.74894419  1
  Mn3.34+  Mn111  1  0.08805303  0.83774522  0.08741731  1
  Mn3.34+  Mn112  1  0.09127053  0.83998800  0.42002564  1
  Mn3.34+  Mn113  1  0.08690436  0.83261395  0.74950462  1
  Mn3.34+  Mn114  1  0.41310122  0.32780242  0.08530503  1
  Mn3.34+  Mn115  1  0.41145289  0.33102762  0.41825087  1
  Mn3.34+  Mn116  1  0.41253427  0.32777514  0.74953713  1
  Mn3.34+  Mn117  1  0.41305755  0.83384661  0.08384590  1
  Mn3.34+  Mn118  1  0.41130935  0.84349213  0.41537631  1
  Mn3.34+  Mn119  1  0.41668641  0.83206928  0.75288254  1
  Mn3.34+  Mn120  1  0.75155883  0.33098272  0.08497922  1
  Mn3.34+  Mn121  1  0.75063545  0.33126488  0.41786378  1
  Mn3.34+  Mn122  1  0.74973896  0.33389295  0.74887754  1
  Mn3.34+  Mn123  1  0.75047512  0.83803350  0.08349693  1
  Mn3.34+  Mn124  1  0.74844266  0.83876815  0.41877109  1
  Mn3.34+  Mn125  1  0.74553199  0.82949589  0.75239595  1
  Mn3.34+  Mn126  1  0.25168088  0.32578546  0.25087446  1
  Mn3.34+  Mn127  1  0.24795153  0.33391269  0.58093304  1
  Mn3.34+  Mn128  1  0.24879304  0.32591816  0.91207674  1
  Mn3.34+  Mn129  1  0.25539686  0.83971186  0.24789464  1
  Mn3.34+  Mn130  1  0.25200534  0.83240749  0.58263346  1
  Mn3.34+  Mn131  1  0.25045559  0.83636639  0.91778417  1
  Mn3.34+  Mn132  1  0.58069191  0.33205848  0.24845724  1
  Mn3.34+  Mn133  1  0.57867152  0.33044590  0.58110747  1
  Mn3.34+  Mn134  1  0.58150695  0.33132908  0.91467351  1
  Mn3.34+  Mn135  1  0.57736776  0.83457441  0.24981472  1
  Mn3.34+  Mn136  1  0.57972739  0.83377341  0.57872592  1
  Mn3.34+  Mn137  1  0.58305425  0.82963016  0.91634577  1
  Mn3.34+  Mn138  1  0.91748117  0.32899235  0.24909492  1
  Mn3.34+  Mn139  1  0.92314491  0.33682810  0.58225027  1
  Mn3.34+  Mn140  1  0.91892395  0.33174412  0.91487942  1
  Mn3.34+  Mn141  1  0.91826464  0.83040665  0.24147204  1
  Mn3.34+  Mn142  1  0.92061209  0.83315597  0.58472121  1
  Mn3.34+  Mn143  1  0.92062490  0.82929178  0.92019500  1
  Mn3.34+  Mn144  1  0.25180849  0.16794600  0.24755925  1
  Mn3.34+  Mn145  1  0.24429016  0.16459796  0.90636438  1
  Mn3.34+  Mn146  1  0.73916703  0.15681633  0.42002229  1
  Mn3.34+  Mn147  1  0.24225475  0.67253789  0.25039983  1
  Mn3.34+  Mn148  1  0.74747614  0.67119657  0.08278312  1
  Mn3.34+  Mn149  1  0.25557621  0.66613150  0.24885053  1
  Mn3.34+  Mn150  1  0.41376322  0.17008926  0.08694278  1
  Mn3.34+  Mn151  1  0.41144859  0.67009960  0.42484344  1
  Mn3.34+  Mn152  1  0.58632667  0.66400474  0.58613746  1
  Mn3.34+  Mn153  1  0.73901664  0.15822294  0.74895030  1
  Mn3.34+  Mn154  1  0.74122459  0.66381728  0.41689239  1
  Mn3.34+  Mn155  1  0.08081669  0.16725953  0.08388420  1
  Mn3.34+  Mn156  1  0.08644705  0.66825730  0.75257246  1
  Mn3.34+  Mn157  1  0.91857493  0.66908176  0.24637542  1
  Mn3.34+  Mn158  1  0.75155685  0.16420313  0.41889102  1
  Mn3.34+  Mn159  1  0.75267041  0.16472403  0.74862645  1
  Mn3.34+  Mn160  1  0.58091810  0.16701369  0.24816255  1
  Mn3.34+  Mn161  1  0.08509021  0.66810912  0.42015789  1
  Mn3.34+  Mn162  1  0.91767020  0.16845817  0.58467962  1
  Mn3.34+  Mn163  1  0.90954877  0.65795048  0.58506872  1
  Mn3.34+  Mn164  1  0.25051806  0.66228041  0.58551217  1
  Mn3.34+  Mn165  1  0.41911764  0.16136954  0.42336328  1
  Mn3.34+  Mn166  1  0.08550184  0.66699131  0.08451754  1
  Mn3.34+  Mn167  1  0.58171528  0.66596602  0.91510102  1
  Mn3.34+  Mn168  1  0.08561498  0.16777154  0.41615047  1
  Mn3.34+  Mn169  1  0.57837424  0.16791191  0.91274183  1
  Mn3.34+  Mn170  1  0.91943055  0.17183353  0.24836817  1
  Mn3.34+  Mn171  1  0.08531526  0.16989000  0.75443332  1
  Mn3.34+  Mn172  1  0.41435157  0.16014957  0.74524929  1
  Mn3.34+  Mn173  1  0.25414183  0.67047324  0.91402852  1
  Mn3.34+  Mn174  1  0.42188379  0.66559276  0.42496162  1
  Mn3.34+  Mn175  1  0.92134555  0.66411527  0.58545992  1
  Mn3.34+  Mn176  1  0.74437203  0.67614720  0.75092901  1
  Mn3.34+  Mn177  1  0.74836099  0.68229225  0.08731076  1
  Mn3.34+  Mn178  1  0.75238288  0.67016912  0.41512638  1
  Mn3.34+  Mn179  1  0.57093858  0.15984361  0.58361037  1
  Mn3.34+  Mn180  1  0.24407988  0.50166067  0.25069455  1
  Mn3.34+  Mn181  1  0.57602696  0.50339730  0.91859470  1
  Mn3.34+  Mn182  1  0.09542257  0.00511810  0.75713994  1
  Mn3.34+  Mn183  1  0.75561329  0.50520585  0.08530432  1
  Mn3.34+  Mn184  1  0.08496045  0.00019478  0.75760018  1
  Mn3.34+  Mn185  1  0.42098161  0.50545627  0.75020114  1
  Mn3.34+  Mn186  1  0.25533891  0.49734552  0.24907663  1
  Mn3.34+  Mn187  1  0.92117248  -0.00439359  0.92524280  1
  Mn3.34+  Mn188  1  0.08279734  0.49871066  0.08479578  1
  Mn3.34+  Mn189  1  0.25083939  -0.00645310  0.57653152  1
  Mn3.34+  Mn190  1  0.41220461  -0.00351805  0.08369207  1
  Mn3.34+  Mn191  1  0.24740296  -0.00197141  0.26562316  1
  Mn3.34+  Mn192  1  0.41733517  0.50036698  0.42070113  1
  Mn3.34+  Mn193  1  0.74287869  0.50337933  0.74419391  1
  Mn3.34+  Mn194  1  0.58357217  -0.00083677  0.26297180  1
  Mn3.34+  Mn195  1  0.92051892  -0.00209752  0.25133014  1
  Mn3.34+  Mn196  1  0.58129189  0.50064828  0.25279774  1
  Mn3.34+  Mn197  1  0.92054198  0.00069145  0.59039672  1
  Mn3.34+  Mn198  1  0.25858511  0.50403448  0.91341441  1
  Mn3.34+  Mn199  1  0.75675849  0.50954470  0.74191037  1
  Mn3.34+  Mn200  1  0.09274789  0.50324018  0.74468677  1
  Mn3.34+  Mn201  1  0.42856941  -0.00050909  0.73301076  1
  Mn3.34+  Mn202  1  0.08734384  -0.00071795  0.07870870  1
  Mn3.34+  Mn203  1  0.26240175  0.00059396  0.57673075  1
  Mn3.34+  Mn204  1  0.40702337  0.50121984  0.75591556  1
  Mn3.34+  Mn205  1  0.92309269  -0.00066927  0.91377127  1
  Mn3.34+  Mn206  1  0.41722108  0.49844359  0.08389682  1
  Mn3.34+  Mn207  1  0.58313296  0.00165101  0.91605057  1
  Mn3.34+  Mn208  1  0.91406901  0.50362655  0.24758529  1
  Mn3.34+  Mn209  1  0.74033378  -0.00145778  0.74343889  1
  Mn3.34+  Mn210  1  0.57667277  0.50172012  0.58157814  1
  Mn3.34+  Mn211  1  0.24431058  0.49771609  0.91369713  1
  Mn3.34+  Mn212  1  0.08014479  0.49778059  0.74021185  1
  Mn3.34+  Mn213  1  0.92147114  0.50027660  0.91657171  1
  Mn3.34+  Mn214  1  0.74473524  0.50176721  0.41510106  1
  Mn3.34+  Mn215  1  0.74103642  0.49937593  0.08646670  1
  O2-  O216  1  -0.00146498  0.16301262  0.01179060  1
  O2-  O217  1  -0.00393602  0.15823317  0.33625119  1
  O2-  O218  1  0.00300688  0.15377803  0.66348052  1
  O2-  O219  1  0.00427362  0.67164097  0.00841205  1
  O2-  O220  1  -0.00051511  0.65303227  0.33751325  1
  O2-  O221  1  0.00256360  0.65164452  0.66868599  1
  O2-  O222  1  0.33249483  0.17410773  0.00134611  1
  O2-  O223  1  0.33837440  0.16833588  0.32685703  1
  O2-  O224  1  0.33909387  0.18334236  0.67455807  1
  O2-  O225  1  0.32901897  0.67017652  -0.00524109  1
  O2-  O226  1  0.33133813  0.65051187  0.33597748  1
  O2-  O227  1  0.32753757  0.66784506  0.66189356  1
  O2-  O228  1  0.65878389  0.15489748  -0.00371184  1
  O2-  O229  1  0.67280828  0.15126948  0.32226386  1
  O2-  O230  1  0.66750814  0.15913928  0.66238267  1
  O2-  O231  1  0.67303995  0.67200364  -0.00535402  1
  O2-  O232  1  0.66156041  0.66361673  0.33903806  1
  O2-  O233  1  0.66460326  0.69027421  0.66847351  1
  O2-  O234  1  0.17249964  0.16334234  0.00347738  1
  O2-  O235  1  0.16674825  0.16192620  0.32978589  1
  O2-  O236  1  0.15798046  0.16452324  0.66494195  1
  O2-  O237  1  0.16463239  0.66375150  -0.00053024  1
  O2-  O238  1  0.16552245  0.65129489  0.33214722  1
  O2-  O239  1  0.16381358  0.65837343  0.66490376  1
  O2-  O240  1  0.49532579  0.15561684  0.00084699  1
  O2-  O241  1  0.49378337  0.16555699  0.32697765  1
  O2-  O242  1  0.49895156  0.17997993  0.67054549  1
  O2-  O243  1  0.51350310  0.67729583  -0.00191735  1
  O2-  O244  1  0.49830422  0.65930471  0.34348926  1
  O2-  O245  1  0.50917311  0.67656070  0.66231051  1
  O2-  O246  1  0.82771536  0.15846247  0.00196290  1
  O2-  O247  1  0.83530103  0.15659160  0.33418098  1
  O2-  O248  1  0.83221950  0.14920753  0.66479758  1
  O2-  O249  1  0.83209495  0.66948182  0.00603034  1
  O2-  O250  1  0.83931571  0.65164625  0.33867427  1
  O2-  O251  1  0.83218138  0.66807040  0.67060647  1
  O2-  O252  1  -0.00026002  0.34323615  0.00061505  1
  O2-  O253  1  -0.00225214  0.33116128  0.33289911  1
  O2-  O254  1  -0.00443454  0.33954160  0.67264535  1
  O2-  O255  1  0.00760583  0.82913917  -0.00142242  1
  O2-  O256  1  -0.00344712  0.84178248  0.33090956  1
  O2-  O257  1  -0.00564337  0.83705306  0.67346076  1
  O2-  O258  1  0.33242879  0.32073602  -0.00106138  1
  O2-  O259  1  0.33652285  0.31588889  0.33038248  1
  O2-  O260  1  0.33311315  0.33440789  0.66520390  1
  O2-  O261  1  0.33706481  0.83476427  -0.00505270  1
  O2-  O262  1  0.33231558  0.83598154  0.33443202  1
  O2-  O263  1  0.33746034  0.84251334  0.66814089  1
  O2-  O264  1  0.66821625  0.34901315  0.00207521  1
  O2-  O265  1  0.66683697  0.34769661  0.33306591  1
  O2-  O266  1  0.66846418  0.34928343  0.66253607  1
  O2-  O267  1  0.66837406  0.82432384  0.00054398  1
  O2-  O268  1  0.67221556  0.84739535  0.32909036  1
  O2-  O269  1  0.66460168  0.82786255  0.66404359  1
  O2-  O270  1  0.17011999  0.33846192  0.00186687  1
  O2-  O271  1  0.16657524  0.33153625  0.33043043  1
  O2-  O272  1  0.16859914  0.33781604  0.66918005  1
  O2-  O273  1  0.16496801  0.82803246  -0.00029861  1
  O2-  O274  1  0.16239286  0.83865507  0.32947618  1
  O2-  O275  1  0.17329913  0.83534327  0.67326317  1
  O2-  O276  1  0.49625923  0.33516579  0.00049739  1
  O2-  O277  1  0.49710183  0.33411742  0.33473766  1
  O2-  O278  1  0.49963529  0.33478017  0.66879505  1
  O2-  O279  1  0.50275905  0.83352485  -0.00058828  1
  O2-  O280  1  0.50656531  0.84213963  0.34048945  1
  O2-  O281  1  0.50219368  0.83740795  0.66738972  1
  O2-  O282  1  0.83285358  0.34569930  -0.00001893  1
  O2-  O283  1  0.83155199  0.33625334  0.33096656  1
  O2-  O284  1  0.83058689  0.34591153  0.66342923  1
  O2-  O285  1  0.82936051  0.82785890  -0.00150148  1
  O2-  O286  1  0.83400223  0.85164285  0.33593743  1
  O2-  O287  1  0.82333822  0.84127184  0.66125656  1
  O2-  O288  1  0.00476787  0.17905495  0.17223071  1
  O2-  O289  1  0.00076253  0.17389906  0.49895301  1
  O2-  O290  1  -0.00380551  0.17957472  0.82149982  1
  O2-  O291  1  0.00351182  0.68377853  0.16760495  1
  O2-  O292  1  -0.00635392  0.67628982  0.49496391  1
  O2-  O293  1  0.00496577  0.67312639  0.82931363  1
  O2-  O294  1  0.33370965  0.18674632  0.16748670  1
  O2-  O295  1  0.33483678  0.18127686  0.48480258  1
  O2-  O296  1  0.33685807  0.17989074  0.83888755  1
  O2-  O297  1  0.33233503  0.67453236  0.16847036  1
  O2-  O298  1  0.32585840  0.67394080  0.49505209  1
  O2-  O299  1  0.32540611  0.67510241  0.83207573  1
  O2-  O300  1  0.66160339  0.16524070  0.16697539  1
  O2-  O301  1  0.66620139  0.17081652  0.50520529  1
  O2-  O302  1  0.66729714  0.17427647  0.83838321  1
  O2-  O303  1  0.66268893  0.68489032  0.15917830  1
  O2-  O304  1  0.66769110  0.68536237  0.50240871  1
  O2-  O305  1  0.66746079  0.68806789  0.83782700  1
  O2-  O306  1  0.17180234  0.17657809  0.16594812  1
  O2-  O307  1  0.16301466  0.17128199  0.49471957  1
  O2-  O308  1  0.16450005  0.18975360  0.83532206  1
  O2-  O309  1  0.16802525  0.68103786  0.16369138  1
  O2-  O310  1  0.16439128  0.67474200  0.49905168  1
  O2-  O311  1  0.16456464  0.67428596  0.83237102  1
  O2-  O312  1  0.50241979  0.17764957  0.16148427  1
  O2-  O313  1  0.49840051  0.18497683  0.49599634  1
  O2-  O314  1  0.49307777  0.18049773  0.83724716  1
  O2-  O315  1  0.49650326  0.67862002  0.17078089  1
  O2-  O316  1  0.50606881  0.68471649  0.50175493  1
  O2-  O317  1  0.50843113  0.68228937  0.83966885  1
  O2-  O318  1  0.83300147  0.17718272  0.17637244  1
  O2-  O319  1  0.83663364  0.17536580  0.49766578  1
  O2-  O320  1  0.82671067  0.17214381  0.83277626  1
  O2-  O321  1  0.83215248  0.68414341  0.16497122  1
  O2-  O322  1  0.83162053  0.67455283  0.49732243  1
  O2-  O323  1  0.82803900  0.68066013  0.82635546  1
  O2-  O324  1  -0.00056800  0.32197714  0.16888461  1
  O2-  O325  1  -0.00078686  0.32775324  0.49738032  1
  O2-  O326  1  0.00047476  0.32926213  0.83380290  1
  O2-  O327  1  0.00176997  0.81633994  0.16515818  1
  O2-  O328  1  -0.00690149  0.82958688  0.49082052  1
  O2-  O329  1  0.00206009  0.83132368  0.83430107  1
  O2-  O330  1  0.33167872  0.31071607  0.16608610  1
  O2-  O331  1  0.33366638  0.31968918  0.50023543  1
  O2-  O332  1  0.33457150  0.31173342  0.83391335  1
  O2-  O333  1  0.33286545  0.82444833  0.16664301  1
  O2-  O334  1  0.33941297  0.82368739  0.50536229  1
  O2-  O335  1  0.33255491  0.83043630  0.83258025  1
  O2-  O336  1  0.66981424  0.33120053  0.16857115  1
  O2-  O337  1  0.66857699  0.33100501  0.50150434  1
  O2-  O338  1  0.66892217  0.33152327  0.83469983  1
  O2-  O339  1  0.66888279  0.82296423  0.16733093  1
  O2-  O340  1  0.66946604  0.81879347  0.50262924  1
  O2-  O341  1  0.66727507  0.81231765  0.83523712  1
  O2-  O342  1  0.16853497  0.31913536  0.16913666  1
  O2-  O343  1  0.16822820  0.32914717  0.49580226  1
  O2-  O344  1  0.16324721  0.32457854  0.83535152  1
  O2-  O345  1  0.16354696  0.81843775  0.16945792  1
  O2-  O346  1  0.16514149  0.82467864  0.50356847  1
  O2-  O347  1  0.16563143  0.82489637  0.83420018  1
  O2-  O348  1  0.49920048  0.31962512  0.16371950  1
  O2-  O349  1  0.49944642  0.31967225  0.49570663  1
  O2-  O350  1  0.49866621  0.31985119  0.82918090  1
  O2-  O351  1  0.50341605  0.83185010  0.16274314  1
  O2-  O352  1  0.50178174  0.81944226  0.50209074  1
  O2-  O353  1  0.50087530  0.82646199  0.83408219  1
  O2-  O354  1  0.83091469  0.32165648  0.17101506  1
  O2-  O355  1  0.83094792  0.32291431  0.50209553  1
  O2-  O356  1  0.83067120  0.32886431  0.83586575  1
  O2-  O357  1  0.82516896  0.82115543  0.17177960  1
  O2-  O358  1  0.83385838  0.83041788  0.49771699  1
  O2-  O359  1  0.83434762  0.82409477  0.82824436  1
  O2-  O360  1  0.09749417  0.08075265  0.11417022  1
  O2-  O361  1  0.07207674  0.08280698  0.44285464  1
  O2-  O362  1  0.08291907  0.08649908  0.77623246  1
  O2-  O363  1  0.07791076  0.57927451  0.11262711  1
  O2-  O364  1  0.07543350  0.58253460  0.44372875  1
  O2-  O365  1  0.07980604  0.58130509  0.77701566  1
  O2-  O366  1  0.40926061  0.07614970  0.12698077  1
  O2-  O367  1  0.40421726  0.08418869  0.41652826  1
  O2-  O368  1  0.41793681  0.07326409  0.78056960  1
  O2-  O369  1  0.41533494  0.57623028  0.10817372  1
  O2-  O370  1  0.42106410  0.58217999  0.44271918  1
  O2-  O371  1  0.42301730  0.58498076  0.76288871  1
  O2-  O372  1  0.73274479  0.07056416  0.10860407  1
  O2-  O373  1  0.77033927  0.07676083  0.44166858  1
  O2-  O374  1  0.75363465  0.07652427  0.78438176  1
  O2-  O375  1  0.74828996  0.58641721  0.09703552  1
  O2-  O376  1  0.74802276  0.58243181  0.44116920  1
  O2-  O377  1  0.74343482  0.58781921  0.77256911  1
  O2-  O378  1  0.25995083  0.07226487  0.21055937  1
  O2-  O379  1  0.23523498  0.07930362  0.55131580  1
  O2-  O380  1  0.26723044  0.08557024  0.91485703  1
  O2-  O381  1  0.24241081  0.58220300  0.21540156  1
  O2-  O382  1  0.24053204  0.58252756  0.56461896  1
  O2-  O383  1  0.23940143  0.58401973  0.89712501  1
  O2-  O384  1  0.57138041  0.07839859  0.22099679  1
  O2-  O385  1  0.58343850  0.08312900  0.57064948  1
  O2-  O386  1  0.56567858  0.08371233  0.89328027  1
  O2-  O387  1  0.57356392  0.57582183  0.22380658  1
  O2-  O388  1  0.58434524  0.58051177  0.55042803  1
  O2-  O389  1  0.59948424  0.58392582  0.89074476  1
  O2-  O390  1  0.90813319  0.07877081  0.22091276  1
  O2-  O391  1  0.92657815  0.07984091  0.54966686  1
  O2-  O392  1  0.90568004  0.07995800  0.89367247  1
  O2-  O393  1  0.92506132  0.58472505  0.21934722  1
  O2-  O394  1  0.92447579  0.57803330  0.54881265  1
  O2-  O395  1  0.91418849  0.58008959  0.90184787  1
  O2-  O396  1  0.08563003  0.41645912  0.11287805  1
  O2-  O397  1  0.08320583  0.41456715  0.41443268  1
  O2-  O398  1  0.08243095  0.41849468  0.77307171  1
  O2-  O399  1  0.08071432  0.92201029  0.10879875  1
  O2-  O400  1  0.06691854  0.91949233  0.42169578  1
  O2-  O401  1  0.08992553  0.91784844  0.77438421  1
  O2-  O402  1  0.40893359  0.41712915  0.11182483  1
  O2-  O403  1  0.41693884  0.41937730  0.44020669  1
  O2-  O404  1  0.41584153  0.41956573  0.77863552  1
  O2-  O405  1  0.43133600  0.91853027  0.07966858  1
  O2-  O406  1  0.42919251  0.91990185  0.44485022  1
  O2-  O407  1  0.42053250  0.92362486  0.77899645  1
  O2-  O408  1  0.75681966  0.41867791  0.11552395  1
  O2-  O409  1  0.75112661  0.42047917  0.44210654  1
  O2-  O410  1  0.74985764  0.42455542  0.78382691  1
  O2-  O411  1  0.73494826  0.92061188  0.10655709  1
  O2-  O412  1  0.75107334  0.92315482  0.44507532  1
  O2-  O413  1  0.74223318  0.91918738  0.77514826  1
  O2-  O414  1  0.25924605  0.41517178  0.22457046  1
  O2-  O415  1  0.26325828  0.41550578  0.56509615  1
  O2-  O416  1  0.26202900  0.41675121  0.89261782  1
  O2-  O417  1  0.23578081  0.92368560  0.22943930  1
  O2-  O418  1  0.26187193  0.91428624  0.56783587  1
  O2-  O419  1  0.24539592  0.91708783  0.89733133  1
  O2-  O420  1  0.58069443  0.41951241  0.22112448  1
  O2-  O421  1  0.57822009  0.41921542  0.55695802  1
  O2-  O422  1  0.58193935  0.41918973  0.88975647  1
  O2-  O423  1  0.59871268  0.92115349  0.22764348  1
  O2-  O424  1  0.59639327  0.91566819  0.55629001  1
  O2-  O425  1  0.59547266  0.92062952  0.89696540  1
  O2-  O426  1  0.89957804  0.42089099  0.22530473  1
  O2-  O427  1  0.90115145  0.41824642  0.55551497  1
  O2-  O428  1  0.90384786  0.41925580  0.89099772  1
  O2-  O429  1  0.90975892  0.91688054  0.23297709  1
  O2-  O430  1  0.90239166  0.92113448  0.55687022  1
  O2-  O431  1  0.90967768  0.91404785  0.89952907  1
  O2-  O432  1  -0.00336246  0.01018539  0.01017828  1
  O2-  O433  1  -0.00962187  0.00723386  0.34149851  1
  O2-  O434  1  -0.00274948  0.00746750  0.67873833  1
  O2-  O435  1  -0.00590003  0.49884089  0.00829475  1
  O2-  O436  1  -0.00390309  0.50521720  0.33054750  1
  O2-  O437  1  -0.01558030  0.50401157  0.68634713  1
  O2-  O438  1  0.33971631  0.01775872  0.00349972  1
  O2-  O439  1  0.32976354  0.01307606  0.32849439  1
  O2-  O440  1  0.33542739  -0.00487504  0.66848274  1
  O2-  O441  1  0.33061313  0.49768271  0.00406001  1
  O2-  O442  1  0.33530473  0.50045371  0.33520687  1
  O2-  O443  1  0.33225191  0.48994229  0.67519943  1
  O2-  O444  1  0.66511490  0.01920479  -0.01325450  1
  O2-  O445  1  0.69366207  0.00527969  0.28957950  1
  O2-  O446  1  0.67614292  -0.00932885  0.65181273  1
  O2-  O447  1  0.67279333  0.48891761  -0.00837665  1
  O2-  O448  1  0.67449449  0.48603313  0.32176660  1
  O2-  O449  1  0.66778457  0.48937628  0.65635572  1
  O2-  O450  1  0.17555791  0.00498032  0.01750983  1
  O2-  O451  1  0.15673725  0.01268259  0.31509626  1
  O2-  O452  1  0.16445835  0.00483680  0.66118494  1
  O2-  O453  1  0.16506752  0.49553862  -0.00108037  1
  O2-  O454  1  0.16489397  0.50497066  0.33322426  1
  O2-  O455  1  0.17632806  0.50496195  0.67155006  1
  O2-  O456  1  0.50285540  0.01679401  0.00684499  1
  O2-  O457  1  0.49248388  0.00463463  0.32227768  1
  O2-  O458  1  0.50706385  -0.01818217  0.66833491  1
  O2-  O459  1  0.50626632  0.48939414  0.01190363  1
  O2-  O460  1  0.50855726  0.49693445  0.34391892  1
  O2-  O461  1  0.50771440  0.50078748  0.68107431  1
  O2-  O462  1  0.81890478  0.00483522  -0.01940522  1
  O2-  O463  1  0.83971813  0.00209844  0.32479607  1
  O2-  O464  1  0.82859576  -0.00306168  0.66094839  1
  O2-  O465  1  0.82888420  0.49189437  -0.00481804  1
  O2-  O466  1  0.84058087  0.49812751  0.34569635  1
  O2-  O467  1  0.82921426  0.48441922  0.66196614  1
  O2-  O468  1  0.57932936  0.75615655  0.26332505  1
  O2-  O469  1  0.91426425  0.75033800  0.27437932  1
  O2-  O470  1  0.74534101  0.25286548  0.07164356  1
  O2-  O471  1  0.92085381  0.75174667  0.92002364  1
  O2-  O472  1  0.75874336  0.75324364  0.39709320  1
  O2-  O473  1  0.07769421  0.25137813  0.72943534  1
  O2-  O474  1  0.59373589  0.24872570  0.26374205  1
  O2-  O475  1  0.24108181  0.25297310  0.58712988  1
  O2-  O476  1  0.41314944  0.75134339  0.39935140  1
  O2-  O477  1  0.41433407  0.75489876  0.08068373  1
  O2-  O478  1  0.59756221  0.25067168  0.59385477  1
  O2-  O479  1  0.24731867  0.75211420  0.92200444  1
  O2-  O480  1  0.41231343  0.75386010  0.74301560  1
  O2-  O481  1  0.08186713  0.75052687  0.40137318  1
  O2-  O482  1  0.91248403  0.25104892  0.59754648  1
  O2-  O483  1  0.74443923  0.24809777  0.73167287  1
  O2-  O484  1  0.07871821  0.74981993  0.73543816  1
  O2-  O485  1  0.58932051  0.24894508  0.93632197  1
  O2-  O486  1  0.08062091  0.24938312  0.40611881  1
  O2-  O487  1  0.91333635  0.25316077  0.92677203  1
  O2-  O488  1  0.24891141  0.75062359  0.59109613  1
  O2-  O489  1  0.73692120  0.24500458  0.40367131  1
  O2-  O490  1  0.08596568  0.24962547  0.06698262  1
  O2-  O491  1  0.91125188  0.74661006  0.59082844  1
  O2-  O492  1  0.25137521  0.75335442  0.27160388  1
