# generated using pymatgen
data_Ca108Mn108O277
_symmetry_space_group_name_H-M   'P 1'
_cell_length_a   16.03444787
_cell_length_b   22.31685469
_cell_length_c   16.39370691
_cell_angle_alpha   89.99865725
_cell_angle_beta   90.00658546
_cell_angle_gamma   90.00258882
_symmetry_Int_Tables_number   1
_chemical_formula_structural   Ca108Mn108O277
_chemical_formula_sum   'Ca108 Mn108 O277'
_cell_volume   5866.29851193
_cell_formula_units_Z   1
loop_
 _symmetry_equiv_pos_site_id
 _symmetry_equiv_pos_as_xyz
  1  'x, y, z'
loop_
 _atom_type_symbol
 _atom_type_oxidation_number
  Ca2+  2.0
  Mn3.34+  3.34
  O2-  -2.0
loop_
 _atom_site_type_symbol
 _atom_site_label
 _atom_site_symmetry_multiplicity
 _atom_site_fract_x
 _atom_site_fract_y
 _atom_site_fract_z
 _atom_site_occupancy
  Ca2+  Ca0  1  0.08362720  0.25396285  0.26185482  1
  Ca2+  Ca1  1  0.09571085  0.24091903  0.58279157  1
  Ca2+  Ca2  1  0.07814463  0.26824772  0.91430585  1
  Ca2+  Ca3  1  0.10009740  0.74988487  0.24818508  1
  Ca2+  Ca4  1  0.09341629  0.76552651  0.59094671  1
  Ca2+  Ca5  1  0.06132271  0.74224777  0.90761209  1
  Ca2+  Ca6  1  0.42722993  0.25955588  0.25545781  1
  Ca2+  Ca7  1  0.39332307  0.24460677  0.57879246  1
  Ca2+  Ca8  1  0.41139155  0.26734623  0.91807687  1
  Ca2+  Ca9  1  0.41434137  0.74684357  0.25520366  1
  Ca2+  Ca10  1  0.41099401  0.74446758  0.57571199  1
  Ca2+  Ca11  1  0.41307565  0.74395050  0.92458474  1
  Ca2+  Ca12  1  0.74069463  0.25173043  0.25330876  1
  Ca2+  Ca13  1  0.76756115  0.24563484  0.55906791  1
  Ca2+  Ca14  1  0.75659191  0.26157326  0.92067143  1
  Ca2+  Ca15  1  0.73553242  0.72315577  0.25176833  1
  Ca2+  Ca16  1  0.74392333  0.75109266  0.59257292  1
  Ca2+  Ca17  1  0.76276273  0.73817010  0.91326002  1
  Ca2+  Ca18  1  0.24653008  0.26822339  0.08687075  1
  Ca2+  Ca19  1  0.24705027  0.23705207  0.43920982  1
  Ca2+  Ca20  1  0.24750467  0.25091525  0.73427386  1
  Ca2+  Ca21  1  0.27291055  0.74129116  0.10607367  1
  Ca2+  Ca22  1  0.26821224  0.75939236  0.40708415  1
  Ca2+  Ca23  1  0.25159828  0.75732765  0.74997600  1
  Ca2+  Ca24  1  0.59741807  0.25992988  0.09094175  1
  Ca2+  Ca25  1  0.60351744  0.25067733  0.40307351  1
  Ca2+  Ca26  1  0.58490165  0.25691980  0.75468676  1
  Ca2+  Ca27  1  0.57080613  0.73087176  0.09518615  1
  Ca2+  Ca28  1  0.56489341  0.73990040  0.39970783  1
  Ca2+  Ca29  1  0.59492232  0.75248306  0.75252567  1
  Ca2+  Ca30  1  0.91146990  0.27600726  0.08236877  1
  Ca2+  Ca31  1  0.90982732  0.24263245  0.42928373  1
  Ca2+  Ca32  1  0.91642917  0.25058903  0.73468345  1
  Ca2+  Ca33  1  0.90011343  0.74496188  0.07382425  1
  Ca2+  Ca34  1  0.90481108  0.74519077  0.40145150  1
  Ca2+  Ca35  1  0.90472022  0.75029987  0.77088554  1
  Ca2+  Ca36  1  0.09323187  0.07341190  0.89422578  1
  Ca2+  Ca37  1  0.09137755  0.08568984  0.28304944  1
  Ca2+  Ca38  1  0.58071783  0.08180976  0.39185036  1
  Ca2+  Ca39  1  0.25142371  0.59699301  0.75747336  1
  Ca2+  Ca40  1  0.42509507  0.59509922  0.93819877  1
  Ca2+  Ca41  1  0.77009799  0.08838846  0.59156682  1
  Ca2+  Ca42  1  0.09786394  0.58904022  0.59327037  1
  Ca2+  Ca43  1  0.89642355  0.08597243  0.07664572  1
  Ca2+  Ca44  1  0.61604578  0.07628690  0.74893449  1
  Ca2+  Ca45  1  0.73207779  0.08623290  0.92104744  1
  Ca2+  Ca46  1  0.90327509  0.60839083  0.77384080  1
  Ca2+  Ca47  1  0.09735404  0.08866418  0.58800269  1
  Ca2+  Ca48  1  0.75845939  0.60219804  0.91144219  1
  Ca2+  Ca49  1  0.10920814  0.58571137  0.59026480  1
  Ca2+  Ca50  1  0.41604044  0.07016374  0.93189219  1
  Ca2+  Ca51  1  0.90368687  0.59612994  0.37728253  1
  Ca2+  Ca52  1  0.91109868  0.09095366  0.42717702  1
  Ca2+  Ca53  1  0.35300503  0.08587184  0.56243584  1
  Ca2+  Ca54  1  0.27165760  0.61024141  0.41802165  1
  Ca2+  Ca55  1  0.08082013  0.60228622  0.25433708  1
  Ca2+  Ca56  1  0.60656585  0.61227803  0.75705545  1
  Ca2+  Ca57  1  0.59138470  0.08206252  0.39239160  1
  Ca2+  Ca58  1  0.72691775  0.59899511  0.59244610  1
  Ca2+  Ca59  1  0.27259054  0.59575423  0.07894071  1
  Ca2+  Ca60  1  0.89990570  0.60356285  0.09768148  1
  Ca2+  Ca61  1  0.42323442  0.61262016  0.23798229  1
  Ca2+  Ca62  1  0.25281331  0.07085956  0.07069893  1
  Ca2+  Ca63  1  0.59873507  0.08337437  0.09307492  1
  Ca2+  Ca64  1  0.09157316  0.60046820  0.25581155  1
  Ca2+  Ca65  1  0.74144755  0.08023086  0.26479918  1
  Ca2+  Ca66  1  0.56908656  0.60359588  0.40510934  1
  Ca2+  Ca67  1  0.43202280  0.61052556  0.23337466  1
  Ca2+  Ca68  1  0.23426522  0.07770098  0.71593011  1
  Ca2+  Ca69  1  0.27836512  0.61197901  0.41087183  1
  Ca2+  Ca70  1  0.10115926  0.06745308  0.89958812  1
  Ca2+  Ca71  1  0.58599887  0.08267975  0.09402003  1
  Ca2+  Ca72  1  0.24488447  0.40823327  0.75181665  1
  Ca2+  Ca73  1  0.25733835  0.90268122  0.07372322  1
  Ca2+  Ca74  1  0.58414718  0.40720917  0.40836686  1
  Ca2+  Ca75  1  0.92970486  0.90869791  0.74584050  1
  Ca2+  Ca76  1  0.75192535  0.89779661  0.24473448  1
  Ca2+  Ca77  1  0.91394465  0.90163906  0.41228372  1
  Ca2+  Ca78  1  0.58890797  0.90950994  0.41020991  1
  Ca2+  Ca79  1  0.07866317  0.41197071  0.25001243  1
  Ca2+  Ca80  1  0.39823067  0.90630008  0.59055285  1
  Ca2+  Ca81  1  0.09556497  0.89870185  0.90944068  1
  Ca2+  Ca82  1  0.25404683  0.42044495  0.07100652  1
  Ca2+  Ca83  1  0.42589156  0.39757970  0.58532361  1
  Ca2+  Ca84  1  0.57725101  0.90971195  0.41100570  1
  Ca2+  Ca85  1  0.74728983  0.89499404  0.90812063  1
  Ca2+  Ca86  1  0.22610963  0.92741613  0.71744703  1
  Ca2+  Ca87  1  0.42365943  0.90540363  0.24459382  1
  Ca2+  Ca88  1  0.74836988  0.91589706  0.60506179  1
  Ca2+  Ca89  1  0.73823903  0.41827943  0.92443169  1
  Ca2+  Ca90  1  0.40571039  0.89961623  0.91286193  1
  Ca2+  Ca91  1  0.43406989  0.90512341  0.24315760  1
  Ca2+  Ca92  1  0.41732505  0.41661009  0.92585548  1
  Ca2+  Ca93  1  0.90831973  0.41066536  0.41458321  1
  Ca2+  Ca94  1  0.07952537  0.89274523  0.25475337  1
  Ca2+  Ca95  1  0.09650565  0.40437972  0.58539452  1
  Ca2+  Ca96  1  0.25444755  0.39487661  0.41816476  1
  Ca2+  Ca97  1  0.10015415  0.42209633  0.92325531  1
  Ca2+  Ca98  1  0.58163857  0.41869593  0.06916777  1
  Ca2+  Ca99  1  0.91987699  0.40976562  0.41414085  1
  Ca2+  Ca100  1  0.91407678  0.40195758  0.74786077  1
  Ca2+  Ca101  1  0.92634486  0.90041723  0.41239396  1
  Ca2+  Ca102  1  0.09133236  0.41172841  0.25056033  1
  Ca2+  Ca103  1  0.73836091  0.89683766  0.90329105  1
  Ca2+  Ca104  1  0.58680481  0.41000267  0.74833276  1
  Ca2+  Ca105  1  0.73742280  0.40183552  0.58836075  1
  Ca2+  Ca106  1  0.74139080  0.41012088  0.24710432  1
  Ca2+  Ca107  1  0.58660996  0.90041725  0.08687184  1
  Mn3.34+  Mn108  1  0.08139444  0.33818453  0.08141740  1
  Mn3.34+  Mn109  1  0.08455674  0.33078620  0.42114550  1
  Mn3.34+  Mn110  1  0.08336134  0.33599027  0.75286404  1
  Mn3.34+  Mn111  1  0.08298482  0.83051814  0.08166871  1
  Mn3.34+  Mn112  1  0.09032170  0.83020068  0.42183026  1
  Mn3.34+  Mn113  1  0.08424681  0.83549334  0.75040420  1
  Mn3.34+  Mn114  1  0.41723366  0.33734577  0.08720954  1
  Mn3.34+  Mn115  1  0.41896126  0.32634771  0.41888417  1
  Mn3.34+  Mn116  1  0.41742487  0.33377062  0.75211044  1
  Mn3.34+  Mn117  1  0.41792707  0.82880150  0.07989666  1
  Mn3.34+  Mn118  1  0.41407921  0.83459847  0.42250259  1
  Mn3.34+  Mn119  1  0.41586875  0.83033521  0.74968718  1
  Mn3.34+  Mn120  1  0.75130703  0.34059387  0.08374089  1
  Mn3.34+  Mn121  1  0.74854118  0.33399739  0.41473267  1
  Mn3.34+  Mn122  1  0.74876481  0.33130260  0.75369623  1
  Mn3.34+  Mn123  1  0.74951489  0.82885605  0.08461768  1
  Mn3.34+  Mn124  1  0.74869401  0.83010516  0.42240995  1
  Mn3.34+  Mn125  1  0.75220658  0.83297141  0.74655305  1
  Mn3.34+  Mn126  1  0.25620422  0.33392641  0.25006916  1
  Mn3.34+  Mn127  1  0.25201703  0.33308039  0.58370883  1
  Mn3.34+  Mn128  1  0.25029479  0.33967516  0.91337743  1
  Mn3.34+  Mn129  1  0.25072460  0.83228626  0.24986374  1
  Mn3.34+  Mn130  1  0.24846232  0.83748224  0.58165762  1
  Mn3.34+  Mn131  1  0.24813356  0.83692742  0.91051399  1
  Mn3.34+  Mn132  1  0.58073388  0.33784492  0.24520269  1
  Mn3.34+  Mn133  1  0.58266906  0.32901577  0.58098698  1
  Mn3.34+  Mn134  1  0.58276087  0.34028495  0.91312353  1
  Mn3.34+  Mn135  1  0.58713983  0.83048396  0.24609938  1
  Mn3.34+  Mn136  1  0.58037880  0.83199610  0.58295589  1
  Mn3.34+  Mn137  1  0.57841955  0.82893549  0.91351069  1
  Mn3.34+  Mn138  1  0.91347413  0.33573780  0.24623862  1
  Mn3.34+  Mn139  1  0.91673410  0.33293936  0.58285930  1
  Mn3.34+  Mn140  1  0.91618277  0.34037622  0.91532604  1
  Mn3.34+  Mn141  1  0.91631365  0.82491228  0.24243391  1
  Mn3.34+  Mn142  1  0.92203497  0.83643686  0.58665760  1
  Mn3.34+  Mn143  1  0.91942217  0.83160444  0.92155450  1
  Mn3.34+  Mn144  1  0.07973857  0.16849201  0.08692353  1
  Mn3.34+  Mn145  1  0.42645682  0.15881585  0.75515117  1
  Mn3.34+  Mn146  1  0.07883635  0.66250288  0.07803616  1
  Mn3.34+  Mn147  1  0.41279872  0.16440861  0.75273105  1
  Mn3.34+  Mn148  1  0.74369550  0.66500035  0.08656113  1
  Mn3.34+  Mn149  1  0.74960333  0.16979624  0.08283457  1
  Mn3.34+  Mn150  1  0.24276507  0.17091576  0.91675045  1
  Mn3.34+  Mn151  1  0.58314712  0.16680359  0.91255720  1
  Mn3.34+  Mn152  1  0.91177848  0.16614354  0.90810361  1
  Mn3.34+  Mn153  1  0.92206219  0.17123946  0.91179791  1
  Mn3.34+  Mn154  1  0.91745301  0.16801310  0.25373116  1
  Mn3.34+  Mn155  1  0.41936450  0.17107261  0.08662913  1
  Mn3.34+  Mn156  1  0.09114154  0.16419292  0.09018208  1
  Mn3.34+  Mn157  1  0.90803826  0.16243764  0.25116401  1
  Mn3.34+  Mn158  1  0.25492023  0.16987549  0.25747190  1
  Mn3.34+  Mn159  1  0.41824959  0.67091084  0.75055757  1
  Mn3.34+  Mn160  1  0.58321663  0.65818189  0.91722114  1
  Mn3.34+  Mn161  1  0.57610348  0.66255946  0.58075507  1
  Mn3.34+  Mn162  1  0.40692169  0.16424628  0.09068000  1
  Mn3.34+  Mn163  1  0.92302653  0.67159320  0.58309213  1
  Mn3.34+  Mn164  1  0.58523257  0.16784673  0.24909876  1
  Mn3.34+  Mn165  1  0.08303149  0.67250076  0.42471966  1
  Mn3.34+  Mn166  1  0.58861594  0.17724531  0.57752656  1
  Mn3.34+  Mn167  1  0.08939031  0.66625525  0.07485553  1
  Mn3.34+  Mn168  1  0.25691902  0.67198536  0.58717230  1
  Mn3.34+  Mn169  1  0.91170589  0.66562205  0.57954693  1
  Mn3.34+  Mn170  1  0.08275913  0.16497123  0.74860579  1
  Mn3.34+  Mn171  1  0.08680874  0.16465390  0.42552009  1
  Mn3.34+  Mn172  1  0.74466029  0.66776351  0.41823912  1
  Mn3.34+  Mn173  1  0.91903080  0.16499050  0.58577007  1
  Mn3.34+  Mn174  1  0.25463905  0.16264022  0.91250798  1
  Mn3.34+  Mn175  1  0.57671053  0.17102592  0.57523004  1
  Mn3.34+  Mn176  1  0.75214420  0.16390791  0.75492426  1
  Mn3.34+  Mn177  1  0.08542634  0.66962064  0.75658287  1
  Mn3.34+  Mn178  1  0.41143997  0.16054117  0.41044067  1
  Mn3.34+  Mn179  1  0.25139795  0.65723541  0.91001586  1
  Mn3.34+  Mn180  1  0.25081211  -0.00016025  0.26146666  1
  Mn3.34+  Mn181  1  0.42066273  0.49657307  0.06811368  1
  Mn3.34+  Mn182  1  0.91605178  -0.00054450  0.89946788  1
  Mn3.34+  Mn183  1  0.41469148  0.00144066  0.08713987  1
  Mn3.34+  Mn184  1  0.09063970  0.50068729  0.41486501  1
  Mn3.34+  Mn185  1  0.92136903  -0.00135671  0.25439746  1
  Mn3.34+  Mn186  1  0.08326056  0.00148610  0.08701563  1
  Mn3.34+  Mn187  1  0.90457088  0.50878059  0.58952444  1
  Mn3.34+  Mn188  1  0.58468071  0.00731148  0.58639421  1
  Mn3.34+  Mn189  1  0.75873126  -0.00405886  0.08212153  1
  Mn3.34+  Mn190  1  0.91421747  0.49663554  0.92955487  1
  Mn3.34+  Mn191  1  0.41406060  -0.00350110  0.75255296  1
  Mn3.34+  Mn192  1  0.41691458  0.50364544  0.75519384  1
  Mn3.34+  Mn193  1  0.06890642  -0.00429911  0.08727749  1
  Mn3.34+  Mn194  1  0.58195876  -0.00011739  0.91795801  1
  Mn3.34+  Mn195  1  0.90601325  0.00515040  0.89754056  1
  Mn3.34+  Mn196  1  0.42348454  0.50143815  0.42683243  1
  Mn3.34+  Mn197  1  0.08296273  -0.00087872  0.42249730  1
  Mn3.34+  Mn198  1  0.08424526  0.50184042  0.06811801  1
  Mn3.34+  Mn199  1  0.74038140  0.50450467  0.07123193  1
  Mn3.34+  Mn200  1  0.25496992  0.50046403  0.24953192  1
  Mn3.34+  Mn201  1  0.92695606  -0.00043092  0.60388831  1
  Mn3.34+  Mn202  1  0.74234112  0.49906618  0.74934631  1
  Mn3.34+  Mn203  1  0.42621963  0.50920286  0.75139005  1
  Mn3.34+  Mn204  1  0.58115472  0.49965044  0.57992661  1
  Mn3.34+  Mn205  1  0.91146173  0.49830594  0.24973609  1
  Mn3.34+  Mn206  1  0.41206707  0.49591420  0.42591706  1
  Mn3.34+  Mn207  1  0.58407619  0.49859871  0.25495505  1
  Mn3.34+  Mn208  1  0.26425637  0.49953112  0.58659421  1
  Mn3.34+  Mn209  1  0.57359651  0.00219238  0.58674329  1
  Mn3.34+  Mn210  1  0.74519941  0.50428327  0.41619759  1
  Mn3.34+  Mn211  1  0.91859091  0.50254739  0.58834614  1
  Mn3.34+  Mn212  1  0.26094370  0.00543542  0.25898687  1
  Mn3.34+  Mn213  1  0.75171155  -0.00115039  0.42012561  1
  Mn3.34+  Mn214  1  0.40788373  -0.00056438  0.41918472  1
  Mn3.34+  Mn215  1  0.08736953  0.50370606  0.75226145  1
  O2-  O216  1  0.00254883  0.13239675  -0.00159181  1
  O2-  O217  1  -0.00303697  0.14897810  0.33621325  1
  O2-  O218  1  0.00336786  0.17707182  0.66811133  1
  O2-  O219  1  -0.00634619  0.65767709  0.00730693  1
  O2-  O220  1  0.00955753  0.67157086  0.33693670  1
  O2-  O221  1  0.00441884  0.64323067  0.65974359  1
  O2-  O222  1  0.33053314  0.13952356  0.00224087  1
  O2-  O223  1  0.33623876  0.19783176  0.33390019  1
  O2-  O224  1  0.33845778  0.14357451  0.67363910  1
  O2-  O225  1  0.32575343  0.66822348  -0.01013177  1
  O2-  O226  1  0.34007900  0.65238630  0.32164590  1
  O2-  O227  1  0.33477223  0.64812698  0.66739762  1
  O2-  O228  1  0.65824645  0.15247833  0.00532579  1
  O2-  O229  1  0.66360212  0.15472801  0.32824069  1
  O2-  O230  1  0.66215103  0.16291341  0.66713464  1
  O2-  O231  1  0.66495824  0.65831361  -0.00716173  1
  O2-  O232  1  0.66342021  0.66089827  0.34734896  1
  O2-  O233  1  0.65834672  0.67542384  0.65968381  1
  O2-  O234  1  0.16487004  0.13484315  -0.00157699  1
  O2-  O235  1  0.16544754  0.16602166  0.33406596  1
  O2-  O236  1  0.16323235  0.16953660  0.67414303  1
  O2-  O237  1  0.16735471  0.64894287  -0.00444693  1
  O2-  O238  1  0.16692349  0.65645482  0.34449248  1
  O2-  O239  1  0.17159218  0.65396652  0.66797222  1
  O2-  O240  1  0.49636480  0.14686511  -0.00183450  1
  O2-  O241  1  0.50399192  0.15853898  0.33447708  1
  O2-  O242  1  0.50336964  0.16186308  0.66172003  1
  O2-  O243  1  0.50447772  0.67644689  -0.01384896  1
  O2-  O244  1  0.49610996  0.66342917  0.33259564  1
  O2-  O245  1  0.50462072  0.66092384  0.67277224  1
  O2-  O246  1  0.82799396  0.14694167  -0.00915855  1
  O2-  O247  1  0.83171705  0.14518300  0.33114395  1
  O2-  O248  1  0.82724560  0.16886457  0.66531334  1
  O2-  O249  1  0.82579117  0.65708422  0.00525284  1
  O2-  O250  1  0.82872536  0.66892400  0.33892476  1
  O2-  O251  1  0.83700571  0.64036594  0.65704970  1
  O2-  O252  1  0.00656159  0.35189445  -0.01018510  1
  O2-  O253  1  0.00107562  0.35211824  0.33257531  1
  O2-  O254  1  0.00305280  0.34283115  0.66410345  1
  O2-  O255  1  0.00695500  0.84602661  -0.00517593  1
  O2-  O256  1  -0.00250921  0.81658219  0.33476992  1
  O2-  O257  1  0.00409889  0.84629867  0.66624514  1
  O2-  O258  1  0.33456661  0.35198999  -0.00058328  1
  O2-  O259  1  0.32990437  0.32432255  0.33974030  1
  O2-  O260  1  0.33383235  0.35169210  0.66768066  1
  O2-  O261  1  0.33252335  0.83634269  -0.00192952  1
  O2-  O262  1  0.33769400  0.85498308  0.32942881  1
  O2-  O263  1  0.32561607  0.84870325  0.67808117  1
  O2-  O264  1  0.66100845  0.34128744  0.00047355  1
  O2-  O265  1  0.66591636  0.34787166  0.33245367  1
  O2-  O266  1  0.66564421  0.32306949  0.66784972  1
  O2-  O267  1  0.66517541  0.84144906  -0.00132754  1
  O2-  O268  1  0.66700756  0.84994351  0.33355297  1
  O2-  O269  1  0.66852081  0.83347391  0.66256170  1
  O2-  O270  1  0.17080276  0.34912523  0.00254464  1
  O2-  O271  1  0.16406438  0.34253507  0.33171473  1
  O2-  O272  1  0.16850463  0.34089916  0.66921296  1
  O2-  O273  1  0.17167318  0.84581866  0.00067775  1
  O2-  O274  1  0.16308469  0.83030811  0.32893485  1
  O2-  O275  1  0.16774123  0.83998602  0.66948134  1
  O2-  O276  1  0.49926758  0.34318853  -0.00473583  1
  O2-  O277  1  0.50405933  0.33116117  0.34073869  1
  O2-  O278  1  0.50665962  0.34116405  0.67194093  1
  O2-  O279  1  0.49847508  0.84452104  -0.00143275  1
  O2-  O280  1  0.50124373  0.84852424  0.33368667  1
  O2-  O281  1  0.49029612  0.83431008  0.65551931  1
  O2-  O282  1  0.82751610  0.34962838  -0.00661327  1
  O2-  O283  1  0.83304784  0.35724172  0.33088635  1
  O2-  O284  1  0.82967459  0.34046832  0.66545760  1
  O2-  O285  1  0.82821840  0.84939076  -0.00203936  1
  O2-  O286  1  0.83601120  0.84168162  0.33658170  1
  O2-  O287  1  0.83725797  0.85503073  0.66788066  1
  O2-  O288  1  -0.00465699  0.18553443  0.17198369  1
  O2-  O289  1  -0.00191010  0.17526276  0.49958390  1
  O2-  O290  1  0.00805146  0.19005202  0.83464575  1
  O2-  O291  1  0.01078840  0.67781070  0.16855243  1
  O2-  O292  1  -0.00281936  0.69478082  0.50192394  1
  O2-  O293  1  -0.00291247  0.67699601  0.82055941  1
  O2-  O294  1  0.33122971  0.18998179  0.17112709  1
  O2-  O295  1  0.34110646  0.17435968  0.49500971  1
  O2-  O296  1  0.34359277  0.18859613  0.84552241  1
  O2-  O297  1  0.33925031  0.66743986  0.16051426  1
  O2-  O298  1  0.32023674  0.68419614  0.49573503  1
  O2-  O299  1  0.32886913  0.68496031  0.83159324  1
  O2-  O300  1  0.66358597  0.18006649  0.16303069  1
  O2-  O301  1  0.66720829  0.18863404  0.50003024  1
  O2-  O302  1  0.66937811  0.19044196  0.83563972  1
  O2-  O303  1  0.66336575  0.67391684  0.15855657  1
  O2-  O304  1  0.66883781  0.68085978  0.50923338  1
  O2-  O305  1  0.65633697  0.68617422  0.84427240  1
  O2-  O306  1  0.16890249  0.19355186  0.17382363  1
  O2-  O307  1  0.15980198  0.17487362  0.50374595  1
  O2-  O308  1  0.16462555  0.18993086  0.83241638  1
  O2-  O309  1  0.16517635  0.67227571  0.16068547  1
  O2-  O310  1  0.15838155  0.67973277  0.51278499  1
  O2-  O311  1  0.16910653  0.68484692  0.83336470  1
  O2-  O312  1  0.50709137  0.18318337  0.16168838  1
  O2-  O313  1  0.50365201  0.19554945  0.49434152  1
  O2-  O314  1  0.50118042  0.19001563  0.83085179  1
  O2-  O315  1  0.48660512  0.68408014  0.17264164  1
  O2-  O316  1  0.50858026  0.69125353  0.50813284  1
  O2-  O317  1  0.50185411  0.68580216  0.83109081  1
  O2-  O318  1  0.83613468  0.18196338  0.16379604  1
  O2-  O319  1  0.83994038  0.16389784  0.50581840  1
  O2-  O320  1  0.83333239  0.19704570  0.82733676  1
  O2-  O321  1  0.83060067  0.68041157  0.15818733  1
  O2-  O322  1  0.83308628  0.68332001  0.50062199  1
  O2-  O323  1  0.82937689  0.67550892  0.83405573  1
  O2-  O324  1  0.00445882  0.32135772  0.17400584  1
  O2-  O325  1  -0.00706827  0.33152458  0.49109975  1
  O2-  O326  1  -0.00509993  0.31774226  0.82380608  1
  O2-  O327  1  0.00535841  0.81048279  0.16981710  1
  O2-  O328  1  -0.00155329  0.82002367  0.49448329  1
  O2-  O329  1  -0.00390704  0.82443778  0.83163682  1
  O2-  O330  1  0.33517057  0.31672839  0.16964893  1
  O2-  O331  1  0.33237101  0.31952198  0.49913555  1
  O2-  O332  1  0.33119330  0.32251999  0.83069445  1
  O2-  O333  1  0.33779403  0.83194205  0.16852916  1
  O2-  O334  1  0.34066972  0.82173282  0.50909283  1
  O2-  O335  1  0.33582924  0.81516786  0.84098035  1
  O2-  O336  1  0.67147951  0.32360509  0.16983327  1
  O2-  O337  1  0.66823525  0.31820880  0.50105546  1
  O2-  O338  1  0.66682096  0.31412871  0.83747316  1
  O2-  O339  1  0.66255571  0.82389052  0.16202953  1
  O2-  O340  1  0.66549057  0.82049957  0.49982220  1
  O2-  O341  1  0.67162758  0.81808243  0.83975366  1
  O2-  O342  1  0.16320664  0.32052350  0.17537385  1
  O2-  O343  1  0.16418006  0.31844225  0.50272763  1
  O2-  O344  1  0.16862053  0.31567400  0.83016281  1
  O2-  O345  1  0.16998408  0.82042150  0.16513335  1
  O2-  O346  1  0.17452796  0.81176507  0.49564357  1
  O2-  O347  1  0.16125677  0.81367937  0.84090842  1
  O2-  O348  1  0.50396599  0.31818489  0.16109524  1
  O2-  O349  1  0.49469547  0.31113760  0.50886378  1
  O2-  O350  1  0.50253846  0.31500278  0.83514873  1
  O2-  O351  1  0.49502546  0.82697270  0.17095646  1
  O2-  O352  1  0.50927293  0.82098753  0.48963334  1
  O2-  O353  1  0.49726278  0.81212122  0.83543605  1
  O2-  O354  1  0.82812141  0.32167950  0.17426310  1
  O2-  O355  1  0.83694004  0.32718204  0.49176077  1
  O2-  O356  1  0.83592195  0.31979519  0.82726869  1
  O2-  O357  1  0.82569927  0.81467184  0.17206474  1
  O2-  O358  1  0.83989214  0.82996299  0.49683542  1
  O2-  O359  1  0.82897923  0.82549841  0.84090009  1
  O2-  O360  1  0.08187432  0.07773109  0.14048923  1
  O2-  O361  1  0.08042766  0.08026757  0.44699937  1
  O2-  O362  1  0.09643418  0.08098220  0.76935622  1
  O2-  O363  1  0.07606626  0.57774534  0.11918967  1
  O2-  O364  1  0.07756768  0.58128436  0.45664040  1
  O2-  O365  1  0.10125397  0.58423714  0.76905372  1
  O2-  O366  1  0.42929568  0.08317285  0.12075126  1
  O2-  O367  1  0.44298013  0.08132491  0.44943927  1
  O2-  O368  1  0.41659451  0.07874100  0.79571049  1
  O2-  O369  1  0.41437735  0.56848419  0.10714039  1
  O2-  O370  1  0.41175989  0.58167829  0.45000147  1
  O2-  O371  1  0.41915352  0.58769882  0.79144790  1
  O2-  O372  1  0.74181064  0.07997453  0.12272027  1
  O2-  O373  1  0.72638315  0.07253547  0.45505683  1
  O2-  O374  1  0.74757503  0.08312299  0.78980752  1
  O2-  O375  1  0.75922053  0.57712490  0.10943887  1
  O2-  O376  1  0.75633064  0.58354703  0.45039835  1
  O2-  O377  1  0.74044049  0.57698107  0.77388162  1
  O2-  O378  1  0.24317821  0.08173497  0.21139947  1
  O2-  O379  1  0.22700048  0.06269751  0.57250460  1
  O2-  O380  1  0.23659991  0.08242017  0.87203341  1
  O2-  O381  1  0.24028188  0.57554862  0.21500936  1
  O2-  O382  1  0.24022833  0.58189456  0.54506562  1
  O2-  O383  1  0.27301790  0.58119109  0.89200328  1
  O2-  O384  1  0.59077228  0.08141503  0.22891337  1
  O2-  O385  1  0.58395257  0.08554173  0.53677107  1
  O2-  O386  1  0.57852617  0.07859738  0.87880457  1
  O2-  O387  1  0.55785117  0.57230725  0.23031630  1
  O2-  O388  1  0.58719438  0.58010059  0.54858902  1
  O2-  O389  1  0.57358882  0.58398487  0.88880311  1
  O2-  O390  1  0.91438203  0.07822410  0.20997385  1
  O2-  O391  1  0.92830423  0.07539660  0.56663215  1
  O2-  O392  1  0.93916069  0.08239118  0.86046465  1
  O2-  O393  1  0.94626310  0.57732692  0.23816705  1
  O2-  O394  1  0.92638972  0.58323733  0.53342453  1
  O2-  O395  1  0.89678672  0.56712150  0.89312515  1
  O2-  O396  1  0.09008149  0.42525477  0.11711957  1
  O2-  O397  1  0.09237130  0.41690634  0.44654926  1
  O2-  O398  1  0.08703618  0.42334346  0.78180038  1
  O2-  O399  1  0.08404495  0.91602007  0.11666717  1
  O2-  O400  1  0.05969871  0.91682899  0.41209610  1
  O2-  O401  1  0.08771225  0.91569467  0.77800773  1
  O2-  O402  1  0.42078258  0.42609937  0.11515912  1
  O2-  O403  1  0.42058863  0.41491951  0.44897850  1
  O2-  O404  1  0.43200264  0.42323495  0.79075783  1
  O2-  O405  1  0.41709055  0.91903713  0.10583816  1
  O2-  O406  1  0.43370987  0.91852718  0.45535352  1
  O2-  O407  1  0.41810243  0.91637640  0.77795191  1
  O2-  O408  1  0.73967071  0.42723548  0.11218091  1
  O2-  O409  1  0.75596167  0.42295280  0.45356859  1
  O2-  O410  1  0.73544277  0.41913904  0.78003768  1
  O2-  O411  1  0.73913910  0.91494005  0.11024013  1
  O2-  O412  1  0.75253460  0.91741757  0.44630610  1
  O2-  O413  1  0.75781686  0.91935656  0.77712843  1
  O2-  O414  1  0.23444200  0.42099718  0.22172792  1
  O2-  O415  1  0.24906825  0.41752323  0.55061035  1
  O2-  O416  1  0.24563596  0.41832092  0.88725167  1
  O2-  O417  1  0.24358943  0.92265881  0.21350377  1
  O2-  O418  1  0.25752609  0.91572058  0.57017683  1
  O2-  O419  1  0.25093641  0.91524560  0.88917156  1
  O2-  O420  1  0.59014537  0.42178237  0.21265562  1
  O2-  O421  1  0.58252946  0.41843251  0.54857212  1
  O2-  O422  1  0.58586360  0.41718702  0.88574463  1
  O2-  O423  1  0.56738483  0.92050200  0.22760084  1
  O2-  O424  1  0.59022299  0.92296190  0.54738814  1
  O2-  O425  1  0.60178115  0.91968450  0.89854446  1
  O2-  O426  1  0.92350018  0.41827487  0.21799858  1
  O2-  O427  1  0.90876865  0.42244906  0.55236969  1
  O2-  O428  1  0.91249023  0.42418201  0.87816396  1
  O2-  O429  1  0.93260413  0.91573603  0.25697479  1
  O2-  O430  1  0.92277300  0.93355970  0.54104510  1
  O2-  O431  1  0.90763950  0.91727105  0.89000049  1
  O2-  O432  1  -0.00412261  0.01142660  -0.00709429  1
  O2-  O433  1  -0.00816559  0.01513295  0.34671718  1
  O2-  O434  1  -0.00700659  -0.00631491  0.68094985  1
  O2-  O435  1  0.01473134  0.49407083  -0.02138062  1
  O2-  O436  1  -0.00020521  0.47883107  0.33260129  1
  O2-  O437  1  -0.00156222  0.50824972  0.67244700  1
  O2-  O438  1  0.33101196  0.00506915  0.00839986  1
  O2-  O439  1  0.36632649  -0.01250865  0.30334020  1
  O2-  O440  1  0.33263045  0.00120994  0.68085243  1
  O2-  O441  1  0.33376959  0.49667402  0.00846319  1
  O2-  O442  1  0.31115420  0.50215814  0.35924991  1
  O2-  O443  1  0.31291388  0.49817186  0.69934024  1
  O2-  O444  1  0.66294310  0.01583937  0.00530738  1
  O2-  O445  1  0.66559735  -0.00162884  0.34866683  1
  O2-  O446  1  0.67851881  0.01621226  0.65178944  1
  O2-  O447  1  0.66191539  0.49065588  0.00243643  1
  O2-  O448  1  0.66655760  0.48415538  0.33515651  1
  O2-  O449  1  0.67532363  0.49574468  0.65144525  1
  O2-  O450  1  0.15659537  0.00922821  -0.00690615  1
  O2-  O451  1  0.15900500  0.00285704  0.33015554  1
  O2-  O452  1  0.15937763  0.00639572  0.65449307  1
  O2-  O453  1  0.17669397  0.49658257  0.01703617  1
  O2-  O454  1  0.14709109  0.50569545  0.30212769  1
  O2-  O455  1  0.15097116  0.50042940  0.64443991  1
  O2-  O456  1  0.50579639  0.01173151  0.00906302  1
  O2-  O457  1  0.52063138  -0.00556751  0.37365551  1
  O2-  O458  1  0.50684526  0.01392329  0.68136259  1
  O2-  O459  1  0.49266215  0.49318681  -0.00800796  1
  O2-  O460  1  0.50440385  0.49086801  0.34346841  1
  O2-  O461  1  0.50001834  0.48461200  0.66592556  1
  O2-  O462  1  0.83056137  0.01912575  -0.01405526  1
  O2-  O463  1  0.82828267  0.00586194  0.33140777  1
  O2-  O464  1  0.82999540  -0.00247942  0.64269982  1
  O2-  O465  1  0.82253443  0.49287758  -0.00590254  1
  O2-  O466  1  0.84879109  0.49625586  0.35590115  1
  O2-  O467  1  0.83812960  0.48958116  0.68043634  1
  O2-  O468  1  0.75292208  0.75205594  0.39791364  1
  O2-  O469  1  0.26091416  0.75436615  0.26257025  1
  O2-  O470  1  0.58896373  0.25074312  0.26625749  1
  O2-  O471  1  0.41060136  0.75856136  0.39287965  1
  O2-  O472  1  0.75447541  0.25235476  0.05823322  1
  O2-  O473  1  0.25308152  0.25344233  0.59961751  1
  O2-  O474  1  0.91282399  0.25031891  0.58904185  1
  O2-  O475  1  0.90329543  0.75031856  0.61905158  1
  O2-  O476  1  0.91863237  0.25291507  0.95130133  1
  O2-  O477  1  0.08005754  0.25112974  0.04950616  1
  O2-  O478  1  0.41587147  0.75195339  0.07003287  1
  O2-  O479  1  0.91677038  0.25223870  0.28404239  1
  O2-  O480  1  0.25490087  0.75055765  0.61260335  1
  O2-  O481  1  0.75849476  0.25629297  0.39173877  1
  O2-  O482  1  0.07913019  0.74919462  0.72473055  1
  O2-  O483  1  0.09364873  0.74873865  0.05082966  1
  O2-  O484  1  0.25627386  0.25046493  0.95191782  1
  O2-  O485  1  0.40725313  0.24533232  0.71982712  1
  O2-  O486  1  0.40346341  0.74958780  0.71917775  1
  O2-  O487  1  0.74867539  0.74978595  0.05503500  1
  O2-  O488  1  0.58593317  0.75322413  0.26390426  1
  O2-  O489  1  0.40705179  0.24898214  0.05118238  1
  O2-  O490  1  0.07043888  0.24923064  0.39933918  1
  O2-  O491  1  0.91625304  0.75383155  0.93494583  1
  O2-  O492  1  0.76372376  0.75441368  0.73110951  1
