# generated using pymatgen
data_Ca108Mn108O277
_symmetry_space_group_name_H-M   'P 1'
_cell_length_a   16.03031574
_cell_length_b   22.31342878
_cell_length_c   16.39445297
_cell_angle_alpha   89.99625005
_cell_angle_beta   89.99664794
_cell_angle_gamma   89.99695186
_symmetry_Int_Tables_number   1
_chemical_formula_structural   Ca108Mn108O277
_chemical_formula_sum   'Ca108 Mn108 O277'
_cell_volume   5864.15330459
_cell_formula_units_Z   1
loop_
 _symmetry_equiv_pos_site_id
 _symmetry_equiv_pos_as_xyz
  1  'x, y, z'
loop_
 _atom_type_symbol
 _atom_type_oxidation_number
  Ca2+  2.0
  Mn3.34+  3.34
  O2-  -2.0
loop_
 _atom_site_type_symbol
 _atom_site_label
 _atom_site_symmetry_multiplicity
 _atom_site_fract_x
 _atom_site_fract_y
 _atom_site_fract_z
 _atom_site_occupancy
  Ca2+  Ca0  1  0.07523795  0.23635452  0.26396699  1
  Ca2+  Ca1  1  0.08030675  0.26580901  0.57867887  1
  Ca2+  Ca2  1  0.06238383  0.23882744  0.90322389  1
  Ca2+  Ca3  1  0.07185639  0.76138085  0.25373497  1
  Ca2+  Ca4  1  0.06793721  0.75018844  0.57097233  1
  Ca2+  Ca5  1  0.08344768  0.75821259  0.92154399  1
  Ca2+  Ca6  1  0.39333497  0.25120861  0.25972441  1
  Ca2+  Ca7  1  0.42030031  0.26031471  0.57160155  1
  Ca2+  Ca8  1  0.42585861  0.25619158  0.92672047  1
  Ca2+  Ca9  1  0.43149694  0.74826389  0.26356602  1
  Ca2+  Ca10  1  0.41177223  0.75679193  0.56893719  1
  Ca2+  Ca11  1  0.40227364  0.76223414  0.91181145  1
  Ca2+  Ca12  1  0.76762830  0.23413524  0.24769797  1
  Ca2+  Ca13  1  0.75351381  0.25464289  0.56236615  1
  Ca2+  Ca14  1  0.76452540  0.24697638  0.92190828  1
  Ca2+  Ca15  1  0.75095777  0.74244821  0.23760767  1
  Ca2+  Ca16  1  0.78544140  0.72679977  0.58358475  1
  Ca2+  Ca17  1  0.75860723  0.74919012  0.93504651  1
  Ca2+  Ca18  1  0.24869824  0.24455824  0.10765361  1
  Ca2+  Ca19  1  0.23190616  0.24046486  0.39833410  1
  Ca2+  Ca20  1  0.22361408  0.24967541  0.74872882  1
  Ca2+  Ca21  1  0.23523320  0.75659350  0.07460287  1
  Ca2+  Ca22  1  0.24615307  0.75267427  0.43083210  1
  Ca2+  Ca23  1  0.24293709  0.75539531  0.74906840  1
  Ca2+  Ca24  1  0.60842049  0.25441165  0.07593810  1
  Ca2+  Ca25  1  0.60175382  0.25546314  0.41295986  1
  Ca2+  Ca26  1  0.60175607  0.25523229  0.75476875  1
  Ca2+  Ca27  1  0.61059352  0.74735982  0.09495744  1
  Ca2+  Ca28  1  0.58637705  0.73856186  0.40273560  1
  Ca2+  Ca29  1  0.59871623  0.75571470  0.74519435  1
  Ca2+  Ca30  1  0.90020323  0.23400267  0.08079431  1
  Ca2+  Ca31  1  0.92736351  0.24032523  0.39948007  1
  Ca2+  Ca32  1  0.91601314  0.25715561  0.76197607  1
  Ca2+  Ca33  1  0.90270932  0.75204591  0.08195815  1
  Ca2+  Ca34  1  0.91498417  0.76025684  0.42594332  1
  Ca2+  Ca35  1  0.90651770  0.74766619  0.73891927  1
  Ca2+  Ca36  1  0.41016644  0.57637653  0.57589849  1
  Ca2+  Ca37  1  0.69966848  0.59352674  0.25740807  1
  Ca2+  Ca38  1  0.93100921  0.11636902  0.77862962  1
  Ca2+  Ca39  1  0.89649930  0.59827766  0.43075742  1
  Ca2+  Ca40  1  0.60077093  0.10041894  0.41751247  1
  Ca2+  Ca41  1  0.26172030  0.58686157  0.73787939  1
  Ca2+  Ca42  1  0.47524508  0.57573926  0.28246002  1
  Ca2+  Ca43  1  0.77490167  0.10521872  0.93559956  1
  Ca2+  Ca44  1  0.24260364  0.10083820  0.39153128  1
  Ca2+  Ca45  1  0.08663369  0.59029845  0.57699823  1
  Ca2+  Ca46  1  0.42042418  0.09693399  0.55733348  1
  Ca2+  Ca47  1  0.92166528  0.11808109  0.77457775  1
  Ca2+  Ca48  1  0.62451067  0.57654158  0.74848152  1
  Ca2+  Ca49  1  0.27142738  0.58707715  0.74180489  1
  Ca2+  Ca50  1  0.61063748  0.10407423  0.76111402  1
  Ca2+  Ca51  1  0.41877039  0.08608620  0.93353608  1
  Ca2+  Ca52  1  0.89222817  0.10094688  0.38774319  1
  Ca2+  Ca53  1  0.61990123  0.60245725  0.09690557  1
  Ca2+  Ca54  1  0.60612230  0.09426697  0.07276431  1
  Ca2+  Ca55  1  0.07293773  0.09056193  0.58082293  1
  Ca2+  Ca56  1  0.87839178  0.57417676  0.75467966  1
  Ca2+  Ca57  1  0.06862362  0.09937826  0.26266113  1
  Ca2+  Ca58  1  0.05557870  0.56959150  0.94994367  1
  Ca2+  Ca59  1  0.21840009  0.58228531  0.07790520  1
  Ca2+  Ca60  1  0.26277336  0.10105158  0.10000801  1
  Ca2+  Ca61  1  0.20179036  0.09881735  0.77175080  1
  Ca2+  Ca62  1  0.08404729  0.08996078  0.58011228  1
  Ca2+  Ca63  1  0.38768380  0.11125338  0.26427322  1
  Ca2+  Ca64  1  0.76772998  0.10127934  0.94043361  1
  Ca2+  Ca65  1  0.90834475  0.59933317  0.42672708  1
  Ca2+  Ca66  1  0.39823899  0.57942235  0.57547643  1
  Ca2+  Ca67  1  0.07388073  0.59034267  0.57579187  1
  Ca2+  Ca68  1  0.23003090  0.57896701  0.07542092  1
  Ca2+  Ca69  1  0.41562607  0.59006912  0.92475356  1
  Ca2+  Ca70  1  0.26007506  0.58595266  0.41771332  1
  Ca2+  Ca71  1  0.90184143  0.58629034  0.06403460  1
  Ca2+  Ca72  1  0.61968007  0.92240634  0.05798074  1
  Ca2+  Ca73  1  0.75669077  0.40960241  0.60538553  1
  Ca2+  Ca74  1  0.25152131  0.40308475  0.43081469  1
  Ca2+  Ca75  1  0.08018875  0.90833151  0.57937250  1
  Ca2+  Ca76  1  0.91463105  0.40596708  0.42104812  1
  Ca2+  Ca77  1  0.92497724  0.42188207  0.06992402  1
  Ca2+  Ca78  1  0.56248957  0.42124945  0.38372737  1
  Ca2+  Ca79  1  0.07895623  0.39949735  0.23898032  1
  Ca2+  Ca80  1  0.25654176  0.39688001  0.74701816  1
  Ca2+  Ca81  1  0.72835713  0.41066338  0.24391523  1
  Ca2+  Ca82  1  0.73846295  0.40903830  0.24794305  1
  Ca2+  Ca83  1  0.88730626  0.91500958  0.07551462  1
  Ca2+  Ca84  1  0.24633209  0.91214421  0.07897771  1
  Ca2+  Ca85  1  0.06072548  0.41660228  0.93154762  1
  Ca2+  Ca86  1  0.76384260  0.41164563  0.91721566  1
  Ca2+  Ca87  1  0.25157357  0.39569176  0.08235682  1
  Ca2+  Ca88  1  0.92563969  0.40508570  0.42302197  1
  Ca2+  Ca89  1  0.07779876  0.91140814  0.25753871  1
  Ca2+  Ca90  1  0.74932029  0.90170232  0.58325933  1
  Ca2+  Ca91  1  0.24999735  0.91373591  0.75081109  1
  Ca2+  Ca92  1  0.23910066  0.39592441  0.08202452  1
  Ca2+  Ca93  1  0.75922403  0.89877634  0.58012457  1
  Ca2+  Ca94  1  0.40744418  0.40718631  0.59115690  1
  Ca2+  Ca95  1  0.07816093  0.91227467  0.92327871  1
  Ca2+  Ca96  1  0.40879938  0.90500376  0.25364669  1
  Ca2+  Ca97  1  0.26265410  0.91344538  0.75088281  1
  Ca2+  Ca98  1  0.57616237  0.90492907  0.41880612  1
  Ca2+  Ca99  1  0.91818367  0.90385684  0.74656656  1
  Ca2+  Ca100  1  0.76041069  0.90737368  0.24327298  1
  Ca2+  Ca101  1  0.57451039  0.90432007  0.75919812  1
  Ca2+  Ca102  1  0.58889657  0.90502488  0.41840536  1
  Ca2+  Ca103  1  0.41735090  0.90951784  0.58982353  1
  Ca2+  Ca104  1  0.24542523  0.90785830  0.41241029  1
  Ca2+  Ca105  1  0.55423815  0.42390408  0.38867905  1
  Ca2+  Ca106  1  0.25889361  0.91417710  0.07869550  1
  Ca2+  Ca107  1  0.90408605  0.40560747  0.75907260  1
  Mn3.34+  Mn108  1  0.07849288  0.33293997  0.08220164  1
  Mn3.34+  Mn109  1  0.08587174  0.33335923  0.41675481  1
  Mn3.34+  Mn110  1  0.08093204  0.33102578  0.75000136  1
  Mn3.34+  Mn111  1  0.07739086  0.83501267  0.08699077  1
  Mn3.34+  Mn112  1  0.08000078  0.83436098  0.41613818  1
  Mn3.34+  Mn113  1  0.08074401  0.83461729  0.75076818  1
  Mn3.34+  Mn114  1  0.42285985  0.33807264  0.08546210  1
  Mn3.34+  Mn115  1  0.41369168  0.33886046  0.41819387  1
  Mn3.34+  Mn116  1  0.42038975  0.33316551  0.75526462  1
  Mn3.34+  Mn117  1  0.42407093  0.83017086  0.08560266  1
  Mn3.34+  Mn118  1  0.41420070  0.83254904  0.41761394  1
  Mn3.34+  Mn119  1  0.41971678  0.83160416  0.75279266  1
  Mn3.34+  Mn120  1  0.74999524  0.33585738  0.08015886  1
  Mn3.34+  Mn121  1  0.74866684  0.33725291  0.42075893  1
  Mn3.34+  Mn122  1  0.74602443  0.34055027  0.75693967  1
  Mn3.34+  Mn123  1  0.75011205  0.83237644  0.08460100  1
  Mn3.34+  Mn124  1  0.75511329  0.83306165  0.41276733  1
  Mn3.34+  Mn125  1  0.75059665  0.82824684  0.76108053  1
  Mn3.34+  Mn126  1  0.24806392  0.33092657  0.25354681  1
  Mn3.34+  Mn127  1  0.24779421  0.33854682  0.58416865  1
  Mn3.34+  Mn128  1  0.25049514  0.32319603  0.91171265  1
  Mn3.34+  Mn129  1  0.25044215  0.83001248  0.24790336  1
  Mn3.34+  Mn130  1  0.24677324  0.83448066  0.58186829  1
  Mn3.34+  Mn131  1  0.25044226  0.83668175  0.91487938  1
  Mn3.34+  Mn132  1  0.57083097  0.33437820  0.23715016  1
  Mn3.34+  Mn133  1  0.58232669  0.33492379  0.58384135  1
  Mn3.34+  Mn134  1  0.58518565  0.33171045  0.91548819  1
  Mn3.34+  Mn135  1  0.58437164  0.83426313  0.24224633  1
  Mn3.34+  Mn136  1  0.58441490  0.83277745  0.58553214  1
  Mn3.34+  Mn137  1  0.58016107  0.83229421  0.91966578  1
  Mn3.34+  Mn138  1  0.91592255  0.33441359  0.24240195  1
  Mn3.34+  Mn139  1  0.91962423  0.33765433  0.58879582  1
  Mn3.34+  Mn140  1  0.91614255  0.33445657  0.91911042  1
  Mn3.34+  Mn141  1  0.91559333  0.83878566  0.25041660  1
  Mn3.34+  Mn142  1  0.91931747  0.83289732  0.58331187  1
  Mn3.34+  Mn143  1  0.91302284  0.83903186  0.91309434  1
  Mn3.34+  Mn144  1  0.25125792  0.67424271  0.24999604  1
  Mn3.34+  Mn145  1  0.58254958  0.66579053  0.58223107  1
  Mn3.34+  Mn146  1  0.75685386  0.66663242  0.75567829  1
  Mn3.34+  Mn147  1  0.25783665  0.16574848  0.57636047  1
  Mn3.34+  Mn148  1  0.59475795  0.16524599  0.58197970  1
  Mn3.34+  Mn149  1  0.91480123  0.66375227  0.24381528  1
  Mn3.34+  Mn150  1  0.58422349  0.16982486  0.58211743  1
  Mn3.34+  Mn151  1  0.41941599  0.66696017  0.41583582  1
  Mn3.34+  Mn152  1  0.24258297  0.66812127  0.24800445  1
  Mn3.34+  Mn153  1  0.41700132  0.66468659  0.09512211  1
  Mn3.34+  Mn154  1  0.08382095  0.16540127  0.08123333  1
  Mn3.34+  Mn155  1  0.42560953  0.67061755  0.09226693  1
  Mn3.34+  Mn156  1  0.59548054  0.65903157  0.57971748  1
  Mn3.34+  Mn157  1  0.74617319  0.66974664  0.41023847  1
  Mn3.34+  Mn158  1  0.07805975  0.66898368  0.07878093  1
  Mn3.34+  Mn159  1  0.92546166  0.65932229  0.24175678  1
  Mn3.34+  Mn160  1  0.41068324  0.17204488  0.75419295  1
  Mn3.34+  Mn161  1  0.91446225  0.16868519  0.57998216  1
  Mn3.34+  Mn162  1  0.41967618  0.16616419  0.75613627  1
  Mn3.34+  Mn163  1  0.06844932  0.66350266  0.75749442  1
  Mn3.34+  Mn164  1  0.25120860  0.16865386  0.91936153  1
  Mn3.34+  Mn165  1  0.42094674  0.16809640  0.08459858  1
  Mn3.34+  Mn166  1  0.08269654  0.66648531  0.41438374  1
  Mn3.34+  Mn167  1  0.25160425  0.66986309  0.91405726  1
  Mn3.34+  Mn168  1  0.08216206  0.66930148  0.75515856  1
  Mn3.34+  Mn169  1  0.07336758  0.16147852  0.07968404  1
  Mn3.34+  Mn170  1  0.59142300  0.16861963  0.24604326  1
  Mn3.34+  Mn171  1  0.42384930  0.66886163  0.75064643  1
  Mn3.34+  Mn172  1  0.58612462  0.16968513  0.91453935  1
  Mn3.34+  Mn173  1  0.90016203  0.16285493  0.57845552  1
  Mn3.34+  Mn174  1  0.25112522  0.66862897  0.58009170  1
  Mn3.34+  Mn175  1  0.58153690  0.17355427  0.24532054  1
  Mn3.34+  Mn176  1  0.58088067  0.67440552  0.91355440  1
  Mn3.34+  Mn177  1  0.59043629  0.66905961  0.91244766  1
  Mn3.34+  Mn178  1  0.91269926  0.66143021  0.91166759  1
  Mn3.34+  Mn179  1  0.24753717  0.17082360  0.57766598  1
  Mn3.34+  Mn180  1  0.91333263  0.00299797  0.25456041  1
  Mn3.34+  Mn181  1  0.58311572  0.00298024  0.92286550  1
  Mn3.34+  Mn182  1  0.42392819  0.49839253  0.75297983  1
  Mn3.34+  Mn183  1  0.92132581  0.50112155  0.25650276  1
  Mn3.34+  Mn184  1  0.26194791  0.49491755  0.25827642  1
  Mn3.34+  Mn185  1  0.75527542  0.00125473  0.41176465  1
  Mn3.34+  Mn186  1  0.26948860  0.49324038  0.91500725  1
  Mn3.34+  Mn187  1  0.59138826  0.00332503  0.24376119  1
  Mn3.34+  Mn188  1  0.42185891  0.00105712  0.75094904  1
  Mn3.34+  Mn189  1  0.91300411  -0.00537062  0.93632293  1
  Mn3.34+  Mn190  1  0.74869641  -0.00311812  0.76204060  1
  Mn3.34+  Mn191  1  0.58640607  0.00301049  0.59290995  1
  Mn3.34+  Mn192  1  0.57883121  -0.00231462  0.24262911  1
  Mn3.34+  Mn193  1  0.27422761  0.49814043  0.25993324  1
  Mn3.34+  Mn194  1  0.24978459  -0.00121666  0.25469178  1
  Mn3.34+  Mn195  1  0.25432346  0.00173751  0.58816064  1
  Mn3.34+  Mn196  1  0.07014973  -0.00131356  0.74261231  1
  Mn3.34+  Mn197  1  0.08430393  0.49826736  0.41147218  1
  Mn3.34+  Mn198  1  0.25444028  0.49809190  0.91149312  1
  Mn3.34+  Mn199  1  0.75297585  0.50150014  0.07095903  1
  Mn3.34+  Mn200  1  0.58414080  0.49795809  0.91551370  1
  Mn3.34+  Mn201  1  0.43389889  0.50139019  0.09782062  1
  Mn3.34+  Mn202  1  0.07595433  -0.00216665  0.08617800  1
  Mn3.34+  Mn203  1  0.42148127  0.00027932  0.08882385  1
  Mn3.34+  Mn204  1  0.76302857  -0.00817034  0.76359040  1
  Mn3.34+  Mn205  1  0.90786053  0.00028794  0.57516836  1
  Mn3.34+  Mn206  1  0.74328649  0.50053061  0.41535204  1
  Mn3.34+  Mn207  1  0.41395501  -0.00119417  0.41357277  1
  Mn3.34+  Mn208  1  0.90351656  0.50142620  0.60237554  1
  Mn3.34+  Mn209  1  0.08903506  0.50117565  0.75384643  1
  Mn3.34+  Mn210  1  0.59449794  0.49675069  0.58289908  1
  Mn3.34+  Mn211  1  0.60401234  0.50317065  0.58393660  1
  Mn3.34+  Mn212  1  0.07690407  -0.00517328  0.40710080  1
  Mn3.34+  Mn213  1  0.07591114  0.49451574  0.75334047  1
  Mn3.34+  Mn214  1  0.57467023  0.49231992  0.91812382  1
  Mn3.34+  Mn215  1  0.24653698  0.00589721  0.92843824  1
  O2-  O216  1  0.00174056  0.15881888  -0.00135246  1
  O2-  O217  1  -0.00223123  0.16196641  0.34006931  1
  O2-  O218  1  -0.00572147  0.14650207  0.65772210  1
  O2-  O219  1  0.00038097  0.66012711  -0.00685932  1
  O2-  O220  1  -0.00800660  0.64332913  0.33303244  1
  O2-  O221  1  0.00570832  0.64607540  0.66655512  1
  O2-  O222  1  0.33390085  0.17499905  0.00362210  1
  O2-  O223  1  0.32636673  0.17684400  0.34222108  1
  O2-  O224  1  0.33026656  0.15450023  0.66856765  1
  O2-  O225  1  0.33269549  0.65310670  0.01129125  1
  O2-  O226  1  0.33129111  0.66062898  0.33315852  1
  O2-  O227  1  0.33846014  0.65382852  0.66099941  1
  O2-  O228  1  0.66454937  0.15883587  -0.00791747  1
  O2-  O229  1  0.66505372  0.15678376  0.32760987  1
  O2-  O230  1  0.66479879  0.16806272  0.66940455  1
  O2-  O231  1  0.66445872  0.66995097  -0.00158135  1
  O2-  O232  1  0.66621872  0.67468079  0.33285047  1
  O2-  O233  1  0.66827576  0.65270385  0.66988129  1
  O2-  O234  1  0.17053228  0.15513934  0.00743393  1
  O2-  O235  1  0.15422729  0.16140772  0.33038435  1
  O2-  O236  1  0.16785583  0.14765510  0.65645564  1
  O2-  O237  1  0.16901880  0.65025510  -0.00413563  1
  O2-  O238  1  0.16821189  0.66094528  0.33702237  1
  O2-  O239  1  0.16773358  0.64402369  0.67197516  1
  O2-  O240  1  0.49736933  0.15779161  -0.00341206  1
  O2-  O241  1  0.50179633  0.16216276  0.32451884  1
  O2-  O242  1  0.49798348  0.15457218  0.66346246  1
  O2-  O243  1  0.49736622  0.65942711  -0.00356820  1
  O2-  O244  1  0.49864089  0.67055936  0.33848713  1
  O2-  O245  1  0.50429667  0.64086605  0.66316725  1
  O2-  O246  1  0.83402207  0.16835757  0.00877129  1
  O2-  O247  1  0.84185702  0.17592477  0.32623042  1
  O2-  O248  1  0.83805104  0.15800448  0.67288233  1
  O2-  O249  1  0.84651886  0.67183928  -0.00541482  1
  O2-  O250  1  0.82838648  0.64578608  0.32287178  1
  O2-  O251  1  0.83837768  0.65738889  0.68208727  1
  O2-  O252  1  -0.00237630  0.34715244  0.00396388  1
  O2-  O253  1  -0.00499345  0.34672679  0.33371067  1
  O2-  O254  1  -0.00443862  0.35331482  0.67392328  1
  O2-  O255  1  -0.00242670  0.84309908  -0.00191557  1
  O2-  O256  1  0.00362416  0.84588515  0.33041031  1
  O2-  O257  1  0.00187256  0.85111953  0.66484512  1
  O2-  O258  1  0.32548894  0.31652111  0.00512982  1
  O2-  O259  1  0.32654591  0.33260997  0.34036432  1
  O2-  O260  1  0.33386686  0.33003366  0.66637837  1
  O2-  O261  1  0.33257665  0.83772689  0.00776229  1
  O2-  O262  1  0.33126554  0.84230513  0.33310792  1
  O2-  O263  1  0.33404114  0.84159637  0.66702264  1
  O2-  O264  1  0.67335728  0.34603906  -0.00706010  1
  O2-  O265  1  0.66204565  0.35588468  0.34395369  1
  O2-  O266  1  0.67095111  0.33517381  0.66926792  1
  O2-  O267  1  0.65946051  0.83192804  0.00694059  1
  O2-  O268  1  0.66057854  0.84799246  0.33269398  1
  O2-  O269  1  0.66680376  0.85350939  0.67379809  1
  O2-  O270  1  0.16625411  0.34276887  -0.00429621  1
  O2-  O271  1  0.16571645  0.35414967  0.33240990  1
  O2-  O272  1  0.16710723  0.34661990  0.66896646  1
  O2-  O273  1  0.16568391  0.85117115  0.00391782  1
  O2-  O274  1  0.16825250  0.83647089  0.33314015  1
  O2-  O275  1  0.17065157  0.85698998  0.66919079  1
  O2-  O276  1  0.49979247  0.32774868  0.00184166  1
  O2-  O277  1  0.49484431  0.33520286  0.33243355  1
  O2-  O278  1  0.49146182  0.33203895  0.66014127  1
  O2-  O279  1  0.49853840  0.79976207  0.00105203  1
  O2-  O280  1  0.50180107  0.84030457  0.32946005  1
  O2-  O281  1  0.49858573  0.83980865  0.66692947  1
  O2-  O282  1  0.83563509  0.35261946  0.00386549  1
  O2-  O283  1  0.82882821  0.36039856  0.33252158  1
  O2-  O284  1  0.82993970  0.33579446  0.67199744  1
  O2-  O285  1  0.83455245  0.83396633  -0.00029839  1
  O2-  O286  1  0.83123663  0.84750295  0.33004591  1
  O2-  O287  1  0.83394778  0.84525614  0.67037166  1
  O2-  O288  1  0.00203080  0.17636166  0.16360580  1
  O2-  O289  1  0.00376509  0.17600477  0.51155404  1
  O2-  O290  1  -0.00580811  0.18815805  0.81850255  1
  O2-  O291  1  0.00345247  0.68950329  0.16436726  1
  O2-  O292  1  0.00376435  0.66590534  0.49426150  1
  O2-  O293  1  -0.00323653  0.69658723  0.83798304  1
  O2-  O294  1  0.34347908  0.18253048  0.16369969  1
  O2-  O295  1  0.34065227  0.18796737  0.50672910  1
  O2-  O296  1  0.33652419  0.19110930  0.83928393  1
  O2-  O297  1  0.33281138  0.69709946  0.16886603  1
  O2-  O298  1  0.33138031  0.68225176  0.50055026  1
  O2-  O299  1  0.32898200  0.68689620  0.82677302  1
  O2-  O300  1  0.66542942  0.17738330  0.16294975  1
  O2-  O301  1  0.66731042  0.17895942  0.49693106  1
  O2-  O302  1  0.66481344  0.17856538  0.83738585  1
  O2-  O303  1  0.66700379  0.67671867  0.17647455  1
  O2-  O304  1  0.66940945  0.68281481  0.49840927  1
  O2-  O305  1  0.66717431  0.68936242  0.83177728  1
  O2-  O306  1  0.16071666  0.17206015  0.16094371  1
  O2-  O307  1  0.16542677  0.16883856  0.49835661  1
  O2-  O308  1  0.17458460  0.18267736  0.84130959  1
  O2-  O309  1  0.17031940  0.68180745  0.15721300  1
  O2-  O310  1  0.16099002  0.67719017  0.51067477  1
  O2-  O311  1  0.16509264  0.67743147  0.82896572  1
  O2-  O312  1  0.50782784  0.18544581  0.16269933  1
  O2-  O313  1  0.50501557  0.17878306  0.50287442  1
  O2-  O314  1  0.50684663  0.18754642  0.82731680  1
  O2-  O315  1  0.50610788  0.69116294  0.16646798  1
  O2-  O316  1  0.49668457  0.68254129  0.50682937  1
  O2-  O317  1  0.50113665  0.69478274  0.83541075  1
  O2-  O318  1  0.82375600  0.15960084  0.15648839  1
  O2-  O319  1  0.83782987  0.18279358  0.49185323  1
  O2-  O320  1  0.82830829  0.16952104  0.84593333  1
  O2-  O321  1  0.84134533  0.67669216  0.16230647  1
  O2-  O322  1  0.84172189  0.67524018  0.48127266  1
  O2-  O323  1  0.83493636  0.68914427  0.83778116  1
  O2-  O324  1  0.00505339  0.32214093  0.16885915  1
  O2-  O325  1  -0.00480099  0.32670105  0.49421748  1
  O2-  O326  1  -0.00075959  0.32420438  0.83509282  1
  O2-  O327  1  -0.00028449  0.82229596  0.16842137  1
  O2-  O328  1  0.00159932  0.82808894  0.50286068  1
  O2-  O329  1  -0.00079022  0.82008966  0.83304501  1
  O2-  O330  1  0.32858306  0.32097884  0.16482628  1
  O2-  O331  1  0.33546172  0.32189064  0.50096070  1
  O2-  O332  1  0.33120191  0.30777364  0.82727043  1
  O2-  O333  1  0.33457451  0.81301345  0.16950845  1
  O2-  O334  1  0.32964470  0.82340383  0.50104825  1
  O2-  O335  1  0.32865334  0.81875629  0.82277594  1
  O2-  O336  1  0.66722402  0.33083145  0.16902618  1
  O2-  O337  1  0.67029297  0.32453887  0.50436895  1
  O2-  O338  1  0.67473809  0.31343147  0.83681332  1
  O2-  O339  1  0.67385083  0.81831857  0.17504594  1
  O2-  O340  1  0.66765449  0.82952413  0.50052250  1
  O2-  O341  1  0.66479385  0.81432900  0.83665380  1
  O2-  O342  1  0.16938006  0.32467122  0.16077656  1
  O2-  O343  1  0.17190638  0.32603621  0.49479633  1
  O2-  O344  1  0.16507718  0.31418203  0.83337840  1
  O2-  O345  1  0.16809457  0.81513124  0.16743407  1
  O2-  O346  1  0.16311632  0.81949466  0.50289441  1
  O2-  O347  1  0.16714710  0.82340605  0.82785300  1
  O2-  O348  1  0.49500545  0.30479920  0.16367547  1
  O2-  O349  1  0.50168938  0.31406950  0.48855339  1
  O2-  O350  1  0.50256869  0.31064078  0.83067132  1
  O2-  O351  1  0.50070372  0.81004986  0.16944786  1
  O2-  O352  1  0.50347123  0.82320368  0.49651256  1
  O2-  O353  1  0.50327602  0.81323198  0.83002220  1
  O2-  O354  1  0.82161012  0.33481756  0.17625310  1
  O2-  O355  1  0.83877524  0.32814931  0.49629707  1
  O2-  O356  1  0.83226740  0.32069303  0.83411744  1
  O2-  O357  1  0.83581362  0.82599779  0.16563243  1
  O2-  O358  1  0.82645160  0.82204279  0.51177678  1
  O2-  O359  1  0.83758888  0.81029630  0.83198015  1
  O2-  O360  1  0.08665310  0.08115948  0.11045521  1
  O2-  O361  1  0.08524958  0.06742516  0.45224442  1
  O2-  O362  1  0.06155344  0.07779294  0.76887550  1
  O2-  O363  1  0.08462621  0.58711172  0.09722323  1
  O2-  O364  1  0.10256392  0.57734106  0.44430634  1
  O2-  O365  1  0.07671671  0.57825507  0.80560908  1
  O2-  O366  1  0.41258553  0.08023755  0.11899572  1
  O2-  O367  1  0.41122220  0.07691478  0.42671101  1
  O2-  O368  1  0.42572483  0.08114125  0.78778060  1
  O2-  O369  1  0.40611731  0.58383287  0.14084243  1
  O2-  O370  1  0.40901267  0.58767178  0.44389793  1
  O2-  O371  1  0.40520763  0.57990693  0.79189049  1
  O2-  O372  1  0.74900673  0.07903305  0.07613625  1
  O2-  O373  1  0.75000896  0.07522690  0.44076199  1
  O2-  O374  1  0.74195905  0.07520580  0.79551633  1
  O2-  O375  1  0.75706075  0.56801672  0.12489012  1
  O2-  O376  1  0.75901050  0.58220200  0.43162216  1
  O2-  O377  1  0.74971682  0.58898494  0.79001353  1
  O2-  O378  1  0.25528472  0.07670972  0.23383625  1
  O2-  O379  1  0.27016872  0.08227080  0.54191335  1
  O2-  O380  1  0.27512383  0.08217545  0.88888723  1
  O2-  O381  1  0.24572245  0.57915802  0.21187893  1
  O2-  O382  1  0.25986212  0.58396577  0.55403832  1
  O2-  O383  1  0.26038997  0.58026316  0.87749762  1
  O2-  O384  1  0.57955950  0.08393906  0.21495165  1
  O2-  O385  1  0.57289873  0.08294320  0.55230247  1
  O2-  O386  1  0.57216968  0.08266115  0.88908002  1
  O2-  O387  1  0.58215989  0.56043174  0.20422829  1
  O2-  O388  1  0.57022287  0.57911087  0.53776269  1
  O2-  O389  1  0.56871516  0.58139360  0.87500933  1
  O2-  O390  1  0.92237143  0.07759405  0.23929840  1
  O2-  O391  1  0.92244768  0.08303688  0.54061110  1
  O2-  O392  1  0.89776514  0.06456964  0.88699256  1
  O2-  O393  1  0.92378872  0.57865390  0.20422468  1
  O2-  O394  1  0.94710698  0.56463107  0.54308805  1
  O2-  O395  1  0.92327351  0.58497146  0.88708653  1
  O2-  O396  1  0.09977269  0.41487624  0.10261301  1
  O2-  O397  1  0.06737847  0.41968051  0.43769189  1
  O2-  O398  1  0.09691982  0.41755199  0.79017103  1
  O2-  O399  1  0.10023969  0.91794114  0.12402241  1
  O2-  O400  1  0.09783447  0.91732717  0.44136007  1
  O2-  O401  1  0.08876054  0.92086568  0.78160897  1
  O2-  O402  1  0.38226897  0.42234990  0.09539369  1
  O2-  O403  1  0.42698535  0.41769237  0.44798896  1
  O2-  O404  1  0.39801468  0.41784771  0.75661190  1
  O2-  O405  1  0.40017265  0.91843321  0.11651173  1
  O2-  O406  1  0.43275442  0.91807104  0.44572500  1
  O2-  O407  1  0.40950160  0.91973172  0.77741256  1
  O2-  O408  1  0.75396833  0.42713789  0.11160118  1
  O2-  O409  1  0.75549044  0.42607201  0.46223923  1
  O2-  O410  1  0.75628878  0.41605614  0.77880798  1
  O2-  O411  1  0.74554091  0.91599978  0.10785600  1
  O2-  O412  1  0.73257446  0.92283614  0.44967344  1
  O2-  O413  1  0.75828867  0.91145463  0.78871028  1
  O2-  O414  1  0.24174634  0.41934992  0.21515414  1
  O2-  O415  1  0.26596993  0.41781722  0.56877388  1
  O2-  O416  1  0.26053760  0.41190686  0.89167835  1
  O2-  O417  1  0.25134074  0.92007012  0.21419570  1
  O2-  O418  1  0.25621060  0.91864192  0.55238523  1
  O2-  O419  1  0.24798917  0.92311155  0.88426579  1
  O2-  O420  1  0.58551292  0.41535288  0.24018387  1
  O2-  O421  1  0.57201067  0.41842111  0.54714419  1
  O2-  O422  1  0.59083202  0.41417624  0.88218834  1
  O2-  O423  1  0.57905576  0.92076135  0.19800930  1
  O2-  O424  1  0.58866352  0.92234826  0.55077220  1
  O2-  O425  1  0.58131701  0.92257046  0.89759539  1
  O2-  O426  1  0.93298480  0.42206316  0.21607199  1
  O2-  O427  1  0.90308422  0.42540396  0.55548453  1
  O2-  O428  1  0.91528657  0.41772651  0.89198528  1
  O2-  O429  1  0.91685675  0.92832708  0.20827489  1
  O2-  O430  1  0.89622320  0.91698107  0.55794023  1
  O2-  O431  1  0.92461015  0.92783278  0.87623112  1
  O2-  O432  1  -0.00582416  -0.02416607  0.00612351  1
  O2-  O433  1  0.01408235  -0.00293473  0.31005872  1
  O2-  O434  1  0.01604947  -0.00072421  0.63283276  1
  O2-  O435  1  -0.00505067  0.49417339  0.00269942  1
  O2-  O436  1  -0.02631116  0.50663677  0.37442855  1
  O2-  O437  1  0.00409107  0.51057040  0.66433819  1
  O2-  O438  1  0.32128811  0.00153218  0.02305098  1
  O2-  O439  1  0.33794444  -0.01504023  0.32822331  1
  O2-  O440  1  0.32366862  -0.00996204  0.68686362  1
  O2-  O441  1  0.32931377  0.52643613  0.01021177  1
  O2-  O442  1  0.34217882  0.51912733  0.34044315  1
  O2-  O443  1  0.33812002  0.52090565  0.66975378  1
  O2-  O444  1  0.66421619  0.01221385  -0.00636568  1
  O2-  O445  1  0.65866926  -0.01030758  0.34166015  1
  O2-  O446  1  0.66039632  -0.01052057  0.68551028  1
  O2-  O447  1  0.67216167  0.50726263  -0.00693645  1
  O2-  O448  1  0.67092386  0.48207531  0.33701267  1
  O2-  O449  1  0.67047799  0.49855095  0.67484981  1
  O2-  O450  1  0.16581522  -0.01803718  0.00808777  1
  O2-  O451  1  0.17652394  -0.00226177  0.34401990  1
  O2-  O452  1  0.16832064  0.00749887  0.67667999  1
  O2-  O453  1  0.17122001  0.50519225  -0.00156107  1
  O2-  O454  1  0.18274241  0.49304725  0.34855472  1
  O2-  O455  1  0.16794479  0.52699509  0.67449664  1
  O2-  O456  1  0.50198207  0.00861280  0.00490730  1
  O2-  O457  1  0.50398406  -0.01156031  0.33432077  1
  O2-  O458  1  0.48465218  -0.00770792  0.65291487  1
  O2-  O459  1  0.49377997  0.51938849  -0.00572835  1
  O2-  O460  1  0.51090208  0.50392563  0.35506702  1
  O2-  O461  1  0.49275462  0.50930004  0.64798307  1
  O2-  O462  1  0.82855197  -0.00432700  -0.00323599  1
  O2-  O463  1  0.82783362  -0.00864616  0.32445200  1
  O2-  O464  1  0.83431481  -0.00863214  0.67044567  1
  O2-  O465  1  0.83953602  0.49934435  0.01274958  1
  O2-  O466  1  0.82709714  0.48549961  0.32540614  1
  O2-  O467  1  0.84260268  0.48477514  0.68907003  1
  O2-  O468  1  0.07175074  0.75124465  0.39776146  1
  O2-  O469  1  0.91884246  0.24930122  0.60688420  1
  O2-  O470  1  0.75956389  0.75220457  0.39358436  1
  O2-  O471  1  0.74698712  0.75142758  0.71774373  1
  O2-  O472  1  0.08423400  0.25604716  0.39960988  1
  O2-  O473  1  0.91047159  0.25597726  0.26125025  1
  O2-  O474  1  0.24101411  0.75326789  0.93807476  1
  O2-  O475  1  0.58577864  0.74698386  0.60916859  1
  O2-  O476  1  0.58479477  0.25170391  0.60364456  1
  O2-  O477  1  0.07860235  0.25570540  0.71885420  1
  O2-  O478  1  0.74955123  0.26072765  0.39482689  1
  O2-  O479  1  0.75544469  0.75263553  0.07559684  1
  O2-  O480  1  0.08650157  0.24721143  0.05916560  1
  O2-  O481  1  0.91464196  0.25668446  0.94038791  1
  O2-  O482  1  0.58803962  0.25047781  0.94049762  1
  O2-  O483  1  0.08987735  0.75132613  0.71322452  1
  O2-  O484  1  0.23431167  0.25127739  0.60660490  1
  O2-  O485  1  0.75456223  0.25757122  0.07069705  1
  O2-  O486  1  0.59972184  0.25449814  0.27386503  1
  O2-  O487  1  0.92520601  0.75341764  0.59994384  1
  O2-  O488  1  0.91764927  0.74597913  0.27821053  1
  O2-  O489  1  0.40881489  0.75165200  0.40316279  1
  O2-  O490  1  0.08661314  0.75258049  0.05574030  1
  O2-  O491  1  0.23577033  0.25339403  0.26088582  1
  O2-  O492  1  0.24736276  0.75005241  0.60989832  1
