# generated using pymatgen
data_Ca108Mn108O277
_symmetry_space_group_name_H-M   'P 1'
_cell_length_a   16.02687777
_cell_length_b   22.30724223
_cell_length_c   16.38962357
_cell_angle_alpha   89.99770621
_cell_angle_beta   89.99642557
_cell_angle_gamma   90.00280080
_symmetry_Int_Tables_number   1
_chemical_formula_structural   Ca108Mn108O277
_chemical_formula_sum   'Ca108 Mn108 O277'
_cell_volume   5859.54353355
_cell_formula_units_Z   1
loop_
 _symmetry_equiv_pos_site_id
 _symmetry_equiv_pos_as_xyz
  1  'x, y, z'
loop_
 _atom_type_symbol
 _atom_type_oxidation_number
  Ca2+  2.0
  Mn3.34+  3.34
  O2-  -2.0
loop_
 _atom_site_type_symbol
 _atom_site_label
 _atom_site_symmetry_multiplicity
 _atom_site_fract_x
 _atom_site_fract_y
 _atom_site_fract_z
 _atom_site_occupancy
  Ca2+  Ca0  1  0.09332395  0.24986707  0.26009283  1
  Ca2+  Ca1  1  0.08095324  0.26463813  0.58652817  1
  Ca2+  Ca2  1  0.08482405  0.24266782  0.88748135  1
  Ca2+  Ca3  1  0.09631152  0.74140165  0.25988210  1
  Ca2+  Ca4  1  0.08314319  0.74112403  0.56511694  1
  Ca2+  Ca5  1  0.09217174  0.76105501  0.91873261  1
  Ca2+  Ca6  1  0.40811084  0.25674086  0.24455543  1
  Ca2+  Ca7  1  0.42245851  0.26131605  0.58622657  1
  Ca2+  Ca8  1  0.41401626  0.25643033  0.92283262  1
  Ca2+  Ca9  1  0.39324116  0.74571769  0.24453767  1
  Ca2+  Ca10  1  0.39902960  0.75017051  0.59762672  1
  Ca2+  Ca11  1  0.42045498  0.74299227  0.90853854  1
  Ca2+  Ca12  1  0.74898384  0.25482889  0.25008368  1
  Ca2+  Ca13  1  0.75063511  0.25265782  0.59279500  1
  Ca2+  Ca14  1  0.74723357  0.25476097  0.89777277  1
  Ca2+  Ca15  1  0.75915431  0.74967311  0.24170820  1
  Ca2+  Ca16  1  0.76637193  0.76144176  0.58576586  1
  Ca2+  Ca17  1  0.73914128  0.74905358  0.92157461  1
  Ca2+  Ca18  1  0.25242251  0.25195411  0.10407637  1
  Ca2+  Ca19  1  0.22777747  0.23799832  0.40878282  1
  Ca2+  Ca20  1  0.23507305  0.25194953  0.74501765  1
  Ca2+  Ca21  1  0.24672536  0.73788405  0.10759739  1
  Ca2+  Ca22  1  0.22642764  0.73585035  0.40578376  1
  Ca2+  Ca23  1  0.26515595  0.73264186  0.74298525  1
  Ca2+  Ca24  1  0.57475909  0.25754196  0.08855992  1
  Ca2+  Ca25  1  0.58236595  0.25202459  0.41339147  1
  Ca2+  Ca26  1  0.59640285  0.25331093  0.74194625  1
  Ca2+  Ca27  1  0.57948921  0.74458500  0.07781910  1
  Ca2+  Ca28  1  0.57661150  0.75722582  0.40764368  1
  Ca2+  Ca29  1  0.56258879  0.75036662  0.76493909  1
  Ca2+  Ca30  1  0.92220642  0.25597204  0.09333468  1
  Ca2+  Ca31  1  0.93490219  0.24950868  0.41423029  1
  Ca2+  Ca32  1  0.92296997  0.25874468  0.74319911  1
  Ca2+  Ca33  1  0.91727934  0.74348761  0.09271842  1
  Ca2+  Ca34  1  0.94361939  0.73187352  0.41141439  1
  Ca2+  Ca35  1  0.92138225  0.75504371  0.73760987  1
  Ca2+  Ca36  1  0.55681696  0.59406180  0.75659694  1
  Ca2+  Ca37  1  0.91765550  0.11124339  0.75717718  1
  Ca2+  Ca38  1  0.58176321  0.09087950  0.74291677  1
  Ca2+  Ca39  1  0.59379169  0.09119420  0.74364308  1
  Ca2+  Ca40  1  0.08990617  0.57622084  0.91001042  1
  Ca2+  Ca41  1  0.25637371  0.10158978  0.08312430  1
  Ca2+  Ca42  1  0.59719395  0.09104878  0.41039952  1
  Ca2+  Ca43  1  0.58132157  0.58799217  0.07958252  1
  Ca2+  Ca44  1  0.09520041  0.11168671  0.57826670  1
  Ca2+  Ca45  1  0.92273408  0.59802912  0.09727056  1
  Ca2+  Ca46  1  0.37370593  0.57932697  0.61401799  1
  Ca2+  Ca47  1  0.77494946  0.60289912  0.25188224  1
  Ca2+  Ca48  1  0.09070663  0.59844604  0.26618512  1
  Ca2+  Ca49  1  0.76240020  0.60244419  0.25396590  1
  Ca2+  Ca50  1  0.75636590  0.09062323  0.58266059  1
  Ca2+  Ca51  1  0.76797322  0.58052307  0.58015370  1
  Ca2+  Ca52  1  0.38614614  0.10484636  0.24487716  1
  Ca2+  Ca53  1  0.42416670  0.59152738  0.91057890  1
  Ca2+  Ca54  1  0.08572899  0.11372476  0.57481621  1
  Ca2+  Ca55  1  0.74705403  0.09260583  0.58657727  1
  Ca2+  Ca56  1  0.09973625  0.58064515  0.57563196  1
  Ca2+  Ca57  1  0.11284587  0.10183151  0.26081983  1
  Ca2+  Ca58  1  0.75595238  0.57783178  0.58219382  1
  Ca2+  Ca59  1  0.59425248  0.58431817  0.39901018  1
  Ca2+  Ca60  1  0.95379157  0.59331307  0.41208366  1
  Ca2+  Ca61  1  0.09819142  0.59502101  0.26110842  1
  Ca2+  Ca62  1  0.59562663  0.10622249  0.09317988  1
  Ca2+  Ca63  1  0.89981956  0.09925410  0.08915748  1
  Ca2+  Ca64  1  0.90816832  0.09493645  0.41054963  1
  Ca2+  Ca65  1  0.38475566  0.57659721  0.61799760  1
  Ca2+  Ca66  1  0.21836046  0.58601894  0.41314765  1
  Ca2+  Ca67  1  0.92085671  0.09459158  0.41099949  1
  Ca2+  Ca68  1  0.21344146  0.10125958  0.75735477  1
  Ca2+  Ca69  1  0.92832373  0.11175160  0.75791517  1
  Ca2+  Ca70  1  0.34780339  0.58679640  0.23292388  1
  Ca2+  Ca71  1  0.75925296  0.10471197  0.91460152  1
  Ca2+  Ca72  1  0.08822217  0.40204020  0.91032589  1
  Ca2+  Ca73  1  0.75632872  0.90725912  0.91057980  1
  Ca2+  Ca74  1  0.25514470  0.40685543  0.09325706  1
  Ca2+  Ca75  1  0.41675615  0.41121499  0.92445962  1
  Ca2+  Ca76  1  0.23785200  0.90113423  0.08620454  1
  Ca2+  Ca77  1  0.40666726  0.90905266  0.91185700  1
  Ca2+  Ca78  1  0.25551694  0.89847390  0.41986609  1
  Ca2+  Ca79  1  0.74370883  0.90751305  0.91212514  1
  Ca2+  Ca80  1  0.24004276  0.42045354  0.41588459  1
  Ca2+  Ca81  1  0.41800799  0.90477211  0.58392323  1
  Ca2+  Ca82  1  0.58259793  0.39889856  0.75262781  1
  Ca2+  Ca83  1  0.90591104  0.90286527  0.42244357  1
  Ca2+  Ca84  1  0.40990498  0.90320022  0.25833593  1
  Ca2+  Ca85  1  0.93369353  0.90080559  0.09369396  1
  Ca2+  Ca86  1  0.58458553  0.90366126  0.08059180  1
  Ca2+  Ca87  1  0.90678713  0.40035699  0.09003941  1
  Ca2+  Ca88  1  0.09595643  0.41985996  0.26128415  1
  Ca2+  Ca89  1  0.92284771  0.90324284  0.09092811  1
  Ca2+  Ca90  1  0.58451919  0.90538867  0.73844417  1
  Ca2+  Ca91  1  0.93190739  0.40653386  0.41931144  1
  Ca2+  Ca92  1  0.76059716  0.91302254  0.27082374  1
  Ca2+  Ca93  1  0.74792403  0.91323350  0.27114750  1
  Ca2+  Ca94  1  0.08523117  0.41975770  0.26101845  1
  Ca2+  Ca95  1  0.59309710  0.90879883  0.42032968  1
  Ca2+  Ca96  1  0.24758364  0.91166279  0.74298568  1
  Ca2+  Ca97  1  0.58938972  0.40498217  0.08706569  1
  Ca2+  Ca98  1  0.23099494  0.42133992  0.42056147  1
  Ca2+  Ca99  1  0.89390262  0.90501480  0.42475224  1
  Ca2+  Ca100  1  0.57638732  0.40487535  0.41476264  1
  Ca2+  Ca101  1  0.07797660  0.90272750  0.59024360  1
  Ca2+  Ca102  1  0.75344340  0.40792884  0.58948007  1
  Ca2+  Ca103  1  0.41967525  0.90897315  0.91254694  1
  Ca2+  Ca104  1  0.23560107  0.90965901  0.74607277  1
  Ca2+  Ca105  1  0.21674588  0.43140032  0.72122164  1
  Ca2+  Ca106  1  0.58756415  0.40456550  0.41425790  1
  Ca2+  Ca107  1  0.93845664  0.41202817  0.74276513  1
  Mn3.34+  Mn108  1  0.08486715  0.33830311  0.08439477  1
  Mn3.34+  Mn109  1  0.08492752  0.33264648  0.42022681  1
  Mn3.34+  Mn110  1  0.08548114  0.33422625  0.74838041  1
  Mn3.34+  Mn111  1  0.08725033  0.82846046  0.08391141  1
  Mn3.34+  Mn112  1  0.08397475  0.83214025  0.41612270  1
  Mn3.34+  Mn113  1  0.08070461  0.83255124  0.75343864  1
  Mn3.34+  Mn114  1  0.41746856  0.33844966  0.08592433  1
  Mn3.34+  Mn115  1  0.41120126  0.33585327  0.41812667  1
  Mn3.34+  Mn116  1  0.41039425  0.33317099  0.75223292  1
  Mn3.34+  Mn117  1  0.41388455  0.82905878  0.08521065  1
  Mn3.34+  Mn118  1  0.41727017  0.83228808  0.41948537  1
  Mn3.34+  Mn119  1  0.41507854  0.83157643  0.74911958  1
  Mn3.34+  Mn120  1  0.74934479  0.33265088  0.08336514  1
  Mn3.34+  Mn121  1  0.75431528  0.33239473  0.41909200  1
  Mn3.34+  Mn122  1  0.75373227  0.33290018  0.75141085  1
  Mn3.34+  Mn123  1  0.74949867  0.83238544  0.08894738  1
  Mn3.34+  Mn124  1  0.74743879  0.82200619  0.42059805  1
  Mn3.34+  Mn125  1  0.75198855  0.83270912  0.74548446  1
  Mn3.34+  Mn126  1  0.25346084  0.33685685  0.25121188  1
  Mn3.34+  Mn127  1  0.25465382  0.34263453  0.58221068  1
  Mn3.34+  Mn128  1  0.25102991  0.33667058  0.91198572  1
  Mn3.34+  Mn129  1  0.24518560  0.83274354  0.25176747  1
  Mn3.34+  Mn130  1  0.24717218  0.83244856  0.57944581  1
  Mn3.34+  Mn131  1  0.24494132  0.83520963  0.91730676  1
  Mn3.34+  Mn132  1  0.58178548  0.33395294  0.24743192  1
  Mn3.34+  Mn133  1  0.58238030  0.33320517  0.58315020  1
  Mn3.34+  Mn134  1  0.58377907  0.33733588  0.91571007  1
  Mn3.34+  Mn135  1  0.58020593  0.82883799  0.24671043  1
  Mn3.34+  Mn136  1  0.58432982  0.83152731  0.58122090  1
  Mn3.34+  Mn137  1  0.58183131  0.83227283  0.91477058  1
  Mn3.34+  Mn138  1  0.91615110  0.33124641  0.25083549  1
  Mn3.34+  Mn139  1  0.91782281  0.33612758  0.58191869  1
  Mn3.34+  Mn140  1  0.91451639  0.33244694  0.91583139  1
  Mn3.34+  Mn141  1  0.92430149  0.82664996  0.25157396  1
  Mn3.34+  Mn142  1  0.91905269  0.83105184  0.58612006  1
  Mn3.34+  Mn143  1  0.92080822  0.83187343  0.91091781  1
  Mn3.34+  Mn144  1  0.08404755  0.66473259  0.08968297  1
  Mn3.34+  Mn145  1  0.41639213  0.66419044  0.08666143  1
  Mn3.34+  Mn146  1  0.40895703  0.65865859  0.41862640  1
  Mn3.34+  Mn147  1  0.07865294  0.16805962  0.07786809  1
  Mn3.34+  Mn148  1  0.40720350  0.16254890  0.42314853  1
  Mn3.34+  Mn149  1  0.58630025  0.67195793  0.57341929  1
  Mn3.34+  Mn150  1  0.24277198  0.66706641  0.58113733  1
  Mn3.34+  Mn151  1  0.57980242  0.66992201  0.58295930  1
  Mn3.34+  Mn152  1  0.75142496  0.17344607  0.08741921  1
  Mn3.34+  Mn153  1  0.91740924  0.66295167  0.91501487  1
  Mn3.34+  Mn154  1  0.74802922  0.16709049  0.41526117  1
  Mn3.34+  Mn155  1  0.57992916  0.17043290  0.91639807  1
  Mn3.34+  Mn156  1  0.24281568  0.66089233  0.91753462  1
  Mn3.34+  Mn157  1  0.42112322  0.66596218  0.41590398  1
  Mn3.34+  Mn158  1  0.41728024  0.16732171  0.42066478  1
  Mn3.34+  Mn159  1  0.91330000  0.17140834  0.57816271  1
  Mn3.34+  Mn160  1  0.56940353  0.16572070  0.91457048  1
  Mn3.34+  Mn161  1  0.58074644  0.66606091  0.24381693  1
  Mn3.34+  Mn162  1  0.08795727  0.16217972  0.07882237  1
  Mn3.34+  Mn163  1  0.41040685  0.16688048  0.74926816  1
  Mn3.34+  Mn164  1  0.25352491  0.66507844  0.91802447  1
  Mn3.34+  Mn165  1  0.92738353  0.66843153  0.91692166  1
  Mn3.34+  Mn166  1  0.91428506  0.16811947  0.24814251  1
  Mn3.34+  Mn167  1  0.74608647  0.66500517  0.75526285  1
  Mn3.34+  Mn168  1  0.92260147  0.66342951  0.58311542  1
  Mn3.34+  Mn169  1  0.41378188  0.17250772  0.08452330  1
  Mn3.34+  Mn170  1  0.08337456  0.65327256  0.74679164  1
  Mn3.34+  Mn171  1  0.58239826  0.17211508  0.24935629  1
  Mn3.34+  Mn172  1  0.58332511  0.66336353  0.91883543  1
  Mn3.34+  Mn173  1  0.25649931  0.17017277  0.58580997  1
  Mn3.34+  Mn174  1  0.75233243  0.67371382  0.41989098  1
  Mn3.34+  Mn175  1  0.75833474  0.65812437  0.75766826  1
  Mn3.34+  Mn176  1  0.58142890  0.16779994  0.57955082  1
  Mn3.34+  Mn177  1  0.74857419  0.66684558  0.08187072  1
  Mn3.34+  Mn178  1  0.91380714  0.17855407  0.91862628  1
  Mn3.34+  Mn179  1  0.25862267  0.16337182  0.91039505  1
  Mn3.34+  Mn180  1  0.57906536  0.00112504  0.58279113  1
  Mn3.34+  Mn181  1  0.74793609  0.49917687  0.08449906  1
  Mn3.34+  Mn182  1  0.75363063  0.49950134  0.41472594  1
  Mn3.34+  Mn183  1  0.75024497  0.49781128  0.74725478  1
  Mn3.34+  Mn184  1  0.42152031  0.00270361  0.08447025  1
  Mn3.34+  Mn185  1  0.41705636  0.00444303  0.74614084  1
  Mn3.34+  Mn186  1  0.09880656  0.00199143  0.41685096  1
  Mn3.34+  Mn187  1  0.41133191  0.00070872  0.41615425  1
  Mn3.34+  Mn188  1  0.94364196  -0.00244237  0.91845886  1
  Mn3.34+  Mn189  1  0.08882227  -0.00273844  0.41517751  1
  Mn3.34+  Mn190  1  0.23428054  0.00369768  0.92897093  1
  Mn3.34+  Mn191  1  0.90735220  0.49895038  0.91830290  1
  Mn3.34+  Mn192  1  0.74584035  0.00005362  0.08231960  1
  Mn3.34+  Mn193  1  0.57485163  0.00043067  0.25260215  1
  Mn3.34+  Mn194  1  0.25202280  0.00305591  0.58892355  1
  Mn3.34+  Mn195  1  0.75526886  -0.00061285  0.74371889  1
  Mn3.34+  Mn196  1  0.91252193  -0.00140000  0.59228189  1
  Mn3.34+  Mn197  1  0.58410353  -0.00102343  0.91689063  1
  Mn3.34+  Mn198  1  0.58910337  0.00633365  0.25305857  1
  Mn3.34+  Mn199  1  0.25224177  0.49718313  0.91178609  1
  Mn3.34+  Mn200  1  0.58670002  0.49873008  0.25140264  1
  Mn3.34+  Mn201  1  0.59361870  0.49939912  0.92707304  1
  Mn3.34+  Mn202  1  0.57638428  0.50093058  0.58068435  1
  Mn3.34+  Mn203  1  0.41733370  0.50033329  0.40899868  1
  Mn3.34+  Mn204  1  0.07448350  0.00030407  0.74722643  1
  Mn3.34+  Mn205  1  0.41475403  0.50241037  0.07454507  1
  Mn3.34+  Mn206  1  0.09391502  0.50464872  0.07115311  1
  Mn3.34+  Mn207  1  0.40742201  -0.00386477  0.08415379  1
  Mn3.34+  Mn208  1  0.91400410  0.00339160  0.25225784  1
  Mn3.34+  Mn209  1  0.25472382  -0.00382171  0.24908092  1
  Mn3.34+  Mn210  1  0.09049333  -0.00345068  0.09119636  1
  Mn3.34+  Mn211  1  0.41313093  0.49210840  0.74603861  1
  Mn3.34+  Mn212  1  0.93244648  -0.00156317  0.91667777  1
  Mn3.34+  Mn213  1  0.90951612  0.49656971  0.25424967  1
  Mn3.34+  Mn214  1  0.89816912  0.50466985  0.91946375  1
  Mn3.34+  Mn215  1  0.93064798  0.49819631  0.59363677  1
  O2-  O216  1  -0.00373075  0.15828759  0.00080556  1
  O2-  O217  1  -0.00608876  0.14689863  0.32443572  1
  O2-  O218  1  -0.00527423  0.15459600  0.65809555  1
  O2-  O219  1  0.00613920  0.64419121  -0.00419734  1
  O2-  O220  1  0.00484454  0.65989374  0.32179743  1
  O2-  O221  1  0.00024696  0.67049533  0.67144566  1
  O2-  O222  1  0.32932127  0.17610345  0.00303386  1
  O2-  O223  1  0.32767588  0.15862685  0.34466469  1
  O2-  O224  1  0.33352629  0.18792736  0.67030654  1
  O2-  O225  1  0.33474958  0.64675519  -0.00194831  1
  O2-  O226  1  0.33124369  0.64841367  0.33948907  1
  O2-  O227  1  0.32928524  0.66056949  0.66078545  1
  O2-  O228  1  0.66999632  0.16184205  -0.00385959  1
  O2-  O229  1  0.66173330  0.17309105  0.33950378  1
  O2-  O230  1  0.66366447  0.14997547  0.65900495  1
  O2-  O231  1  0.66224720  0.65798483  0.00660630  1
  O2-  O232  1  0.66834311  0.67267596  0.33213886  1
  O2-  O233  1  0.66710951  0.65022773  0.66309862  1
  O2-  O234  1  0.17056831  0.16324272  -0.00391997  1
  O2-  O235  1  0.16103658  0.17489394  0.32883059  1
  O2-  O236  1  0.17278244  0.16568108  0.66551063  1
  O2-  O237  1  0.16273351  0.65012346  -0.00514628  1
  O2-  O238  1  0.16600993  0.66178646  0.33568263  1
  O2-  O239  1  0.15890870  0.66908717  0.66433737  1
  O2-  O240  1  0.50268191  0.15121855  0.00455337  1
  O2-  O241  1  0.49443158  0.14402488  0.33580823  1
  O2-  O242  1  0.50456056  0.16008835  0.66841688  1
  O2-  O243  1  0.50100280  0.65261344  0.00026066  1
  O2-  O244  1  0.50329416  0.65321356  0.33446916  1
  O2-  O245  1  0.49730468  0.65672911  0.65772603  1
  O2-  O246  1  0.83427786  0.17704085  0.00460093  1
  O2-  O247  1  0.83677881  0.16958889  0.33854427  1
  O2-  O248  1  0.83398673  0.15308021  0.66061200  1
  O2-  O249  1  0.84120480  0.64951889  0.00173390  1
  O2-  O250  1  0.83028883  0.67473402  0.33636506  1
  O2-  O251  1  0.82881787  0.64620202  0.66365342  1
  O2-  O252  1  -0.00452428  0.34705901  0.00265830  1
  O2-  O253  1  0.00442900  0.35021323  0.32964367  1
  O2-  O254  1  -0.00029346  0.34296941  0.66606670  1
  O2-  O255  1  -0.00357425  0.84454859  0.00293768  1
  O2-  O256  1  -0.01035057  0.84687074  0.34405974  1
  O2-  O257  1  0.00809983  0.82826604  0.66198182  1
  O2-  O258  1  0.33450487  0.33853355  -0.00198696  1
  O2-  O259  1  0.32332103  0.35601229  0.34484939  1
  O2-  O260  1  0.33096915  0.31734113  0.66672509  1
  O2-  O261  1  0.33277940  0.85636746  0.00061128  1
  O2-  O262  1  0.33300891  0.84498996  0.33414877  1
  O2-  O263  1  0.33016255  0.84929977  0.66846414  1
  O2-  O264  1  0.66375073  0.33171411  0.00599046  1
  O2-  O265  1  0.66310466  0.33261510  0.33884044  1
  O2-  O266  1  0.66842488  0.34660847  0.66410010  1
  O2-  O267  1  0.66745425  0.84828580  -0.00371529  1
  O2-  O268  1  0.66636499  0.82485803  0.33145240  1
  O2-  O269  1  0.65850066  0.82296241  0.66942192  1
  O2-  O270  1  0.17060279  0.34423323  0.00284767  1
  O2-  O271  1  0.16536871  0.34407352  0.33170076  1
  O2-  O272  1  0.17256390  0.33696398  0.66598082  1
  O2-  O273  1  0.16164756  0.84531946  -0.00267279  1
  O2-  O274  1  0.16745950  0.84678500  0.33708230  1
  O2-  O275  1  0.16763840  0.84515346  0.66618945  1
  O2-  O276  1  0.50056367  0.35162442  0.00186929  1
  O2-  O277  1  0.50180072  0.34836597  0.33404211  1
  O2-  O278  1  0.50156021  0.33295783  0.67238740  1
  O2-  O279  1  0.49729163  0.85018171  -0.00211968  1
  O2-  O280  1  0.50608447  0.84444953  0.33706223  1
  O2-  O281  1  0.49829515  0.84000387  0.66590798  1
  O2-  O282  1  0.83488430  0.31153187  0.00124407  1
  O2-  O283  1  0.84130686  0.32696005  0.34188396  1
  O2-  O284  1  0.83846145  0.34751620  0.66904973  1
  O2-  O285  1  0.83267432  0.86015908  0.00664846  1
  O2-  O286  1  0.82953072  0.82628809  0.32668319  1
  O2-  O287  1  0.83696843  0.83904423  0.66604815  1
  O2-  O288  1  -0.00459399  0.17189641  0.16079555  1
  O2-  O289  1  -0.00485322  0.17143730  0.50046304  1
  O2-  O290  1  -0.01452178  0.18606598  0.83153628  1
  O2-  O291  1  -0.00134564  0.67989032  0.15794368  1
  O2-  O292  1  -0.00037017  0.66791855  0.50536884  1
  O2-  O293  1  0.00532822  0.68455687  0.83387971  1
  O2-  O294  1  0.33678136  0.18064746  0.16294810  1
  O2-  O295  1  0.33623464  0.19201370  0.50522787  1
  O2-  O296  1  0.33810896  0.18949472  0.83469671  1
  O2-  O297  1  0.33883326  0.67394487  0.16467492  1
  O2-  O298  1  0.33498427  0.68080840  0.50273813  1
  O2-  O299  1  0.33421283  0.67491683  0.84272073  1
  O2-  O300  1  0.66344707  0.18924198  0.15807507  1
  O2-  O301  1  0.67219238  0.17847529  0.50345304  1
  O2-  O302  1  0.65688549  0.17653961  0.83151747  1
  O2-  O303  1  0.66749557  0.68597184  0.17085871  1
  O2-  O304  1  0.66643035  0.69635087  0.49787759  1
  O2-  O305  1  0.66528845  0.68190143  0.83341961  1
  O2-  O306  1  0.16621715  0.17316997  0.15986689  1
  O2-  O307  1  0.16602693  0.18900756  0.51944746  1
  O2-  O308  1  0.18129281  0.18278432  0.83723047  1
  O2-  O309  1  0.15706623  0.67338262  0.17040377  1
  O2-  O310  1  0.16716297  0.67262499  0.50219408  1
  O2-  O311  1  0.16560277  0.68421780  0.83246091  1
  O2-  O312  1  0.49843731  0.17298476  0.16529650  1
  O2-  O313  1  0.50485970  0.18083638  0.49202781  1
  O2-  O314  1  0.50023792  0.18856596  0.82314061  1
  O2-  O315  1  0.50138203  0.68662838  0.16633289  1
  O2-  O316  1  0.50076452  0.68738807  0.49275738  1
  O2-  O317  1  0.50497156  0.67347601  0.83899793  1
  O2-  O318  1  0.83391839  0.19028424  0.16641719  1
  O2-  O319  1  0.83191103  0.18492470  0.49745145  1
  O2-  O320  1  0.83233933  0.17646990  0.83851873  1
  O2-  O321  1  0.82680738  0.67588445  0.16639713  1
  O2-  O322  1  0.82882514  0.67666642  0.50642516  1
  O2-  O323  1  0.83630641  0.68608878  0.83963062  1
  O2-  O324  1  -0.00075849  0.33034877  0.16598021  1
  O2-  O325  1  -0.00453176  0.32691326  0.49436468  1
  O2-  O326  1  0.00106778  0.32094328  0.83568083  1
  O2-  O327  1  -0.00121196  0.81750417  0.16319703  1
  O2-  O328  1  -0.00068219  0.82307660  0.49905021  1
  O2-  O329  1  0.00222401  0.80632073  0.82884749  1
  O2-  O330  1  0.33127164  0.32622542  0.16342267  1
  O2-  O331  1  0.33407865  0.31899868  0.50206675  1
  O2-  O332  1  0.33228144  0.31036652  0.83541029  1
  O2-  O333  1  0.33269874  0.82058312  0.16704122  1
  O2-  O334  1  0.33584525  0.82635390  0.50599834  1
  O2-  O335  1  0.33618522  0.82973732  0.83667890  1
  O2-  O336  1  0.66503420  0.31608680  0.16633447  1
  O2-  O337  1  0.66575203  0.31715615  0.49525056  1
  O2-  O338  1  0.66216525  0.32314355  0.82858788  1
  O2-  O339  1  0.66841572  0.81524391  0.17013723  1
  O2-  O340  1  0.66436666  0.81071764  0.49894896  1
  O2-  O341  1  0.66506571  0.82152424  0.83477478  1
  O2-  O342  1  0.16561575  0.32304504  0.16972673  1
  O2-  O343  1  0.17244311  0.32236635  0.49594675  1
  O2-  O344  1  0.16439752  0.31854049  0.83759347  1
  O2-  O345  1  0.16955120  0.81891262  0.16222238  1
  O2-  O346  1  0.16636572  0.82107313  0.49999118  1
  O2-  O347  1  0.17466488  0.81772162  0.82271656  1
  O2-  O348  1  0.50253493  0.32794619  0.16337217  1
  O2-  O349  1  0.50644655  0.32368323  0.49163147  1
  O2-  O350  1  0.49842875  0.31896529  0.83334497  1
  O2-  O351  1  0.50204870  0.81472715  0.16426310  1
  O2-  O352  1  0.49983927  0.81083862  0.50364912  1
  O2-  O353  1  0.49380003  0.82354456  0.83803788  1
  O2-  O354  1  0.83507580  0.31767217  0.16554010  1
  O2-  O355  1  0.82989102  0.31912678  0.50611518  1
  O2-  O356  1  0.83811131  0.31403503  0.83078912  1
  O2-  O357  1  0.84373775  0.81574807  0.16562939  1
  O2-  O358  1  0.84115424  0.81899560  0.49009085  1
  O2-  O359  1  0.82153146  0.82294880  0.84763149  1
  O2-  O360  1  0.08181104  0.07909168  0.11593663  1
  O2-  O361  1  0.06777915  0.07982788  0.45039334  1
  O2-  O362  1  0.06042704  0.07850242  0.77569914  1
  O2-  O363  1  0.06852708  0.57999230  0.12318666  1
  O2-  O364  1  0.08211807  0.56464994  0.43819255  1
  O2-  O365  1  0.08713239  0.57851405  0.77384149  1
  O2-  O366  1  0.40427481  0.08446699  0.10290789  1
  O2-  O367  1  0.41910080  0.08099883  0.45230651  1
  O2-  O368  1  0.43977757  0.08240531  0.77543892  1
  O2-  O369  1  0.43346159  0.57887270  0.11898141  1
  O2-  O370  1  0.43049589  0.57822174  0.46376086  1
  O2-  O371  1  0.41784147  0.56860129  0.77756385  1
  O2-  O372  1  0.75091916  0.08450277  0.09244851  1
  O2-  O373  1  0.76904791  0.07874752  0.44752299  1
  O2-  O374  1  0.72893015  0.07165154  0.79244242  1
  O2-  O375  1  0.74637364  0.58037831  0.12030373  1
  O2-  O376  1  0.74167029  0.58172670  0.44709926  1
  O2-  O377  1  0.73852015  0.57895229  0.78034267  1
  O2-  O378  1  0.25479000  0.07085518  0.21054747  1
  O2-  O379  1  0.22829184  0.08263302  0.56144107  1
  O2-  O380  1  0.25770685  0.08239667  0.88553206  1
  O2-  O381  1  0.22060020  0.56437503  0.23813059  1
  O2-  O382  1  0.25307800  0.58335044  0.55560175  1
  O2-  O383  1  0.24086856  0.57941518  0.88551444  1
  O2-  O384  1  0.59065251  0.08591977  0.22586456  1
  O2-  O385  1  0.59507221  0.08229671  0.54540595  1
  O2-  O386  1  0.58298710  0.08246902  0.88542370  1
  O2-  O387  1  0.60682925  0.57934745  0.22296249  1
  O2-  O388  1  0.60235636  0.58363240  0.53777206  1
  O2-  O389  1  0.58202788  0.57932980  0.89104025  1
  O2-  O390  1  0.90054715  0.08497382  0.22312693  1
  O2-  O391  1  0.90412311  0.08210581  0.54508509  1
  O2-  O392  1  0.90896784  0.08183738  0.89320069  1
  O2-  O393  1  0.89902305  0.57413987  0.22206349  1
  O2-  O394  1  0.90454601  0.57572549  0.54932898  1
  O2-  O395  1  0.92585246  0.58062848  0.87033341  1
  O2-  O396  1  0.08818564  0.42421340  0.11731976  1
  O2-  O397  1  0.09294145  0.41954217  0.41788902  1
  O2-  O398  1  0.08364000  0.41628551  0.77548343  1
  O2-  O399  1  0.07185736  0.91488972  0.11438944  1
  O2-  O400  1  0.08516417  0.91762617  0.45129985  1
  O2-  O401  1  0.09757243  0.92050094  0.77100518  1
  O2-  O402  1  0.40833916  0.42256069  0.10337446  1
  O2-  O403  1  0.43189988  0.42136664  0.44225542  1
  O2-  O404  1  0.42340748  0.41914836  0.78601387  1
  O2-  O405  1  0.42744079  0.91789827  0.12377354  1
  O2-  O406  1  0.41911940  0.91881913  0.44615340  1
  O2-  O407  1  0.42414857  0.92185010  0.77824551  1
  O2-  O408  1  0.75853281  0.41888095  0.09996896  1
  O2-  O409  1  0.73395309  0.42029108  0.44455449  1
  O2-  O410  1  0.75069679  0.41855173  0.76895327  1
  O2-  O411  1  0.74991528  0.91968749  0.13294559  1
  O2-  O412  1  0.75429055  0.90778190  0.41895700  1
  O2-  O413  1  0.73100980  0.92153804  0.77771352  1
  O2-  O414  1  0.23067905  0.41913287  0.22967277  1
  O2-  O415  1  0.24879715  0.42198856  0.55612659  1
  O2-  O416  1  0.25542303  0.42217703  0.87026811  1
  O2-  O417  1  0.25977632  0.91747239  0.21949501  1
  O2-  O418  1  0.24209685  0.92058612  0.55612053  1
  O2-  O419  1  0.26905615  0.92772428  0.87345810  1
  O2-  O420  1  0.59221215  0.41760267  0.22815103  1
  O2-  O421  1  0.59215456  0.41736544  0.55109433  1
  O2-  O422  1  0.57690196  0.42115437  0.88845399  1
  O2-  O423  1  0.59250582  0.91991013  0.21809517  1
  O2-  O424  1  0.57191586  0.91945791  0.55463519  1
  O2-  O425  1  0.57677831  0.91725884  0.87861232  1
  O2-  O426  1  0.91801839  0.41709690  0.22808262  1
  O2-  O427  1  0.90655604  0.42185056  0.55358663  1
  O2-  O428  1  0.91599604  0.41991201  0.88132075  1
  O2-  O429  1  0.89608410  0.91896196  0.22008901  1
  O2-  O430  1  0.92610424  0.91706737  0.55481689  1
  O2-  O431  1  0.90607403  0.91810628  0.87814955  1
  O2-  O432  1  -0.01396176  -0.00382457  0.03123667  1
  O2-  O433  1  -0.00722895  0.00695668  0.34752452  1
  O2-  O434  1  0.01882503  0.00836713  0.64505714  1
  O2-  O435  1  0.00477593  0.50652931  -0.01415172  1
  O2-  O436  1  0.00991641  0.50292730  0.29884658  1
  O2-  O437  1  0.01606492  0.50277351  0.65482082  1
  O2-  O438  1  0.34942985  -0.01166900  -0.01636369  1
  O2-  O439  1  0.35038301  -0.00671581  0.31448529  1
  O2-  O440  1  0.33217476  -0.01975218  0.67319895  1
  O2-  O441  1  0.33639885  0.49393149  -0.01158770  1
  O2-  O442  1  0.30811609  0.50455513  0.38488083  1
  O2-  O443  1  0.32329366  0.49964370  0.68227429  1
  O2-  O444  1  0.67540420  -0.02241624  -0.01265591  1
  O2-  O445  1  0.67277538  -0.01323801  0.32938991  1
  O2-  O446  1  0.67434015  0.01982852  0.65761314  1
  O2-  O447  1  0.64314142  0.49801059  0.03741570  1
  O2-  O448  1  0.67143053  0.50828523  0.33453634  1
  O2-  O449  1  0.67459076  0.51078800  0.65325444  1
  O2-  O450  1  0.19712880  -0.00220971  0.04608440  1
  O2-  O451  1  0.16800085  0.00945991  0.32402139  1
  O2-  O452  1  0.17837778  0.00324682  0.68742716  1
  O2-  O453  1  0.15787223  0.48955325  -0.02647576  1
  O2-  O454  1  0.15927766  0.49788147  0.32748481  1
  O2-  O455  1  0.15759066  0.51249668  0.66336344  1
  O2-  O456  1  0.50826645  -0.01576653  0.00792690  1
  O2-  O457  1  0.51445303  -0.00006545  0.35444834  1
  O2-  O458  1  0.52172397  -0.00098868  0.69106223  1
  O2-  O459  1  0.49260626  0.50551141  -0.01097645  1
  O2-  O460  1  0.51875260  0.50082990  0.35510932  1
  O2-  O461  1  0.48917069  0.51563480  0.66338984  1
  O2-  O462  1  0.83244268  -0.00799660  -0.01286121  1
  O2-  O463  1  0.84193181  -0.02184652  0.34142205  1
  O2-  O464  1  0.83874809  0.03236150  0.67674199  1
  O2-  O465  1  0.84912408  0.50671209  0.02781317  1
  O2-  O466  1  0.83874267  0.51825800  0.34018700  1
  O2-  O467  1  0.82814798  0.50221012  0.65003296  1
  O2-  O468  1  0.75565113  0.75114136  0.05632750  1
  O2-  O469  1  0.08185507  0.75424980  0.40036702  1
  O2-  O470  1  0.07809513  0.25221311  0.06793445  1
  O2-  O471  1  0.92005078  0.25180178  0.60411593  1
  O2-  O472  1  0.08649153  0.74711272  0.05572795  1
  O2-  O473  1  0.56204093  0.25204499  0.27060957  1
  O2-  O474  1  0.41226138  0.74784884  0.38551057  1
  O2-  O475  1  0.93878356  0.24970624  0.26749245  1
  O2-  O476  1  0.41367943  0.75310494  0.73622742  1
  O2-  O477  1  0.57439417  0.25171952  0.94258180  1
  O2-  O478  1  0.24813181  0.75381630  0.26712155  1
  O2-  O479  1  0.07819751  0.25371424  0.39879029  1
  O2-  O480  1  0.90950998  0.75040580  0.95175585  1
  O2-  O481  1  0.58230353  0.75013642  0.93841495  1
  O2-  O482  1  0.08076543  0.25430265  0.73055483  1
  O2-  O483  1  0.42426121  0.25016684  0.38843716  1
  O2-  O484  1  0.41342729  0.74815629  0.05182834  1
  O2-  O485  1  0.25224356  0.75185041  0.60428567  1
  O2-  O486  1  0.25697443  0.25637319  0.26559146  1
  O2-  O487  1  0.58610815  0.24901225  0.60272169  1
  O2-  O488  1  0.76505387  0.74385764  0.72746005  1
  O2-  O489  1  0.91172559  0.74763638  0.59888597  1
  O2-  O490  1  0.74591757  0.25492390  0.73046908  1
  O2-  O491  1  0.42993639  0.25411205  0.06564618  1
  O2-  O492  1  0.25438323  0.74713133  0.94620985  1
