# generated using pymatgen
data_Ca108Mn108O277
_symmetry_space_group_name_H-M   'P 1'
_cell_length_a   16.03075215
_cell_length_b   22.31251408
_cell_length_c   16.39212706
_cell_angle_alpha   90.00534681
_cell_angle_beta   90.00556341
_cell_angle_gamma   90.00700004
_symmetry_Int_Tables_number   1
_chemical_formula_structural   Ca108Mn108O277
_chemical_formula_sum   'Ca108 Mn108 O277'
_cell_volume   5863.24053823
_cell_formula_units_Z   1
loop_
 _symmetry_equiv_pos_site_id
 _symmetry_equiv_pos_as_xyz
  1  'x, y, z'
loop_
 _atom_type_symbol
 _atom_type_oxidation_number
  Ca2+  2.0
  Mn3.34+  3.34
  O2-  -2.0
loop_
 _atom_site_type_symbol
 _atom_site_label
 _atom_site_symmetry_multiplicity
 _atom_site_fract_x
 _atom_site_fract_y
 _atom_site_fract_z
 _atom_site_occupancy
  Ca2+  Ca0  1  0.06697388  0.26069412  0.25675301  1
  Ca2+  Ca1  1  0.08868498  0.25487167  0.57900818  1
  Ca2+  Ca2  1  0.07723757  0.26107907  0.91550581  1
  Ca2+  Ca3  1  0.09192691  0.73380150  0.25450015  1
  Ca2+  Ca4  1  0.09193404  0.75202141  0.57940613  1
  Ca2+  Ca5  1  0.06604256  0.74076930  0.91986890  1
  Ca2+  Ca6  1  0.41065175  0.26931370  0.24919429  1
  Ca2+  Ca7  1  0.40599237  0.25570328  0.59513191  1
  Ca2+  Ca8  1  0.41248715  0.25284534  0.89931070  1
  Ca2+  Ca9  1  0.40086206  0.74939009  0.24715838  1
  Ca2+  Ca10  1  0.40974938  0.74116645  0.60472621  1
  Ca2+  Ca11  1  0.42326679  0.74189489  0.89952735  1
  Ca2+  Ca12  1  0.77738936  0.24383923  0.25234105  1
  Ca2+  Ca13  1  0.76098610  0.23418571  0.58682611  1
  Ca2+  Ca14  1  0.76532563  0.24411660  0.91357175  1
  Ca2+  Ca15  1  0.76268399  0.74918483  0.25432561  1
  Ca2+  Ca16  1  0.74816424  0.76257970  0.58284098  1
  Ca2+  Ca17  1  0.74937599  0.73925124  0.91376000  1
  Ca2+  Ca18  1  0.24399293  0.25444622  0.08159265  1
  Ca2+  Ca19  1  0.23719423  0.26651872  0.41704487  1
  Ca2+  Ca20  1  0.25498785  0.25761929  0.74875434  1
  Ca2+  Ca21  1  0.24331673  0.75689156  0.08763724  1
  Ca2+  Ca22  1  0.24156482  0.74532048  0.41869055  1
  Ca2+  Ca23  1  0.26402355  0.75192860  0.73967031  1
  Ca2+  Ca24  1  0.59798028  0.25687983  0.07526450  1
  Ca2+  Ca25  1  0.60523548  0.25410425  0.41869290  1
  Ca2+  Ca26  1  0.58311976  0.24861130  0.75739867  1
  Ca2+  Ca27  1  0.58820517  0.75767756  0.07222724  1
  Ca2+  Ca28  1  0.60350437  0.74587938  0.42236356  1
  Ca2+  Ca29  1  0.57493170  0.75662444  0.75500356  1
  Ca2+  Ca30  1  0.90951777  0.24976299  0.08708454  1
  Ca2+  Ca31  1  0.90911028  0.25008782  0.40551148  1
  Ca2+  Ca32  1  0.90687444  0.24265414  0.77043680  1
  Ca2+  Ca33  1  0.91227412  0.75056176  0.08990791  1
  Ca2+  Ca34  1  0.90308401  0.73367109  0.41318333  1
  Ca2+  Ca35  1  0.90423960  0.74982936  0.75123254  1
  Ca2+  Ca36  1  0.24539773  0.07798171  0.08616968  1
  Ca2+  Ca37  1  0.43352552  0.08413506  0.60368230  1
  Ca2+  Ca38  1  0.91611436  0.61439171  0.77679611  1
  Ca2+  Ca39  1  0.89372679  0.09801995  0.09573014  1
  Ca2+  Ca40  1  0.30009512  0.57642539  0.72340708  1
  Ca2+  Ca41  1  0.05968458  0.08208388  0.58057808  1
  Ca2+  Ca42  1  0.54894133  0.60059945  0.74639858  1
  Ca2+  Ca43  1  0.76644944  0.10204303  0.89230155  1
  Ca2+  Ca44  1  0.39242820  0.07862870  0.25451347  1
  Ca2+  Ca45  1  0.77060959  0.58181585  0.30669630  1
  Ca2+  Ca46  1  0.85931500  0.10556677  0.71788190  1
  Ca2+  Ca47  1  0.74158846  0.60932621  0.55425950  1
  Ca2+  Ca48  1  0.29027624  0.62461227  0.11310305  1
  Ca2+  Ca49  1  0.61977580  0.09006512  0.73016469  1
  Ca2+  Ca50  1  0.09388408  0.59950932  0.59400985  1
  Ca2+  Ca51  1  0.61211082  0.08872465  0.44190267  1
  Ca2+  Ca52  1  0.28831960  0.57868669  0.72064893  1
  Ca2+  Ca53  1  0.07689892  0.07935457  0.91937669  1
  Ca2+  Ca54  1  0.04937303  0.08396763  0.57721792  1
  Ca2+  Ca55  1  0.21600801  0.06469110  0.38525112  1
  Ca2+  Ca56  1  0.74992096  0.61297331  0.55050289  1
  Ca2+  Ca57  1  0.90294361  0.09551637  0.09947426  1
  Ca2+  Ca58  1  0.40511510  0.08487770  0.91763772  1
  Ca2+  Ca59  1  0.56568565  0.59799300  0.06916651  1
  Ca2+  Ca60  1  0.22639871  0.06735777  0.38161274  1
  Ca2+  Ca61  1  0.59682081  0.08184267  0.05843394  1
  Ca2+  Ca62  1  0.91593206  0.60878996  0.06790434  1
  Ca2+  Ca63  1  0.53977514  0.59701360  0.74774491  1
  Ca2+  Ca64  1  0.76902613  0.10344115  0.90202918  1
  Ca2+  Ca65  1  0.61234160  0.09372688  0.72518669  1
  Ca2+  Ca66  1  0.26142562  0.08298019  0.75000586  1
  Ca2+  Ca67  1  0.91187488  0.60498205  0.07582146  1
  Ca2+  Ca68  1  0.08963997  0.07875898  0.92004897  1
  Ca2+  Ca69  1  0.55405265  0.59939486  0.07058802  1
  Ca2+  Ca70  1  0.41748051  0.59110278  0.91781284  1
  Ca2+  Ca71  1  0.75934007  0.58215839  0.30760361  1
  Ca2+  Ca72  1  0.56889612  0.41428852  0.73939395  1
  Ca2+  Ca73  1  0.26484254  0.40285306  0.07855694  1
  Ca2+  Ca74  1  0.74265353  0.39932384  0.58430287  1
  Ca2+  Ca75  1  0.42433166  0.90143971  0.91303032  1
  Ca2+  Ca76  1  0.73757864  0.40648629  0.91255259  1
  Ca2+  Ca77  1  0.41509503  0.90127422  0.58800192  1
  Ca2+  Ca78  1  0.41275328  0.90265619  0.91316829  1
  Ca2+  Ca79  1  0.60215072  0.90345177  0.43019346  1
  Ca2+  Ca80  1  0.11427458  0.41431777  0.59841743  1
  Ca2+  Ca81  1  0.89716660  0.91076294  0.74727519  1
  Ca2+  Ca82  1  0.59038047  0.41014256  0.42383256  1
  Ca2+  Ca83  1  0.09140552  0.90647923  0.91423663  1
  Ca2+  Ca84  1  0.90756256  0.91040306  0.74876827  1
  Ca2+  Ca85  1  0.57789360  0.40827366  0.42537605  1
  Ca2+  Ca86  1  0.59136762  0.90006086  0.42571548  1
  Ca2+  Ca87  1  0.92674855  0.91085157  0.41885091  1
  Ca2+  Ca88  1  0.58020680  0.41002474  0.07270792  1
  Ca2+  Ca89  1  0.25412883  0.91984859  0.06884089  1
  Ca2+  Ca90  1  0.24845314  0.89970972  0.42374062  1
  Ca2+  Ca91  1  0.73801743  0.90446128  0.91079537  1
  Ca2+  Ca92  1  0.08501035  0.90401832  0.57613913  1
  Ca2+  Ca93  1  0.39576988  0.43210173  0.61320327  1
  Ca2+  Ca94  1  0.10569537  0.92806617  0.27377495  1
  Ca2+  Ca95  1  0.26393246  0.92316023  0.07122249  1
  Ca2+  Ca96  1  0.25723712  0.41588017  0.74829908  1
  Ca2+  Ca97  1  0.10328964  0.41666404  0.60178927  1
  Ca2+  Ca98  1  0.90623579  0.90362187  0.08584644  1
  Ca2+  Ca99  1  0.90548090  0.40316051  0.08958158  1
  Ca2+  Ca100  1  0.41140580  0.41059999  0.90914041  1
  Ca2+  Ca101  1  0.09702740  0.92509315  0.27794889  1
  Ca2+  Ca102  1  0.75732710  0.90286671  0.25036360  1
  Ca2+  Ca103  1  0.75019101  0.40496675  0.91327523  1
  Ca2+  Ca104  1  0.75441692  0.39907185  0.58349793  1
  Ca2+  Ca105  1  0.91620024  0.90636814  0.08283146  1
  Ca2+  Ca106  1  0.91718517  0.40366540  0.08951960  1
  Ca2+  Ca107  1  0.25318891  0.40287018  0.07856586  1
  Mn3.34+  Mn108  1  0.08186343  0.33673893  0.08196560  1
  Mn3.34+  Mn109  1  0.07775365  0.34195139  0.41741913  1
  Mn3.34+  Mn110  1  0.07942239  0.33551275  0.75316685  1
  Mn3.34+  Mn111  1  0.08470408  0.83314673  0.09033825  1
  Mn3.34+  Mn112  1  0.08187931  0.83326545  0.42007695  1
  Mn3.34+  Mn113  1  0.08337809  0.83204218  0.75328493  1
  Mn3.34+  Mn114  1  0.42107884  0.33161867  0.08267220  1
  Mn3.34+  Mn115  1  0.41107842  0.34017762  0.42295183  1
  Mn3.34+  Mn116  1  0.41692349  0.33470226  0.75030947  1
  Mn3.34+  Mn117  1  0.42081931  0.83086334  0.09251557  1
  Mn3.34+  Mn118  1  0.41933568  0.82916916  0.41718622  1
  Mn3.34+  Mn119  1  0.41567393  0.83299720  0.74849446  1
  Mn3.34+  Mn120  1  0.74673877  0.33299269  0.08835823  1
  Mn3.34+  Mn121  1  0.75496524  0.33568878  0.41275642  1
  Mn3.34+  Mn122  1  0.75224142  0.32959478  0.75125579  1
  Mn3.34+  Mn123  1  0.74187479  0.83289470  0.08593100  1
  Mn3.34+  Mn124  1  0.75787164  0.83246457  0.41923165  1
  Mn3.34+  Mn125  1  0.74200314  0.83183287  0.75098408  1
  Mn3.34+  Mn126  1  0.24417456  0.33360189  0.25654568  1
  Mn3.34+  Mn127  1  0.25421149  0.33309578  0.58168273  1
  Mn3.34+  Mn128  1  0.24579612  0.33214878  0.91046599  1
  Mn3.34+  Mn129  1  0.25448693  0.84219880  0.24751854  1
  Mn3.34+  Mn130  1  0.25068715  0.83367153  0.58605436  1
  Mn3.34+  Mn131  1  0.24834579  0.83402414  0.91424216  1
  Mn3.34+  Mn132  1  0.58268860  0.33469024  0.24747229  1
  Mn3.34+  Mn133  1  0.57748764  0.32613644  0.58390954  1
  Mn3.34+  Mn134  1  0.58092397  0.32992070  0.91209167  1
  Mn3.34+  Mn135  1  0.58113419  0.83286709  0.24655932  1
  Mn3.34+  Mn136  1  0.58488450  0.84951524  0.59179606  1
  Mn3.34+  Mn137  1  0.58523390  0.83242156  0.91750134  1
  Mn3.34+  Mn138  1  0.91652239  0.33590106  0.25663353  1
  Mn3.34+  Mn139  1  0.91939429  0.32798665  0.58123842  1
  Mn3.34+  Mn140  1  0.92011870  0.33150635  0.91315282  1
  Mn3.34+  Mn141  1  0.92149347  0.83367838  0.25289176  1
  Mn3.34+  Mn142  1  0.91546967  0.83455423  0.57999972  1
  Mn3.34+  Mn143  1  0.91648180  0.82922600  0.91454799  1
  Mn3.34+  Mn144  1  0.41500893  0.16455570  0.75221080  1
  Mn3.34+  Mn145  1  0.07443602  0.16132549  0.75240443  1
  Mn3.34+  Mn146  1  0.08081209  0.66909455  0.75325278  1
  Mn3.34+  Mn147  1  0.76600999  0.16520598  0.42036007  1
  Mn3.34+  Mn148  1  0.24839848  0.16430165  0.91419456  1
  Mn3.34+  Mn149  1  0.58606367  0.17012168  0.58152290  1
  Mn3.34+  Mn150  1  0.24856629  0.16777351  0.24836826  1
  Mn3.34+  Mn151  1  0.25264929  0.16273244  0.57824276  1
  Mn3.34+  Mn152  1  0.58332008  0.16846250  0.25034788  1
  Mn3.34+  Mn153  1  0.59659057  0.16199161  0.24846993  1
  Mn3.34+  Mn154  1  0.08624985  0.67240389  0.08668954  1
  Mn3.34+  Mn155  1  0.08822534  0.16715130  0.74868055  1
  Mn3.34+  Mn156  1  0.07661667  0.16260741  0.08894714  1
  Mn3.34+  Mn157  1  0.41516594  0.16543053  0.08633036  1
  Mn3.34+  Mn158  1  0.58258830  0.66919161  0.25053848  1
  Mn3.34+  Mn159  1  0.74853070  0.66815167  0.08218132  1
  Mn3.34+  Mn160  1  0.42366693  0.17024727  0.42119814  1
  Mn3.34+  Mn161  1  0.92465652  0.66575039  0.25355354  1
  Mn3.34+  Mn162  1  0.58447890  0.66786611  0.91065902  1
  Mn3.34+  Mn163  1  0.06910560  0.16200501  0.41538699  1
  Mn3.34+  Mn164  1  0.08709354  0.16746504  0.08733803  1
  Mn3.34+  Mn165  1  0.23675809  0.66198395  0.91149871  1
  Mn3.34+  Mn166  1  0.58156454  0.16576890  0.90886787  1
  Mn3.34+  Mn167  1  0.41868599  0.66430251  0.42001787  1
  Mn3.34+  Mn168  1  0.74647025  0.16805468  0.08171632  1
  Mn3.34+  Mn169  1  0.41486017  0.17605950  0.41831679  1
  Mn3.34+  Mn170  1  0.24970706  0.66570914  0.91575171  1
  Mn3.34+  Mn171  1  0.92134968  0.67198164  0.58346879  1
  Mn3.34+  Mn172  1  0.74917741  0.66578935  0.75217203  1
  Mn3.34+  Mn173  1  0.08472773  0.66856095  0.41810067  1
  Mn3.34+  Mn174  1  0.40839646  0.65962868  0.42004159  1
  Mn3.34+  Mn175  1  0.57254878  0.66400975  0.24895677  1
  Mn3.34+  Mn176  1  0.42483341  0.17061269  0.08358305  1
  Mn3.34+  Mn177  1  0.24828226  0.66632846  0.58398598  1
  Mn3.34+  Mn178  1  0.07934739  0.16694163  0.41432690  1
  Mn3.34+  Mn179  1  0.57872761  0.66785551  0.58172453  1
  Mn3.34+  Mn180  1  0.58485750  0.49880732  0.91812654  1
  Mn3.34+  Mn181  1  0.08206511  0.50210476  0.09863821  1
  Mn3.34+  Mn182  1  0.74878989  0.50134606  0.08655560  1
  Mn3.34+  Mn183  1  0.42114642  -0.00078378  0.42606295  1
  Mn3.34+  Mn184  1  0.42523577  -0.00088950  0.74327762  1
  Mn3.34+  Mn185  1  0.42878757  0.00000418  0.08317915  1
  Mn3.34+  Mn186  1  0.91515195  0.49799368  0.25274236  1
  Mn3.34+  Mn187  1  0.58206019  -0.00419820  0.24720593  1
  Mn3.34+  Mn188  1  0.91400258  0.00286681  0.27428340  1
  Mn3.34+  Mn189  1  0.58343131  0.50178824  0.58633732  1
  Mn3.34+  Mn190  1  0.23968188  0.49960425  0.92177812  1
  Mn3.34+  Mn191  1  0.93264501  0.49627791  0.91032877  1
  Mn3.34+  Mn192  1  0.09440822  0.50924763  0.09761442  1
  Mn3.34+  Mn193  1  0.07427153  0.50990284  0.40529914  1
  Mn3.34+  Mn194  1  0.59505419  0.00239550  0.24909253  1
  Mn3.34+  Mn195  1  0.09649974  -0.00735585  0.73733873  1
  Mn3.34+  Mn196  1  0.43258934  0.00351866  0.42535511  1
  Mn3.34+  Mn197  1  0.25642343  0.50035423  0.25880130  1
  Mn3.34+  Mn198  1  0.41152979  0.50143354  0.08350529  1
  Mn3.34+  Mn199  1  0.92048585  0.50334911  0.56476111  1
  Mn3.34+  Mn200  1  0.27159813  0.50259999  0.26024557  1
  Mn3.34+  Mn201  1  0.56310364  0.50067145  0.25805176  1
  Mn3.34+  Mn202  1  0.90813223  0.49924400  0.56873623  1
  Mn3.34+  Mn203  1  0.74929164  0.50329752  0.74307445  1
  Mn3.34+  Mn204  1  0.92015318  0.50314162  0.91136610  1
  Mn3.34+  Mn205  1  0.91109279  -0.00168590  0.91827681  1
  Mn3.34+  Mn206  1  0.74151371  -0.00107458  0.08003619  1
  Mn3.34+  Mn207  1  0.41344819  0.49786949  0.43153033  1
  Mn3.34+  Mn208  1  0.08598349  0.50276367  0.40758166  1
  Mn3.34+  Mn209  1  0.07753227  -0.00160397  0.08739003  1
  Mn3.34+  Mn210  1  0.57603000  0.49429985  0.25563125  1
  Mn3.34+  Mn211  1  0.58436832  0.00005002  0.90884310  1
  Mn3.34+  Mn212  1  0.08020204  0.50255615  0.74890055  1
  Mn3.34+  Mn213  1  0.75937743  0.00249572  0.42467165  1
  Mn3.34+  Mn214  1  0.90054027  -0.00165863  0.59711189  1
  Mn3.34+  Mn215  1  0.25527514  0.00254406  0.57978126  1
  O2-  O216  1  -0.00032873  0.13639998  0.00670076  1
  O2-  O217  1  -0.00641491  0.16921987  0.33529703  1
  O2-  O218  1  -0.00482175  0.14552625  0.67379205  1
  O2-  O219  1  -0.00644229  0.67300828  0.01013473  1
  O2-  O220  1  0.00257123  0.65835237  0.33480470  1
  O2-  O221  1  0.00279542  0.67958561  0.66580400  1
  O2-  O222  1  0.33082856  0.14989290  0.00638795  1
  O2-  O223  1  0.33121248  0.15146604  0.34045552  1
  O2-  O224  1  0.33498905  0.14758179  0.66416746  1
  O2-  O225  1  0.33399977  0.65869791  -0.01579258  1
  O2-  O226  1  0.33398085  0.66905948  0.33832536  1
  O2-  O227  1  0.33011199  0.66334800  0.66345251  1
  O2-  O228  1  0.66961258  0.14968515  -0.01190921  1
  O2-  O229  1  0.66181336  0.14625450  0.33871858  1
  O2-  O230  1  0.65853456  0.18188600  0.66555353  1
  O2-  O231  1  0.66052091  0.65204480  0.00398814  1
  O2-  O232  1  0.65986594  0.65068875  0.32970019  1
  O2-  O233  1  0.66296004  0.64805339  0.66600170  1
  O2-  O234  1  0.15995719  0.14640009  -0.00044245  1
  O2-  O235  1  0.15791643  0.14749840  0.33345583  1
  O2-  O236  1  0.15680737  0.14065267  0.66221963  1
  O2-  O237  1  0.16577380  0.64813708  -0.00012871  1
  O2-  O238  1  0.16726640  0.67216244  0.34445897  1
  O2-  O239  1  0.16555022  0.67423489  0.67140841  1
  O2-  O240  1  0.50172190  0.14698688  -0.00109175  1
  O2-  O241  1  0.49767750  0.14761595  0.33115849  1
  O2-  O242  1  0.50763892  0.15727538  0.67470941  1
  O2-  O243  1  0.50045643  0.66492105  -0.00853605  1
  O2-  O244  1  0.49662906  0.64811957  0.33494861  1
  O2-  O245  1  0.50612757  0.67513843  0.66681387  1
  O2-  O246  1  0.82923773  0.15085688  0.00256150  1
  O2-  O247  1  0.82674723  0.16523744  0.33516976  1
  O2-  O248  1  0.84061789  0.19593874  0.67516862  1
  O2-  O249  1  0.83010072  0.66901783  0.00503653  1
  O2-  O250  1  0.83674593  0.66445787  0.32521842  1
  O2-  O251  1  0.83432826  0.65696393  0.66711234  1
  O2-  O252  1  -0.00392005  0.35505540  -0.00085488  1
  O2-  O253  1  -0.00216425  0.33746996  0.33500929  1
  O2-  O254  1  0.01287250  0.34439574  0.65379982  1
  O2-  O255  1  0.00095064  0.85008629  -0.00220046  1
  O2-  O256  1  0.00923668  0.85615641  0.32475429  1
  O2-  O257  1  -0.00534257  0.83163415  0.67054499  1
  O2-  O258  1  0.33544702  0.33610404  -0.00287720  1
  O2-  O259  1  0.33434999  0.32262740  0.33895471  1
  O2-  O260  1  0.33621536  0.34327422  0.66663286  1
  O2-  O261  1  0.33434088  0.84017922  0.00515877  1
  O2-  O262  1  0.32761170  0.82768928  0.33684451  1
  O2-  O263  1  0.33188830  0.84303640  0.66884590  1
  O2-  O264  1  0.66613754  0.34749919  -0.00154838  1
  O2-  O265  1  0.65933245  0.35193976  0.34028678  1
  O2-  O266  1  0.66472921  0.33464916  0.66947814  1
  O2-  O267  1  0.66446975  0.84600990  0.00125919  1
  O2-  O268  1  0.67096271  0.85165400  0.33418523  1
  O2-  O269  1  0.65999128  0.82293793  0.66683452  1
  O2-  O270  1  0.17020940  0.34735908  0.00063450  1
  O2-  O271  1  0.16337194  0.34640783  0.33535222  1
  O2-  O272  1  0.17504617  0.34266982  0.67207975  1
  O2-  O273  1  0.17014218  0.85325958  0.01082331  1
  O2-  O274  1  0.16988687  0.84635627  0.33181350  1
  O2-  O275  1  0.15786853  0.83203613  0.66249733  1
  O2-  O276  1  0.49876381  0.34682765  -0.00493848  1
  O2-  O277  1  0.49929837  0.34133425  0.34011523  1
  O2-  O278  1  0.49863178  0.33547151  0.66651404  1
  O2-  O279  1  0.49226971  0.83013831  -0.00374298  1
  O2-  O280  1  0.50813561  0.85145089  0.33748913  1
  O2-  O281  1  0.49572784  0.83301510  0.66265787  1
  O2-  O282  1  0.83081213  0.35017881  -0.00233803  1
  O2-  O283  1  0.82963871  0.33789337  0.32937649  1
  O2-  O284  1  0.82963742  0.32858320  0.66407995  1
  O2-  O285  1  0.83678640  0.84026982  0.00208691  1
  O2-  O286  1  0.84061897  0.84913207  0.33668895  1
  O2-  O287  1  0.83758717  0.83730727  0.67086970  1
  O2-  O288  1  -0.01097334  0.17619459  0.15754085  1
  O2-  O289  1  0.00699940  0.17323930  0.51016697  1
  O2-  O290  1  0.01436832  0.17744428  0.84450382  1
  O2-  O291  1  -0.00224886  0.68153139  0.16342155  1
  O2-  O292  1  -0.00079408  0.69140235  0.50428184  1
  O2-  O293  1  -0.00177729  0.69119245  0.82115156  1
  O2-  O294  1  0.34028126  0.19241060  0.16784054  1
  O2-  O295  1  0.33353193  0.19524640  0.49571447  1
  O2-  O296  1  0.33367781  0.17500987  0.83484993  1
  O2-  O297  1  0.33391833  0.70698259  0.15461887  1
  O2-  O298  1  0.33019064  0.67952362  0.49908195  1
  O2-  O299  1  0.32496052  0.67600315  0.83175425  1
  O2-  O300  1  0.65888572  0.18211951  0.15372367  1
  O2-  O301  1  0.66310427  0.18229211  0.49996993  1
  O2-  O302  1  0.66138254  0.17576148  0.83177674  1
  O2-  O303  1  0.66129145  0.67416765  0.16345825  1
  O2-  O304  1  0.66704111  0.68993523  0.51505243  1
  O2-  O305  1  0.65647880  0.67440109  0.82060801  1
  O2-  O306  1  0.17550104  0.18131396  0.15455555  1
  O2-  O307  1  0.16267411  0.17484244  0.49639194  1
  O2-  O308  1  0.16977225  0.18353930  0.82366854  1
  O2-  O309  1  0.16953817  0.68341093  0.15825327  1
  O2-  O310  1  0.16085133  0.68153989  0.50676141  1
  O2-  O311  1  0.16306908  0.68978503  0.83477504  1
  O2-  O312  1  0.50310972  0.18804759  0.16913263  1
  O2-  O313  1  0.50025037  0.19264319  0.50621016  1
  O2-  O314  1  0.49486235  0.18115347  0.83610993  1
  O2-  O315  1  0.50628513  0.68131196  0.16035621  1
  O2-  O316  1  0.49615887  0.68324522  0.50117881  1
  O2-  O317  1  0.50291653  0.67538950  0.83326067  1
  O2-  O318  1  0.83062889  0.17791130  0.15401635  1
  O2-  O319  1  0.83738406  0.18702036  0.49284683  1
  O2-  O320  1  0.82469854  0.17517391  0.83070191  1
  O2-  O321  1  0.83688149  0.67842801  0.16000038  1
  O2-  O322  1  0.83069502  0.68613484  0.51685445  1
  O2-  O323  1  0.82795377  0.68294658  0.82766396  1
  O2-  O324  1  -0.00671873  0.32440917  0.15639270  1
  O2-  O325  1  -0.00205995  0.31206075  0.50089513  1
  O2-  O326  1  -0.00334172  0.31784353  0.82927940  1
  O2-  O327  1  -0.01143093  0.82538237  0.15462262  1
  O2-  O328  1  0.00348284  0.82203776  0.50533499  1
  O2-  O329  1  -0.00285970  0.80993511  0.83518672  1
  O2-  O330  1  0.32982447  0.31889647  0.15602303  1
  O2-  O331  1  0.33391011  0.31499225  0.50299044  1
  O2-  O332  1  0.33338994  0.32171509  0.83203824  1
  O2-  O333  1  0.32774798  0.82483729  0.16373440  1
  O2-  O334  1  0.33747683  0.82837758  0.50323968  1
  O2-  O335  1  0.33904958  0.82479049  0.84316682  1
  O2-  O336  1  0.66295594  0.32255066  0.16136878  1
  O2-  O337  1  0.66534614  0.32181439  0.50786082  1
  O2-  O338  1  0.67142204  0.31341968  0.83646499  1
  O2-  O339  1  0.67309259  0.81738566  0.17629993  1
  O2-  O340  1  0.66524382  0.82613811  0.49927237  1
  O2-  O341  1  0.66791086  0.82369283  0.83858136  1
  O2-  O342  1  0.17336524  0.32767112  0.15481922  1
  O2-  O343  1  0.16101149  0.32775419  0.51030205  1
  O2-  O344  1  0.16508323  0.31762121  0.83119550  1
  O2-  O345  1  0.15976845  0.81576797  0.17513411  1
  O2-  O346  1  0.17029574  0.82300256  0.49692132  1
  O2-  O347  1  0.16021155  0.82303702  0.84108028  1
  O2-  O348  1  0.50209693  0.30842465  0.15862028  1
  O2-  O349  1  0.50393693  0.31007177  0.49658745  1
  O2-  O350  1  0.50020889  0.31942560  0.83092243  1
  O2-  O351  1  0.50163828  0.80621571  0.16832344  1
  O2-  O352  1  0.50928936  0.82202263  0.49536421  1
  O2-  O353  1  0.49593872  0.82469923  0.83999692  1
  O2-  O354  1  0.83788040  0.32332917  0.15701720  1
  O2-  O355  1  0.82537901  0.31828359  0.50661696  1
  O2-  O356  1  0.82672779  0.31768330  0.83959074  1
  O2-  O357  1  0.83610556  0.82832557  0.16639133  1
  O2-  O358  1  0.83963590  0.81513791  0.49752072  1
  O2-  O359  1  0.83177942  0.81382551  0.83810422  1
  O2-  O360  1  0.08786003  0.08053138  0.12127032  1
  O2-  O361  1  0.08981266  0.07673437  0.44561412  1
  O2-  O362  1  0.08759329  0.07688069  0.78488349  1
  O2-  O363  1  0.06304676  0.58841736  0.10531326  1
  O2-  O364  1  0.08156528  0.58408272  0.45758150  1
  O2-  O365  1  0.06262573  0.58263837  0.76615650  1
  O2-  O366  1  0.42831089  0.08054019  0.12239339  1
  O2-  O367  1  0.43783121  0.08431576  0.46340033  1
  O2-  O368  1  0.40499752  0.07742815  0.78180591  1
  O2-  O369  1  0.42385519  0.58102832  0.10081102  1
  O2-  O370  1  0.41630835  0.58041396  0.45094382  1
  O2-  O371  1  0.41939316  0.57210009  0.78598286  1
  O2-  O372  1  0.74792633  0.08367339  0.11050115  1
  O2-  O373  1  0.75074063  0.08297602  0.44979324  1
  O2-  O374  1  0.73501318  0.06736630  0.78002560  1
  O2-  O375  1  0.75969991  0.58335708  0.11027639  1
  O2-  O376  1  0.76988018  0.57247017  0.43773943  1
  O2-  O377  1  0.75714576  0.58110700  0.77511374  1
  O2-  O378  1  0.25619806  0.08404575  0.22955545  1
  O2-  O379  1  0.26303034  0.07793675  0.52284906  1
  O2-  O380  1  0.22885232  0.08071268  0.88790546  1
  O2-  O381  1  0.24472432  0.57769286  0.21886252  1
  O2-  O382  1  0.23609876  0.58626312  0.58865904  1
  O2-  O383  1  0.24587817  0.58021866  0.86997859  1
  O2-  O384  1  0.58142143  0.08030956  0.20287776  1
  O2-  O385  1  0.58171781  0.08965642  0.57404659  1
  O2-  O386  1  0.57913256  0.08107026  0.87196098  1
  O2-  O387  1  0.56930413  0.57646258  0.20354047  1
  O2-  O388  1  0.60782506  0.57925470  0.55871437  1
  O2-  O389  1  0.57053213  0.58214206  0.89108064  1
  O2-  O390  1  0.91657110  0.06918219  0.22283232  1
  O2-  O391  1  0.91437173  0.06974500  0.55739606  1
  O2-  O392  1  0.91184954  0.07444587  0.87870713  1
  O2-  O393  1  0.90582164  0.57842091  0.21317361  1
  O2-  O394  1  0.92408994  0.58501933  0.55908876  1
  O2-  O395  1  0.92786389  0.58364949  0.90881284  1
  O2-  O396  1  0.07247271  0.42248570  0.12126022  1
  O2-  O397  1  0.07183740  0.43218204  0.47106924  1
  O2-  O398  1  0.09314453  0.41917697  0.75843789  1
  O2-  O399  1  0.06794459  0.91718042  0.12197695  1
  O2-  O400  1  0.08046942  0.91456416  0.44051063  1
  O2-  O401  1  0.04562266  0.91987840  0.77999983  1
  O2-  O402  1  0.40104531  0.41931201  0.10188476  1
  O2-  O403  1  0.44112914  0.42130694  0.47358067  1
  O2-  O404  1  0.42588049  0.41407206  0.77092581  1
  O2-  O405  1  0.40560625  0.92030992  0.10043092  1
  O2-  O406  1  0.41688906  0.91657429  0.43866291  1
  O2-  O407  1  0.41894337  0.92059409  0.77743662  1
  O2-  O408  1  0.76405386  0.41820685  0.10724760  1
  O2-  O409  1  0.72705449  0.41906763  0.45438640  1
  O2-  O410  1  0.74590252  0.42238942  0.78063685  1
  O2-  O411  1  0.76545144  0.91702741  0.10934798  1
  O2-  O412  1  0.73865006  0.92114307  0.45144880  1
  O2-  O413  1  0.76502140  0.91229409  0.77732413  1
  O2-  O414  1  0.25534359  0.42192398  0.21388912  1
  O2-  O415  1  0.24821475  0.41513676  0.56917826  1
  O2-  O416  1  0.26380189  0.41640713  0.89113964  1
  O2-  O417  1  0.22360199  0.92759064  0.20292034  1
  O2-  O418  1  0.24111245  0.91948011  0.56343201  1
  O2-  O419  1  0.26907673  0.91777901  0.91486068  1
  O2-  O420  1  0.56495144  0.42014244  0.20576229  1
  O2-  O421  1  0.58707506  0.41909040  0.56013812  1
  O2-  O422  1  0.59531301  0.41579880  0.88028996  1
  O2-  O423  1  0.59234340  0.91777019  0.21545084  1
  O2-  O424  1  0.55092583  0.92934664  0.54937836  1
  O2-  O425  1  0.56883503  0.91700648  0.90218115  1
  O2-  O426  1  0.91773584  0.41960987  0.22075507  1
  O2-  O427  1  0.89337629  0.41745221  0.55760405  1
  O2-  O428  1  0.89354097  0.41907242  0.88604301  1
  O2-  O429  1  0.91618025  0.93222746  0.21534037  1
  O2-  O430  1  0.92097405  0.92478207  0.55606672  1
  O2-  O431  1  0.90729501  0.91791916  0.88616352  1
  O2-  O432  1  0.01855288  -0.00098564  -0.02819238  1
  O2-  O433  1  0.00168791  -0.01127842  0.33325427  1
  O2-  O434  1  0.00734208  -0.00042598  0.64616944  1
  O2-  O435  1  0.00751332  0.49689261  0.00440975  1
  O2-  O436  1  0.00870250  0.49797276  0.31369452  1
  O2-  O437  1  0.01594346  0.49352210  0.63864100  1
  O2-  O438  1  0.32741445  0.00865389  0.03208406  1
  O2-  O439  1  0.33456132  0.01494516  0.34980501  1
  O2-  O440  1  0.34881397  0.00729381  0.65293017  1
  O2-  O441  1  0.34483582  0.50004717  -0.01301588  1
  O2-  O442  1  0.34416223  0.48781837  0.34131567  1
  O2-  O443  1  0.32881631  0.48955504  0.69119317  1
  O2-  O444  1  0.68527428  0.01209501  -0.02792421  1
  O2-  O445  1  0.65031213  -0.00159831  0.35635083  1
  O2-  O446  1  0.66285077  0.00773490  0.66373695  1
  O2-  O447  1  0.67673836  0.48367493  -0.00457987  1
  O2-  O448  1  0.66770870  0.50950666  0.32212925  1
  O2-  O449  1  0.67687476  0.47726110  0.65841808  1
  O2-  O450  1  0.17206756  -0.00287595  0.02053133  1
  O2-  O451  1  0.18175742  -0.02082036  0.35399898  1
  O2-  O452  1  0.15947037  0.02305622  0.64142451  1
  O2-  O453  1  0.18219057  0.48576752  0.02755206  1
  O2-  O454  1  0.17299643  0.50182286  0.33282807  1
  O2-  O455  1  0.17068782  0.50265117  0.68452954  1
  O2-  O456  1  0.48378017  0.00729255  -0.02554671  1
  O2-  O457  1  0.48836538  0.01220702  0.31725078  1
  O2-  O458  1  0.51795560  0.02136573  0.69154333  1
  O2-  O459  1  0.51309063  0.50065711  0.01814556  1
  O2-  O460  1  0.51274564  0.48622791  0.36168064  1
  O2-  O461  1  0.51563245  0.50737078  0.67570420  1
  O2-  O462  1  0.86426089  0.00225551  0.03563621  1
  O2-  O463  1  0.83259243  -0.02294399  0.33858064  1
  O2-  O464  1  0.85428663  -0.00283321  0.69467080  1
  O2-  O465  1  0.84754759  0.49784472  0.01116197  1
  O2-  O466  1  0.82752935  0.49317249  0.31130758  1
  O2-  O467  1  0.83384173  0.50160379  0.65703230  1
  O2-  O468  1  0.59173313  0.75113916  0.28293201  1
  O2-  O469  1  0.40907523  0.24739358  0.73250666  1
  O2-  O470  1  0.74568530  0.74743706  0.72568460  1
  O2-  O471  1  0.41233106  0.75468604  0.74427141  1
  O2-  O472  1  0.74932380  0.75604037  0.39144811  1
  O2-  O473  1  0.74677272  0.25082091  0.05333156  1
  O2-  O474  1  0.57489954  0.24727976  0.94080474  1
  O2-  O475  1  0.25825236  0.75258592  0.59694888  1
  O2-  O476  1  0.24587113  0.24771565  0.94136819  1
  O2-  O477  1  0.24465397  0.74852664  0.94397091  1
  O2-  O478  1  0.08723270  0.75462409  0.05702844  1
  O2-  O479  1  0.23208591  0.24831489  0.27373551  1
  O2-  O480  1  0.59520687  0.74966109  0.93180227  1
  O2-  O481  1  0.08037820  0.75271198  0.39341302  1
  O2-  O482  1  0.43115922  0.74614271  0.39369443  1
  O2-  O483  1  0.08099627  0.24828022  0.71944773  1
  O2-  O484  1  0.92149151  0.25569993  0.94471848  1
  O2-  O485  1  0.74067447  0.75090109  0.06300236  1
  O2-  O486  1  0.08114271  0.24852964  0.05349396  1
  O2-  O487  1  0.24248743  0.24580695  0.61021779  1
  O2-  O488  1  0.91916141  0.75125426  0.26846690  1
  O2-  O489  1  0.74411378  0.25126326  0.39121146  1
  O2-  O490  1  0.91869805  0.25634901  0.25977984  1
  O2-  O491  1  0.09285899  0.24913144  0.39893898  1
  O2-  O492  1  0.59520211  0.24877768  0.28035230  1
