# generated using pymatgen
data_Ca108Mn108O277
_symmetry_space_group_name_H-M   'P 1'
_cell_length_a   16.02595997
_cell_length_b   22.30440130
_cell_length_c   16.38792220
_cell_angle_alpha   90.00000011
_cell_angle_beta   90.00124145
_cell_angle_gamma   89.99899349
_symmetry_Int_Tables_number   1
_chemical_formula_structural   Ca108Mn108O277
_chemical_formula_sum   'Ca108 Mn108 O277'
_cell_volume   5857.85364867
_cell_formula_units_Z   1
loop_
 _symmetry_equiv_pos_site_id
 _symmetry_equiv_pos_as_xyz
  1  'x, y, z'
loop_
 _atom_type_symbol
 _atom_type_oxidation_number
  Ca2+  2.0
  Mn3.34+  3.34
  O2-  -2.0
loop_
 _atom_site_type_symbol
 _atom_site_label
 _atom_site_symmetry_multiplicity
 _atom_site_fract_x
 _atom_site_fract_y
 _atom_site_fract_z
 _atom_site_occupancy
  Ca2+  Ca0  1  0.07636392  0.25273923  0.24395959  1
  Ca2+  Ca1  1  0.10437388  0.24263059  0.59588291  1
  Ca2+  Ca2  1  0.09689662  0.24126672  0.91561136  1
  Ca2+  Ca3  1  0.06600461  0.74917417  0.24198058  1
  Ca2+  Ca4  1  0.08848894  0.76803419  0.58128834  1
  Ca2+  Ca5  1  0.06558732  0.75792153  0.93087040  1
  Ca2+  Ca6  1  0.41558068  0.25028943  0.23888607  1
  Ca2+  Ca7  1  0.40680222  0.24948355  0.58112613  1
  Ca2+  Ca8  1  0.40601709  0.25258863  0.92402065  1
  Ca2+  Ca9  1  0.40827153  0.74999892  0.25766187  1
  Ca2+  Ca10  1  0.41220278  0.75118148  0.57407288  1
  Ca2+  Ca11  1  0.41373349  0.75684538  0.91999223  1
  Ca2+  Ca12  1  0.75763414  0.24424227  0.24897836  1
  Ca2+  Ca13  1  0.74574064  0.26008508  0.57719798  1
  Ca2+  Ca14  1  0.74829015  0.24901444  0.92417166  1
  Ca2+  Ca15  1  0.77177217  0.74063794  0.24683969  1
  Ca2+  Ca16  1  0.74554848  0.74528333  0.59600867  1
  Ca2+  Ca17  1  0.77126257  0.74608337  0.91870374  1
  Ca2+  Ca18  1  0.25597488  0.23892328  0.06175888  1
  Ca2+  Ca19  1  0.24935863  0.25001205  0.41916237  1
  Ca2+  Ca20  1  0.24403046  0.23804399  0.77321714  1
  Ca2+  Ca21  1  0.22863432  0.74820143  0.09454164  1
  Ca2+  Ca22  1  0.24526197  0.75821013  0.41587103  1
  Ca2+  Ca23  1  0.24119027  0.76223374  0.74303246  1
  Ca2+  Ca24  1  0.58230637  0.25653278  0.07744468  1
  Ca2+  Ca25  1  0.59623285  0.25771736  0.41268592  1
  Ca2+  Ca26  1  0.58300453  0.26149288  0.76494628  1
  Ca2+  Ca27  1  0.59611328  0.74574745  0.08271740  1
  Ca2+  Ca28  1  0.58992266  0.74711826  0.42384056  1
  Ca2+  Ca29  1  0.60479134  0.75276307  0.74758980  1
  Ca2+  Ca30  1  0.90951026  0.24474551  0.07965985  1
  Ca2+  Ca31  1  0.90679307  0.25169399  0.40908492  1
  Ca2+  Ca32  1  0.92817311  0.24834593  0.77385044  1
  Ca2+  Ca33  1  0.92755224  0.75336013  0.07731761  1
  Ca2+  Ca34  1  0.91561013  0.74113908  0.39363134  1
  Ca2+  Ca35  1  0.91053436  0.75586028  0.77089076  1
  Ca2+  Ca36  1  0.05302404  0.60310596  0.93046724  1
  Ca2+  Ca37  1  0.06660952  0.61049654  0.23778634  1
  Ca2+  Ca38  1  0.36308576  0.08854918  0.92616219  1
  Ca2+  Ca39  1  0.35503875  0.08476191  0.92303060  1
  Ca2+  Ca40  1  0.58525317  0.60621995  0.43953376  1
  Ca2+  Ca41  1  0.93190863  0.08777752  0.77101039  1
  Ca2+  Ca42  1  0.12594871  0.09415299  0.91889614  1
  Ca2+  Ca43  1  0.57879279  0.08346173  0.75220151  1
  Ca2+  Ca44  1  0.58019620  0.09199592  0.09497715  1
  Ca2+  Ca45  1  0.92167053  0.60907521  0.09870175  1
  Ca2+  Ca46  1  0.25731398  0.60442283  0.41408814  1
  Ca2+  Ca47  1  0.45620928  0.60425627  0.58020508  1
  Ca2+  Ca48  1  0.36487747  0.09198485  0.57684163  1
  Ca2+  Ca49  1  0.23968865  0.07078315  0.40728556  1
  Ca2+  Ca50  1  0.91258268  0.60622042  0.09573307  1
  Ca2+  Ca51  1  0.57642339  0.08479849  0.37780023  1
  Ca2+  Ca52  1  0.43251144  0.59587470  0.93265193  1
  Ca2+  Ca53  1  0.10227432  0.06442274  0.26340575  1
  Ca2+  Ca54  1  0.25268886  0.58914329  0.73881940  1
  Ca2+  Ca55  1  0.24749509  0.60703461  0.41083999  1
  Ca2+  Ca56  1  0.56684170  0.08026353  0.37822190  1
  Ca2+  Ca57  1  0.08976944  0.59388162  0.57833497  1
  Ca2+  Ca58  1  0.92596155  0.08593656  0.06031051  1
  Ca2+  Ca59  1  0.60960820  0.61035792  0.73465237  1
  Ca2+  Ca60  1  0.79213632  0.58930336  0.25008467  1
  Ca2+  Ca61  1  0.06017297  0.59813679  0.92746541  1
  Ca2+  Ca62  1  0.92785703  0.07986730  0.40084285  1
  Ca2+  Ca63  1  0.75769029  0.08472587  0.58365547  1
  Ca2+  Ca64  1  0.71680899  0.60559988  0.57661885  1
  Ca2+  Ca65  1  0.88953874  0.61194635  0.76477685  1
  Ca2+  Ca66  1  0.40178483  0.61399747  0.24092286  1
  Ca2+  Ca67  1  0.60792657  0.60560514  0.74211049  1
  Ca2+  Ca68  1  0.23965611  0.58968809  0.73977884  1
  Ca2+  Ca69  1  0.41310397  0.08112451  0.24968169  1
  Ca2+  Ca70  1  0.75732362  0.60633336  0.91562341  1
  Ca2+  Ca71  1  0.76848417  0.08548560  0.92978199  1
  Ca2+  Ca72  1  0.74610515  0.41402841  0.93015379  1
  Ca2+  Ca73  1  0.10038081  0.91059758  0.26210314  1
  Ca2+  Ca74  1  0.25230552  0.90576334  0.74929427  1
  Ca2+  Ca75  1  0.92268554  0.41731990  0.08627987  1
  Ca2+  Ca76  1  0.90637856  0.41682876  0.40716775  1
  Ca2+  Ca77  1  0.75977930  0.41291656  0.24760283  1
  Ca2+  Ca78  1  0.08896676  0.40754755  0.91834372  1
  Ca2+  Ca79  1  0.39617454  0.90759452  0.91696987  1
  Ca2+  Ca80  1  0.91047179  0.41944905  0.08553254  1
  Ca2+  Ca81  1  0.07646078  0.41183435  0.25583905  1
  Ca2+  Ca82  1  0.57684074  0.89552971  0.08766675  1
  Ca2+  Ca83  1  0.74706037  0.41320062  0.24703342  1
  Ca2+  Ca84  1  0.43075064  0.41416175  0.58216125  1
  Ca2+  Ca85  1  0.41962744  0.91648619  0.25419637  1
  Ca2+  Ca86  1  0.57955363  0.90086835  0.41070755  1
  Ca2+  Ca87  1  0.91473124  0.41912712  0.40173466  1
  Ca2+  Ca88  1  0.74658432  0.88943046  0.24805384  1
  Ca2+  Ca89  1  0.41697835  0.40934897  0.92729946  1
  Ca2+  Ca90  1  0.71899112  0.42429766  0.58554837  1
  Ca2+  Ca91  1  0.42476068  0.39670978  0.24846361  1
  Ca2+  Ca92  1  0.91068814  0.40986672  0.74774204  1
  Ca2+  Ca93  1  0.44249872  0.41156008  0.57868988  1
  Ca2+  Ca94  1  0.76335397  0.89928575  0.90748126  1
  Ca2+  Ca95  1  0.75590180  0.89562335  0.58853345  1
  Ca2+  Ca96  1  0.58809091  0.41389881  0.74669465  1
  Ca2+  Ca97  1  0.09484478  0.41024159  0.58601985  1
  Ca2+  Ca98  1  0.25845210  0.40168094  0.07857557  1
  Ca2+  Ca99  1  0.73679572  0.41600721  0.92613255  1
  Ca2+  Ca100  1  0.24957029  0.40004899  0.75383416  1
  Ca2+  Ca101  1  0.39705801  0.90740514  0.58222339  1
  Ca2+  Ca102  1  0.08232457  0.41186176  0.58659795  1
  Ca2+  Ca103  1  0.92347019  0.40961170  0.74756832  1
  Ca2+  Ca104  1  0.40645585  0.91406129  0.25471325  1
  Ca2+  Ca105  1  0.22616940  0.92198151  0.41994383  1
  Ca2+  Ca106  1  0.25302279  0.40784618  0.41186708  1
  Ca2+  Ca107  1  0.93573541  0.90129550  0.41781237  1
  Mn3.34+  Mn108  1  0.08509802  0.33312555  0.08467385  1
  Mn3.34+  Mn109  1  0.08529297  0.33250845  0.41818093  1
  Mn3.34+  Mn110  1  0.08547294  0.33140150  0.75469515  1
  Mn3.34+  Mn111  1  0.08313104  0.83959652  0.08427796  1
  Mn3.34+  Mn112  1  0.08312532  0.83555229  0.41768710  1
  Mn3.34+  Mn113  1  0.07819052  0.83499704  0.75332477  1
  Mn3.34+  Mn114  1  0.42083028  0.33469964  0.08544527  1
  Mn3.34+  Mn115  1  0.42004407  0.33165727  0.41609654  1
  Mn3.34+  Mn116  1  0.41800477  0.33349825  0.75262924  1
  Mn3.34+  Mn117  1  0.41100628  0.82943083  0.08470491  1
  Mn3.34+  Mn118  1  0.41441475  0.83169566  0.42108165  1
  Mn3.34+  Mn119  1  0.42346365  0.83169186  0.75146267  1
  Mn3.34+  Mn120  1  0.74697318  0.33276052  0.08774101  1
  Mn3.34+  Mn121  1  0.74749048  0.33718736  0.42030572  1
  Mn3.34+  Mn122  1  0.74916834  0.33379992  0.74922382  1
  Mn3.34+  Mn123  1  0.75282148  0.82920435  0.08125680  1
  Mn3.34+  Mn124  1  0.75250850  0.82780370  0.42071463  1
  Mn3.34+  Mn125  1  0.75375707  0.83039980  0.75304323  1
  Mn3.34+  Mn126  1  0.24847634  0.33147921  0.24719896  1
  Mn3.34+  Mn127  1  0.25360448  0.33083251  0.57999285  1
  Mn3.34+  Mn128  1  0.25121074  0.33251310  0.91626842  1
  Mn3.34+  Mn129  1  0.24885563  0.83904863  0.24508570  1
  Mn3.34+  Mn130  1  0.24609479  0.84042643  0.58153548  1
  Mn3.34+  Mn131  1  0.23993454  0.84067376  0.91905281  1
  Mn3.34+  Mn132  1  0.58427387  0.32952687  0.24882834  1
  Mn3.34+  Mn133  1  0.58529785  0.33411418  0.58275613  1
  Mn3.34+  Mn134  1  0.58076849  0.33625506  0.92006942  1
  Mn3.34+  Mn135  1  0.57962446  0.83442134  0.24652992  1
  Mn3.34+  Mn136  1  0.58142095  0.82892397  0.58487886  1
  Mn3.34+  Mn137  1  0.58396516  0.82710587  0.91352732  1
  Mn3.34+  Mn138  1  0.91800979  0.33087820  0.24618398  1
  Mn3.34+  Mn139  1  0.91729093  0.33219447  0.57839393  1
  Mn3.34+  Mn140  1  0.91734975  0.33278790  0.91832737  1
  Mn3.34+  Mn141  1  0.91864204  0.83213559  0.24484976  1
  Mn3.34+  Mn142  1  0.92052138  0.83664752  0.58694699  1
  Mn3.34+  Mn143  1  0.92423408  0.84305055  0.91897434  1
  Mn3.34+  Mn144  1  0.91878183  0.16618248  0.24377380  1
  Mn3.34+  Mn145  1  0.09308198  0.16591188  0.75207804  1
  Mn3.34+  Mn146  1  0.25147570  0.67166116  0.58168912  1
  Mn3.34+  Mn147  1  0.25820543  0.66500701  0.91778575  1
  Mn3.34+  Mn148  1  0.09025215  0.16101162  0.42278192  1
  Mn3.34+  Mn149  1  0.74957363  0.16704082  0.08834650  1
  Mn3.34+  Mn150  1  0.58337350  0.16853374  0.24196728  1
  Mn3.34+  Mn151  1  0.42106226  0.67137134  0.41787501  1
  Mn3.34+  Mn152  1  0.07985441  0.16557118  0.42080661  1
  Mn3.34+  Mn153  1  0.58544037  0.16205746  0.57621276  1
  Mn3.34+  Mn154  1  0.92133348  0.16481196  0.92032314  1
  Mn3.34+  Mn155  1  0.41873654  0.16519946  0.74832454  1
  Mn3.34+  Mn156  1  0.08130712  0.66969617  0.75038722  1
  Mn3.34+  Mn157  1  0.74707111  0.66304893  0.08727152  1
  Mn3.34+  Mn158  1  0.91765306  0.16032533  0.58292973  1
  Mn3.34+  Mn159  1  0.42239238  0.67059611  0.08990236  1
  Mn3.34+  Mn160  1  0.24795589  0.67014162  0.91875181  1
  Mn3.34+  Mn161  1  0.41386365  0.17096491  0.41650004  1
  Mn3.34+  Mn162  1  0.08100795  0.67019080  0.41294041  1
  Mn3.34+  Mn163  1  0.25561457  0.16322638  0.24248558  1
  Mn3.34+  Mn164  1  0.58223282  0.16500244  0.92203275  1
  Mn3.34+  Mn165  1  0.57571292  0.16829599  0.57906056  1
  Mn3.34+  Mn166  1  0.40786876  0.16096925  0.74916252  1
  Mn3.34+  Mn167  1  0.74117906  0.16481315  0.75327310  1
  Mn3.34+  Mn168  1  0.74877002  0.66782602  0.41290746  1
  Mn3.34+  Mn169  1  0.92291255  0.66697323  0.57870967  1
  Mn3.34+  Mn170  1  0.92636583  0.16634614  0.58530448  1
  Mn3.34+  Mn171  1  0.41889292  0.67615962  0.75417208  1
  Mn3.34+  Mn172  1  0.75515572  0.15873078  0.75561179  1
  Mn3.34+  Mn173  1  0.75544134  0.16807220  0.41202714  1
  Mn3.34+  Mn174  1  0.91270328  0.66227796  0.57814024  1
  Mn3.34+  Mn175  1  0.24536424  0.15862734  0.24007964  1
  Mn3.34+  Mn176  1  0.42076676  0.16594744  0.08246046  1
  Mn3.34+  Mn177  1  0.58189569  0.66700156  0.91937837  1
  Mn3.34+  Mn178  1  0.58561932  0.66894650  0.24767254  1
  Mn3.34+  Mn179  1  0.08357799  0.15709670  0.08748519  1
  Mn3.34+  Mn180  1  0.42386307  0.50219359  0.41307252  1
  Mn3.34+  Mn181  1  0.57269379  -0.00035984  0.91731783  1
  Mn3.34+  Mn182  1  0.92349008  -0.00352604  0.23604279  1
  Mn3.34+  Mn183  1  0.74903510  -0.00502613  0.41718203  1
  Mn3.34+  Mn184  1  0.25948871  0.50144794  0.24221804  1
  Mn3.34+  Mn185  1  0.40643242  -0.00048707  0.07937760  1
  Mn3.34+  Mn186  1  0.08936673  0.50239563  0.08009328  1
  Mn3.34+  Mn187  1  0.08508129  -0.00252263  0.06222923  1
  Mn3.34+  Mn188  1  0.74980766  0.50548687  0.40796021  1
  Mn3.34+  Mn189  1  0.75832349  -0.00552775  0.74311624  1
  Mn3.34+  Mn190  1  0.07403746  0.50699327  0.40224245  1
  Mn3.34+  Mn191  1  0.92458229  -0.00242104  0.58910396  1
  Mn3.34+  Mn192  1  0.25561338  0.50124713  0.57852115  1
  Mn3.34+  Mn193  1  0.58588658  -0.00433924  0.59164818  1
  Mn3.34+  Mn194  1  0.09736364  0.00270818  0.73354364  1
  Mn3.34+  Mn195  1  0.58311230  0.50097814  0.23408460  1
  Mn3.34+  Mn196  1  0.90779433  0.50021790  0.92230408  1
  Mn3.34+  Mn197  1  0.42965042  0.50681172  0.75816813  1
  Mn3.34+  Mn198  1  0.08724246  -0.00402995  0.73664528  1
  Mn3.34+  Mn199  1  0.41830162  0.50218054  0.76118719  1
  Mn3.34+  Mn200  1  0.40286505  -0.00121659  0.73893625  1
  Mn3.34+  Mn201  1  0.76378630  -0.00553973  0.08555408  1
  Mn3.34+  Mn202  1  0.07721905  0.50248227  0.74876337  1
  Mn3.34+  Mn203  1  0.91225229  0.00294992  0.23592174  1
  Mn3.34+  Mn204  1  0.75443021  0.00059162  0.08771767  1
  Mn3.34+  Mn205  1  0.24991887  0.50084423  0.92374508  1
  Mn3.34+  Mn206  1  0.74953005  0.50241131  0.74971375  1
  Mn3.34+  Mn207  1  0.57216757  0.50493733  0.23319340  1
  Mn3.34+  Mn208  1  0.58646982  -0.00694922  0.91666617  1
  Mn3.34+  Mn209  1  0.41834945  0.50167235  0.07833955  1
  Mn3.34+  Mn210  1  0.41083301  -0.00028688  0.41921802  1
  Mn3.34+  Mn211  1  0.90820440  0.49959440  0.58222056  1
  Mn3.34+  Mn212  1  0.24515095  0.50747892  0.24094161  1
  Mn3.34+  Mn213  1  0.58703408  0.50616128  0.93608858  1
  Mn3.34+  Mn214  1  0.57219664  0.00212359  0.59025689  1
  Mn3.34+  Mn215  1  0.75984213  -0.00104116  0.42018223  1
  O2-  O216  1  -0.00069698  0.16441357  0.00536904  1
  O2-  O217  1  0.00861998  0.14765382  0.33115469  1
  O2-  O218  1  -0.00293081  0.15949870  0.67619699  1
  O2-  O219  1  -0.00823903  0.65970426  0.00214554  1
  O2-  O220  1  0.00243182  0.66367202  0.33945525  1
  O2-  O221  1  -0.00369200  0.64856934  0.67046974  1
  O2-  O222  1  0.33744764  0.16234056  0.00628890  1
  O2-  O223  1  0.33423087  0.15211227  0.33132662  1
  O2-  O224  1  0.33454369  0.17085845  0.66374938  1
  O2-  O225  1  0.34140815  0.66210959  -0.00143729  1
  O2-  O226  1  0.33418722  0.66490047  0.33996047  1
  O2-  O227  1  0.33315252  0.65793527  0.66926326  1
  O2-  O228  1  0.66929120  0.15085246  0.00387440  1
  O2-  O229  1  0.65743621  0.16234699  0.33348458  1
  O2-  O230  1  0.66515449  0.13957101  0.66625370  1
  O2-  O231  1  0.66627155  0.66577370  -0.00301035  1
  O2-  O232  1  0.65773175  0.66524640  0.33821864  1
  O2-  O233  1  0.66209423  0.67313189  0.66350687  1
  O2-  O234  1  0.15608740  0.17600215  0.00617704  1
  O2-  O235  1  0.16937016  0.14828453  0.33151390  1
  O2-  O236  1  0.17173012  0.17854666  0.67655323  1
  O2-  O237  1  0.16437480  0.65073119  -0.00893859  1
  O2-  O238  1  0.16568816  0.66401594  0.33863484  1
  O2-  O239  1  0.16624788  0.65169394  0.66364201  1
  O2-  O240  1  0.49807376  0.14663425  -0.00128879  1
  O2-  O241  1  0.49728672  0.17155140  0.32825159  1
  O2-  O242  1  0.49356588  0.13914440  0.66399656  1
  O2-  O243  1  0.49865606  0.68216505  0.00061859  1
  O2-  O244  1  0.49793236  0.66537005  0.33151168  1
  O2-  O245  1  0.50204932  0.66766486  0.68022159  1
  O2-  O246  1  0.83439915  0.15654281  0.00504251  1
  O2-  O247  1  0.84602686  0.15535451  0.33974172  1
  O2-  O248  1  0.83271732  0.15229587  0.66673890  1
  O2-  O249  1  0.82821684  0.65822906  0.00741581  1
  O2-  O250  1  0.82635274  0.66037611  0.33395708  1
  O2-  O251  1  0.82938181  0.65256286  0.65108136  1
  O2-  O252  1  -0.00104327  0.34930607  0.00314920  1
  O2-  O253  1  -0.00504339  0.34765001  0.33777574  1
  O2-  O254  1  -0.00022224  0.34618804  0.66583813  1
  O2-  O255  1  -0.00184974  0.83520261  0.00538949  1
  O2-  O256  1  0.00331828  0.83987399  0.32927620  1
  O2-  O257  1  0.00270686  0.83327821  0.66560001  1
  O2-  O258  1  0.33530417  0.34383152  -0.00313150  1
  O2-  O259  1  0.33556861  0.34058602  0.33176357  1
  O2-  O260  1  0.34082784  0.34832415  0.65636158  1
  O2-  O261  1  0.33813464  0.83333260  -0.00471917  1
  O2-  O262  1  0.33504136  0.83900048  0.33065635  1
  O2-  O263  1  0.33683579  0.83694733  0.66654438  1
  O2-  O264  1  0.66969815  0.34560899  0.00013731  1
  O2-  O265  1  0.66990835  0.34131105  0.32689141  1
  O2-  O266  1  0.66709472  0.35156138  0.66765486  1
  O2-  O267  1  0.66208379  0.83892543  0.00324374  1
  O2-  O268  1  0.65968223  0.83649326  0.33463239  1
  O2-  O269  1  0.66895350  0.82735405  0.66250475  1
  O2-  O270  1  0.16650820  0.34055122  -0.00018431  1
  O2-  O271  1  0.16587139  0.34853163  0.33335208  1
  O2-  O272  1  0.16770219  0.34006945  0.66539240  1
  O2-  O273  1  0.16505241  0.83750787  0.00169451  1
  O2-  O274  1  0.17347470  0.83316101  0.33381931  1
  O2-  O275  1  0.17048552  0.84273117  0.66825383  1
  O2-  O276  1  0.49748290  0.34370573  -0.00238706  1
  O2-  O277  1  0.50024943  0.31166220  0.33110402  1
  O2-  O278  1  0.50243084  0.34972386  0.66923555  1
  O2-  O279  1  0.50030137  0.82063686  0.00388548  1
  O2-  O280  1  0.49440085  0.83921600  0.32993175  1
  O2-  O281  1  0.49768884  0.80739701  0.66335444  1
  O2-  O282  1  0.83226487  0.35106620  0.00069404  1
  O2-  O283  1  0.83197509  0.34957018  0.33259223  1
  O2-  O284  1  0.83440837  0.34727912  0.66342768  1
  O2-  O285  1  0.82849687  0.84019140  -0.00112937  1
  O2-  O286  1  0.83494891  0.84600567  0.33995377  1
  O2-  O287  1  0.83356730  0.83983312  0.66609170  1
  O2-  O288  1  0.00096808  0.18665551  0.16348609  1
  O2-  O289  1  -0.00207241  0.19426046  0.50068961  1
  O2-  O290  1  -0.00033527  0.17554024  0.83747810  1
  O2-  O291  1  -0.00394815  0.67805845  0.16404903  1
  O2-  O292  1  0.01114132  0.67386124  0.51078592  1
  O2-  O293  1  0.00993142  0.67272474  0.83436454  1
  O2-  O294  1  0.34116605  0.17819703  0.16692632  1
  O2-  O295  1  0.33792036  0.18866310  0.49346569  1
  O2-  O296  1  0.33925312  0.17670031  0.83787047  1
  O2-  O297  1  0.34211644  0.69192990  0.16062942  1
  O2-  O298  1  0.33201120  0.67730277  0.49855074  1
  O2-  O299  1  0.33091061  0.68699921  0.83292378  1
  O2-  O300  1  0.66398963  0.18771262  0.16495376  1
  O2-  O301  1  0.67247602  0.18126312  0.49857180  1
  O2-  O302  1  0.66332351  0.17965520  0.83587044  1
  O2-  O303  1  0.66999061  0.68568613  0.17465771  1
  O2-  O304  1  0.67151491  0.68308962  0.49618224  1
  O2-  O305  1  0.65546857  0.67433725  0.83481297  1
  O2-  O306  1  0.16361606  0.18481693  0.16566708  1
  O2-  O307  1  0.16875475  0.18455089  0.49791633  1
  O2-  O308  1  0.16084824  0.17542061  0.83683773  1
  O2-  O309  1  0.15300853  0.68583945  0.17715685  1
  O2-  O310  1  0.17484460  0.67620339  0.49666749  1
  O2-  O311  1  0.17826068  0.67460321  0.82229330  1
  O2-  O312  1  0.50509931  0.18592981  0.16154972  1
  O2-  O313  1  0.50246755  0.19392011  0.49049934  1
  O2-  O314  1  0.50246561  0.17527300  0.82603043  1
  O2-  O315  1  0.50168521  0.69320724  0.17258962  1
  O2-  O316  1  0.49987236  0.68248781  0.49792737  1
  O2-  O317  1  0.49429755  0.68442990  0.84090125  1
  O2-  O318  1  0.83377580  0.18333986  0.16571989  1
  O2-  O319  1  0.83241039  0.18796345  0.51090144  1
  O2-  O320  1  0.83340438  0.18070049  0.83748948  1
  O2-  O321  1  0.83164813  0.67452052  0.16248837  1
  O2-  O322  1  0.83508020  0.67720911  0.49571243  1
  O2-  O323  1  0.83195638  0.67985739  0.83650845  1
  O2-  O324  1  -0.00236670  0.31810481  0.16081266  1
  O2-  O325  1  0.00773579  0.31732313  0.50665148  1
  O2-  O326  1  -0.00337090  0.32747758  0.83157163  1
  O2-  O327  1  0.00445027  0.83119018  0.17115349  1
  O2-  O328  1  -0.00357178  0.82542114  0.49659173  1
  O2-  O329  1  0.00283351  0.82018513  0.83518696  1
  O2-  O330  1  0.33436701  0.32251946  0.16580192  1
  O2-  O331  1  0.33192852  0.31355791  0.49671510  1
  O2-  O332  1  0.33046645  0.32383048  0.82822282  1
  O2-  O333  1  0.33332664  0.81566481  0.17234859  1
  O2-  O334  1  0.33533159  0.82210205  0.50200046  1
  O2-  O335  1  0.33770389  0.81648439  0.82864663  1
  O2-  O336  1  0.67183216  0.31647493  0.17222616  1
  O2-  O337  1  0.66802016  0.32383363  0.50329151  1
  O2-  O338  1  0.67002610  0.32864869  0.83826333  1
  O2-  O339  1  0.66289830  0.81961261  0.17007878  1
  O2-  O340  1  0.66609978  0.81491608  0.50197876  1
  O2-  O341  1  0.67395068  0.81418006  0.84255843  1
  O2-  O342  1  0.16508039  0.31618470  0.16443513  1
  O2-  O343  1  0.16745263  0.31431484  0.50462207  1
  O2-  O344  1  0.16602673  0.32355733  0.83504208  1
  O2-  O345  1  0.16397080  0.82503032  0.17352084  1
  O2-  O346  1  0.17112969  0.82690578  0.49505105  1
  O2-  O347  1  0.16949915  0.82326879  0.82856196  1
  O2-  O348  1  0.50026214  0.31702617  0.17091593  1
  O2-  O349  1  0.49459988  0.31878980  0.50892864  1
  O2-  O350  1  0.50296514  0.32923337  0.83565129  1
  O2-  O351  1  0.49783758  0.81390836  0.16761001  1
  O2-  O352  1  0.50218126  0.81778901  0.49659156  1
  O2-  O353  1  0.50324072  0.80651645  0.83212424  1
  O2-  O354  1  0.83208722  0.31883549  0.16727112  1
  O2-  O355  1  0.83929765  0.31638505  0.49681581  1
  O2-  O356  1  0.83555161  0.32573399  0.83029145  1
  O2-  O357  1  0.82674244  0.82244467  0.17074503  1
  O2-  O358  1  0.82979875  0.82374936  0.50370152  1
  O2-  O359  1  0.83288654  0.82751907  0.83631438  1
  O2-  O360  1  0.07635318  0.06482830  0.12203564  1
  O2-  O361  1  0.08186905  0.08073454  0.44218621  1
  O2-  O362  1  0.07991529  0.07827700  0.77923168  1
  O2-  O363  1  0.06771881  0.57853510  0.10144466  1
  O2-  O364  1  0.11044793  0.58059585  0.44295409  1
  O2-  O365  1  0.10529780  0.58138264  0.78797368  1
  O2-  O366  1  0.42357917  0.08048394  0.11177538  1
  O2-  O367  1  0.43362682  0.08180979  0.44241671  1
  O2-  O368  1  0.42043947  0.07516188  0.79336682  1
  O2-  O369  1  0.42236217  0.58162699  0.10791324  1
  O2-  O370  1  0.41482051  0.58593883  0.44333799  1
  O2-  O371  1  0.40175401  0.58694673  0.78554401  1
  O2-  O372  1  0.74568826  0.08123499  0.11890034  1
  O2-  O373  1  0.75822539  0.08166951  0.44658050  1
  O2-  O374  1  0.75403824  0.07645120  0.79114344  1
  O2-  O375  1  0.77051590  0.58168454  0.10783457  1
  O2-  O376  1  0.73128301  0.58435297  0.44089619  1
  O2-  O377  1  0.74504089  0.58037481  0.77557229  1
  O2-  O378  1  0.25198864  0.07779900  0.22612465  1
  O2-  O379  1  0.25199634  0.06159201  0.53422884  1
  O2-  O380  1  0.24623992  0.06774780  0.87690597  1
  O2-  O381  1  0.25670106  0.58769418  0.24084707  1
  O2-  O382  1  0.25127885  0.58488526  0.55428936  1
  O2-  O383  1  0.26498778  0.58109824  0.87907381  1
  O2-  O384  1  0.56497103  0.08410421  0.23746766  1
  O2-  O385  1  0.58746961  0.07467315  0.52530189  1
  O2-  O386  1  0.59105874  0.07776095  0.88298851  1
  O2-  O387  1  0.57106610  0.58660187  0.22066304  1
  O2-  O388  1  0.58484692  0.57493966  0.56863692  1
  O2-  O389  1  0.56525466  0.57670316  0.87243682  1
  O2-  O390  1  0.92647132  0.08246003  0.20766514  1
  O2-  O391  1  0.91431923  0.07798542  0.53792895  1
  O2-  O392  1  0.91345369  0.08570621  0.90192999  1
  O2-  O393  1  0.92498952  0.56274570  0.21362509  1
  O2-  O394  1  0.92864488  0.58093073  0.55592279  1
  O2-  O395  1  0.92367269  0.57531158  0.88665761  1
  O2-  O396  1  0.06988469  0.42337650  0.11648384  1
  O2-  O397  1  0.08944329  0.42795937  0.45510788  1
  O2-  O398  1  0.07916308  0.41726040  0.77694116  1
  O2-  O399  1  0.08431570  0.93155887  0.11808949  1
  O2-  O400  1  0.08286648  0.91563390  0.41743122  1
  O2-  O401  1  0.08897021  0.92013460  0.77141351  1
  O2-  O402  1  0.41228612  0.42110852  0.11548025  1
  O2-  O403  1  0.40082548  0.42057344  0.45116046  1
  O2-  O404  1  0.41422947  0.41899745  0.78175998  1
  O2-  O405  1  0.42237072  0.92021736  0.11840709  1
  O2-  O406  1  0.42180153  0.91738439  0.43924527  1
  O2-  O407  1  0.40736255  0.92037870  0.77330586  1
  O2-  O408  1  0.76303010  0.41746133  0.11449776  1
  O2-  O409  1  0.77119262  0.42510049  0.45816472  1
  O2-  O410  1  0.76169568  0.42427066  0.78922186  1
  O2-  O411  1  0.73261654  0.91543059  0.11148084  1
  O2-  O412  1  0.73558055  0.91370619  0.44464850  1
  O2-  O413  1  0.73638230  0.91551625  0.76952786  1
  O2-  O414  1  0.24791208  0.42157877  0.21408880  1
  O2-  O415  1  0.23455366  0.41858814  0.55220844  1
  O2-  O416  1  0.24492646  0.41971522  0.88974660  1
  O2-  O417  1  0.26632125  0.91752794  0.23633165  1
  O2-  O418  1  0.26083232  0.91730342  0.55780912  1
  O2-  O419  1  0.25970053  0.91445850  0.88867344  1
  O2-  O420  1  0.58884331  0.41754664  0.22075093  1
  O2-  O421  1  0.57642398  0.41559150  0.56008471  1
  O2-  O422  1  0.59607363  0.42499933  0.89230061  1
  O2-  O423  1  0.56169338  0.91597751  0.22700608  1
  O2-  O424  1  0.57762039  0.91759826  0.55362824  1
  O2-  O425  1  0.56552107  0.91325330  0.90146818  1
  O2-  O426  1  0.90762811  0.41375072  0.21910481  1
  O2-  O427  1  0.93316865  0.41971570  0.53965235  1
  O2-  O428  1  0.92123164  0.42180707  0.88080885  1
  O2-  O429  1  0.90116098  0.91666045  0.23190242  1
  O2-  O430  1  0.90371214  0.91988181  0.55277547  1
  O2-  O431  1  0.90402730  0.91906849  0.89807151  1
  O2-  O432  1  0.00114022  0.00850169  0.00636601  1
  O2-  O433  1  0.00281687  0.00626969  0.32055060  1
  O2-  O434  1  -0.01661939  0.00933616  0.69316264  1
  O2-  O435  1  -0.01002959  0.49461197  0.00975218  1
  O2-  O436  1  -0.00374397  0.47325545  0.33708014  1
  O2-  O437  1  0.00358010  0.47721102  0.65823401  1
  O2-  O438  1  0.35235523  -0.00405707  -0.02060344  1
  O2-  O439  1  0.33671875  0.00111023  0.34018502  1
  O2-  O440  1  0.35766679  -0.00183249  0.64232584  1
  O2-  O441  1  0.32265106  0.48789543  0.01124161  1
  O2-  O442  1  0.31909460  0.50298825  0.34514582  1
  O2-  O443  1  0.32156583  0.50392545  0.68676354  1
  O2-  O444  1  0.66881961  0.00790893  0.00097572  1
  O2-  O445  1  0.64935603  0.00100062  0.35951414  1
  O2-  O446  1  0.66574445  0.02015506  0.66811108  1
  O2-  O447  1  0.70072146  0.51118024  -0.05695441  1
  O2-  O448  1  0.67646563  0.49839006  0.30893954  1
  O2-  O449  1  0.65494479  0.49911300  0.69125567  1
  O2-  O450  1  0.16451124  0.00903047  0.00148317  1
  O2-  O451  1  0.17173503  -0.00323569  0.33774660  1
  O2-  O452  1  0.19975685  -0.00468181  0.69818482  1
  O2-  O453  1  0.14060699  0.50766611  -0.03011245  1
  O2-  O454  1  0.15856835  0.49152255  0.32030846  1
  O2-  O455  1  0.16332689  0.50554047  0.66077985  1
  O2-  O456  1  0.51164077  0.00046957  0.01727584  1
  O2-  O457  1  0.49133821  0.00165480  0.33632910  1
  O2-  O458  1  0.50810623  0.00882310  0.68525707  1
  O2-  O459  1  0.47688469  0.49962765  -0.02949129  1
  O2-  O460  1  0.48858858  0.49196732  0.31315431  1
  O2-  O461  1  0.48342911  0.48884184  0.65729900  1
  O2-  O462  1  0.83312904  0.00874402  -0.00241655  1
  O2-  O463  1  0.84175303  0.00536374  0.33737996  1
  O2-  O464  1  0.82156636  0.00869583  0.64392971  1
  O2-  O465  1  0.83491937  0.47140166  -0.00054114  1
  O2-  O466  1  0.82799657  0.47705680  0.32814183  1
  O2-  O467  1  0.84270412  0.48644913  0.68360422  1
  O2-  O468  1  0.91863469  0.25019186  0.27468114  1
  O2-  O469  1  0.08979396  0.74935625  0.72663197  1
  O2-  O470  1  0.91653417  0.75796587  0.92673610  1
  O2-  O471  1  0.25147008  0.24279269  0.27469503  1
  O2-  O472  1  0.75034068  0.74955918  0.06474115  1
  O2-  O473  1  0.91780132  0.75400805  0.25853915  1
  O2-  O474  1  0.58426976  0.25251792  0.93474985  1
  O2-  O475  1  0.25432206  0.25395680  0.92612910  1
  O2-  O476  1  0.24693971  0.75128247  0.60170733  1
  O2-  O477  1  0.76277308  0.75146028  0.73963527  1
  O2-  O478  1  0.91082784  0.25118465  0.93622091  1
  O2-  O479  1  0.24226396  0.75137672  0.93725212  1
  O2-  O480  1  0.08256981  0.75110191  0.41114610  1
  O2-  O481  1  0.40797154  0.75205727  0.39916144  1
  O2-  O482  1  0.91669773  0.74776583  0.60103393  1
  O2-  O483  1  0.08446740  0.24483886  0.38330039  1
  O2-  O484  1  0.41860233  0.24971590  0.06099875  1
  O2-  O485  1  0.74565197  0.24638633  0.72343678  1
  O2-  O486  1  0.59379155  0.25068077  0.61913314  1
  O2-  O487  1  0.43264206  0.25080396  0.72580373  1
  O2-  O488  1  0.75271636  0.25139959  0.05862076  1
  O2-  O489  1  0.07245879  0.25129701  0.73852158  1
  O2-  O490  1  0.76031761  0.75032225  0.39059013  1
  O2-  O491  1  0.75177343  0.25179893  0.39171778  1
  O2-  O492  1  0.08350812  0.75720837  0.07554525  1
