# generated using pymatgen
data_Ca108Mn108O277
_symmetry_space_group_name_H-M   'P 1'
_cell_length_a   16.02661019
_cell_length_b   22.30687697
_cell_length_c   16.38757073
_cell_angle_alpha   89.99177702
_cell_angle_beta   89.99808612
_cell_angle_gamma   90.00119425
_symmetry_Int_Tables_number   1
_chemical_formula_structural   Ca108Mn108O277
_chemical_formula_sum   'Ca108 Mn108 O277'
_cell_volume   5858.61582201
_cell_formula_units_Z   1
loop_
 _symmetry_equiv_pos_site_id
 _symmetry_equiv_pos_as_xyz
  1  'x, y, z'
loop_
 _atom_type_symbol
 _atom_type_oxidation_number
  Ca2+  2.0
  Mn3.34+  3.34
  O2-  -2.0
loop_
 _atom_site_type_symbol
 _atom_site_label
 _atom_site_symmetry_multiplicity
 _atom_site_fract_x
 _atom_site_fract_y
 _atom_site_fract_z
 _atom_site_occupancy
  Ca2+  Ca0  1  0.08277020  0.26035243  0.25742772  1
  Ca2+  Ca1  1  0.07571373  0.25957938  0.57748049  1
  Ca2+  Ca2  1  0.08287262  0.26107707  0.91416991  1
  Ca2+  Ca3  1  0.09615493  0.74674005  0.25788390  1
  Ca2+  Ca4  1  0.09239714  0.73796953  0.58273664  1
  Ca2+  Ca5  1  0.08147862  0.75453134  0.91607855  1
  Ca2+  Ca6  1  0.43517579  0.23871596  0.24659036  1
  Ca2+  Ca7  1  0.43733047  0.25265458  0.57530890  1
  Ca2+  Ca8  1  0.42536566  0.25006738  0.92671135  1
  Ca2+  Ca9  1  0.40764288  0.74804787  0.25736482  1
  Ca2+  Ca10  1  0.41648133  0.73982523  0.58655103  1
  Ca2+  Ca11  1  0.41456823  0.73822453  0.91142894  1
  Ca2+  Ca12  1  0.72956539  0.24850447  0.26224730  1
  Ca2+  Ca13  1  0.72566461  0.25811577  0.57849876  1
  Ca2+  Ca14  1  0.74581905  0.25697955  0.90889083  1
  Ca2+  Ca15  1  0.75342137  0.74211063  0.26832731  1
  Ca2+  Ca16  1  0.74591910  0.74405811  0.56490160  1
  Ca2+  Ca17  1  0.74980039  0.75777776  0.91946025  1
  Ca2+  Ca18  1  0.26018808  0.26202062  0.08346337  1
  Ca2+  Ca19  1  0.25427090  0.26252710  0.41245425  1
  Ca2+  Ca20  1  0.25288688  0.25461896  0.75848751  1
  Ca2+  Ca21  1  0.25532168  0.75333842  0.09896208  1
  Ca2+  Ca22  1  0.25632635  0.74913239  0.41248060  1
  Ca2+  Ca23  1  0.26653610  0.74321375  0.73939079  1
  Ca2+  Ca24  1  0.57831290  0.26261187  0.09161438  1
  Ca2+  Ca25  1  0.58259771  0.23143958  0.41063314  1
  Ca2+  Ca26  1  0.59416188  0.24714622  0.73881548  1
  Ca2+  Ca27  1  0.57403754  0.74816472  0.08653905  1
  Ca2+  Ca28  1  0.59142203  0.73521565  0.41747366  1
  Ca2+  Ca29  1  0.56635227  0.74345542  0.74225307  1
  Ca2+  Ca30  1  0.91002593  0.25711294  0.08171874  1
  Ca2+  Ca31  1  0.91279870  0.26557876  0.41229727  1
  Ca2+  Ca32  1  0.90280847  0.25869203  0.75685701  1
  Ca2+  Ca33  1  0.91805992  0.75859002  0.09889171  1
  Ca2+  Ca34  1  0.90833184  0.74321483  0.41526844  1
  Ca2+  Ca35  1  0.92574537  0.74060335  0.74703129  1
  Ca2+  Ca36  1  0.09706652  0.07941816  0.25686694  1
  Ca2+  Ca37  1  0.55225231  0.11059013  0.10166916  1
  Ca2+  Ca38  1  0.26199352  0.59630250  0.09037937  1
  Ca2+  Ca39  1  0.92661440  0.07575132  0.05015744  1
  Ca2+  Ca40  1  0.58040274  0.10100201  0.74452734  1
  Ca2+  Ca41  1  0.08815961  0.08176228  0.26146237  1
  Ca2+  Ca42  1  0.73720336  0.58963783  0.91582523  1
  Ca2+  Ca43  1  0.56536669  0.60523579  0.74833132  1
  Ca2+  Ca44  1  0.57285222  0.57875839  0.08005540  1
  Ca2+  Ca45  1  0.75684155  0.08719276  0.91388600  1
  Ca2+  Ca46  1  0.27066097  0.10614106  0.08639342  1
  Ca2+  Ca47  1  0.56745275  0.58079228  0.07165912  1
  Ca2+  Ca48  1  0.42652772  0.10500417  0.57849496  1
  Ca2+  Ca49  1  0.08710825  0.58309492  0.60353775  1
  Ca2+  Ca50  1  0.90329202  0.60217986  0.42567629  1
  Ca2+  Ca51  1  0.10691589  0.08775212  0.58190393  1
  Ca2+  Ca52  1  0.25048713  0.59551730  0.71310957  1
  Ca2+  Ca53  1  0.28113540  0.10491910  0.09331184  1
  Ca2+  Ca54  1  0.74545098  0.60636479  0.55938172  1
  Ca2+  Ca55  1  0.90595054  0.08716794  0.40057667  1
  Ca2+  Ca56  1  0.44879144  0.07675926  0.27931567  1
  Ca2+  Ca57  1  0.25901416  0.59826769  0.71854030  1
  Ca2+  Ca58  1  0.71350696  0.10862230  0.57649679  1
  Ca2+  Ca59  1  0.42151773  0.10211090  0.91048905  1
  Ca2+  Ca60  1  0.26554032  0.07798584  0.39803546  1
  Ca2+  Ca61  1  0.72893062  0.58954949  0.29228171  1
  Ca2+  Ca62  1  0.25155825  0.60680227  0.45133793  1
  Ca2+  Ca63  1  0.06675192  0.58497253  0.91108389  1
  Ca2+  Ca64  1  0.40039854  0.60777591  0.58314390  1
  Ca2+  Ca65  1  0.09511044  0.09094910  0.58364477  1
  Ca2+  Ca66  1  0.54895299  0.11570300  0.09484327  1
  Ca2+  Ca67  1  0.43613514  0.10753036  0.58114451  1
  Ca2+  Ca68  1  0.07896637  0.58235355  0.91244394  1
  Ca2+  Ca69  1  0.90753161  0.08552830  0.76742599  1
  Ca2+  Ca70  1  0.69150432  0.08402478  0.26946789  1
  Ca2+  Ca71  1  0.27518018  0.08005985  0.40102861  1
  Ca2+  Ca72  1  0.10179407  0.40736964  0.24220321  1
  Ca2+  Ca73  1  0.08977095  0.89753229  0.58123480  1
  Ca2+  Ca74  1  0.07114518  0.90896427  0.92696312  1
  Ca2+  Ca75  1  0.41019690  0.89977748  0.57293340  1
  Ca2+  Ca76  1  0.91557320  0.90123312  0.41808955  1
  Ca2+  Ca77  1  0.59217672  0.41578502  0.40333155  1
  Ca2+  Ca78  1  0.92823963  0.41359844  0.07603528  1
  Ca2+  Ca79  1  0.94358822  0.42816200  0.73093399  1
  Ca2+  Ca80  1  0.23245174  0.41806483  0.73581076  1
  Ca2+  Ca81  1  0.58617307  0.40008289  0.75644406  1
  Ca2+  Ca82  1  0.59027438  0.89736028  0.75444669  1
  Ca2+  Ca83  1  0.93537675  0.42270118  0.73188705  1
  Ca2+  Ca84  1  0.24830661  0.90085096  0.74682186  1
  Ca2+  Ca85  1  0.73539722  0.90809655  0.25538199  1
  Ca2+  Ca86  1  0.73136601  0.41248481  0.25288553  1
  Ca2+  Ca87  1  0.92488023  0.90829379  0.07505861  1
  Ca2+  Ca88  1  0.91563045  0.41325673  0.07632611  1
  Ca2+  Ca89  1  0.08268036  0.41132359  0.92220856  1
  Ca2+  Ca90  1  0.74733443  0.90777378  0.25524410  1
  Ca2+  Ca91  1  0.09297615  0.41883054  0.59370721  1
  Ca2+  Ca92  1  0.40005041  0.41071574  0.57724552  1
  Ca2+  Ca93  1  0.55665255  0.91915970  0.39091247  1
  Ca2+  Ca94  1  0.58360591  0.41374443  0.39795349  1
  Ca2+  Ca95  1  0.42460624  0.89085369  0.91835751  1
  Ca2+  Ca96  1  0.41260681  0.40990662  0.57894860  1
  Ca2+  Ca97  1  0.90406660  0.90151138  0.75950408  1
  Ca2+  Ca98  1  0.44359566  0.40877233  0.93698747  1
  Ca2+  Ca99  1  0.28502262  0.92683893  0.37666036  1
  Ca2+  Ca100  1  0.08394650  0.42109396  0.58941578  1
  Ca2+  Ca101  1  0.72600238  0.41723293  0.92516822  1
  Ca2+  Ca102  1  0.42702964  0.41354067  0.25080953  1
  Ca2+  Ca103  1  0.26105161  0.90103429  0.74683326  1
  Ca2+  Ca104  1  0.09605086  0.90334472  0.24813091  1
  Ca2+  Ca105  1  0.74893150  0.89198498  0.58099186  1
  Ca2+  Ca106  1  0.91645486  0.90247687  0.75784205  1
  Ca2+  Ca107  1  0.58143997  0.89239973  0.08546837  1
  Mn3.34+  Mn108  1  0.08893028  0.34152153  0.08693063  1
  Mn3.34+  Mn109  1  0.08416736  0.33632828  0.41465142  1
  Mn3.34+  Mn110  1  0.08590355  0.33433536  0.75566459  1
  Mn3.34+  Mn111  1  0.08951939  0.83189857  0.08631788  1
  Mn3.34+  Mn112  1  0.08429253  0.83055224  0.41793217  1
  Mn3.34+  Mn113  1  0.08421535  0.82852224  0.75340445  1
  Mn3.34+  Mn114  1  0.41752176  0.33821521  0.09024799  1
  Mn3.34+  Mn115  1  0.41184917  0.33393415  0.41189589  1
  Mn3.34+  Mn116  1  0.41740183  0.33014789  0.75522791  1
  Mn3.34+  Mn117  1  0.41434406  0.82497617  0.08603065  1
  Mn3.34+  Mn118  1  0.41741467  0.83110517  0.41684107  1
  Mn3.34+  Mn119  1  0.42086296  0.82945933  0.74891004  1
  Mn3.34+  Mn120  1  0.74607716  0.33832532  0.08536379  1
  Mn3.34+  Mn121  1  0.75250600  0.33474166  0.41905052  1
  Mn3.34+  Mn122  1  0.75010272  0.33730643  0.74701809  1
  Mn3.34+  Mn123  1  0.74792589  0.82893269  0.08569131  1
  Mn3.34+  Mn124  1  0.74674543  0.83093050  0.42008597  1
  Mn3.34+  Mn125  1  0.74744211  0.82394807  0.75143963  1
  Mn3.34+  Mn126  1  0.25566614  0.33527911  0.24739395  1
  Mn3.34+  Mn127  1  0.24976431  0.33241807  0.58108978  1
  Mn3.34+  Mn128  1  0.25601935  0.33209489  0.91846640  1
  Mn3.34+  Mn129  1  0.25424095  0.83763840  0.24944721  1
  Mn3.34+  Mn130  1  0.25042480  0.82870597  0.57448112  1
  Mn3.34+  Mn131  1  0.25064658  0.82955650  0.91856139  1
  Mn3.34+  Mn132  1  0.58189492  0.33312321  0.24794995  1
  Mn3.34+  Mn133  1  0.58365847  0.33700129  0.57881014  1
  Mn3.34+  Mn134  1  0.58525920  0.33096906  0.91679496  1
  Mn3.34+  Mn135  1  0.57662548  0.83647780  0.24893720  1
  Mn3.34+  Mn136  1  0.58026060  0.82964954  0.57957388  1
  Mn3.34+  Mn137  1  0.58734564  0.83254552  0.91402634  1
  Mn3.34+  Mn138  1  0.91498362  0.33300667  0.25112413  1
  Mn3.34+  Mn139  1  0.91278177  0.34140656  0.57819305  1
  Mn3.34+  Mn140  1  0.91191314  0.33464932  0.91150853  1
  Mn3.34+  Mn141  1  0.91895107  0.83540789  0.25071398  1
  Mn3.34+  Mn142  1  0.91824475  0.82420929  0.58213177  1
  Mn3.34+  Mn143  1  0.91284937  0.83659979  0.91916852  1
  Mn3.34+  Mn144  1  0.08422292  0.16888686  0.41769241  1
  Mn3.34+  Mn145  1  0.25648307  0.17162841  0.91543188  1
  Mn3.34+  Mn146  1  0.09215946  0.16212619  0.75836992  1
  Mn3.34+  Mn147  1  0.74749545  0.16768257  0.41361734  1
  Mn3.34+  Mn148  1  0.91744023  0.65923293  0.58651691  1
  Mn3.34+  Mn149  1  0.07305445  0.66278829  0.08845543  1
  Mn3.34+  Mn150  1  0.08373864  0.66905792  0.42109532  1
  Mn3.34+  Mn151  1  0.74891407  0.66586052  0.08956797  1
  Mn3.34+  Mn152  1  0.42046763  0.16876974  0.41381399  1
  Mn3.34+  Mn153  1  0.25283337  0.17617908  0.58078234  1
  Mn3.34+  Mn154  1  0.25064321  0.66623003  0.91395161  1
  Mn3.34+  Mn155  1  0.91557105  0.16675858  0.58379689  1
  Mn3.34+  Mn156  1  0.41431125  0.66604051  0.08781971  1
  Mn3.34+  Mn157  1  0.07679921  0.16850485  0.08282738  1
  Mn3.34+  Mn158  1  0.91797339  0.66760445  0.25772141  1
  Mn3.34+  Mn159  1  0.58258986  0.66100817  0.91074297  1
  Mn3.34+  Mn160  1  0.76256823  0.65965042  0.09044356  1
  Mn3.34+  Mn161  1  0.57187441  0.65055566  0.25222984  1
  Mn3.34+  Mn162  1  0.25249380  0.66010867  0.25772803  1
  Mn3.34+  Mn163  1  0.25243247  0.17198357  0.24842805  1
  Mn3.34+  Mn164  1  0.91284702  0.16684096  0.91361938  1
  Mn3.34+  Mn165  1  0.41751939  0.66638454  0.41643059  1
  Mn3.34+  Mn166  1  0.58178508  0.66626430  0.57982226  1
  Mn3.34+  Mn167  1  0.08237776  0.66842569  0.75402363  1
  Mn3.34+  Mn168  1  0.74544019  0.16935320  0.08550414  1
  Mn3.34+  Mn169  1  0.91485299  0.16641420  0.24902504  1
  Mn3.34+  Mn170  1  0.90993477  0.66633582  0.90984224  1
  Mn3.34+  Mn171  1  0.75074452  0.67248484  0.75124302  1
  Mn3.34+  Mn172  1  0.58406733  0.16891351  0.91127805  1
  Mn3.34+  Mn173  1  0.41420951  0.17071756  0.75335603  1
  Mn3.34+  Mn174  1  0.74795667  0.16741716  0.75156309  1
  Mn3.34+  Mn175  1  0.08383373  0.65844207  0.09018585  1
  Mn3.34+  Mn176  1  0.08644394  0.17388857  0.08118417  1
  Mn3.34+  Mn177  1  0.90452772  0.17188489  0.58460162  1
  Mn3.34+  Mn178  1  0.75550828  0.16423668  0.08753962  1
  Mn3.34+  Mn179  1  0.08136180  0.16711462  0.75686138  1
  Mn3.34+  Mn180  1  0.74484356  0.50180482  0.73676414  1
  Mn3.34+  Mn181  1  0.41287561  -0.01100090  0.09978976  1
  Mn3.34+  Mn182  1  0.24388969  0.00980920  0.91380658  1
  Mn3.34+  Mn183  1  0.25635370  0.00279293  0.91454961  1
  Mn3.34+  Mn184  1  0.91395698  0.50755195  0.24611127  1
  Mn3.34+  Mn185  1  0.74406899  -0.00119767  0.75503191  1
  Mn3.34+  Mn186  1  0.74633959  -0.00023451  0.41542427  1
  Mn3.34+  Mn187  1  0.91617714  0.00144984  0.58422194  1
  Mn3.34+  Mn188  1  0.58001845  0.50418404  0.58098346  1
  Mn3.34+  Mn189  1  0.74418931  0.50012228  0.07833919  1
  Mn3.34+  Mn190  1  0.25508997  0.49756111  0.91939065  1
  Mn3.34+  Mn191  1  0.25607928  -0.00225899  0.57988603  1
  Mn3.34+  Mn192  1  0.75514097  0.49516746  0.41398270  1
  Mn3.34+  Mn193  1  0.91045360  0.49886970  0.91562863  1
  Mn3.34+  Mn194  1  0.92758951  0.50219722  0.24600142  1
  Mn3.34+  Mn195  1  0.09786219  0.50288518  0.40864364  1
  Mn3.34+  Mn196  1  0.74885182  0.00158203  0.08023317  1
  Mn3.34+  Mn197  1  0.41530511  0.00010754  0.75130611  1
  Mn3.34+  Mn198  1  0.90032433  -0.00265473  0.58421760  1
  Mn3.34+  Mn199  1  0.91236342  0.00486643  0.24715907  1
  Mn3.34+  Mn200  1  0.09180517  -0.00244488  0.74933876  1
  Mn3.34+  Mn201  1  0.57932130  -0.00517387  0.57415309  1
  Mn3.34+  Mn202  1  0.75459913  0.50704795  0.73901700  1
  Mn3.34+  Mn203  1  0.57530865  0.00391769  0.91560732  1
  Mn3.34+  Mn204  1  0.42293377  -0.00606428  0.10174634  1
  Mn3.34+  Mn205  1  0.08749927  -0.00323695  0.08283649  1
  Mn3.34+  Mn206  1  0.26534009  0.50312130  0.91962943  1
  Mn3.34+  Mn207  1  0.41595248  0.49990168  0.08248893  1
  Mn3.34+  Mn208  1  0.41662380  0.50707664  0.40037352  1
  Mn3.34+  Mn209  1  0.08760988  0.50733712  0.40821902  1
  Mn3.34+  Mn210  1  0.58931996  0.00047205  0.57387397  1
  Mn3.34+  Mn211  1  0.41407592  0.50366667  0.76403949  1
  Mn3.34+  Mn212  1  0.73701127  -0.00208588  0.08039505  1
  Mn3.34+  Mn213  1  0.08412348  -0.00558203  0.41470906  1
  Mn3.34+  Mn214  1  0.42944018  0.49878700  0.76439631  1
  Mn3.34+  Mn215  1  0.25646227  0.49777018  0.24771072  1
  O2-  O216  1  -0.00230607  0.16417710  -0.00165235  1
  O2-  O217  1  0.00502594  0.14419154  0.32894568  1
  O2-  O218  1  0.00417506  0.14209148  0.66571742  1
  O2-  O219  1  -0.00180811  0.66490998  -0.00399661  1
  O2-  O220  1  -0.00828293  0.65583014  0.34486124  1
  O2-  O221  1  0.00086903  0.66295888  0.66782678  1
  O2-  O222  1  0.33788884  0.16368842  -0.00457383  1
  O2-  O223  1  0.33666766  0.15049885  0.32530806  1
  O2-  O224  1  0.33877305  0.18042608  0.65980129  1
  O2-  O225  1  0.32698331  0.66594611  0.00439360  1
  O2-  O226  1  0.32989724  0.65547634  0.34040725  1
  O2-  O227  1  0.32380208  0.67129161  0.66265089  1
  O2-  O228  1  0.66541098  0.14272265  0.00495094  1
  O2-  O229  1  0.66775081  0.16504687  0.33859295  1
  O2-  O230  1  0.66556714  0.16260328  0.67709079  1
  O2-  O231  1  0.66643878  0.65440210  0.00371770  1
  O2-  O232  1  0.65642372  0.67324666  0.31912078  1
  O2-  O233  1  0.66446430  0.66561384  0.67282616  1
  O2-  O234  1  0.17529244  0.15150707  0.00731498  1
  O2-  O235  1  0.17310259  0.14787422  0.33586792  1
  O2-  O236  1  0.16811331  0.15819366  0.66326019  1
  O2-  O237  1  0.16153299  0.65507624  -0.00474166  1
  O2-  O238  1  0.16635136  0.65513379  0.33903643  1
  O2-  O239  1  0.16151995  0.66529999  0.67372250  1
  O2-  O240  1  0.49981404  0.15988232  -0.01231289  1
  O2-  O241  1  0.49795249  0.16039228  0.33857457  1
  O2-  O242  1  0.49441144  0.16628167  0.67183784  1
  O2-  O243  1  0.50919126  0.65844747  0.00304526  1
  O2-  O244  1  0.49789462  0.67629775  0.32846386  1
  O2-  O245  1  0.49922986  0.65635100  0.65677808  1
  O2-  O246  1  0.83078331  0.15174639  0.00221423  1
  O2-  O247  1  0.82853043  0.14605249  0.32199457  1
  O2-  O248  1  0.83166653  0.14410641  0.66934761  1
  O2-  O249  1  0.82729978  0.65751750  -0.00760826  1
  O2-  O250  1  0.83289409  0.65941911  0.32881146  1
  O2-  O251  1  0.83224969  0.68559825  0.66471544  1
  O2-  O252  1  -0.00130659  0.34290968  -0.00129574  1
  O2-  O253  1  0.00498424  0.34739059  0.32481367  1
  O2-  O254  1  0.00889537  0.34689560  0.66811913  1
  O2-  O255  1  -0.00058914  0.83534745  -0.00054526  1
  O2-  O256  1  0.00112978  0.85106024  0.33221440  1
  O2-  O257  1  -0.00365027  0.84782198  0.67125510  1
  O2-  O258  1  0.34171638  0.32961347  0.00018699  1
  O2-  O259  1  0.33616658  0.34801960  0.32817794  1
  O2-  O260  1  0.33028560  0.32440381  0.67009285  1
  O2-  O261  1  0.33796532  0.82846852  -0.00572667  1
  O2-  O262  1  0.33237802  0.83695079  0.33684324  1
  O2-  O263  1  0.33063558  0.83870378  0.66643227  1
  O2-  O264  1  0.66857330  0.34502587  -0.00272293  1
  O2-  O265  1  0.66675871  0.34284666  0.33452315  1
  O2-  O266  1  0.66359152  0.34462666  0.66589309  1
  O2-  O267  1  0.66288413  0.82536009  0.00320199  1
  O2-  O268  1  0.66483638  0.84542644  0.33414086  1
  O2-  O269  1  0.66696862  0.83746620  0.66657953  1
  O2-  O270  1  0.16103283  0.33792009  -0.00401730  1
  O2-  O271  1  0.16707324  0.34184793  0.32981187  1
  O2-  O272  1  0.16392530  0.34315210  0.66232230  1
  O2-  O273  1  0.16150645  0.82979427  -0.00790025  1
  O2-  O274  1  0.16653977  0.84109540  0.33848423  1
  O2-  O275  1  0.17082923  0.83860577  0.66608640  1
  O2-  O276  1  0.49869193  0.32784463  0.00097807  1
  O2-  O277  1  0.50025461  0.34751983  0.33787009  1
  O2-  O278  1  0.49041835  0.35230040  0.66188298  1
  O2-  O279  1  0.50591218  0.82775840  -0.00295307  1
  O2-  O280  1  0.50422479  0.83073119  0.33642249  1
  O2-  O281  1  0.50068782  0.85426275  0.66701953  1
  O2-  O282  1  0.83429742  0.35568312  -0.00304794  1
  O2-  O283  1  0.82754794  0.34718122  0.32581928  1
  O2-  O284  1  0.84665720  0.35394651  0.67968165  1
  O2-  O285  1  0.83890529  0.83260860  0.00615834  1
  O2-  O286  1  0.82902817  0.84962093  0.33349057  1
  O2-  O287  1  0.83651566  0.82557037  0.66992579  1
  O2-  O288  1  0.00175720  0.18909193  0.16739496  1
  O2-  O289  1  0.00805896  0.17729860  0.51173050  1
  O2-  O290  1  -0.00805705  0.18388279  0.82804633  1
  O2-  O291  1  0.00202287  0.68350654  0.17464824  1
  O2-  O292  1  -0.00194953  0.68281143  0.50742747  1
  O2-  O293  1  0.00069561  0.68204029  0.84070820  1
  O2-  O294  1  0.32138478  0.18237065  0.16114054  1
  O2-  O295  1  0.33127948  0.18101302  0.49826506  1
  O2-  O296  1  0.33798807  0.19031802  0.83667168  1
  O2-  O297  1  0.33210881  0.67782309  0.16565954  1
  O2-  O298  1  0.33821271  0.67871091  0.49664423  1
  O2-  O299  1  0.32072598  0.68781711  0.83674416  1
  O2-  O300  1  0.66221557  0.17177406  0.16466289  1
  O2-  O301  1  0.67771122  0.18295869  0.49800766  1
  O2-  O302  1  0.67061339  0.18029075  0.83603581  1
  O2-  O303  1  0.66298544  0.68209764  0.16288109  1
  O2-  O304  1  0.66547154  0.67817903  0.50632178  1
  O2-  O305  1  0.66960294  0.68786687  0.84218783  1
  O2-  O306  1  0.16293226  0.18627587  0.16868698  1
  O2-  O307  1  0.16455094  0.18402520  0.50698643  1
  O2-  O308  1  0.16784597  0.18414309  0.84038286  1
  O2-  O309  1  0.17137230  0.67332259  0.16352421  1
  O2-  O310  1  0.16624148  0.68278128  0.49455657  1
  O2-  O311  1  0.15929735  0.68717366  0.84183095  1
  O2-  O312  1  0.49650267  0.18995255  0.14771712  1
  O2-  O313  1  0.49021950  0.17735809  0.50116435  1
  O2-  O314  1  0.50381438  0.18592925  0.82954614  1
  O2-  O315  1  0.50393184  0.67580070  0.16219913  1
  O2-  O316  1  0.49828490  0.67523960  0.49963003  1
  O2-  O317  1  0.50879346  0.68336305  0.83905811  1
  O2-  O318  1  0.83553598  0.18788577  0.16399069  1
  O2-  O319  1  0.84177787  0.17615767  0.48690602  1
  O2-  O320  1  0.83100670  0.17892787  0.83424488  1
  O2-  O321  1  0.83669443  0.68475208  0.17109141  1
  O2-  O322  1  0.84191754  0.67965964  0.50966272  1
  O2-  O323  1  0.83114852  0.69507728  0.83339805  1
  O2-  O324  1  0.00195960  0.31562592  0.15984273  1
  O2-  O325  1  0.00061605  0.32406352  0.50163380  1
  O2-  O326  1  -0.00144440  0.31891602  0.83178354  1
  O2-  O327  1  -0.00251906  0.82790999  0.16580546  1
  O2-  O328  1  0.00074271  0.81578974  0.50416600  1
  O2-  O329  1  -0.00339270  0.81873056  0.83423929  1
  O2-  O330  1  0.33937993  0.31331404  0.16997138  1
  O2-  O331  1  0.33724526  0.32001326  0.50759938  1
  O2-  O332  1  0.33864148  0.31223680  0.83653925  1
  O2-  O333  1  0.33493644  0.82017451  0.16755474  1
  O2-  O334  1  0.33745357  0.81455449  0.50473748  1
  O2-  O335  1  0.33122745  0.82161193  0.82943991  1
  O2-  O336  1  0.67150384  0.32188990  0.17131400  1
  O2-  O337  1  0.65431727  0.32434289  0.48830658  1
  O2-  O338  1  0.66441634  0.32148262  0.82936969  1
  O2-  O339  1  0.66499219  0.81220125  0.17587086  1
  O2-  O340  1  0.66816069  0.81906924  0.50401722  1
  O2-  O341  1  0.66155579  0.81164483  0.82728906  1
  O2-  O342  1  0.16668146  0.31709968  0.16633764  1
  O2-  O343  1  0.16796688  0.31555526  0.50356393  1
  O2-  O344  1  0.17020083  0.32265259  0.83187066  1
  O2-  O345  1  0.16398550  0.81966602  0.17303268  1
  O2-  O346  1  0.16257958  0.81264570  0.50402515  1
  O2-  O347  1  0.17415476  0.81865893  0.82798450  1
  O2-  O348  1  0.49647520  0.32262299  0.17156427  1
  O2-  O349  1  0.49196498  0.33052924  0.50072298  1
  O2-  O350  1  0.50517267  0.31247599  0.82768418  1
  O2-  O351  1  0.50219721  0.81503026  0.16604052  1
  O2-  O352  1  0.49627146  0.82259286  0.50398656  1
  O2-  O353  1  0.49940593  0.82091404  0.83400064  1
  O2-  O354  1  0.84302329  0.32826963  0.15430126  1
  O2-  O355  1  0.82805809  0.31968792  0.50565671  1
  O2-  O356  1  0.82744468  0.32392152  0.83648809  1
  O2-  O357  1  0.82690416  0.82862115  0.17366105  1
  O2-  O358  1  0.83420193  0.81770002  0.50052210  1
  O2-  O359  1  0.83733794  0.81773147  0.83013246  1
  O2-  O360  1  0.08359985  0.08002571  0.11636532  1
  O2-  O361  1  0.08216793  0.07949371  0.45154691  1
  O2-  O362  1  0.07504501  0.08013250  0.77904034  1
  O2-  O363  1  0.08986299  0.57714638  0.08251251  1
  O2-  O364  1  0.08178911  0.58313303  0.46027776  1
  O2-  O365  1  0.10279682  0.58640925  0.77890160  1
  O2-  O366  1  0.40787328  0.07611110  0.13277308  1
  O2-  O367  1  0.40200209  0.08520860  0.45066083  1
  O2-  O368  1  0.42740939  0.08133847  0.77377837  1
  O2-  O369  1  0.42549585  0.58161829  0.10753396  1
  O2-  O370  1  0.40456143  0.57943493  0.44748609  1
  O2-  O371  1  0.40646756  0.58384447  0.76587972  1
  O2-  O372  1  0.76081709  0.07856300  0.13316435  1
  O2-  O373  1  0.75043996  0.08022305  0.44359739  1
  O2-  O374  1  0.74346040  0.08059765  0.78024034  1
  O2-  O375  1  0.74999114  0.57984423  0.12335295  1
  O2-  O376  1  0.76750993  0.57283332  0.43494255  1
  O2-  O377  1  0.74436614  0.58462341  0.78091013  1
  O2-  O378  1  0.22994215  0.08622161  0.21385418  1
  O2-  O379  1  0.24295111  0.08041586  0.54692287  1
  O2-  O380  1  0.26998959  0.08829874  0.88685001  1
  O2-  O381  1  0.25448061  0.57735273  0.22211119  1
  O2-  O382  1  0.24799324  0.57674314  0.58387359  1
  O2-  O383  1  0.24526524  0.57977398  0.87057293  1
  O2-  O384  1  0.57340090  0.05776828  0.20060423  1
  O2-  O385  1  0.57191573  0.08360479  0.56764463  1
  O2-  O386  1  0.57612638  0.08415718  0.88034481  1
  O2-  O387  1  0.60086219  0.57512027  0.20883788  1
  O2-  O388  1  0.60057107  0.58297327  0.56738489  1
  O2-  O389  1  0.59217402  0.58434670  0.88486694  1
  O2-  O390  1  0.93513336  0.08333072  0.20710526  1
  O2-  O391  1  0.92768727  0.07915883  0.54257261  1
  O2-  O392  1  0.90656730  0.08503414  0.89972044  1
  O2-  O393  1  0.91196178  0.58687378  0.22150610  1
  O2-  O394  1  0.91388577  0.58335714  0.56346177  1
  O2-  O395  1  0.93074993  0.57845385  0.88890202  1
  O2-  O396  1  0.05989637  0.42307536  0.11168018  1
  O2-  O397  1  0.09554937  0.42368947  0.45460844  1
  O2-  O398  1  0.08264472  0.41566608  0.78007830  1
  O2-  O399  1  0.08328628  0.91608598  0.10518969  1
  O2-  O400  1  0.07208757  0.91411691  0.44956454  1
  O2-  O401  1  0.09447606  0.91367367  0.77950896  1
  O2-  O402  1  0.41512469  0.42186705  0.11005027  1
  O2-  O403  1  0.41482448  0.42840038  0.44731169  1
  O2-  O404  1  0.42542048  0.41885795  0.78993319  1
  O2-  O405  1  0.43430463  0.90828227  0.08367648  1
  O2-  O406  1  0.41810677  0.91304004  0.43911919  1
  O2-  O407  1  0.39727288  0.91861838  0.78234193  1
  O2-  O408  1  0.76197118  0.42361514  0.11992556  1
  O2-  O409  1  0.73066983  0.41717842  0.44385352  1
  O2-  O410  1  0.73946207  0.42477427  0.78705800  1
  O2-  O411  1  0.73171614  0.91545239  0.11048855  1
  O2-  O412  1  0.75797565  0.92028030  0.44828904  1
  O2-  O413  1  0.76574806  0.91593121  0.76456764  1
  O2-  O414  1  0.24954532  0.41747643  0.21441494  1
  O2-  O415  1  0.26184533  0.41333648  0.57758825  1
  O2-  O416  1  0.26514671  0.41700505  0.88454697  1
  O2-  O417  1  0.23912302  0.91693157  0.24254339  1
  O2-  O418  1  0.25059470  0.91649025  0.56043687  1
  O2-  O419  1  0.24575818  0.92210526  0.88221064  1
  O2-  O420  1  0.58441268  0.41622161  0.24889753  1
  O2-  O421  1  0.56085312  0.42497428  0.54603793  1
  O2-  O422  1  0.57730318  0.41212055  0.89306347  1
  O2-  O423  1  0.60050160  0.91499549  0.21864688  1
  O2-  O424  1  0.59498988  0.91438982  0.54889242  1
  O2-  O425  1  0.56887570  0.92225469  0.88943695  1
  O2-  O426  1  0.92306725  0.42163084  0.21222411  1
  O2-  O427  1  0.94135039  0.41944449  0.57507981  1
  O2-  O428  1  0.92064814  0.42001480  0.87308113  1
  O2-  O429  1  0.90162120  0.92261966  0.21976324  1
  O2-  O430  1  0.90264057  0.91531607  0.55994278  1
  O2-  O431  1  0.93550448  0.92255598  0.88480230  1
  O2-  O432  1  -0.00424006  -0.00844339  0.02590933  1
  O2-  O433  1  0.01222050  0.00689602  0.31487296  1
  O2-  O434  1  -0.00645548  -0.00914147  0.67369195  1
  O2-  O435  1  -0.00670534  0.48802006  -0.01841220  1
  O2-  O436  1  -0.00817711  0.50252845  0.34327764  1
  O2-  O437  1  0.02003527  0.49138070  0.66077997  1
  O2-  O438  1  0.33188531  0.01145096  0.01074289  1
  O2-  O439  1  0.34205930  0.01256814  0.33739491  1
  O2-  O440  1  0.32360098  -0.00989660  0.67556475  1
  O2-  O441  1  0.31687439  0.51132593  0.02329524  1
  O2-  O442  1  0.34367722  0.49179584  0.32044706  1
  O2-  O443  1  0.32317819  0.49011238  0.69523044  1
  O2-  O444  1  0.66720171  0.01320559  -0.01040820  1
  O2-  O445  1  0.67756494  -0.01436490  0.32756272  1
  O2-  O446  1  0.66975014  -0.00041077  0.66143102  1
  O2-  O447  1  0.66848790  0.52113087  0.00055098  1
  O2-  O448  1  0.66684818  0.49573792  0.34819021  1
  O2-  O449  1  0.65381891  0.49160502  0.67026525  1
  O2-  O450  1  0.16638501  0.00460349  -0.00061422  1
  O2-  O451  1  0.17432869  0.02051507  0.34131433  1
  O2-  O452  1  0.14882267  0.00352852  0.63741290  1
  O2-  O453  1  0.14229096  0.50141217  -0.04923675  1
  O2-  O454  1  0.15846964  0.49152949  0.31183687  1
  O2-  O455  1  0.15977050  0.49282087  0.65657696  1
  O2-  O456  1  0.49802514  0.01542800  0.01067192  1
  O2-  O457  1  0.49695773  -0.00151278  0.34123111  1
  O2-  O458  1  0.49588895  -0.00082293  0.65963294  1
  O2-  O459  1  0.50452673  0.49956985  0.01760681  1
  O2-  O460  1  0.50551181  0.48929846  0.34598532  1
  O2-  O461  1  0.48978276  0.49990354  0.66321762  1
  O2-  O462  1  0.83740638  0.00322530  0.00998944  1
  O2-  O463  1  0.84447295  -0.00031404  0.34567590  1
  O2-  O464  1  0.84118712  0.00631148  0.68591396  1
  O2-  O465  1  0.83018712  0.48536952  -0.00197918  1
  O2-  O466  1  0.82260184  0.49406174  0.31627211  1
  O2-  O467  1  0.85734896  0.49821899  0.69291875  1
  O2-  O468  1  0.08706985  0.24881931  0.72543001  1
  O2-  O469  1  0.24600891  0.25065241  0.27786985  1
  O2-  O470  1  0.75019273  0.75338180  0.40255304  1
  O2-  O471  1  0.41100372  0.74840769  0.39713801  1
  O2-  O472  1  0.75398768  0.25279742  0.05492651  1
  O2-  O473  1  0.76088905  0.74607718  0.06435194  1
  O2-  O474  1  0.57292761  0.75049479  0.60324992  1
  O2-  O475  1  0.07467322  0.75077016  0.72636955  1
  O2-  O476  1  0.23660884  0.24977238  0.94276668  1
  O2-  O477  1  0.42076010  0.74579860  0.06406687  1
  O2-  O478  1  0.57976281  0.25904134  0.59974788  1
  O2-  O479  1  0.41017969  0.25160157  0.39308290  1
  O2-  O480  1  0.24901586  0.74614651  0.26674155  1
  O2-  O481  1  0.76245595  0.25201758  0.39549419  1
  O2-  O482  1  0.42306758  0.75336603  0.72702180  1
  O2-  O483  1  0.90864734  0.25278846  0.93928599  1
  O2-  O484  1  0.07391172  0.75003771  0.39110429  1
  O2-  O485  1  0.58327968  0.25461237  0.27005168  1
  O2-  O486  1  0.91485251  0.75322622  0.27312594  1
  O2-  O487  1  0.07320303  0.24962418  0.39438480  1
  O2-  O488  1  0.91617727  0.24889928  0.27763311  1
  O2-  O489  1  0.08134265  0.74563443  0.07038337  1
  O2-  O490  1  0.75774101  0.25066756  0.72377172  1
  O2-  O491  1  0.59832331  0.24703862  0.94606553  1
  O2-  O492  1  0.92167756  0.25436812  0.61494863  1
