# generated using pymatgen
data_Ca108Mn108O277
_symmetry_space_group_name_H-M   'P 1'
_cell_length_a   16.03517331
_cell_length_b   22.31704067
_cell_length_c   16.39428414
_cell_angle_alpha   89.99969884
_cell_angle_beta   89.99344239
_cell_angle_gamma   90.00520204
_symmetry_Int_Tables_number   1
_chemical_formula_structural   Ca108Mn108O277
_chemical_formula_sum   'Ca108 Mn108 O277'
_cell_volume   5866.81935496
_cell_formula_units_Z   1
loop_
 _symmetry_equiv_pos_site_id
 _symmetry_equiv_pos_as_xyz
  1  'x, y, z'
loop_
 _atom_type_symbol
 _atom_type_oxidation_number
  Ca2+  2.0
  Mn3.34+  3.34
  O2-  -2.0
loop_
 _atom_site_type_symbol
 _atom_site_label
 _atom_site_symmetry_multiplicity
 _atom_site_fract_x
 _atom_site_fract_y
 _atom_site_fract_z
 _atom_site_occupancy
  Ca2+  Ca0  1  0.07979177  0.25413008  0.27206149  1
  Ca2+  Ca1  1  0.09224006  0.23796098  0.57027800  1
  Ca2+  Ca2  1  0.09462789  0.24598278  0.90380926  1
  Ca2+  Ca3  1  0.09194921  0.72760648  0.26557407  1
  Ca2+  Ca4  1  0.08054091  0.74646600  0.55160225  1
  Ca2+  Ca5  1  0.09448423  0.76314567  0.92448133  1
  Ca2+  Ca6  1  0.42253155  0.24922847  0.26002045  1
  Ca2+  Ca7  1  0.40021928  0.25315437  0.57233426  1
  Ca2+  Ca8  1  0.40019154  0.24467067  0.90981887  1
  Ca2+  Ca9  1  0.41067959  0.74312460  0.26156748  1
  Ca2+  Ca10  1  0.42614300  0.74671687  0.54604469  1
  Ca2+  Ca11  1  0.41853960  0.76011154  0.92595781  1
  Ca2+  Ca12  1  0.75210226  0.27110098  0.25402675  1
  Ca2+  Ca13  1  0.75317524  0.26352598  0.58442335  1
  Ca2+  Ca14  1  0.74995043  0.25866156  0.90968576  1
  Ca2+  Ca15  1  0.74704591  0.72281655  0.25933827  1
  Ca2+  Ca16  1  0.75550907  0.73854694  0.55024686  1
  Ca2+  Ca17  1  0.73515280  0.75084839  0.92792547  1
  Ca2+  Ca18  1  0.24949193  0.24949853  0.07027288  1
  Ca2+  Ca19  1  0.25023849  0.24588933  0.42241648  1
  Ca2+  Ca20  1  0.24649007  0.23189944  0.75510306  1
  Ca2+  Ca21  1  0.26180911  0.75776291  0.10196209  1
  Ca2+  Ca22  1  0.25404001  0.75052196  0.40035447  1
  Ca2+  Ca23  1  0.24704889  0.75779083  0.77064177  1
  Ca2+  Ca24  1  0.57893771  0.24966200  0.07898815  1
  Ca2+  Ca25  1  0.56033819  0.24949216  0.41021510  1
  Ca2+  Ca26  1  0.58448821  0.25750319  0.76193964  1
  Ca2+  Ca27  1  0.57443013  0.75387011  0.08979093  1
  Ca2+  Ca28  1  0.57974677  0.74405393  0.39406767  1
  Ca2+  Ca29  1  0.58310224  0.75559448  0.76145880  1
  Ca2+  Ca30  1  0.92364582  0.26781877  0.08212393  1
  Ca2+  Ca31  1  0.93490142  0.25708076  0.41477607  1
  Ca2+  Ca32  1  0.92959875  0.25443004  0.75611115  1
  Ca2+  Ca33  1  0.90275174  0.73708839  0.09027546  1
  Ca2+  Ca34  1  0.92684286  0.74180566  0.40508502  1
  Ca2+  Ca35  1  0.91535967  0.75396484  0.74478735  1
  Ca2+  Ca36  1  0.41112842  0.61224442  0.25652162  1
  Ca2+  Ca37  1  0.71101574  0.07259717  0.92421229  1
  Ca2+  Ca38  1  0.39695108  0.09343574  0.90575486  1
  Ca2+  Ca39  1  0.61089566  0.60235073  0.39879727  1
  Ca2+  Ca40  1  0.41958733  0.07308865  0.30857442  1
  Ca2+  Ca41  1  0.25296146  0.07725934  0.07265381  1
  Ca2+  Ca42  1  0.24706825  0.61883782  0.11113052  1
  Ca2+  Ca43  1  0.07558027  0.59864213  0.92920170  1
  Ca2+  Ca44  1  0.87670669  0.56842020  0.71280648  1
  Ca2+  Ca45  1  0.73851696  0.08727511  0.25059986  1
  Ca2+  Ca46  1  0.23290460  0.60799753  0.40927389  1
  Ca2+  Ca47  1  0.90373326  0.59250968  0.40271165  1
  Ca2+  Ca48  1  0.41499994  0.59000921  0.57911468  1
  Ca2+  Ca49  1  0.24892134  0.58042228  0.73824307  1
  Ca2+  Ca50  1  0.40173218  0.09289033  0.56605459  1
  Ca2+  Ca51  1  0.97519166  0.11155286  0.42466187  1
  Ca2+  Ca52  1  0.61280575  0.62044955  0.10533023  1
  Ca2+  Ca53  1  0.41547674  0.06617264  0.30922443  1
  Ca2+  Ca54  1  0.24337651  0.60798014  0.40830103  1
  Ca2+  Ca55  1  0.56106420  0.08377681  0.06195810  1
  Ca2+  Ca56  1  0.91413159  0.08214910  0.07743945  1
  Ca2+  Ca57  1  0.06309276  0.59787957  0.92796764  1
  Ca2+  Ca58  1  0.89539253  0.59615580  0.40651275  1
  Ca2+  Ca59  1  0.26092918  0.57891059  0.73925860  1
  Ca2+  Ca60  1  0.56277459  0.07405839  0.75626055  1
  Ca2+  Ca61  1  0.60447220  0.60667005  0.39357354  1
  Ca2+  Ca62  1  0.93516059  0.09602389  0.73449286  1
  Ca2+  Ca63  1  0.26095891  0.08308679  0.07292735  1
  Ca2+  Ca64  1  0.61642413  0.57454511  0.75588742  1
  Ca2+  Ca65  1  0.41082990  0.09099578  0.56183654  1
  Ca2+  Ca66  1  0.92695046  0.08084866  0.07802051  1
  Ca2+  Ca67  1  0.88793486  0.56848473  0.70858054  1
  Ca2+  Ca68  1  0.75060069  0.60009497  0.94485072  1
  Ca2+  Ca69  1  0.22953075  0.09779703  0.42968816  1
  Ca2+  Ca70  1  0.07233374  0.59483470  0.57167382  1
  Ca2+  Ca71  1  0.11689404  0.09543436  0.90182380  1
  Ca2+  Ca72  1  0.07703093  0.40427121  0.91813679  1
  Ca2+  Ca73  1  0.27238018  0.92805098  0.38895280  1
  Ca2+  Ca74  1  0.55892337  0.92074004  0.40747593  1
  Ca2+  Ca75  1  0.41992601  0.91458541  0.58273102  1
  Ca2+  Ca76  1  0.07029590  0.41136333  0.57910602  1
  Ca2+  Ca77  1  0.58670435  0.40123508  0.07354389  1
  Ca2+  Ca78  1  0.75240917  0.89802681  0.24058329  1
  Ca2+  Ca79  1  0.74055315  0.89854844  0.23915214  1
  Ca2+  Ca80  1  0.59704570  0.40627847  0.07577223  1
  Ca2+  Ca81  1  0.26569452  0.40316478  0.73806449  1
  Ca2+  Ca82  1  0.06461861  0.40344403  0.91733710  1
  Ca2+  Ca83  1  0.25056253  0.39612633  0.08591430  1
  Ca2+  Ca84  1  0.26189028  0.92864102  0.38893920  1
  Ca2+  Ca85  1  0.27443826  0.40630927  0.74215795  1
  Ca2+  Ca86  1  0.58885365  0.90974252  0.76292032  1
  Ca2+  Ca87  1  0.92838617  0.89357041  0.07571555  1
  Ca2+  Ca88  1  0.92582309  0.89710555  0.42364168  1
  Ca2+  Ca89  1  0.42858241  0.91747334  0.91536841  1
  Ca2+  Ca90  1  0.58328811  0.91902842  0.05445442  1
  Ca2+  Ca91  1  0.40468616  0.91111349  0.24614464  1
  Ca2+  Ca92  1  0.40860387  0.91425808  0.58404586  1
  Ca2+  Ca93  1  0.24548601  0.91205731  0.75793155  1
  Ca2+  Ca94  1  0.07990950  0.40761609  0.57840121  1
  Ca2+  Ca95  1  0.91978954  0.89099274  0.07097840  1
  Ca2+  Ca96  1  0.74831392  0.42886998  0.61348707  1
  Ca2+  Ca97  1  0.91300434  0.42046610  0.39684882  1
  Ca2+  Ca98  1  0.92386309  0.42105491  0.39671988  1
  Ca2+  Ca99  1  0.42964111  0.40094989  0.91094583  1
  Ca2+  Ca100  1  0.75768788  0.89609023  0.59655654  1
  Ca2+  Ca101  1  0.25799155  0.91130306  0.75675971  1
  Ca2+  Ca102  1  0.73781819  0.42840253  0.61387222  1
  Ca2+  Ca103  1  0.08876006  0.89935348  0.58890424  1
  Ca2+  Ca104  1  0.74427301  0.41128801  0.90298272  1
  Ca2+  Ca105  1  0.74473898  0.89666065  0.59601133  1
  Ca2+  Ca106  1  0.90725390  0.41286901  0.74580626  1
  Ca2+  Ca107  1  0.41281588  0.39950450  0.25344305  1
  Mn3.34+  Mn108  1  0.08252752  0.33346278  0.09328226  1
  Mn3.34+  Mn109  1  0.09110799  0.33441141  0.41446972  1
  Mn3.34+  Mn110  1  0.08204173  0.33331110  0.75107655  1
  Mn3.34+  Mn111  1  0.09306235  0.84354922  0.09366056  1
  Mn3.34+  Mn112  1  0.08671661  0.83462156  0.41250316  1
  Mn3.34+  Mn113  1  0.07963094  0.83520582  0.75569228  1
  Mn3.34+  Mn114  1  0.41560156  0.32807496  0.08675108  1
  Mn3.34+  Mn115  1  0.41406479  0.32830738  0.41679403  1
  Mn3.34+  Mn116  1  0.43436091  0.34199989  0.73930682  1
  Mn3.34+  Mn117  1  0.41595839  0.83720574  0.08539066  1
  Mn3.34+  Mn118  1  0.41865661  0.83495973  0.41488983  1
  Mn3.34+  Mn119  1  0.41904257  0.83819113  0.75150562  1
  Mn3.34+  Mn120  1  0.75788449  0.34186360  0.08905446  1
  Mn3.34+  Mn121  1  0.74257598  0.33697756  0.41922733  1
  Mn3.34+  Mn122  1  0.74682157  0.33592304  0.74988392  1
  Mn3.34+  Mn123  1  0.74602919  0.82352915  0.08397186  1
  Mn3.34+  Mn124  1  0.74816553  0.83285818  0.41723219  1
  Mn3.34+  Mn125  1  0.75413933  0.82831374  0.76119230  1
  Mn3.34+  Mn126  1  0.24692987  0.33434616  0.25298005  1
  Mn3.34+  Mn127  1  0.25360056  0.33338177  0.57741872  1
  Mn3.34+  Mn128  1  0.25337441  0.32702214  0.91269414  1
  Mn3.34+  Mn129  1  0.24467942  0.83723497  0.24564109  1
  Mn3.34+  Mn130  1  0.25008008  0.83342597  0.57835577  1
  Mn3.34+  Mn131  1  0.25016845  0.83863464  0.92976892  1
  Mn3.34+  Mn132  1  0.58542143  0.32985278  0.25233831  1
  Mn3.34+  Mn133  1  0.57547590  0.33855853  0.57782552  1
  Mn3.34+  Mn134  1  0.58309029  0.33055200  0.91171232  1
  Mn3.34+  Mn135  1  0.57727608  0.83395548  0.24592335  1
  Mn3.34+  Mn136  1  0.58322267  0.83192811  0.58564108  1
  Mn3.34+  Mn137  1  0.58413540  0.83631104  0.91764171  1
  Mn3.34+  Mn138  1  0.91808148  0.34070746  0.24743951  1
  Mn3.34+  Mn139  1  0.91434581  0.33854580  0.57602283  1
  Mn3.34+  Mn140  1  0.91248435  0.33081853  0.91913275  1
  Mn3.34+  Mn141  1  0.92437091  0.82916551  0.24978903  1
  Mn3.34+  Mn142  1  0.91900631  0.82663788  0.58387210  1
  Mn3.34+  Mn143  1  0.91763088  0.82144718  0.91358835  1
  Mn3.34+  Mn144  1  0.24605874  0.16808083  0.58417991  1
  Mn3.34+  Mn145  1  0.42407615  0.66039250  0.75739019  1
  Mn3.34+  Mn146  1  0.58041484  0.16578180  0.24524287  1
  Mn3.34+  Mn147  1  0.91558760  0.17252410  0.25189700  1
  Mn3.34+  Mn148  1  0.58169546  0.66231588  0.58778441  1
  Mn3.34+  Mn149  1  0.57437533  0.16624324  0.91205452  1
  Mn3.34+  Mn150  1  0.07583677  0.67441543  0.08958823  1
  Mn3.34+  Mn151  1  0.74534923  0.17295134  0.08120988  1
  Mn3.34+  Mn152  1  0.91446602  0.65445151  0.24038273  1
  Mn3.34+  Mn153  1  0.42086645  0.67114374  0.08431221  1
  Mn3.34+  Mn154  1  0.59473091  0.65552734  0.58701707  1
  Mn3.34+  Mn155  1  0.75689336  0.16960755  0.41678019  1
  Mn3.34+  Mn156  1  0.25099091  0.66940683  0.58173099  1
  Mn3.34+  Mn157  1  0.24155262  0.16041646  0.24940509  1
  Mn3.34+  Mn158  1  0.07422278  0.16773049  0.08364793  1
  Mn3.34+  Mn159  1  0.74375940  0.16350635  0.41931613  1
  Mn3.34+  Mn160  1  0.75187225  0.66713491  0.75759538  1
  Mn3.34+  Mn161  1  0.58326649  0.66646488  0.92188404  1
  Mn3.34+  Mn162  1  0.08379219  0.16274205  0.08748561  1
  Mn3.34+  Mn163  1  0.41603831  0.15940706  0.75223286  1
  Mn3.34+  Mn164  1  0.41725492  0.16482266  0.09039579  1
  Mn3.34+  Mn165  1  0.58696400  0.16940773  0.58163927  1
  Mn3.34+  Mn166  1  0.57818047  0.17531271  0.58410879  1
  Mn3.34+  Mn167  1  0.08765481  0.16652187  0.74609882  1
  Mn3.34+  Mn168  1  0.25226423  0.67075364  0.92453393  1
  Mn3.34+  Mn169  1  0.75435997  0.16708006  0.08336689  1
  Mn3.34+  Mn170  1  0.90888231  0.67295312  0.91383132  1
  Mn3.34+  Mn171  1  0.41561290  0.66694268  0.75511622  1
  Mn3.34+  Mn172  1  0.91014745  0.66239345  0.57581594  1
  Mn3.34+  Mn173  1  0.75744781  0.16021980  0.75057277  1
  Mn3.34+  Mn174  1  0.07568126  0.67293807  0.75048776  1
  Mn3.34+  Mn175  1  0.25266183  0.16673295  0.25212731  1
  Mn3.34+  Mn176  1  0.08529712  0.66662422  0.75261263  1
  Mn3.34+  Mn177  1  0.74377659  0.16605114  0.74964169  1
  Mn3.34+  Mn178  1  0.92014762  0.16493769  0.90898062  1
  Mn3.34+  Mn179  1  0.91645345  0.17161854  0.58091310  1
  Mn3.34+  Mn180  1  0.90880560  0.50311356  0.92064794  1
  Mn3.34+  Mn181  1  0.41247389  0.48709485  0.41460348  1
  Mn3.34+  Mn182  1  0.92566893  -0.00718140  0.90784516  1
  Mn3.34+  Mn183  1  0.91198677  0.00706607  0.57989450  1
  Mn3.34+  Mn184  1  0.60139681  0.49153703  0.25002331  1
  Mn3.34+  Mn185  1  0.23902773  -0.00437495  0.93270715  1
  Mn3.34+  Mn186  1  0.74880111  0.00022886  0.08063095  1
  Mn3.34+  Mn187  1  0.93440792  0.00072903  0.25612025  1
  Mn3.34+  Mn188  1  0.42481724  0.49395417  0.41611920  1
  Mn3.34+  Mn189  1  0.41832163  -0.00181595  0.08360421  1
  Mn3.34+  Mn190  1  0.08851619  -0.00061958  0.42203535  1
  Mn3.34+  Mn191  1  0.74338032  0.00660283  0.41738212  1
  Mn3.34+  Mn192  1  0.08220697  0.50178180  0.74612353  1
  Mn3.34+  Mn193  1  0.59274259  0.00438466  0.58753601  1
  Mn3.34+  Mn194  1  0.57250309  0.50000824  0.59978125  1
  Mn3.34+  Mn195  1  0.75085676  -0.00231151  0.74924512  1
  Mn3.34+  Mn196  1  0.58185412  0.50240829  0.92399803  1
  Mn3.34+  Mn197  1  0.25723012  0.50222895  0.92496482  1
  Mn3.34+  Mn198  1  0.07667404  0.50508520  0.10200230  1
  Mn3.34+  Mn199  1  0.25317993  0.49960051  0.57967161  1
  Mn3.34+  Mn200  1  0.41333024  0.50074372  0.09651302  1
  Mn3.34+  Mn201  1  0.75806937  0.00128644  0.41696049  1
  Mn3.34+  Mn202  1  0.58851632  0.49805158  0.24852324  1
  Mn3.34+  Mn203  1  0.42627372  0.50740199  0.09256750  1
  Mn3.34+  Mn204  1  0.08469839  0.00011414  0.74690626  1
  Mn3.34+  Mn205  1  0.91473142  -0.00290731  0.90414763  1
  Mn3.34+  Mn206  1  0.26426174  0.49979670  0.91550817  1
  Mn3.34+  Mn207  1  0.75531815  0.49970882  0.07666406  1
  Mn3.34+  Mn208  1  0.09246418  0.50111840  0.39509652  1
  Mn3.34+  Mn209  1  0.23860913  0.00279238  0.58348680  1
  Mn3.34+  Mn210  1  0.74413665  0.49832172  0.42599750  1
  Mn3.34+  Mn211  1  0.94683647  -0.00141470  0.25851894  1
  Mn3.34+  Mn212  1  0.06463498  0.49894797  0.09976573  1
  Mn3.34+  Mn213  1  0.25089271  0.49442015  0.25596764  1
  Mn3.34+  Mn214  1  0.58578539  0.00021794  0.23553568  1
  Mn3.34+  Mn215  1  0.92487972  0.00027039  0.57771405  1
  O2-  O216  1  0.00154366  0.13793868  -0.00945691  1
  O2-  O217  1  0.00140183  0.16726748  0.31883366  1
  O2-  O218  1  -0.00671046  0.17546687  0.66863117  1
  O2-  O219  1  -0.00232773  0.67355653  -0.00453312  1
  O2-  O220  1  -0.01173010  0.65847682  0.33602645  1
  O2-  O221  1  -0.01012018  0.65437828  0.67058838  1
  O2-  O222  1  0.33163187  0.15515243  0.01533302  1
  O2-  O223  1  0.32827325  0.14756178  0.33391121  1
  O2-  O224  1  0.34720192  0.16074143  0.66046576  1
  O2-  O225  1  0.32836125  0.65682895  0.00347215  1
  O2-  O226  1  0.33012759  0.66223226  0.34011222  1
  O2-  O227  1  0.33625122  0.65431382  0.66669904  1
  O2-  O228  1  0.66122806  0.15223760  0.00433994  1
  O2-  O229  1  0.66822809  0.14964821  0.33311161  1
  O2-  O230  1  0.66923944  0.15369687  0.65983542  1
  O2-  O231  1  0.66519257  0.67140843  -0.00486775  1
  O2-  O232  1  0.66205823  0.67418282  0.33489177  1
  O2-  O233  1  0.66544346  0.66045356  0.67585980  1
  O2-  O234  1  0.16981146  0.14704739  0.01242236  1
  O2-  O235  1  0.16488285  0.15158348  0.32892910  1
  O2-  O236  1  0.16717260  0.16077034  0.66830330  1
  O2-  O237  1  0.15900694  0.65897417  -0.00111156  1
  O2-  O238  1  0.17216877  0.67058090  0.33844601  1
  O2-  O239  1  0.17116823  0.64735939  0.66993782  1
  O2-  O240  1  0.48891237  0.16360506  -0.00520210  1
  O2-  O241  1  0.49682555  0.15323479  0.31634563  1
  O2-  O242  1  0.50940780  0.16724897  0.67722816  1
  O2-  O243  1  0.50388527  0.65103437  0.00103090  1
  O2-  O244  1  0.50331130  0.64854405  0.34488458  1
  O2-  O245  1  0.50521438  0.63902842  0.66989812  1
  O2-  O246  1  0.83263045  0.14876407  -0.00370413  1
  O2-  O247  1  0.83548481  0.13981119  0.33325525  1
  O2-  O248  1  0.83590151  0.16510380  0.66807694  1
  O2-  O249  1  0.82891870  0.68528779  -0.01239649  1
  O2-  O250  1  0.83457657  0.65707931  0.32500675  1
  O2-  O251  1  0.83151594  0.67271825  0.66435147  1
  O2-  O252  1  -0.00126904  0.34693872  0.00476766  1
  O2-  O253  1  -0.00447611  0.33978430  0.34495586  1
  O2-  O254  1  -0.00388874  0.34945830  0.66925191  1
  O2-  O255  1  0.00029030  0.81786979  0.00162633  1
  O2-  O256  1  0.00187815  0.84929793  0.33166067  1
  O2-  O257  1  0.00430084  0.82974390  0.66174488  1
  O2-  O258  1  0.33784886  0.33599521  -0.00304574  1
  O2-  O259  1  0.33508932  0.34093556  0.32847925  1
  O2-  O260  1  0.34133509  0.34212384  0.66034053  1
  O2-  O261  1  0.34253755  0.84876844  -0.00434517  1
  O2-  O262  1  0.33403462  0.84363107  0.33918785  1
  O2-  O263  1  0.33506759  0.84677906  0.66307735  1
  O2-  O264  1  0.67222485  0.34308547  0.00043921  1
  O2-  O265  1  0.66620800  0.34507368  0.32737245  1
  O2-  O266  1  0.66779910  0.34322924  0.66042273  1
  O2-  O267  1  0.66088876  0.82820686  0.00732397  1
  O2-  O268  1  0.66158966  0.85699976  0.33962627  1
  O2-  O269  1  0.66439764  0.83379496  0.67345666  1
  O2-  O270  1  0.16502564  0.35155524  -0.00526086  1
  O2-  O271  1  0.16298997  0.34582130  0.32865646  1
  O2-  O272  1  0.16538328  0.35437764  0.67415630  1
  O2-  O273  1  0.17025508  0.82393025  0.01357764  1
  O2-  O274  1  0.17809784  0.84974837  0.34746460  1
  O2-  O275  1  0.17844498  0.84909715  0.67151523  1
  O2-  O276  1  0.50365273  0.33752275  0.00548422  1
  O2-  O277  1  0.49655873  0.33847429  0.32643302  1
  O2-  O278  1  0.50473768  0.29942302  0.66352041  1
  O2-  O279  1  0.49777629  0.84844208  -0.00418937  1
  O2-  O280  1  0.49534144  0.85491821  0.32757605  1
  O2-  O281  1  0.50117219  0.85888457  0.66808994  1
  O2-  O282  1  0.82546861  0.33078081  -0.00461828  1
  O2-  O283  1  0.83229301  0.34935158  0.33857007  1
  O2-  O284  1  0.82927438  0.34287930  0.65878702  1
  O2-  O285  1  0.83870072  0.82044151  0.00857990  1
  O2-  O286  1  0.83252826  0.85621157  0.33273494  1
  O2-  O287  1  0.82811477  0.81570090  0.66265474  1
  O2-  O288  1  -0.01389240  0.18578377  0.15297107  1
  O2-  O289  1  -0.01042270  0.19161885  0.50310532  1
  O2-  O290  1  -0.00069719  0.18130674  0.82884308  1
  O2-  O291  1  -0.00155009  0.68864179  0.16885520  1
  O2-  O292  1  -0.00324016  0.67489675  0.51044045  1
  O2-  O293  1  0.00295939  0.68792849  0.84070229  1
  O2-  O294  1  0.33288470  0.18828411  0.17179636  1
  O2-  O295  1  0.33147471  0.17204420  0.50846801  1
  O2-  O296  1  0.34169184  0.17692063  0.82734526  1
  O2-  O297  1  0.34118532  0.68293694  0.16406723  1
  O2-  O298  1  0.32464417  0.68715942  0.50464915  1
  O2-  O299  1  0.31929209  0.67640532  0.82494172  1
  O2-  O300  1  0.67033201  0.18603848  0.16760772  1
  O2-  O301  1  0.66188525  0.19439578  0.49992793  1
  O2-  O302  1  0.66873022  0.17428681  0.83525434  1
  O2-  O303  1  0.68173339  0.70195450  0.14105593  1
  O2-  O304  1  0.66109727  0.67602610  0.49896668  1
  O2-  O305  1  0.67088096  0.68845602  0.83312240  1
  O2-  O306  1  0.17062944  0.18758461  0.16453225  1
  O2-  O307  1  0.17555665  0.17689425  0.50111364  1
  O2-  O308  1  0.15895672  0.17472559  0.83054869  1
  O2-  O309  1  0.16337423  0.69289961  0.15105947  1
  O2-  O310  1  0.16777969  0.67391084  0.50896900  1
  O2-  O311  1  0.16048402  0.68142082  0.84437338  1
  O2-  O312  1  0.50477037  0.18710338  0.15840490  1
  O2-  O313  1  0.49188445  0.18215595  0.50988216  1
  O2-  O314  1  0.49804206  0.18842318  0.82850901  1
  O2-  O315  1  0.50017817  0.67870206  0.16027527  1
  O2-  O316  1  0.50139338  0.66540696  0.50767773  1
  O2-  O317  1  0.51129219  0.66986590  0.82790622  1
  O2-  O318  1  0.83275886  0.18876757  0.16386601  1
  O2-  O319  1  0.82782423  0.18782775  0.50360164  1
  O2-  O320  1  0.83412701  0.18704559  0.83373842  1
  O2-  O321  1  0.83390376  0.67589388  0.16842770  1
  O2-  O322  1  0.84542861  0.67684755  0.49027178  1
  O2-  O323  1  0.83883545  0.68815473  0.82492185  1
  O2-  O324  1  0.00592861  0.31416809  0.17621882  1
  O2-  O325  1  0.00761112  0.32201039  0.51129589  1
  O2-  O326  1  0.00550945  0.32169223  0.84013751  1
  O2-  O327  1  -0.00818266  0.82029061  0.15594149  1
  O2-  O328  1  -0.00271982  0.82438569  0.49776768  1
  O2-  O329  1  -0.00049851  0.80827487  0.83272179  1
  O2-  O330  1  0.33479785  0.31348371  0.16555065  1
  O2-  O331  1  0.32392602  0.31791864  0.49283100  1
  O2-  O332  1  0.32609353  0.31445931  0.82209458  1
  O2-  O333  1  0.34184694  0.82636076  0.17213537  1
  O2-  O334  1  0.33722119  0.81916289  0.50336447  1
  O2-  O335  1  0.33374086  0.82396071  0.82650255  1
  O2-  O336  1  0.66352955  0.31638546  0.15622012  1
  O2-  O337  1  0.66433961  0.31558218  0.50201041  1
  O2-  O338  1  0.67066643  0.32392618  0.83543564  1
  O2-  O339  1  0.67625312  0.82123126  0.17864942  1
  O2-  O340  1  0.67542452  0.82153682  0.51115971  1
  O2-  O341  1  0.66492336  0.82080115  0.83424932  1
  O2-  O342  1  0.17688261  0.31781196  0.15676717  1
  O2-  O343  1  0.15636665  0.33236617  0.51475926  1
  O2-  O344  1  0.16368642  0.33269669  0.83619167  1
  O2-  O345  1  0.16023040  0.81793831  0.17453304  1
  O2-  O346  1  0.16399538  0.81751594  0.50642090  1
  O2-  O347  1  0.17130195  0.83050610  0.83571927  1
  O2-  O348  1  0.50304549  0.31613978  0.16131821  1
  O2-  O349  1  0.49688445  0.31209775  0.50140378  1
  O2-  O350  1  0.49263685  0.31817030  0.83699662  1
  O2-  O351  1  0.50650428  0.82980967  0.15756932  1
  O2-  O352  1  0.50053722  0.84067543  0.50304148  1
  O2-  O353  1  0.50010831  0.82946159  0.83040023  1
  O2-  O354  1  0.83838322  0.32077593  0.16475029  1
  O2-  O355  1  0.83925468  0.31227220  0.49734441  1
  O2-  O356  1  0.83593288  0.32290538  0.82766316  1
  O2-  O357  1  0.83318952  0.82564992  0.16683652  1
  O2-  O358  1  0.83432239  0.82094519  0.50114205  1
  O2-  O359  1  0.83187965  0.80401642  0.83842454  1
  O2-  O360  1  0.06149923  0.08380234  0.12168783  1
  O2-  O361  1  0.08931049  0.06794316  0.47281626  1
  O2-  O362  1  0.07000823  0.08200094  0.77086818  1
  O2-  O363  1  0.07550610  0.58639651  0.09896613  1
  O2-  O364  1  0.11005188  0.56977476  0.45158256  1
  O2-  O365  1  0.09503435  0.58141626  0.79544605  1
  O2-  O366  1  0.41018812  0.07546320  0.12872374  1
  O2-  O367  1  0.40442548  0.06516712  0.44109629  1
  O2-  O368  1  0.42667434  0.08026861  0.77013399  1
  O2-  O369  1  0.40809050  0.58633160  0.11509368  1
  O2-  O370  1  0.39859625  0.56901017  0.44935316  1
  O2-  O371  1  0.39202542  0.58131507  0.78088191  1
  O2-  O372  1  0.77795503  0.08043194  0.12010874  1
  O2-  O373  1  0.74704957  0.08455636  0.45986515  1
  O2-  O374  1  0.75275324  0.07826151  0.78804185  1
  O2-  O375  1  0.74406389  0.57574746  0.08889788  1
  O2-  O376  1  0.74145794  0.57650857  0.44603934  1
  O2-  O377  1  0.76307222  0.58080379  0.78468077  1
  O2-  O378  1  0.25500479  0.08227466  0.20899654  1
  O2-  O379  1  0.26006508  0.08305047  0.56727114  1
  O2-  O380  1  0.25518966  0.06588544  0.88676039  1
  O2-  O381  1  0.26121380  0.56866283  0.22350810  1
  O2-  O382  1  0.27094021  0.58004030  0.55585506  1
  O2-  O383  1  0.23039706  0.58138558  0.88241674  1
  O2-  O384  1  0.59158872  0.08233497  0.20721621  1
  O2-  O385  1  0.55747844  0.08361944  0.56406706  1
  O2-  O386  1  0.57171737  0.08499395  0.89201336  1
  O2-  O387  1  0.58714774  0.57716825  0.22654578  1
  O2-  O388  1  0.57810578  0.57066444  0.53690244  1
  O2-  O389  1  0.60955365  0.58126636  0.89456473  1
  O2-  O390  1  0.91757833  0.08038068  0.21405070  1
  O2-  O391  1  0.92096018  0.08605495  0.55281581  1
  O2-  O392  1  0.91879995  0.07812195  0.86874420  1
  O2-  O393  1  0.92289012  0.57920022  0.24132926  1
  O2-  O394  1  0.91294033  0.58114114  0.56466873  1
  O2-  O395  1  0.93576178  0.58239663  0.87455383  1
  O2-  O396  1  0.08801902  0.41842931  0.11253790  1
  O2-  O397  1  0.07003571  0.42338085  0.44138047  1
  O2-  O398  1  0.08003314  0.42005365  0.78429390  1
  O2-  O399  1  0.05192071  0.91955152  0.09874897  1
  O2-  O400  1  0.08198422  0.92048907  0.45374971  1
  O2-  O401  1  0.09058980  0.91949213  0.77699799  1
  O2-  O402  1  0.42376253  0.41875687  0.11560678  1
  O2-  O403  1  0.42353278  0.41127980  0.44645445  1
  O2-  O404  1  0.40028011  0.41832712  0.78215743  1
  O2-  O405  1  0.42849358  0.92045414  0.11018262  1
  O2-  O406  1  0.40158170  0.92211520  0.44807327  1
  O2-  O407  1  0.39875664  0.92074738  0.77056886  1
  O2-  O408  1  0.72911545  0.42545667  0.12256176  1
  O2-  O409  1  0.76500587  0.42258861  0.47078485  1
  O2-  O410  1  0.75291560  0.41619640  0.76427130  1
  O2-  O411  1  0.76568475  0.91788943  0.10387527  1
  O2-  O412  1  0.75973620  0.92276304  0.45991887  1
  O2-  O413  1  0.75166786  0.91534925  0.73978443  1
  O2-  O414  1  0.26520017  0.41785410  0.21598311  1
  O2-  O415  1  0.23020726  0.41892450  0.57991644  1
  O2-  O416  1  0.26331203  0.41731281  0.88565093  1
  O2-  O417  1  0.25773311  0.91722894  0.24437334  1
  O2-  O418  1  0.24428343  0.92412135  0.53965992  1
  O2-  O419  1  0.26624485  0.92280462  0.89060049  1
  O2-  O420  1  0.57294030  0.41495365  0.20985795  1
  O2-  O421  1  0.60330249  0.42858034  0.55939103  1
  O2-  O422  1  0.58167644  0.41733788  0.90373268  1
  O2-  O423  1  0.60934136  0.92166717  0.20341783  1
  O2-  O424  1  0.61765325  0.92628615  0.55291388  1
  O2-  O425  1  0.58189974  0.91783125  0.90047213  1
  O2-  O426  1  0.92548293  0.41998251  0.25170756  1
  O2-  O427  1  0.93317660  0.42325791  0.54105969  1
  O2-  O428  1  0.92848534  0.41988449  0.88699936  1
  O2-  O429  1  0.90760037  0.92160442  0.21079792  1
  O2-  O430  1  0.89703378  0.91860906  0.56339808  1
  O2-  O431  1  0.91592853  0.91021054  0.92838368  1
  O2-  O432  1  -0.02435712  0.00593058  0.01405493  1
  O2-  O433  1  -0.01732479  -0.00008268  0.37038761  1
  O2-  O434  1  0.00329351  -0.00139371  0.66283444  1
  O2-  O435  1  0.01427127  0.50327228  -0.01501321  1
  O2-  O436  1  -0.01794554  0.51276328  0.38000115  1
  O2-  O437  1  -0.01220941  0.50231325  0.68088995  1
  O2-  O438  1  0.33207697  0.01109108  0.00378815  1
  O2-  O439  1  0.33864143  -0.00628941  0.31877059  1
  O2-  O440  1  0.34383083  -0.00394373  0.62495495  1
  O2-  O441  1  0.32549159  0.49528040  0.01991697  1
  O2-  O442  1  0.35345203  0.49493833  0.31537984  1
  O2-  O443  1  0.30568206  0.49623078  0.69071383  1
  O2-  O444  1  0.65171937  0.01356768  0.02671024  1
  O2-  O445  1  0.67004511  -0.00492990  0.32704904  1
  O2-  O446  1  0.64194396  0.00088516  0.70061699  1
  O2-  O447  1  0.64829795  0.48933488  0.02167084  1
  O2-  O448  1  0.66091325  0.50395831  0.34802591  1
  O2-  O449  1  0.66624735  0.50987862  0.65845260  1
  O2-  O450  1  0.16367585  0.02211042  0.00477746  1
  O2-  O451  1  0.18463801  0.00919430  0.36936532  1
  O2-  O452  1  0.18640378  -0.01454257  0.68720711  1
  O2-  O453  1  0.16819945  0.50139170  0.01082803  1
  O2-  O454  1  0.20021562  0.50933105  0.35674598  1
  O2-  O455  1  0.15578956  0.52008365  0.64893098  1
  O2-  O456  1  0.49324984  0.00042983  0.00652415  1
  O2-  O457  1  0.49968846  -0.01365622  0.30851859  1
  O2-  O458  1  0.49233263  -0.00924786  0.63029443  1
  O2-  O459  1  0.48757128  0.48809541  -0.00298803  1
  O2-  O460  1  0.50422509  0.49109577  0.33114476  1
  O2-  O461  1  0.49710004  0.52194049  0.66598960  1
  O2-  O462  1  0.82151606  0.01804687  -0.02091006  1
  O2-  O463  1  0.82498103  0.00329810  0.31549125  1
  O2-  O464  1  0.82623988  0.00513190  0.65862976  1
  O2-  O465  1  0.80092495  0.49842086  -0.03283730  1
  O2-  O466  1  0.83715152  0.50213307  0.36837993  1
  O2-  O467  1  0.83485116  0.48454871  0.67236570  1
  O2-  O468  1  0.90483072  0.25244401  0.27784574  1
  O2-  O469  1  0.25684362  0.75837454  0.26442445  1
  O2-  O470  1  0.08637814  0.24710591  0.04821100  1
  O2-  O471  1  0.59751668  0.24867927  0.93674229  1
  O2-  O472  1  0.08908209  0.25349070  0.73071977  1
  O2-  O473  1  0.25770322  0.75281967  0.92952651  1
  O2-  O474  1  0.92467530  0.24475269  0.94420084  1
  O2-  O475  1  0.24152485  0.24741931  0.28134857  1
  O2-  O476  1  0.56566257  0.74616760  0.60981060  1
  O2-  O477  1  0.74997582  0.24835166  0.38570234  1
  O2-  O478  1  0.43429688  0.75718981  0.40224582  1
  O2-  O479  1  0.41809467  0.75431615  0.06006766  1
  O2-  O480  1  0.41118336  0.25046577  0.39684496  1
  O2-  O481  1  0.91148422  0.75229150  0.27069477  1
  O2-  O482  1  0.56873154  0.75753861  0.26295578  1
  O2-  O483  1  0.08006075  0.75642664  0.40070192  1
  O2-  O484  1  0.24759244  0.25257303  0.60872891  1
  O2-  O485  1  0.58537158  0.24770378  0.27547774  1
  O2-  O486  1  0.09482817  0.25556510  0.40738845  1
  O2-  O487  1  0.74818684  0.75710667  0.39673496  1
  O2-  O488  1  0.24140516  0.25005144  0.93266728  1
  O2-  O489  1  0.42890212  0.74782931  0.72719105  1
  O2-  O490  1  0.10664696  0.75287166  0.72194903  1
  O2-  O491  1  0.74102834  0.25004448  0.72935336  1
  O2-  O492  1  0.56404012  0.75029943  0.92935659  1
