# generated using pymatgen
data_Ca108Mn108O277
_symmetry_space_group_name_H-M   'P 1'
_cell_length_a   16.03081398
_cell_length_b   22.31198251
_cell_length_c   16.39198060
_cell_angle_alpha   90.00165156
_cell_angle_beta   89.99879077
_cell_angle_gamma   89.99929988
_symmetry_Int_Tables_number   1
_chemical_formula_structural   Ca108Mn108O277
_chemical_formula_sum   'Ca108 Mn108 O277'
_cell_volume   5863.07117826
_cell_formula_units_Z   1
loop_
 _symmetry_equiv_pos_site_id
 _symmetry_equiv_pos_as_xyz
  1  'x, y, z'
loop_
 _atom_type_symbol
 _atom_type_oxidation_number
  Ca2+  2.0
  Mn3.34+  3.34
  O2-  -2.0
loop_
 _atom_site_type_symbol
 _atom_site_label
 _atom_site_symmetry_multiplicity
 _atom_site_fract_x
 _atom_site_fract_y
 _atom_site_fract_z
 _atom_site_occupancy
  Ca2+  Ca0  1  0.09579342  0.24420970  0.24818382  1
  Ca2+  Ca1  1  0.08997498  0.25608882  0.60370307  1
  Ca2+  Ca2  1  0.08354131  0.25235891  0.90720490  1
  Ca2+  Ca3  1  0.08993784  0.75441420  0.25080032  1
  Ca2+  Ca4  1  0.07662365  0.75167393  0.59076772  1
  Ca2+  Ca5  1  0.09493062  0.73973546  0.91537041  1
  Ca2+  Ca6  1  0.41339693  0.25944953  0.25664455  1
  Ca2+  Ca7  1  0.43487547  0.24385851  0.58811817  1
  Ca2+  Ca8  1  0.40679746  0.25011650  0.90182156  1
  Ca2+  Ca9  1  0.42863159  0.72845011  0.26679951  1
  Ca2+  Ca10  1  0.44169506  0.74811688  0.56266942  1
  Ca2+  Ca11  1  0.38684418  0.74847218  0.92156006  1
  Ca2+  Ca12  1  0.74850749  0.25141967  0.23969416  1
  Ca2+  Ca13  1  0.72407176  0.24378161  0.58807056  1
  Ca2+  Ca14  1  0.76163911  0.24275306  0.92488024  1
  Ca2+  Ca15  1  0.73461592  0.75347156  0.24709130  1
  Ca2+  Ca16  1  0.74009274  0.74825131  0.59509483  1
  Ca2+  Ca17  1  0.75969728  0.75878455  0.90582942  1
  Ca2+  Ca18  1  0.24077788  0.26209553  0.07331594  1
  Ca2+  Ca19  1  0.26221636  0.26097953  0.41359262  1
  Ca2+  Ca20  1  0.25013399  0.25483770  0.76017895  1
  Ca2+  Ca21  1  0.23728646  0.74909691  0.07570750  1
  Ca2+  Ca22  1  0.26796347  0.74972009  0.41123398  1
  Ca2+  Ca23  1  0.23295606  0.75483228  0.77019533  1
  Ca2+  Ca24  1  0.61189639  0.24590149  0.07389745  1
  Ca2+  Ca25  1  0.57789980  0.25756366  0.43233181  1
  Ca2+  Ca26  1  0.57453413  0.24381471  0.73471709  1
  Ca2+  Ca27  1  0.57769254  0.75552366  0.10018696  1
  Ca2+  Ca28  1  0.56588206  0.74663289  0.41648650  1
  Ca2+  Ca29  1  0.59382259  0.75239439  0.74020425  1
  Ca2+  Ca30  1  0.89814874  0.23699507  0.07354993  1
  Ca2+  Ca31  1  0.90272793  0.24327096  0.41206446  1
  Ca2+  Ca32  1  0.92951493  0.24802664  0.76252060  1
  Ca2+  Ca33  1  0.92804509  0.75995456  0.07821985  1
  Ca2+  Ca34  1  0.93049560  0.75482289  0.42042088  1
  Ca2+  Ca35  1  0.92026128  0.75452589  0.74966162  1
  Ca2+  Ca36  1  0.92262364  0.59809593  0.74683406  1
  Ca2+  Ca37  1  0.06994240  0.60335630  0.59462252  1
  Ca2+  Ca38  1  0.91595275  0.61143597  0.09231075  1
  Ca2+  Ca39  1  0.44034728  0.08295496  0.61463480  1
  Ca2+  Ca40  1  0.22173679  0.59900020  0.76283706  1
  Ca2+  Ca41  1  0.40192336  0.08687052  0.25825231  1
  Ca2+  Ca42  1  0.08546343  0.61122533  0.24479850  1
  Ca2+  Ca43  1  0.59655507  0.58650272  0.73911701  1
  Ca2+  Ca44  1  0.42612630  0.60338549  0.57293880  1
  Ca2+  Ca45  1  0.94793472  0.61995749  0.42123095  1
  Ca2+  Ca46  1  0.75582208  0.59701985  0.60277108  1
  Ca2+  Ca47  1  0.76290217  0.59220384  0.91077176  1
  Ca2+  Ca48  1  0.23193397  0.09335620  0.39651500  1
  Ca2+  Ca49  1  0.07027383  0.07226314  0.61544964  1
  Ca2+  Ca50  1  0.41398296  0.09029002  0.89360432  1
  Ca2+  Ca51  1  0.55460199  0.60818965  0.39855209  1
  Ca2+  Ca52  1  0.55566775  0.60292111  0.40575992  1
  Ca2+  Ca53  1  0.90604420  0.07699973  0.06343861  1
  Ca2+  Ca54  1  0.07659617  0.61398576  0.24898801  1
  Ca2+  Ca55  1  0.58624724  0.09240936  0.74786837  1
  Ca2+  Ca56  1  0.25274608  0.61641076  0.42199726  1
  Ca2+  Ca57  1  0.57622999  0.59065002  0.09882235  1
  Ca2+  Ca58  1  0.92285600  0.07996999  0.40297178  1
  Ca2+  Ca59  1  0.06115218  0.60796646  0.59709170  1
  Ca2+  Ca60  1  0.74254060  0.61436124  0.23568899  1
  Ca2+  Ca61  1  0.43739129  0.60394886  0.57188331  1
  Ca2+  Ca62  1  0.22095810  0.09031284  0.40080686  1
  Ca2+  Ca63  1  0.76656655  0.09810809  0.21188441  1
  Ca2+  Ca64  1  0.73533170  0.09404800  0.59600181  1
  Ca2+  Ca65  1  0.73719729  0.07780279  0.95197409  1
  Ca2+  Ca66  1  0.58653635  0.10071713  0.44009455  1
  Ca2+  Ca67  1  0.59787623  0.10016247  0.43963425  1
  Ca2+  Ca68  1  0.24190115  0.59458952  0.06813807  1
  Ca2+  Ca69  1  0.92499239  0.60781557  0.08936161  1
  Ca2+  Ca70  1  0.74690304  0.08069117  0.95231369  1
  Ca2+  Ca71  1  0.94019128  0.61462004  0.42584710  1
  Ca2+  Ca72  1  0.59463327  0.91380227  0.75486562  1
  Ca2+  Ca73  1  0.05716593  0.91847052  0.90527059  1
  Ca2+  Ca74  1  0.22734365  0.91289454  0.74363850  1
  Ca2+  Ca75  1  0.89913032  0.92253722  0.06160711  1
  Ca2+  Ca76  1  0.77578421  0.91425119  0.59454363  1
  Ca2+  Ca77  1  0.76648911  0.91771435  0.91650793  1
  Ca2+  Ca78  1  0.42435478  0.41490343  0.92891627  1
  Ca2+  Ca79  1  0.41037150  0.91324815  0.60982523  1
  Ca2+  Ca80  1  0.57399473  0.41108742  0.07439193  1
  Ca2+  Ca81  1  0.92809306  0.40409629  0.75317842  1
  Ca2+  Ca82  1  0.92144254  0.40067594  0.08582243  1
  Ca2+  Ca83  1  0.42500845  0.39889278  0.58864618  1
  Ca2+  Ca84  1  0.10113745  0.39646798  0.24242682  1
  Ca2+  Ca85  1  0.92516092  0.90685140  0.41740434  1
  Ca2+  Ca86  1  0.08096665  0.41713222  0.61774662  1
  Ca2+  Ca87  1  0.40141438  0.91514464  0.60509166  1
  Ca2+  Ca88  1  0.58886121  0.90630476  0.41914004  1
  Ca2+  Ca89  1  0.58551052  0.40418808  0.74361538  1
  Ca2+  Ca90  1  0.74789920  0.40862530  0.90937099  1
  Ca2+  Ca91  1  0.61291278  0.93025308  0.05098827  1
  Ca2+  Ca92  1  0.42997720  0.91315116  0.90337346  1
  Ca2+  Ca93  1  0.90897190  0.39098355  0.42812370  1
  Ca2+  Ca94  1  0.73540005  0.40828833  0.90921376  1
  Ca2+  Ca95  1  0.05906733  0.91646783  0.60690620  1
  Ca2+  Ca96  1  0.41698123  0.90064364  0.24675856  1
  Ca2+  Ca97  1  0.73964015  0.39812396  0.25460208  1
  Ca2+  Ca98  1  0.43527513  0.41406887  0.92840637  1
  Ca2+  Ca99  1  0.40444102  0.90136418  0.24599852  1
  Ca2+  Ca100  1  0.07483406  0.89871139  0.25456912  1
  Ca2+  Ca101  1  0.60007711  0.90647918  0.41957775  1
  Ca2+  Ca102  1  0.41341068  0.40619408  0.23715165  1
  Ca2+  Ca103  1  0.92189290  0.39001840  0.42759890  1
  Ca2+  Ca104  1  0.08924848  0.39667592  0.24372419  1
  Ca2+  Ca105  1  0.24036711  0.90667986  0.08131346  1
  Ca2+  Ca106  1  0.76845650  0.90956516  0.24430521  1
  Ca2+  Ca107  1  0.41812529  0.91359234  0.90320340  1
  Mn3.34+  Mn108  1  0.08471208  0.33436319  0.07315014  1
  Mn3.34+  Mn109  1  0.08904789  0.32326210  0.42439707  1
  Mn3.34+  Mn110  1  0.08869406  0.33689532  0.75580936  1
  Mn3.34+  Mn111  1  0.08011488  0.83828733  0.08219966  1
  Mn3.34+  Mn112  1  0.09151928  0.83232815  0.42461682  1
  Mn3.34+  Mn113  1  0.07684925  0.83791512  0.75321844  1
  Mn3.34+  Mn114  1  0.41781336  0.33421293  0.08505949  1
  Mn3.34+  Mn115  1  0.41697402  0.33493612  0.41980990  1
  Mn3.34+  Mn116  1  0.41362565  0.33309803  0.75102514  1
  Mn3.34+  Mn117  1  0.41721579  0.83337702  0.08078708  1
  Mn3.34+  Mn118  1  0.41049881  0.83447249  0.42360025  1
  Mn3.34+  Mn119  1  0.41586863  0.83183599  0.75204136  1
  Mn3.34+  Mn120  1  0.75101113  0.33267691  0.08565913  1
  Mn3.34+  Mn121  1  0.74121370  0.32670589  0.41896955  1
  Mn3.34+  Mn122  1  0.75180162  0.32791087  0.74879953  1
  Mn3.34+  Mn123  1  0.75067113  0.83652060  0.08545762  1
  Mn3.34+  Mn124  1  0.75766217  0.83365838  0.41920801  1
  Mn3.34+  Mn125  1  0.75641439  0.83781797  0.75110497  1
  Mn3.34+  Mn126  1  0.25600874  0.33205764  0.24665849  1
  Mn3.34+  Mn127  1  0.25214845  0.33174971  0.58604165  1
  Mn3.34+  Mn128  1  0.24806555  0.33250567  0.91487109  1
  Mn3.34+  Mn129  1  0.24744289  0.83228002  0.24839838  1
  Mn3.34+  Mn130  1  0.24397199  0.83225917  0.57963160  1
  Mn3.34+  Mn131  1  0.24481111  0.84098202  0.91555599  1
  Mn3.34+  Mn132  1  0.57871144  0.33323651  0.25136006  1
  Mn3.34+  Mn133  1  0.58538538  0.33063774  0.58481558  1
  Mn3.34+  Mn134  1  0.58436954  0.32840325  0.91075424  1
  Mn3.34+  Mn135  1  0.58613172  0.83729104  0.24525148  1
  Mn3.34+  Mn136  1  0.58993539  0.83459713  0.58565542  1
  Mn3.34+  Mn137  1  0.58478169  0.83284227  0.91584447  1
  Mn3.34+  Mn138  1  0.91946605  0.32185358  0.24765212  1
  Mn3.34+  Mn139  1  0.91204996  0.32405938  0.58844448  1
  Mn3.34+  Mn140  1  0.91928922  0.33423593  0.91504534  1
  Mn3.34+  Mn141  1  0.91684073  0.82958190  0.24667761  1
  Mn3.34+  Mn142  1  0.91738840  0.83542429  0.58101979  1
  Mn3.34+  Mn143  1  0.91845821  0.83519689  0.91542667  1
  Mn3.34+  Mn144  1  0.25286322  0.15932029  0.58700677  1
  Mn3.34+  Mn145  1  0.24381661  0.16530785  0.58883641  1
  Mn3.34+  Mn146  1  0.07586123  0.17241663  0.42104904  1
  Mn3.34+  Mn147  1  0.75403845  0.66971785  0.74948410  1
  Mn3.34+  Mn148  1  0.57838941  0.16006773  0.24238670  1
  Mn3.34+  Mn149  1  0.75583300  0.67232395  0.42115143  1
  Mn3.34+  Mn150  1  0.41261793  0.17675039  0.07770251  1
  Mn3.34+  Mn151  1  0.08682028  0.67237704  0.07738607  1
  Mn3.34+  Mn152  1  0.92491322  0.16425065  0.25009087  1
  Mn3.34+  Mn153  1  0.59152616  0.66624713  0.91843686  1
  Mn3.34+  Mn154  1  0.40547687  0.66970320  0.75398747  1
  Mn3.34+  Mn155  1  0.75538193  0.16480592  0.41523979  1
  Mn3.34+  Mn156  1  0.24991361  0.67446787  0.58510820  1
  Mn3.34+  Mn157  1  0.24889245  0.16170672  0.90880643  1
  Mn3.34+  Mn158  1  0.75251759  0.67726528  0.07928314  1
  Mn3.34+  Mn159  1  0.57958661  0.65907250  0.91531698  1
  Mn3.34+  Mn160  1  0.41653282  0.16869838  0.41917235  1
  Mn3.34+  Mn161  1  0.07909642  0.67211967  0.75474912  1
  Mn3.34+  Mn162  1  0.41993862  0.66287640  0.08346728  1
  Mn3.34+  Mn163  1  0.59059141  0.16532883  0.24565219  1
  Mn3.34+  Mn164  1  0.75239035  0.16335968  0.75962155  1
  Mn3.34+  Mn165  1  0.25137586  0.16962506  0.24458651  1
  Mn3.34+  Mn166  1  0.74719411  0.66618976  0.42304582  1
  Mn3.34+  Mn167  1  0.91335886  0.15898586  0.91090495  1
  Mn3.34+  Mn168  1  0.07915300  0.16315672  0.07981173  1
  Mn3.34+  Mn169  1  0.41821269  0.66252448  0.75734226  1
  Mn3.34+  Mn170  1  0.91217186  0.15554984  0.58657886  1
  Mn3.34+  Mn171  1  0.08353759  0.15754711  0.76325605  1
  Mn3.34+  Mn172  1  0.42588041  0.17025594  0.07841355  1
  Mn3.34+  Mn173  1  0.40982967  0.65574138  0.08491677  1
  Mn3.34+  Mn174  1  0.41872607  0.16366992  0.75054847  1
  Mn3.34+  Mn175  1  0.25318796  0.66753745  0.25127200  1
  Mn3.34+  Mn176  1  0.09214123  0.15615767  0.08014379  1
  Mn3.34+  Mn177  1  0.58598116  0.16542699  0.90876669  1
  Mn3.34+  Mn178  1  0.91990740  0.66755134  0.91089182  1
  Mn3.34+  Mn179  1  0.92094497  0.16184615  0.58531930  1
  Mn3.34+  Mn180  1  0.07564165  0.50115371  0.07220742  1
  Mn3.34+  Mn181  1  0.75946903  0.49665950  0.07735112  1
  Mn3.34+  Mn182  1  0.59785303  -0.00115649  0.25562537  1
  Mn3.34+  Mn183  1  0.91616352  0.49755172  0.58624548  1
  Mn3.34+  Mn184  1  0.76131181  0.00115252  0.41545864  1
  Mn3.34+  Mn185  1  0.90703063  0.49714997  0.24166560  1
  Mn3.34+  Mn186  1  0.74500848  0.50284534  0.08013366  1
  Mn3.34+  Mn187  1  0.59358351  -0.00405107  0.59562086  1
  Mn3.34+  Mn188  1  0.93429883  0.50066046  0.92693493  1
  Mn3.34+  Mn189  1  0.08094891  -0.00345320  0.42059079  1
  Mn3.34+  Mn190  1  0.24552112  -0.00004226  0.58738377  1
  Mn3.34+  Mn191  1  0.24520788  0.50047145  0.57435291  1
  Mn3.34+  Mn192  1  0.74729063  0.49272779  0.42543686  1
  Mn3.34+  Mn193  1  0.39945686  -0.00410399  0.41796161  1
  Mn3.34+  Mn194  1  0.58411539  0.49706427  0.25167134  1
  Mn3.34+  Mn195  1  0.92097035  -0.00018805  0.24932175  1
  Mn3.34+  Mn196  1  0.23237818  0.00109813  0.24304656  1
  Mn3.34+  Mn197  1  0.41482786  0.00093304  0.41734119  1
  Mn3.34+  Mn198  1  0.58368195  0.49576503  0.58603643  1
  Mn3.34+  Mn199  1  0.41555799  0.00588076  0.07486473  1
  Mn3.34+  Mn200  1  0.76516901  0.00483734  0.73983922  1
  Mn3.34+  Mn201  1  0.23644660  0.49312284  0.91968458  1
  Mn3.34+  Mn202  1  0.08167013  -0.00106187  0.07440009  1
  Mn3.34+  Mn203  1  0.23689285  0.00507648  0.91694223  1
  Mn3.34+  Mn204  1  0.75389214  0.50233920  0.74353094  1
  Mn3.34+  Mn205  1  0.41358847  0.48944723  0.40423416  1
  Mn3.34+  Mn206  1  0.24765666  0.49973714  0.91690798  1
  Mn3.34+  Mn207  1  0.91519549  0.50330290  0.25346414  1
  Mn3.34+  Mn208  1  0.08962072  0.49949152  0.41917514  1
  Mn3.34+  Mn209  1  0.25764456  0.49310104  0.57872217  1
  Mn3.34+  Mn210  1  0.42708443  0.01093736  0.07338063  1
  Mn3.34+  Mn211  1  0.10135832  0.49432259  0.41762183  1
  Mn3.34+  Mn212  1  0.73427439  0.49938754  0.42389197  1
  Mn3.34+  Mn213  1  0.40076156  0.49561211  0.40373632  1
  Mn3.34+  Mn214  1  0.41581720  0.50046290  0.74935274  1
  Mn3.34+  Mn215  1  0.25122537  0.50125023  0.23111076  1
  O2-  O216  1  -0.00694511  0.14982692  0.00539552  1
  O2-  O217  1  -0.00010258  0.19251182  0.33530011  1
  O2-  O218  1  0.00002624  0.16953613  0.66658103  1
  O2-  O219  1  0.00112288  0.65598755  -0.00152193  1
  O2-  O220  1  0.00658208  0.67105620  0.32960423  1
  O2-  O221  1  -0.00409500  0.67412502  0.66804635  1
  O2-  O222  1  0.34040335  0.15734355  -0.00629629  1
  O2-  O223  1  0.33024922  0.15242799  0.34159126  1
  O2-  O224  1  0.33724352  0.14575175  0.66313329  1
  O2-  O225  1  0.33299870  0.65766495  0.00363780  1
  O2-  O226  1  0.33046176  0.66016839  0.32780198  1
  O2-  O227  1  0.33159166  0.64762136  0.66803120  1
  O2-  O228  1  0.66549232  0.17019194  -0.01499267  1
  O2-  O229  1  0.67152769  0.13640808  0.33155733  1
  O2-  O230  1  0.67462675  0.16194768  0.67734819  1
  O2-  O231  1  0.66954895  0.64899455  0.00361229  1
  O2-  O232  1  0.66968070  0.64626577  0.34248817  1
  O2-  O233  1  0.67076841  0.65784574  0.67517266  1
  O2-  O234  1  0.16722542  0.15663167  -0.00488083  1
  O2-  O235  1  0.16085664  0.16797480  0.34062158  1
  O2-  O236  1  0.15898087  0.15148150  0.66143932  1
  O2-  O237  1  0.16973389  0.66510400  0.00840815  1
  O2-  O238  1  0.16858636  0.66207650  0.32916403  1
  O2-  O239  1  0.16329363  0.66697412  0.66456685  1
  O2-  O240  1  0.50248167  0.18829401  -0.00540901  1
  O2-  O241  1  0.50242993  0.14301017  0.32737455  1
  O2-  O242  1  0.49976690  0.16473334  0.67370053  1
  O2-  O243  1  0.50156083  0.64412434  0.00117308  1
  O2-  O244  1  0.50677421  0.67245761  0.33458440  1
  O2-  O245  1  0.49829497  0.64888539  0.67676617  1
  O2-  O246  1  0.83314326  0.16039615  -0.00680835  1
  O2-  O247  1  0.84633397  0.15234438  0.34147035  1
  O2-  O248  1  0.83245530  0.17284988  0.66702787  1
  O2-  O249  1  0.83599280  0.65600148  -0.00312764  1
  O2-  O250  1  0.83590461  0.65388289  0.34050187  1
  O2-  O251  1  0.83320105  0.66356725  0.67301014  1
  O2-  O252  1  -0.00595553  0.34584917  0.00201198  1
  O2-  O253  1  0.00109330  0.32772365  0.33712363  1
  O2-  O254  1  -0.00354598  0.33038900  0.66615395  1
  O2-  O255  1  -0.00788330  0.85026156  0.00976012  1
  O2-  O256  1  0.00050239  0.82482375  0.33664905  1
  O2-  O257  1  -0.00400935  0.83024784  0.66500402  1
  O2-  O258  1  0.34387621  0.33774181  -0.00506040  1
  O2-  O259  1  0.33548856  0.34592076  0.32901688  1
  O2-  O260  1  0.33429609  0.35105308  0.66760107  1
  O2-  O261  1  0.33629860  0.85732967  -0.00634135  1
  O2-  O262  1  0.33361839  0.84724182  0.33440348  1
  O2-  O263  1  0.32638823  0.84392687  0.67425501  1
  O2-  O264  1  0.66515060  0.34387546  0.00075781  1
  O2-  O265  1  0.66486465  0.34293183  0.33497781  1
  O2-  O266  1  0.66307806  0.32767664  0.67528972  1
  O2-  O267  1  0.66951769  0.83790228  0.00035178  1
  O2-  O268  1  0.67346995  0.86093918  0.32551608  1
  O2-  O269  1  0.67161194  0.85314795  0.66535029  1
  O2-  O270  1  0.17128751  0.33787859  -0.00104109  1
  O2-  O271  1  0.16202209  0.33505285  0.33160034  1
  O2-  O272  1  0.16189828  0.34115058  0.66206015  1
  O2-  O273  1  0.15993668  0.85397957  -0.00433761  1
  O2-  O274  1  0.16015223  0.83460005  0.32864762  1
  O2-  O275  1  0.16130920  0.83752429  0.66092620  1
  O2-  O276  1  0.50165381  0.32802688  -0.00248453  1
  O2-  O277  1  0.49168085  0.34743553  0.32753644  1
  O2-  O278  1  0.50046093  0.33847796  0.67159945  1
  O2-  O279  1  0.50095164  0.85245056  0.00232082  1
  O2-  O280  1  0.50136537  0.85879002  0.33765988  1
  O2-  O281  1  0.50046300  0.85229611  0.66519974  1
  O2-  O282  1  0.82757879  0.35373111  -0.00208414  1
  O2-  O283  1  0.83780169  0.33788138  0.33290657  1
  O2-  O284  1  0.83260242  0.30574043  0.66935960  1
  O2-  O285  1  0.82963978  0.83279044  0.00134100  1
  O2-  O286  1  0.83966494  0.84031253  0.33469112  1
  O2-  O287  1  0.83263689  0.82933096  0.65828900  1
  O2-  O288  1  0.00466061  0.18552860  0.16675542  1
  O2-  O289  1  -0.00296766  0.19321919  0.50514393  1
  O2-  O290  1  0.00354165  0.17734448  0.83841161  1
  O2-  O291  1  0.00257677  0.67684322  0.16254463  1
  O2-  O292  1  0.00469926  0.67875433  0.50337015  1
  O2-  O293  1  -0.00555055  0.68172869  0.82961813  1
  O2-  O294  1  0.34297374  0.18896097  0.16616368  1
  O2-  O295  1  0.32730692  0.17757228  0.50293426  1
  O2-  O296  1  0.33548237  0.17637618  0.83361583  1
  O2-  O297  1  0.32664829  0.67672271  0.16032247  1
  O2-  O298  1  0.33733282  0.68178957  0.51388805  1
  O2-  O299  1  0.32586234  0.68632248  0.82726491  1
  O2-  O300  1  0.67138672  0.17806175  0.16941944  1
  O2-  O301  1  0.66798683  0.17665504  0.48796350  1
  O2-  O302  1  0.66195801  0.19296844  0.83012701  1
  O2-  O303  1  0.67472050  0.68832818  0.15837766  1
  O2-  O304  1  0.67004971  0.67429977  0.50375069  1
  O2-  O305  1  0.66923235  0.68430101  0.83593475  1
  O2-  O306  1  0.17059272  0.18237148  0.15837943  1
  O2-  O307  1  0.16876957  0.18147363  0.49942483  1
  O2-  O308  1  0.17022664  0.17887624  0.83197770  1
  O2-  O309  1  0.15891756  0.68264005  0.16975621  1
  O2-  O310  1  0.17132944  0.67879664  0.50823872  1
  O2-  O311  1  0.16280704  0.67615738  0.82683253  1
  O2-  O312  1  0.50315310  0.19537970  0.15795430  1
  O2-  O313  1  0.50440607  0.17332810  0.48810773  1
  O2-  O314  1  0.49609278  0.18115988  0.83629947  1
  O2-  O315  1  0.50345354  0.67441924  0.15761382  1
  O2-  O316  1  0.50317393  0.66775177  0.50044197  1
  O2-  O317  1  0.49925520  0.68535687  0.83433952  1
  O2-  O318  1  0.84105909  0.18720935  0.18481821  1
  O2-  O319  1  0.83165086  0.18418733  0.50854496  1
  O2-  O320  1  0.83555370  0.18790848  0.83186515  1
  O2-  O321  1  0.83986680  0.68413912  0.15314258  1
  O2-  O322  1  0.84017162  0.68081882  0.49806283  1
  O2-  O323  1  0.83213965  0.68206941  0.83764019  1
  O2-  O324  1  0.00929872  0.32032774  0.17519704  1
  O2-  O325  1  -0.00505433  0.31258462  0.49697604  1
  O2-  O326  1  -0.00318919  0.32444456  0.83123464  1
  O2-  O327  1  0.00484203  0.81528075  0.17351514  1
  O2-  O328  1  0.00317685  0.81336775  0.50329228  1
  O2-  O329  1  0.00670801  0.82349546  0.84312223  1
  O2-  O330  1  0.33594302  0.31685339  0.16311248  1
  O2-  O331  1  0.33876593  0.31540276  0.50746750  1
  O2-  O332  1  0.33926512  0.32659233  0.83805639  1
  O2-  O333  1  0.33159938  0.82633269  0.16128946  1
  O2-  O334  1  0.34108004  0.81640431  0.51531030  1
  O2-  O335  1  0.33632568  0.82270951  0.83651456  1
  O2-  O336  1  0.66876102  0.32145863  0.16994767  1
  O2-  O337  1  0.66778490  0.31943674  0.50348218  1
  O2-  O338  1  0.67513137  0.31506209  0.84147576  1
  O2-  O339  1  0.66726045  0.82029595  0.16394486  1
  O2-  O340  1  0.66365888  0.82627985  0.49091853  1
  O2-  O341  1  0.66444966  0.82353249  0.83176619  1
  O2-  O342  1  0.16328345  0.32026647  0.16983919  1
  O2-  O343  1  0.16869752  0.30714527  0.50239893  1
  O2-  O344  1  0.16887079  0.32217584  0.83488122  1
  O2-  O345  1  0.16665941  0.82496660  0.16338545  1
  O2-  O346  1  0.17283104  0.80165396  0.49733339  1
  O2-  O347  1  0.16853328  0.83207186  0.83054302  1
  O2-  O348  1  0.49866788  0.31393758  0.16401959  1
  O2-  O349  1  0.49725732  0.32279142  0.50619725  1
  O2-  O350  1  0.50324327  0.31112621  0.83246195  1
  O2-  O351  1  0.48960497  0.82131420  0.17956044  1
  O2-  O352  1  0.50769184  0.82999002  0.49491191  1
  O2-  O353  1  0.49481027  0.82008160  0.83710171  1
  O2-  O354  1  0.83874854  0.32241151  0.16548868  1
  O2-  O355  1  0.83888230  0.31559647  0.49341455  1
  O2-  O356  1  0.83129873  0.32187794  0.83477978  1
  O2-  O357  1  0.82998819  0.81136210  0.16789241  1
  O2-  O358  1  0.83652055  0.80947830  0.50094755  1
  O2-  O359  1  0.83707288  0.82196537  0.83264366  1
  O2-  O360  1  0.07616269  0.07740869  0.11514101  1
  O2-  O361  1  0.08595378  0.08136595  0.44332329  1
  O2-  O362  1  0.07593408  0.08045945  0.75608809  1
  O2-  O363  1  0.07593761  0.58495975  0.11188231  1
  O2-  O364  1  0.09210963  0.57748354  0.46048375  1
  O2-  O365  1  0.07394091  0.59016801  0.74024264  1
  O2-  O366  1  0.41901236  0.08727274  0.12233375  1
  O2-  O367  1  0.41655131  0.08145035  0.44803049  1
  O2-  O368  1  0.44080593  0.08189548  0.76493047  1
  O2-  O369  1  0.41918466  0.57734419  0.11030047  1
  O2-  O370  1  0.40884434  0.57472944  0.44625550  1
  O2-  O371  1  0.40081805  0.58298942  0.78772753  1
  O2-  O372  1  0.76634746  0.07215580  0.08799852  1
  O2-  O373  1  0.74834352  0.08163520  0.45641448  1
  O2-  O374  1  0.74519902  0.07565616  0.79463598  1
  O2-  O375  1  0.76906064  0.58235126  0.10886078  1
  O2-  O376  1  0.75724049  0.57679284  0.46397296  1
  O2-  O377  1  0.75338326  0.58317510  0.77664225  1
  O2-  O378  1  0.25724526  0.08640683  0.24040863  1
  O2-  O379  1  0.23900303  0.07694355  0.53604460  1
  O2-  O380  1  0.26702982  0.07991358  0.88589793  1
  O2-  O381  1  0.22009824  0.58445453  0.21621124  1
  O2-  O382  1  0.26708274  0.57897037  0.55081240  1
  O2-  O383  1  0.23980052  0.57609420  0.89289395  1
  O2-  O384  1  0.57775105  0.07989946  0.21110777  1
  O2-  O385  1  0.59001867  0.07643813  0.56983466  1
  O2-  O386  1  0.59532750  0.08662313  0.89030056  1
  O2-  O387  1  0.61438510  0.57189192  0.22295199  1
  O2-  O388  1  0.56837192  0.56483573  0.52677430  1
  O2-  O389  1  0.60291988  0.58171726  0.88297438  1
  O2-  O390  1  0.91348590  0.07956665  0.21543911  1
  O2-  O391  1  0.93077734  0.07992464  0.53883892  1
  O2-  O392  1  0.88479064  0.08191557  0.90339084  1
  O2-  O393  1  0.91993309  0.58359770  0.22423299  1
  O2-  O394  1  0.92925246  0.57472375  0.54464069  1
  O2-  O395  1  0.91245912  0.58240750  0.88560148  1
  O2-  O396  1  0.06946091  0.42087406  0.11573880  1
  O2-  O397  1  0.06143895  0.41444710  0.43756074  1
  O2-  O398  1  0.06633865  0.41632431  0.75375285  1
  O2-  O399  1  0.08473487  0.92278209  0.12186851  1
  O2-  O400  1  0.07118739  0.91766754  0.45264024  1
  O2-  O401  1  0.08527085  0.91828248  0.76401901  1
  O2-  O402  1  0.42411813  0.41312110  0.10093216  1
  O2-  O403  1  0.41313360  0.41712664  0.45598348  1
  O2-  O404  1  0.43977733  0.41887803  0.78668779  1
  O2-  O405  1  0.41414449  0.92745164  0.11858203  1
  O2-  O406  1  0.41214923  0.91902575  0.46438383  1
  O2-  O407  1  0.41589061  0.91768995  0.76705634  1
  O2-  O408  1  0.75891840  0.41953063  0.12325943  1
  O2-  O409  1  0.76996870  0.41298359  0.44051630  1
  O2-  O410  1  0.74297779  0.42039828  0.77437105  1
  O2-  O411  1  0.75404957  0.91518602  0.10857713  1
  O2-  O412  1  0.76026746  0.91846561  0.45151921  1
  O2-  O413  1  0.75241176  0.92478699  0.77450185  1
  O2-  O414  1  0.23653493  0.41508910  0.21915276  1
  O2-  O415  1  0.23469690  0.41614289  0.55060018  1
  O2-  O416  1  0.25845942  0.41610055  0.89257207  1
  O2-  O417  1  0.26338777  0.91806887  0.22079154  1
  O2-  O418  1  0.26657484  0.92029777  0.56444163  1
  O2-  O419  1  0.26676042  0.92736747  0.87579730  1
  O2-  O420  1  0.57125626  0.41920478  0.21515319  1
  O2-  O421  1  0.57574198  0.41593331  0.58356469  1
  O2-  O422  1  0.59354944  0.41295797  0.88200387  1
  O2-  O423  1  0.57284928  0.92217616  0.20496676  1
  O2-  O424  1  0.59210594  0.92025402  0.55263864  1
  O2-  O425  1  0.56979554  0.91350465  0.88878325  1
  O2-  O426  1  0.93712504  0.41626010  0.24279846  1
  O2-  O427  1  0.92417958  0.41546037  0.55903041  1
  O2-  O428  1  0.89647996  0.42092433  0.88516249  1
  O2-  O429  1  0.92108419  0.91894944  0.21816559  1
  O2-  O430  1  0.91581290  0.91419841  0.55483148  1
  O2-  O431  1  0.91266919  0.91538559  0.90911198  1
  O2-  O432  1  -0.01240042  -0.00342177  0.02353288  1
  O2-  O433  1  -0.01831868  -0.00604032  0.35405158  1
  O2-  O434  1  -0.00597377  -0.00275155  0.65780513  1
  O2-  O435  1  -0.04757760  0.50763939  0.05702890  1
  O2-  O436  1  -0.00599273  0.52634462  0.34880788  1
  O2-  O437  1  0.00736375  0.50632788  0.63948921  1
  O2-  O438  1  0.33952132  -0.00326648  -0.01651219  1
  O2-  O439  1  0.34206897  -0.00047281  0.31594371  1
  O2-  O440  1  0.34870986  0.00625226  0.62914433  1
  O2-  O441  1  0.35012141  0.49729605  -0.03612474  1
  O2-  O442  1  0.33937853  0.49403676  0.30749844  1
  O2-  O443  1  0.33384023  0.49686892  0.66101592  1
  O2-  O444  1  0.68662648  -0.01159225  -0.02933272  1
  O2-  O445  1  0.64352743  -0.00033791  0.37659857  1
  O2-  O446  1  0.65188508  0.00450490  0.69655389  1
  O2-  O447  1  0.66255622  0.48020025  0.00716601  1
  O2-  O448  1  0.67419406  0.48483579  0.32765649  1
  O2-  O449  1  0.66793470  0.51581060  0.66323759  1
  O2-  O450  1  0.16144661  -0.02121110  -0.00397340  1
  O2-  O451  1  0.17854177  0.00554113  0.35361244  1
  O2-  O452  1  0.14987011  -0.00882849  0.63919008  1
  O2-  O453  1  0.18208672  0.50684288  0.01833879  1
  O2-  O454  1  0.14727144  0.49182962  0.30977690  1
  O2-  O455  1  0.16047012  0.51346183  0.64550742  1
  O2-  O456  1  0.50164653  -0.01084318  -0.01024279  1
  O2-  O457  1  0.49478344  -0.01292494  0.33078402  1
  O2-  O458  1  0.49768692  -0.01231157  0.64407738  1
  O2-  O459  1  0.50532161  0.47414921  -0.00199629  1
  O2-  O460  1  0.50906930  0.51641821  0.34107415  1
  O2-  O461  1  0.49712706  0.52026071  0.65946071  1
  O2-  O462  1  0.82637955  -0.00271032  -0.00503728  1
  O2-  O463  1  0.81527400  -0.00022998  0.30886268  1
  O2-  O464  1  0.80591001  0.00952543  0.63996959  1
  O2-  O465  1  0.80960949  0.50107419  -0.03062290  1
  O2-  O466  1  0.83706669  0.50262925  0.34650867  1
  O2-  O467  1  0.84690219  0.51573947  0.67484412  1
  O2-  O468  1  0.08571072  0.75462132  0.73935644  1
  O2-  O469  1  0.25318755  0.24766960  0.61865664  1
  O2-  O470  1  0.25460024  0.25039827  0.27358694  1
  O2-  O471  1  0.58688428  0.75686457  0.60325140  1
  O2-  O472  1  0.25290967  0.75076120  0.26720464  1
  O2-  O473  1  0.25377701  0.24915148  0.93219994  1
  O2-  O474  1  0.41844754  0.75802919  0.40172923  1
  O2-  O475  1  0.40226540  0.25059226  0.72806800  1
  O2-  O476  1  0.41930201  0.25151268  0.39309690  1
  O2-  O477  1  0.08500952  0.24556625  0.05500925  1
  O2-  O478  1  0.92188819  0.25230908  0.93716023  1
  O2-  O479  1  0.24465983  0.76203096  0.93747424  1
  O2-  O480  1  0.58877877  0.76179282  0.27792730  1
  O2-  O481  1  0.58424137  0.24394195  0.28394828  1
  O2-  O482  1  0.75437638  0.25546165  0.06416929  1
  O2-  O483  1  0.42340291  0.74463510  0.05705894  1
  O2-  O484  1  0.73403210  0.75318892  0.38614111  1
  O2-  O485  1  0.74951342  0.24571972  0.38304928  1
  O2-  O486  1  0.08972682  0.24862376  0.74139964  1
  O2-  O487  1  0.42658713  0.74865006  0.71635286  1
  O2-  O488  1  0.74346909  0.75322847  0.73358162  1
  O2-  O489  1  0.58012673  0.25107612  0.59265151  1
  O2-  O490  1  0.92003454  0.74896748  0.93916703  1
  O2-  O491  1  0.08289347  0.75465502  0.05593399  1
  O2-  O492  1  0.57756975  0.74575157  0.94768450  1
