# generated using pymatgen
data_Ca108Mn108O277
_symmetry_space_group_name_H-M   'P 1'
_cell_length_a   16.02921857
_cell_length_b   22.30828586
_cell_length_c   16.38965445
_cell_angle_alpha   90.00047514
_cell_angle_beta   90.00861127
_cell_angle_gamma   89.99925600
_symmetry_Int_Tables_number   1
_chemical_formula_structural   Ca108Mn108O277
_chemical_formula_sum   'Ca108 Mn108 O277'
_cell_volume   5860.68452368
_cell_formula_units_Z   1
loop_
 _symmetry_equiv_pos_site_id
 _symmetry_equiv_pos_as_xyz
  1  'x, y, z'
loop_
 _atom_type_symbol
 _atom_type_oxidation_number
  Ca2+  2.0
  Mn3.34+  3.34
  O2-  -2.0
loop_
 _atom_site_type_symbol
 _atom_site_label
 _atom_site_symmetry_multiplicity
 _atom_site_fract_x
 _atom_site_fract_y
 _atom_site_fract_z
 _atom_site_occupancy
  Ca2+  Ca0  1  0.10511526  0.24153076  0.25089611  1
  Ca2+  Ca1  1  0.05418252  0.24569661  0.58268717  1
  Ca2+  Ca2  1  0.07209912  0.25299244  0.92211789  1
  Ca2+  Ca3  1  0.07079750  0.75386729  0.24557977  1
  Ca2+  Ca4  1  0.08677759  0.74509350  0.59968442  1
  Ca2+  Ca5  1  0.08892538  0.73408015  0.89141166  1
  Ca2+  Ca6  1  0.40810793  0.25644462  0.24241393  1
  Ca2+  Ca7  1  0.42493984  0.24954546  0.60268737  1
  Ca2+  Ca8  1  0.42066323  0.25843649  0.91185982  1
  Ca2+  Ca9  1  0.40599754  0.76670846  0.25571239  1
  Ca2+  Ca10  1  0.43084999  0.74646313  0.58500901  1
  Ca2+  Ca11  1  0.41546433  0.75174192  0.90493407  1
  Ca2+  Ca12  1  0.74526738  0.24670643  0.24385823  1
  Ca2+  Ca13  1  0.76778567  0.24476595  0.58002287  1
  Ca2+  Ca14  1  0.76102823  0.24734914  0.92926835  1
  Ca2+  Ca15  1  0.77150994  0.75052935  0.25647155  1
  Ca2+  Ca16  1  0.73164313  0.75118492  0.57860640  1
  Ca2+  Ca17  1  0.73674549  0.75299820  0.92221591  1
  Ca2+  Ca18  1  0.25245368  0.25314154  0.10036494  1
  Ca2+  Ca19  1  0.24176084  0.24244572  0.39118318  1
  Ca2+  Ca20  1  0.26289625  0.25503418  0.76027343  1
  Ca2+  Ca21  1  0.25257455  0.75254434  0.08317133  1
  Ca2+  Ca22  1  0.26016859  0.75854220  0.41345062  1
  Ca2+  Ca23  1  0.24250788  0.73788120  0.75217892  1
  Ca2+  Ca24  1  0.59414042  0.26538817  0.08800420  1
  Ca2+  Ca25  1  0.61168187  0.24738671  0.41212605  1
  Ca2+  Ca26  1  0.57393884  0.25321115  0.75033207  1
  Ca2+  Ca27  1  0.58124912  0.75711017  0.07914192  1
  Ca2+  Ca28  1  0.57679992  0.74728789  0.43811436  1
  Ca2+  Ca29  1  0.56754931  0.74393606  0.74020143  1
  Ca2+  Ca30  1  0.90178265  0.24726501  0.07939387  1
  Ca2+  Ca31  1  0.90572815  0.23503397  0.42778807  1
  Ca2+  Ca32  1  0.91356328  0.24679381  0.73888631  1
  Ca2+  Ca33  1  0.91714231  0.74789846  0.10530228  1
  Ca2+  Ca34  1  0.91531959  0.75266761  0.40337757  1
  Ca2+  Ca35  1  0.93883413  0.74794893  0.74492714  1
  Ca2+  Ca36  1  0.96280853  0.58730119  0.75457202  1
  Ca2+  Ca37  1  0.08218256  0.10572281  0.91564399  1
  Ca2+  Ca38  1  0.40005087  0.09562008  0.25533142  1
  Ca2+  Ca39  1  0.76776786  0.10520970  0.56228326  1
  Ca2+  Ca40  1  0.59646285  0.09537599  0.42265502  1
  Ca2+  Ca41  1  0.24139359  0.08334236  0.39756030  1
  Ca2+  Ca42  1  0.26473360  0.10875164  0.75665534  1
  Ca2+  Ca43  1  0.10795470  0.57839079  0.61409430  1
  Ca2+  Ca44  1  0.90634221  0.10390761  0.07581461  1
  Ca2+  Ca45  1  0.60236934  0.10491243  0.10229506  1
  Ca2+  Ca46  1  0.41583117  0.58693710  0.90920103  1
  Ca2+  Ca47  1  0.59958765  0.56427035  0.06999159  1
  Ca2+  Ca48  1  0.94628131  0.58941354  0.07579609  1
  Ca2+  Ca49  1  0.07291762  0.60105372  0.24060195  1
  Ca2+  Ca50  1  0.97454037  0.58821762  0.75769022  1
  Ca2+  Ca51  1  0.21908727  0.57748805  0.06560655  1
  Ca2+  Ca52  1  0.43674205  0.60205825  0.58617362  1
  Ca2+  Ca53  1  0.75632281  0.58453454  0.27611031  1
  Ca2+  Ca54  1  0.71522332  0.59707161  0.56785643  1
  Ca2+  Ca55  1  0.59286231  0.10646179  0.09739616  1
  Ca2+  Ca56  1  0.20936547  0.57473829  0.06758968  1
  Ca2+  Ca57  1  0.22688067  0.58439431  0.74584985  1
  Ca2+  Ca58  1  0.04060646  0.09642932  0.57316580  1
  Ca2+  Ca59  1  0.42638987  0.09129098  0.59998426  1
  Ca2+  Ca60  1  0.57041283  0.10250938  0.73343454  1
  Ca2+  Ca61  1  0.90583405  0.09841632  0.73068131  1
  Ca2+  Ca62  1  0.23755970  0.10860169  0.10130333  1
  Ca2+  Ca63  1  0.40901672  0.09267509  0.25913666  1
  Ca2+  Ca64  1  0.40777603  0.58690781  0.26337503  1
  Ca2+  Ca65  1  0.73756487  0.08981001  0.29303236  1
  Ca2+  Ca66  1  0.25947487  0.59040605  0.41884217  1
  Ca2+  Ca67  1  0.40496582  0.11077964  0.89672595  1
  Ca2+  Ca68  1  0.89522899  0.59311453  0.41256593  1
  Ca2+  Ca69  1  0.57519874  0.58638919  0.72804355  1
  Ca2+  Ca70  1  0.93397039  0.58727482  0.07316670  1
  Ca2+  Ca71  1  0.23214274  0.08084880  0.40108126  1
  Ca2+  Ca72  1  0.09803440  0.42259154  0.61317180  1
  Ca2+  Ca73  1  0.73813330  0.40714431  0.24403199  1
  Ca2+  Ca74  1  0.25848709  0.39220327  0.41727473  1
  Ca2+  Ca75  1  0.75478724  0.40887821  0.58003718  1
  Ca2+  Ca76  1  0.75140968  0.90660376  0.57627564  1
  Ca2+  Ca77  1  0.59176394  0.90395641  0.74218257  1
  Ca2+  Ca78  1  0.92091834  0.90991566  0.73397420  1
  Ca2+  Ca79  1  0.90813191  0.90999002  0.73376829  1
  Ca2+  Ca80  1  0.58384271  0.40625105  0.75183371  1
  Ca2+  Ca81  1  0.74431492  0.41618958  0.93130386  1
  Ca2+  Ca82  1  0.92101636  0.89462303  0.08919253  1
  Ca2+  Ca83  1  0.92088358  0.40677563  0.08215737  1
  Ca2+  Ca84  1  0.41086491  0.91370251  0.57211104  1
  Ca2+  Ca85  1  0.42338049  0.91365656  0.57344549  1
  Ca2+  Ca86  1  0.24659694  0.41916174  0.74287671  1
  Ca2+  Ca87  1  0.75239545  0.89371220  0.91519678  1
  Ca2+  Ca88  1  0.07108717  0.90725299  0.57751373  1
  Ca2+  Ca89  1  0.91036846  0.40725024  0.08263963  1
  Ca2+  Ca90  1  0.57519434  0.89955560  0.09513492  1
  Ca2+  Ca91  1  0.89959157  0.40523001  0.41893940  1
  Ca2+  Ca92  1  0.07730959  0.42033366  0.92467907  1
  Ca2+  Ca93  1  0.08825249  0.42034055  0.92479524  1
  Ca2+  Ca94  1  0.42068902  0.90326185  0.92275107  1
  Ca2+  Ca95  1  0.42121214  0.40490051  0.92439846  1
  Ca2+  Ca96  1  0.24614348  0.90698388  0.74538566  1
  Ca2+  Ca97  1  0.24736293  0.39123997  0.41592100  1
  Ca2+  Ca98  1  0.60545389  0.41322046  0.40035431  1
  Ca2+  Ca99  1  0.08080710  0.89688010  0.92160635  1
  Ca2+  Ca100  1  0.25199210  0.90431714  0.08553040  1
  Ca2+  Ca101  1  0.25756643  0.90653888  0.74407857  1
  Ca2+  Ca102  1  0.58938892  0.91213579  0.40984505  1
  Ca2+  Ca103  1  0.40992539  0.40878108  0.59696805  1
  Ca2+  Ca104  1  0.08750358  0.42330314  0.61336522  1
  Ca2+  Ca105  1  0.74369929  0.40796454  0.58049100  1
  Ca2+  Ca106  1  0.09054872  0.91375907  0.26457561  1
  Ca2+  Ca107  1  0.24730603  0.91469916  0.41126557  1
  Mn3.34+  Mn108  1  0.08310983  0.33650523  0.08840003  1
  Mn3.34+  Mn109  1  0.07661221  0.32737639  0.41536941  1
  Mn3.34+  Mn110  1  0.08446465  0.33253025  0.75761328  1
  Mn3.34+  Mn111  1  0.08384883  0.83436269  0.08789312  1
  Mn3.34+  Mn112  1  0.08320430  0.83661626  0.41915187  1
  Mn3.34+  Mn113  1  0.08173620  0.83179708  0.75112285  1
  Mn3.34+  Mn114  1  0.41681576  0.33377722  0.08324863  1
  Mn3.34+  Mn115  1  0.42411437  0.32529514  0.42313374  1
  Mn3.34+  Mn116  1  0.41598083  0.33423762  0.75413022  1
  Mn3.34+  Mn117  1  0.41651813  0.83237092  0.08704080  1
  Mn3.34+  Mn118  1  0.41818751  0.83779292  0.41240762  1
  Mn3.34+  Mn119  1  0.41705085  0.83308017  0.75089132  1
  Mn3.34+  Mn120  1  0.74806678  0.33604286  0.08724221  1
  Mn3.34+  Mn121  1  0.75255219  0.33148737  0.41393211  1
  Mn3.34+  Mn122  1  0.75015067  0.33452095  0.75615132  1
  Mn3.34+  Mn123  1  0.74937096  0.82819286  0.08935539  1
  Mn3.34+  Mn124  1  0.74978031  0.84114447  0.41390802  1
  Mn3.34+  Mn125  1  0.75090607  0.82802779  0.75005041  1
  Mn3.34+  Mn126  1  0.25013108  0.33344414  0.24393162  1
  Mn3.34+  Mn127  1  0.24776009  0.33132311  0.58209087  1
  Mn3.34+  Mn128  1  0.24813185  0.33484959  0.91860318  1
  Mn3.34+  Mn129  1  0.24800590  0.83284507  0.25045824  1
  Mn3.34+  Mn130  1  0.24821598  0.83355936  0.57561174  1
  Mn3.34+  Mn131  1  0.25004681  0.82861421  0.91887377  1
  Mn3.34+  Mn132  1  0.57511886  0.33540786  0.24935163  1
  Mn3.34+  Mn133  1  0.58248013  0.33365326  0.57987316  1
  Mn3.34+  Mn134  1  0.58650827  0.33809415  0.92002987  1
  Mn3.34+  Mn135  1  0.58865949  0.83468546  0.25337927  1
  Mn3.34+  Mn136  1  0.58478679  0.83387067  0.58022606  1
  Mn3.34+  Mn137  1  0.58307679  0.82846777  0.91610340  1
  Mn3.34+  Mn138  1  0.91916276  0.33123762  0.25360700  1
  Mn3.34+  Mn139  1  0.91940148  0.33637472  0.58788248  1
  Mn3.34+  Mn140  1  0.91395543  0.33471231  0.90945311  1
  Mn3.34+  Mn141  1  0.91621404  0.83437838  0.25638851  1
  Mn3.34+  Mn142  1  0.91333236  0.82614559  0.57171180  1
  Mn3.34+  Mn143  1  0.91628301  0.82449966  0.91639500  1
  Mn3.34+  Mn144  1  0.24980062  0.66253658  0.91007518  1
  Mn3.34+  Mn145  1  0.74118589  0.65600162  0.08681708  1
  Mn3.34+  Mn146  1  0.58643281  0.66374966  0.25455402  1
  Mn3.34+  Mn147  1  0.58146005  0.66064470  0.91188651  1
  Mn3.34+  Mn148  1  0.41523517  0.16673392  0.08532298  1
  Mn3.34+  Mn149  1  0.59550791  0.16377275  0.91335703  1
  Mn3.34+  Mn150  1  0.08774399  0.66524733  0.42412319  1
  Mn3.34+  Mn151  1  0.58231139  0.17207970  0.25620308  1
  Mn3.34+  Mn152  1  0.08143774  0.17135094  0.08257578  1
  Mn3.34+  Mn153  1  0.41533237  0.66600129  0.75059137  1
  Mn3.34+  Mn154  1  0.25413651  0.66090656  0.57970166  1
  Mn3.34+  Mn155  1  0.41895718  0.16273244  0.42861638  1
  Mn3.34+  Mn156  1  0.08295912  0.17047328  0.75370092  1
  Mn3.34+  Mn157  1  0.91651362  0.66703146  0.91368903  1
  Mn3.34+  Mn158  1  0.58738070  0.16915231  0.57793620  1
  Mn3.34+  Mn159  1  0.24256424  0.17162539  0.57906101  1
  Mn3.34+  Mn160  1  0.74904581  0.66589486  0.42160474  1
  Mn3.34+  Mn161  1  0.25549710  0.17298023  0.57737753  1
  Mn3.34+  Mn162  1  0.42343624  0.65822929  0.08734887  1
  Mn3.34+  Mn163  1  0.41466251  0.67095658  0.42214474  1
  Mn3.34+  Mn164  1  0.91035611  0.66637102  0.57886191  1
  Mn3.34+  Mn165  1  0.08635958  0.67677469  0.07973497  1
  Mn3.34+  Mn166  1  0.92642238  0.15913987  0.25277114  1
  Mn3.34+  Mn167  1  0.75167088  0.66034965  0.08422212  1
  Mn3.34+  Mn168  1  0.74828337  0.67068663  0.75588010  1
  Mn3.34+  Mn169  1  0.91164191  0.16938143  0.91223194  1
  Mn3.34+  Mn170  1  0.08051071  0.16380817  0.41890749  1
  Mn3.34+  Mn171  1  0.24838856  0.66619305  0.25056629  1
  Mn3.34+  Mn172  1  0.07826717  0.67090187  0.42167816  1
  Mn3.34+  Mn173  1  0.91635629  0.16378317  0.25233689  1
  Mn3.34+  Mn174  1  0.75003163  0.16978924  0.74704026  1
  Mn3.34+  Mn175  1  0.58221532  0.16980318  0.91573423  1
  Mn3.34+  Mn176  1  0.24773652  0.17673700  0.92120227  1
  Mn3.34+  Mn177  1  0.57649227  0.66897853  0.25567959  1
  Mn3.34+  Mn178  1  0.41228281  0.66256531  0.08484335  1
  Mn3.34+  Mn179  1  0.76143157  0.66645118  0.75516810  1
  Mn3.34+  Mn180  1  0.25351923  0.00061614  0.92123884  1
  Mn3.34+  Mn181  1  0.91111751  -0.00599910  0.27598804  1
  Mn3.34+  Mn182  1  0.09507724  0.50597222  0.42371084  1
  Mn3.34+  Mn183  1  0.25506531  0.49932303  0.92013435  1
  Mn3.34+  Mn184  1  0.57802766  -0.00063259  0.26959160  1
  Mn3.34+  Mn185  1  0.08007309  0.00237633  0.08892501  1
  Mn3.34+  Mn186  1  0.59239827  0.00110142  0.58315687  1
  Mn3.34+  Mn187  1  0.74794945  0.00285828  0.75202876  1
  Mn3.34+  Mn188  1  0.91295348  0.50000948  0.25665055  1
  Mn3.34+  Mn189  1  0.58427302  0.00339679  0.91699309  1
  Mn3.34+  Mn190  1  0.07795265  0.00489457  0.74786262  1
  Mn3.34+  Mn191  1  0.42865809  0.50296506  0.41789650  1
  Mn3.34+  Mn192  1  0.58845670  0.49935019  0.24891838  1
  Mn3.34+  Mn193  1  0.59922198  -0.00147321  0.91606269  1
  Mn3.34+  Mn194  1  0.08143620  0.49931137  0.42268432  1
  Mn3.34+  Mn195  1  0.41811562  0.49851043  0.41507214  1
  Mn3.34+  Mn196  1  0.41093916  0.49980306  0.74221415  1
  Mn3.34+  Mn197  1  0.92166316  0.00147593  0.27557631  1
  Mn3.34+  Mn198  1  0.58719413  0.50277742  0.92050671  1
  Mn3.34+  Mn199  1  0.41759309  0.49548548  0.08329966  1
  Mn3.34+  Mn200  1  0.75941062  0.00039546  0.10270207  1
  Mn3.34+  Mn201  1  0.41991483  -0.00106922  0.74772536  1
  Mn3.34+  Mn202  1  0.92356999  0.49478294  0.25787559  1
  Mn3.34+  Mn203  1  0.91146710  0.50359377  0.58383009  1
  Mn3.34+  Mn204  1  0.90838150  -0.00166527  0.57991320  1
  Mn3.34+  Mn205  1  0.24285120  0.00601790  0.92271588  1
  Mn3.34+  Mn206  1  0.42076879  -0.00364028  0.08854073  1
  Mn3.34+  Mn207  1  0.25941586  -0.00803348  0.26131101  1
  Mn3.34+  Mn208  1  0.23693099  0.00280592  0.58797420  1
  Mn3.34+  Mn209  1  0.75313682  0.49799070  0.74751431  1
  Mn3.34+  Mn210  1  0.90823994  0.50298104  0.92736126  1
  Mn3.34+  Mn211  1  0.74674609  -0.00660272  0.10181310  1
  Mn3.34+  Mn212  1  0.90436324  0.00539620  0.91508508  1
  Mn3.34+  Mn213  1  0.57955265  0.49849132  0.58137383  1
  Mn3.34+  Mn214  1  0.91810717  -0.00089679  0.91635202  1
  Mn3.34+  Mn215  1  0.24802879  0.49571810  0.25014781  1
  O2-  O216  1  -0.00430442  0.15585879  -0.00284724  1
  O2-  O217  1  0.00643987  0.14972070  0.32890682  1
  O2-  O218  1  0.00451718  0.15669806  0.67643054  1
  O2-  O219  1  -0.00169345  0.68086354  -0.00104055  1
  O2-  O220  1  -0.00136892  0.64765511  0.34584567  1
  O2-  O221  1  -0.01115383  0.66004920  0.66204826  1
  O2-  O222  1  0.32945010  0.15669641  0.00726840  1
  O2-  O223  1  0.33188418  0.15210119  0.35048121  1
  O2-  O224  1  0.33257596  0.16651079  0.66002400  1
  O2-  O225  1  0.32560547  0.63948429  0.00734536  1
  O2-  O226  1  0.32864746  0.65102157  0.33459462  1
  O2-  O227  1  0.33341732  0.65943950  0.66387520  1
  O2-  O228  1  0.66533420  0.15363153  -0.00007944  1
  O2-  O229  1  0.65690069  0.16332993  0.33552326  1
  O2-  O230  1  0.66273878  0.16224255  0.66808581  1
  O2-  O231  1  0.66298001  0.64651794  0.00376681  1
  O2-  O232  1  0.66866132  0.67214242  0.33554633  1
  O2-  O233  1  0.67315204  0.65972822  0.67312437  1
  O2-  O234  1  0.16101512  0.16899490  -0.00332231  1
  O2-  O235  1  0.17108030  0.15975840  0.34538082  1
  O2-  O236  1  0.17261205  0.16020775  0.66689205  1
  O2-  O237  1  0.16823184  0.65911412  -0.00162403  1
  O2-  O238  1  0.16210204  0.64314896  0.33699023  1
  O2-  O239  1  0.17414848  0.66925088  0.65563172  1
  O2-  O240  1  0.50374949  0.14063732  0.00007514  1
  O2-  O241  1  0.49131204  0.15402683  0.33410102  1
  O2-  O242  1  0.50446185  0.17212165  0.65557452  1
  O2-  O243  1  0.49843939  0.63956718  0.00370714  1
  O2-  O244  1  0.49439642  0.65401353  0.33457222  1
  O2-  O245  1  0.49917651  0.66125156  0.67724496  1
  O2-  O246  1  0.83607990  0.16192232  -0.00896203  1
  O2-  O247  1  0.83841303  0.15379764  0.33111514  1
  O2-  O248  1  0.82609966  0.16272997  0.66775359  1
  O2-  O249  1  0.84095361  0.65388669  0.00163934  1
  O2-  O250  1  0.82637692  0.66948565  0.33968679  1
  O2-  O251  1  0.82989891  0.69395007  0.66686206  1
  O2-  O252  1  -0.00446609  0.34776295  -0.00663699  1
  O2-  O253  1  -0.00797823  0.35067406  0.34300640  1
  O2-  O254  1  0.00400580  0.35223069  0.66882403  1
  O2-  O255  1  -0.00013586  0.82978793  0.00104764  1
  O2-  O256  1  0.00398671  0.84763329  0.33111930  1
  O2-  O257  1  -0.00350806  0.83706889  0.66658399  1
  O2-  O258  1  0.33079828  0.32044894  -0.00376268  1
  O2-  O259  1  0.33695968  0.32411799  0.34368975  1
  O2-  O260  1  0.33110335  0.34034793  0.66757700  1
  O2-  O261  1  0.33399198  0.84862896  -0.00116358  1
  O2-  O262  1  0.33021262  0.84726897  0.33517772  1
  O2-  O263  1  0.33177323  0.84727516  0.66410518  1
  O2-  O264  1  0.67008001  0.34760299  -0.00167951  1
  O2-  O265  1  0.66842413  0.34005081  0.33494674  1
  O2-  O266  1  0.66514469  0.35007629  0.66377697  1
  O2-  O267  1  0.66553684  0.84302310  0.00201154  1
  O2-  O268  1  0.66946451  0.81087558  0.33620746  1
  O2-  O269  1  0.67306840  0.84469741  0.66151013  1
  O2-  O270  1  0.15618468  0.34188156  -0.00933154  1
  O2-  O271  1  0.16839000  0.33233160  0.33832508  1
  O2-  O272  1  0.16791476  0.34351306  0.66850871  1
  O2-  O273  1  0.16758609  0.84011383  0.00396698  1
  O2-  O274  1  0.16928963  0.84670562  0.33575947  1
  O2-  O275  1  0.16559505  0.84817894  0.66309259  1
  O2-  O276  1  0.49727984  0.34031563  -0.00479388  1
  O2-  O277  1  0.50811694  0.33705777  0.34723710  1
  O2-  O278  1  0.50042751  0.34405894  0.66758595  1
  O2-  O279  1  0.50150586  0.84492835  0.00220438  1
  O2-  O280  1  0.50978514  0.83628645  0.33912687  1
  O2-  O281  1  0.49756641  0.85483591  0.66393446  1
  O2-  O282  1  0.83518236  0.34835634  -0.00122439  1
  O2-  O283  1  0.82819115  0.35210025  0.32777525  1
  O2-  O284  1  0.82839242  0.35053111  0.66328905  1
  O2-  O285  1  0.83345122  0.83380403  -0.00280421  1
  O2-  O286  1  0.83221801  0.82916248  0.33697668  1
  O2-  O287  1  0.83769329  0.82569527  0.66879849  1
  O2-  O288  1  -0.00517646  0.17323095  0.16237552  1
  O2-  O289  1  0.00138476  0.17469592  0.49643963  1
  O2-  O290  1  0.00547635  0.18170654  0.83698187  1
  O2-  O291  1  0.00700444  0.67998546  0.15863552  1
  O2-  O292  1  0.00051374  0.69224828  0.50472708  1
  O2-  O293  1  -0.01007911  0.67523369  0.82850961  1
  O2-  O294  1  0.34260088  0.17124249  0.17052977  1
  O2-  O295  1  0.33381838  0.19898524  0.50158360  1
  O2-  O296  1  0.33010260  0.18879876  0.84676739  1
  O2-  O297  1  0.34058153  0.68081541  0.17131158  1
  O2-  O298  1  0.32972718  0.68710278  0.49982366  1
  O2-  O299  1  0.33743390  0.67811862  0.83785356  1
  O2-  O300  1  0.65547286  0.18038379  0.17039418  1
  O2-  O301  1  0.67019758  0.18053470  0.50671181  1
  O2-  O302  1  0.66444260  0.18606015  0.82724105  1
  O2-  O303  1  0.66655152  0.68976475  0.17450153  1
  O2-  O304  1  0.67338358  0.68516918  0.49748175  1
  O2-  O305  1  0.66697956  0.69045284  0.82889232  1
  O2-  O306  1  0.16360318  0.18231959  0.15532114  1
  O2-  O307  1  0.16317068  0.19374903  0.50510883  1
  O2-  O308  1  0.16988013  0.18693339  0.83350263  1
  O2-  O309  1  0.17075295  0.68009668  0.16286892  1
  O2-  O310  1  0.17147325  0.68690757  0.49726698  1
  O2-  O311  1  0.17669253  0.67268385  0.83042222  1
  O2-  O312  1  0.50095405  0.16875860  0.16850350  1
  O2-  O313  1  0.50643174  0.18874636  0.49369380  1
  O2-  O314  1  0.50234819  0.17817663  0.83741818  1
  O2-  O315  1  0.50204039  0.69139300  0.16859748  1
  O2-  O316  1  0.48980641  0.68067784  0.50073298  1
  O2-  O317  1  0.49437701  0.67911695  0.83594251  1
  O2-  O318  1  0.83976632  0.17169831  0.17027813  1
  O2-  O319  1  0.82793393  0.17768638  0.49984896  1
  O2-  O320  1  0.83800937  0.18165112  0.82421536  1
  O2-  O321  1  0.83425486  0.67262601  0.16070015  1
  O2-  O322  1  0.83384415  0.68678036  0.49743089  1
  O2-  O323  1  0.83144426  0.69415089  0.83663038  1
  O2-  O324  1  -0.01108773  0.32650734  0.15622004  1
  O2-  O325  1  0.00673932  0.33111576  0.50878267  1
  O2-  O326  1  0.00886180  0.32809070  0.84319511  1
  O2-  O327  1  -0.00216558  0.82322654  0.16453613  1
  O2-  O328  1  0.00450011  0.81564091  0.50373338  1
  O2-  O329  1  0.00051538  0.81591486  0.83679158  1
  O2-  O330  1  0.33489583  0.32363463  0.16445080  1
  O2-  O331  1  0.33092298  0.31837306  0.50131056  1
  O2-  O332  1  0.33364455  0.32596360  0.83793222  1
  O2-  O333  1  0.32604736  0.82065334  0.16080785  1
  O2-  O334  1  0.33945312  0.81821651  0.50729860  1
  O2-  O335  1  0.32760356  0.82323561  0.82781405  1
  O2-  O336  1  0.67005321  0.32708173  0.17333490  1
  O2-  O337  1  0.67327733  0.31728477  0.50639753  1
  O2-  O338  1  0.65915363  0.32141494  0.82796438  1
  O2-  O339  1  0.66276406  0.81556324  0.16575150  1
  O2-  O340  1  0.66408755  0.82137168  0.49648398  1
  O2-  O341  1  0.66705375  0.81675583  0.82966000  1
  O2-  O342  1  0.16352186  0.32435843  0.16592602  1
  O2-  O343  1  0.17177676  0.31418566  0.49402966  1
  O2-  O344  1  0.16962473  0.31121874  0.83420097  1
  O2-  O345  1  0.16433886  0.81290166  0.16643430  1
  O2-  O346  1  0.16746134  0.80961971  0.50159173  1
  O2-  O347  1  0.16782321  0.83049451  0.82955059  1
  O2-  O348  1  0.49790763  0.32063927  0.16765800  1
  O2-  O349  1  0.49817393  0.30924523  0.50956788  1
  O2-  O350  1  0.50027977  0.32880175  0.83489522  1
  O2-  O351  1  0.50203979  0.81625063  0.16733055  1
  O2-  O352  1  0.49552127  0.82499083  0.50534733  1
  O2-  O353  1  0.49788714  0.82432221  0.83327263  1
  O2-  O354  1  0.83598849  0.31814155  0.16613818  1
  O2-  O355  1  0.83481883  0.33024704  0.50190024  1
  O2-  O356  1  0.82762027  0.31949592  0.83734485  1
  O2-  O357  1  0.83751508  0.82007441  0.16513855  1
  O2-  O358  1  0.82540804  0.81071523  0.49866936  1
  O2-  O359  1  0.83325652  0.81093670  0.83339183  1
  O2-  O360  1  0.09157945  0.08472609  0.09093692  1
  O2-  O361  1  0.11012552  0.08481554  0.45462067  1
  O2-  O362  1  0.10051344  0.08533724  0.78032928  1
  O2-  O363  1  0.07930588  0.58052260  0.10561165  1
  O2-  O364  1  0.08085888  0.58233020  0.47450649  1
  O2-  O365  1  0.09495303  0.57216493  0.76124716  1
  O2-  O366  1  0.43445744  0.07675313  0.11967320  1
  O2-  O367  1  0.40757301  0.08812078  0.46251237  1
  O2-  O368  1  0.41420616  0.07970258  0.76481633  1
  O2-  O369  1  0.42846462  0.57583966  0.12935691  1
  O2-  O370  1  0.40710516  0.58333689  0.45428545  1
  O2-  O371  1  0.42120165  0.58014762  0.76963075  1
  O2-  O372  1  0.73198364  0.07811194  0.13260793  1
  O2-  O373  1  0.73087890  0.07098952  0.43989141  1
  O2-  O374  1  0.74314036  0.08405624  0.76931584  1
  O2-  O375  1  0.73961998  0.57831087  0.12742684  1
  O2-  O376  1  0.75235510  0.58703545  0.43598566  1
  O2-  O377  1  0.76303039  0.58085657  0.77168760  1
  O2-  O378  1  0.26823100  0.06680064  0.21686102  1
  O2-  O379  1  0.26057211  0.08438198  0.54471622  1
  O2-  O380  1  0.25185431  0.08559401  0.88833194  1
  O2-  O381  1  0.24717089  0.57305491  0.20100533  1
  O2-  O382  1  0.24571809  0.58353922  0.55588359  1
  O2-  O383  1  0.26314535  0.57709095  0.88169151  1
  O2-  O384  1  0.59007974  0.07713409  0.22932253  1
  O2-  O385  1  0.57520258  0.08248250  0.56295209  1
  O2-  O386  1  0.57728746  0.08015942  0.87046627  1
  O2-  O387  1  0.58393990  0.58033090  0.21108556  1
  O2-  O388  1  0.57759612  0.57775927  0.57321944  1
  O2-  O389  1  0.57859940  0.57752155  0.87104989  1
  O2-  O390  1  0.91858150  0.06807872  0.21343617  1
  O2-  O391  1  0.90560306  0.07700756  0.57352625  1
  O2-  O392  1  0.92776450  0.08321828  0.87860701  1
  O2-  O393  1  0.92498917  0.57584263  0.20686686  1
  O2-  O394  1  0.90638328  0.58155534  0.54999032  1
  O2-  O395  1  0.90994324  0.57871359  0.88153191  1
  O2-  O396  1  0.05843140  0.41954061  0.08251009  1
  O2-  O397  1  0.10146328  0.41736816  0.44066434  1
  O2-  O398  1  0.09860269  0.41497158  0.78098825  1
  O2-  O399  1  0.07514031  0.92223177  0.11791090  1
  O2-  O400  1  0.09941715  0.91383550  0.44825638  1
  O2-  O401  1  0.05522558  0.91990265  0.78239288  1
  O2-  O402  1  0.40370632  0.41614372  0.07093288  1
  O2-  O403  1  0.39790847  0.41915602  0.45471282  1
  O2-  O404  1  0.41158068  0.42225238  0.78005383  1
  O2-  O405  1  0.42050149  0.91573757  0.11023129  1
  O2-  O406  1  0.42084961  0.91931647  0.44028894  1
  O2-  O407  1  0.40354936  0.91921697  0.78437245  1
  O2-  O408  1  0.77971032  0.41923768  0.11154469  1
  O2-  O409  1  0.74355880  0.41842233  0.44658920  1
  O2-  O410  1  0.73844542  0.41998246  0.78634754  1
  O2-  O411  1  0.76034510  0.91258700  0.10008525  1
  O2-  O412  1  0.73337518  0.91713106  0.44285593  1
  O2-  O413  1  0.77006990  0.91977354  0.78110051  1
  O2-  O414  1  0.25710227  0.41651112  0.27756298  1
  O2-  O415  1  0.23328701  0.41838045  0.54648746  1
  O2-  O416  1  0.23516769  0.42267269  0.88591221  1
  O2-  O417  1  0.23429435  0.91854237  0.21829571  1
  O2-  O418  1  0.27002675  0.92243140  0.54651234  1
  O2-  O419  1  0.24453997  0.92166506  0.88067837  1
  O2-  O420  1  0.58482359  0.41839903  0.24308055  1
  O2-  O421  1  0.58755874  0.42069789  0.54121028  1
  O2-  O422  1  0.57930027  0.42405350  0.88951156  1
  O2-  O423  1  0.59258742  0.92657738  0.22747783  1
  O2-  O424  1  0.57493916  0.92094908  0.54826069  1
  O2-  O425  1  0.59553444  0.91871736  0.88014565  1
  O2-  O426  1  0.91483244  0.41589631  0.22121950  1
  O2-  O427  1  0.91180755  0.42359887  0.55396536  1
  O2-  O428  1  0.92163425  0.42313206  0.89871164  1
  O2-  O429  1  0.91528571  0.92324222  0.22538752  1
  O2-  O430  1  0.90214468  0.91461588  0.57756226  1
  O2-  O431  1  0.90873014  0.91795763  0.87989418  1
  O2-  O432  1  -0.00271821  -0.00532662  0.00164411  1
  O2-  O433  1  0.02230695  -0.00472812  0.31271793  1
  O2-  O434  1  0.00784078  -0.00854811  0.64898117  1
  O2-  O435  1  0.00095574  0.50829871  -0.01528163  1
  O2-  O436  1  0.00462195  0.51897204  0.33840680  1
  O2-  O437  1  0.00513417  0.50644143  0.64724642  1
  O2-  O438  1  0.33558462  -0.00011508  0.00470569  1
  O2-  O439  1  0.33361503  0.01822300  0.33774866  1
  O2-  O440  1  0.33397872  -0.01172414  0.66654424  1
  O2-  O441  1  0.32380891  0.51930625  0.01276532  1
  O2-  O442  1  0.33187511  0.51637549  0.33503502  1
  O2-  O443  1  0.32361986  0.49682601  0.68223747  1
  O2-  O444  1  0.66701936  0.00663002  0.01169629  1
  O2-  O445  1  0.64105619  0.00575975  0.35402753  1
  O2-  O446  1  0.66101007  -0.01661903  0.67748947  1
  O2-  O447  1  0.67208833  0.50009405  -0.01407087  1
  O2-  O448  1  0.68740952  0.49862446  0.29549713  1
  O2-  O449  1  0.65900023  0.49456849  0.66902936  1
  O2-  O450  1  0.16462183  -0.01529604  0.00541009  1
  O2-  O451  1  0.18250421  -0.00504865  0.34056872  1
  O2-  O452  1  0.17610742  -0.02015667  0.68851151  1
  O2-  O453  1  0.16260397  0.50140403  -0.01530606  1
  O2-  O454  1  0.16882247  0.51621457  0.33590116  1
  O2-  O455  1  0.16713141  0.49285368  0.66003505  1
  O2-  O456  1  0.50505363  -0.00825527  0.00129612  1
  O2-  O457  1  0.48500115  0.01911448  0.31484027  1
  O2-  O458  1  0.49097977  -0.00480182  0.64843605  1
  O2-  O459  1  0.49602257  0.51097135  -0.00944053  1
  O2-  O460  1  0.50396340  0.51112273  0.32859463  1
  O2-  O461  1  0.49088530  0.49289431  0.66072351  1
  O2-  O462  1  0.83265896  0.00315761  0.00834100  1
  O2-  O463  1  0.80853900  0.00378878  0.30697301  1
  O2-  O464  1  0.84778967  -0.00475623  0.68644042  1
  O2-  O465  1  0.85651295  0.50821197  0.02799442  1
  O2-  O466  1  0.84250650  0.50837162  0.34642175  1
  O2-  O467  1  0.81283121  0.49375527  0.64153673  1
  O2-  O468  1  0.58059164  0.75658455  0.60406051  1
  O2-  O469  1  0.92060885  0.24952796  0.27557218  1
  O2-  O470  1  0.41290705  0.74533537  0.04954156  1
  O2-  O471  1  0.58343092  0.25216670  0.94348527  1
  O2-  O472  1  0.74682767  0.25686066  0.06690312  1
  O2-  O473  1  0.57914432  0.74329685  0.94383753  1
  O2-  O474  1  0.74596092  0.74299369  0.05871692  1
  O2-  O475  1  0.92368115  0.75462597  0.26417782  1
  O2-  O476  1  0.07285180  0.25201750  0.72366873  1
  O2-  O477  1  0.41273265  0.75135596  0.39089219  1
  O2-  O478  1  0.25688891  0.74481288  0.93920182  1
  O2-  O479  1  0.57845255  0.25242665  0.27017237  1
  O2-  O480  1  0.08378384  0.75060277  0.38166275  1
  O2-  O481  1  0.09079137  0.75288877  0.73762259  1
  O2-  O482  1  0.25225541  0.25300689  0.25276611  1
  O2-  O483  1  0.91655830  0.25293007  0.93698224  1
  O2-  O484  1  0.75017159  0.25439323  0.72312778  1
  O2-  O485  1  0.41550714  0.75122847  0.72799451  1
  O2-  O486  1  0.91499213  0.25736887  0.60062386  1
  O2-  O487  1  0.41963652  0.25664772  0.74065386  1
  O2-  O488  1  0.43110881  0.24633756  0.06410126  1
  O2-  O489  1  0.25420582  0.75155674  0.27578042  1
  O2-  O490  1  0.06999141  0.24776596  0.38983844  1
  O2-  O491  1  0.06776257  0.25296895  0.06328296  1
  O2-  O492  1  0.76164272  0.25396346  0.39317722  1
