# generated using pymatgen
data_Ca108Mn108O277
_symmetry_space_group_name_H-M   'P 1'
_cell_length_a   16.01870410
_cell_length_b   22.29494734
_cell_length_c   16.38299771
_cell_angle_alpha   89.99956689
_cell_angle_beta   90.00057158
_cell_angle_gamma   90.00250787
_symmetry_Int_Tables_number   1
_chemical_formula_structural   Ca108Mn108O277
_chemical_formula_sum   'Ca108 Mn108 O277'
_cell_volume   5850.96095598
_cell_formula_units_Z   1
loop_
 _symmetry_equiv_pos_site_id
 _symmetry_equiv_pos_as_xyz
  1  'x, y, z'
loop_
 _atom_type_symbol
 _atom_type_oxidation_number
  Ca2+  2.0
  Mn3.34+  3.34
  O2-  -2.0
loop_
 _atom_site_type_symbol
 _atom_site_label
 _atom_site_symmetry_multiplicity
 _atom_site_fract_x
 _atom_site_fract_y
 _atom_site_fract_z
 _atom_site_occupancy
  Ca2+  Ca0  1  0.07897820  0.25411838  0.27476881  1
  Ca2+  Ca1  1  0.08212127  0.25005991  0.56085309  1
  Ca2+  Ca2  1  0.07446183  0.26934085  0.91841708  1
  Ca2+  Ca3  1  0.07595283  0.73682181  0.23889958  1
  Ca2+  Ca4  1  0.10030080  0.73783594  0.57040339  1
  Ca2+  Ca5  1  0.06476804  0.75125047  0.93850881  1
  Ca2+  Ca6  1  0.42916244  0.24832358  0.23488586  1
  Ca2+  Ca7  1  0.42675925  0.25273407  0.58214820  1
  Ca2+  Ca8  1  0.42306241  0.24520696  0.92682349  1
  Ca2+  Ca9  1  0.41190719  0.75233614  0.26497413  1
  Ca2+  Ca10  1  0.40305047  0.74326173  0.58379155  1
  Ca2+  Ca11  1  0.42184541  0.75916351  0.90573169  1
  Ca2+  Ca12  1  0.74520857  0.24285519  0.21693030  1
  Ca2+  Ca13  1  0.74499103  0.26407366  0.57966013  1
  Ca2+  Ca14  1  0.74776400  0.25314379  0.92802862  1
  Ca2+  Ca15  1  0.76537615  0.74369728  0.23268041  1
  Ca2+  Ca16  1  0.75192792  0.74609441  0.57577690  1
  Ca2+  Ca17  1  0.76659590  0.74815826  0.93689480  1
  Ca2+  Ca18  1  0.27156714  0.25605105  0.07852538  1
  Ca2+  Ca19  1  0.23541665  0.25028325  0.43063904  1
  Ca2+  Ca20  1  0.25525786  0.25781526  0.74157670  1
  Ca2+  Ca21  1  0.22897909  0.75159814  0.08725179  1
  Ca2+  Ca22  1  0.25166003  0.74483844  0.43085061  1
  Ca2+  Ca23  1  0.26511052  0.74862052  0.72893479  1
  Ca2+  Ca24  1  0.57547652  0.24077597  0.08151546  1
  Ca2+  Ca25  1  0.57543551  0.24733856  0.43138923  1
  Ca2+  Ca26  1  0.57138700  0.24098512  0.73501600  1
  Ca2+  Ca27  1  0.60366619  0.75800265  0.08342473  1
  Ca2+  Ca28  1  0.58207955  0.74488611  0.43104440  1
  Ca2+  Ca29  1  0.57282532  0.75277695  0.74021404  1
  Ca2+  Ca30  1  0.90447005  0.25750942  0.07636926  1
  Ca2+  Ca31  1  0.93619794  0.25444330  0.42698463  1
  Ca2+  Ca32  1  0.91927863  0.26566819  0.74499658  1
  Ca2+  Ca33  1  0.91732866  0.73892960  0.08234069  1
  Ca2+  Ca34  1  0.91908973  0.73094706  0.41021249  1
  Ca2+  Ca35  1  0.91069904  0.74776479  0.74940374  1
  Ca2+  Ca36  1  0.25931882  0.57870406  0.70298330  1
  Ca2+  Ca37  1  0.92128516  0.60003643  0.08319249  1
  Ca2+  Ca38  1  0.07532965  0.07785561  0.91621168  1
  Ca2+  Ca39  1  0.22260840  0.60583955  0.44667905  1
  Ca2+  Ca40  1  0.74514734  0.10093575  0.59140060  1
  Ca2+  Ca41  1  0.27812732  0.09612118  0.75002683  1
  Ca2+  Ca42  1  0.75582509  0.59126611  0.58269342  1
  Ca2+  Ca43  1  0.73214980  0.10091043  0.59120682  1
  Ca2+  Ca44  1  0.57065735  0.08483518  0.40927204  1
  Ca2+  Ca45  1  0.89447411  0.57631294  0.75773549  1
  Ca2+  Ca46  1  0.41217057  0.57976305  0.91204980  1
  Ca2+  Ca47  1  0.41269401  0.10473857  0.58560037  1
  Ca2+  Ca48  1  0.77625815  0.58943270  0.24845045  1
  Ca2+  Ca49  1  0.89608722  0.09990519  0.08830311  1
  Ca2+  Ca50  1  0.57551141  0.58323214  0.73109614  1
  Ca2+  Ca51  1  0.41927749  0.09223061  0.24795430  1
  Ca2+  Ca52  1  0.55506760  0.10913213  0.74808969  1
  Ca2+  Ca53  1  0.97104264  0.10253614  0.41209137  1
  Ca2+  Ca54  1  0.58130350  0.10672397  0.08608977  1
  Ca2+  Ca55  1  0.58731180  0.58333094  0.73058954  1
  Ca2+  Ca56  1  0.90388463  0.09152361  0.75102454  1
  Ca2+  Ca57  1  0.27385425  0.09547010  0.07037295  1
  Ca2+  Ca58  1  0.56021348  0.08797826  0.41069615  1
  Ca2+  Ca59  1  0.21635454  0.08529042  0.41799132  1
  Ca2+  Ca60  1  0.41684183  0.10483443  0.91903906  1
  Ca2+  Ca61  1  0.75287313  0.09470448  0.91358186  1
  Ca2+  Ca62  1  0.06100560  0.58466908  0.93600047  1
  Ca2+  Ca63  1  0.88599523  0.57860871  0.75253211  1
  Ca2+  Ca64  1  0.40210535  0.59587180  0.58437460  1
  Ca2+  Ca65  1  0.74301828  0.09888586  0.91793733  1
  Ca2+  Ca66  1  0.78644299  0.59039428  0.24923068  1
  Ca2+  Ca67  1  0.42388226  0.10435140  0.58485929  1
  Ca2+  Ca68  1  0.88826361  0.10487286  0.08429471  1
  Ca2+  Ca69  1  0.08824970  0.07888644  0.91639410  1
  Ca2+  Ca70  1  0.59650020  0.59185192  0.08203370  1
  Ca2+  Ca71  1  0.27027094  0.09091100  0.75338458  1
  Ca2+  Ca72  1  0.75060225  0.90387001  0.24935040  1
  Ca2+  Ca73  1  0.91415967  0.41438858  0.07101434  1
  Ca2+  Ca74  1  0.24818639  0.92256523  0.41016845  1
  Ca2+  Ca75  1  0.10173286  0.90554767  0.25604557  1
  Ca2+  Ca76  1  0.56658224  0.40378405  0.08304501  1
  Ca2+  Ca77  1  0.40748744  0.90047145  0.91277544  1
  Ca2+  Ca78  1  0.93914640  0.90346292  0.41811389  1
  Ca2+  Ca79  1  0.58905552  0.41222158  0.73784124  1
  Ca2+  Ca80  1  0.39923390  0.41999663  0.60229703  1
  Ca2+  Ca81  1  0.92578715  0.40969514  0.41464284  1
  Ca2+  Ca82  1  0.39540130  0.91869553  0.26189002  1
  Ca2+  Ca83  1  0.92603631  0.90256350  0.76851889  1
  Ca2+  Ca84  1  0.23912505  0.40507236  0.42636842  1
  Ca2+  Ca85  1  0.92519999  0.41455969  0.07145162  1
  Ca2+  Ca86  1  0.57775224  0.41161252  0.73741022  1
  Ca2+  Ca87  1  0.58768367  0.40477572  0.42738927  1
  Ca2+  Ca88  1  0.60039468  0.40382932  0.42812297  1
  Ca2+  Ca89  1  0.73904664  0.90275798  0.25037772  1
  Ca2+  Ca90  1  0.09115291  0.89931059  0.58224437  1
  Ca2+  Ca91  1  0.76724349  0.40986726  0.25408164  1
  Ca2+  Ca92  1  0.92645950  0.90438778  0.41817313  1
  Ca2+  Ca93  1  0.08948180  0.40973282  0.58675351  1
  Ca2+  Ca94  1  0.58146134  0.89561842  0.75756482  1
  Ca2+  Ca95  1  0.40686829  0.91911135  0.26134673  1
  Ca2+  Ca96  1  0.77006624  0.41386981  0.91072046  1
  Ca2+  Ca97  1  0.57457880  0.91033086  0.41365526  1
  Ca2+  Ca98  1  0.92144730  0.90530891  0.06715332  1
  Ca2+  Ca99  1  0.25072798  0.90443377  0.75268688  1
  Ca2+  Ca100  1  0.25905304  0.92266152  0.41083572  1
  Ca2+  Ca101  1  0.40498092  0.40979295  0.92153249  1
  Ca2+  Ca102  1  0.56333320  0.90987568  0.41473826  1
  Ca2+  Ca103  1  0.57908629  0.40479234  0.08218404  1
  Ca2+  Ca104  1  0.74931598  0.89548744  0.58703093  1
  Ca2+  Ca105  1  0.25077630  0.41919111  0.73557399  1
  Ca2+  Ca106  1  0.91344822  0.90379501  0.76710732  1
  Ca2+  Ca107  1  0.40707252  0.39783292  0.24030074  1
  Mn3.34+  Mn108  1  0.09117888  0.33137961  0.08794422  1
  Mn3.34+  Mn109  1  0.08367883  0.33726919  0.41662299  1
  Mn3.34+  Mn110  1  0.08335875  0.33862590  0.75101242  1
  Mn3.34+  Mn111  1  0.08400110  0.82959750  0.08279546  1
  Mn3.34+  Mn112  1  0.08830956  0.82799490  0.41819819  1
  Mn3.34+  Mn113  1  0.08866837  0.82765127  0.75565241  1
  Mn3.34+  Mn114  1  0.41195008  0.33266259  0.08169082  1
  Mn3.34+  Mn115  1  0.41169435  0.33091257  0.41757662  1
  Mn3.34+  Mn116  1  0.41480003  0.33704396  0.75835172  1
  Mn3.34+  Mn117  1  0.41072958  0.82922272  0.08244884  1
  Mn3.34+  Mn118  1  0.41404167  0.83344806  0.42211498  1
  Mn3.34+  Mn119  1  0.41404149  0.83246693  0.74816754  1
  Mn3.34+  Mn120  1  0.74873151  0.33213296  0.08337066  1
  Mn3.34+  Mn121  1  0.75895776  0.33592158  0.41713486  1
  Mn3.34+  Mn122  1  0.75439239  0.34475837  0.75186023  1
  Mn3.34+  Mn123  1  0.75175447  0.83184226  0.07943539  1
  Mn3.34+  Mn124  1  0.75027327  0.82988573  0.41978430  1
  Mn3.34+  Mn125  1  0.74822916  0.82994527  0.75529509  1
  Mn3.34+  Mn126  1  0.24530329  0.33325460  0.24689632  1
  Mn3.34+  Mn127  1  0.25062868  0.33498123  0.58376425  1
  Mn3.34+  Mn128  1  0.24525147  0.33864150  0.91393713  1
  Mn3.34+  Mn129  1  0.24834465  0.83245553  0.24364674  1
  Mn3.34+  Mn130  1  0.25223000  0.83293919  0.58294303  1
  Mn3.34+  Mn131  1  0.24354451  0.83928677  0.91682931  1
  Mn3.34+  Mn132  1  0.58548854  0.32987166  0.25300957  1
  Mn3.34+  Mn133  1  0.58360223  0.32950104  0.58439737  1
  Mn3.34+  Mn134  1  0.58638498  0.32806951  0.90937563  1
  Mn3.34+  Mn135  1  0.57745997  0.83450809  0.24091046  1
  Mn3.34+  Mn136  1  0.57880315  0.82921409  0.58504134  1
  Mn3.34+  Mn137  1  0.58616372  0.83821632  0.92118258  1
  Mn3.34+  Mn138  1  0.92218656  0.34343049  0.24537667  1
  Mn3.34+  Mn139  1  0.91544311  0.34077123  0.58650180  1
  Mn3.34+  Mn140  1  0.91989766  0.33849245  0.91087299  1
  Mn3.34+  Mn141  1  0.92183798  0.83013415  0.24504586  1
  Mn3.34+  Mn142  1  0.92118705  0.82402578  0.58470372  1
  Mn3.34+  Mn143  1  0.91766759  0.83310817  0.91952960  1
  Mn3.34+  Mn144  1  0.74571229  0.16883134  0.41046188  1
  Mn3.34+  Mn145  1  0.75659270  0.16413244  0.41167454  1
  Mn3.34+  Mn146  1  0.08481237  0.66774419  0.75310039  1
  Mn3.34+  Mn147  1  0.08057023  0.16965645  0.08670446  1
  Mn3.34+  Mn148  1  0.41036623  0.66917683  0.41960456  1
  Mn3.34+  Mn149  1  0.40166016  0.65183222  0.09776836  1
  Mn3.34+  Mn150  1  0.58634413  0.67031981  0.25671912  1
  Mn3.34+  Mn151  1  0.74897662  0.17522112  0.75154395  1
  Mn3.34+  Mn152  1  0.91640383  0.17509766  0.24919445  1
  Mn3.34+  Mn153  1  0.24863397  0.16868287  0.91131420  1
  Mn3.34+  Mn154  1  0.59413508  0.66660565  0.91667237  1
  Mn3.34+  Mn155  1  0.40990571  0.65769525  0.09183313  1
  Mn3.34+  Mn156  1  0.75297402  0.66331188  0.41980789  1
  Mn3.34+  Mn157  1  0.58085954  0.16879886  0.91302783  1
  Mn3.34+  Mn158  1  0.92402544  0.66349145  0.57228031  1
  Mn3.34+  Mn159  1  0.91669733  0.16869203  0.91042625  1
  Mn3.34+  Mn160  1  0.25451799  0.16232386  0.25121581  1
  Mn3.34+  Mn161  1  0.58036797  0.67226712  0.91730671  1
  Mn3.34+  Mn162  1  0.41803468  0.66363617  0.75148479  1
  Mn3.34+  Mn163  1  0.74864479  0.66427427  0.75098542  1
  Mn3.34+  Mn164  1  0.91072507  0.66348938  0.91851961  1
  Mn3.34+  Mn165  1  0.09140116  0.16504053  0.08813817  1
  Mn3.34+  Mn166  1  0.08902044  0.17154798  0.74370102  1
  Mn3.34+  Mn167  1  0.92059148  0.17173952  0.58013897  1
  Mn3.34+  Mn168  1  0.24139760  0.66487658  0.92097220  1
  Mn3.34+  Mn169  1  0.93182336  0.66154038  0.24874695  1
  Mn3.34+  Mn170  1  0.58232478  0.66616270  0.57554298  1
  Mn3.34+  Mn171  1  0.57561150  0.66594027  0.25492467  1
  Mn3.34+  Mn172  1  0.24332744  0.15601237  0.25174877  1
  Mn3.34+  Mn173  1  0.08378649  0.66087223  0.74560586  1
  Mn3.34+  Mn174  1  0.24514757  0.16710061  0.57686123  1
  Mn3.34+  Mn175  1  0.58333512  0.16761912  0.24367442  1
  Mn3.34+  Mn176  1  0.41503007  0.16690792  0.41933802  1
  Mn3.34+  Mn177  1  0.25241856  0.66267759  0.91101667  1
  Mn3.34+  Mn178  1  0.07692330  0.16423239  0.74638855  1
  Mn3.34+  Mn179  1  0.24471586  0.66780133  0.25510549  1
  Mn3.34+  Mn180  1  0.58394779  -0.00004509  0.58746669  1
  Mn3.34+  Mn181  1  0.08536754  0.49862125  0.74481332  1
  Mn3.34+  Mn182  1  0.10444151  -0.00220726  0.08472306  1
  Mn3.34+  Mn183  1  0.74612179  -0.00097870  0.75759663  1
  Mn3.34+  Mn184  1  0.25238382  0.50655514  0.24277065  1
  Mn3.34+  Mn185  1  0.75504631  0.49911958  0.08001406  1
  Mn3.34+  Mn186  1  0.41689053  -0.00295202  0.75547591  1
  Mn3.34+  Mn187  1  0.91808242  0.00115793  0.58214456  1
  Mn3.34+  Mn188  1  0.40076974  0.50017160  0.42298629  1
  Mn3.34+  Mn189  1  0.76314976  0.50234033  0.41117730  1
  Mn3.34+  Mn190  1  0.59253963  0.49967617  0.91298190  1
  Mn3.34+  Mn191  1  0.08818931  -0.00151316  0.08415128  1
  Mn3.34+  Mn192  1  0.91828880  0.00526713  0.25203531  1
  Mn3.34+  Mn193  1  0.07642648  0.50260832  0.39833746  1
  Mn3.34+  Mn194  1  0.93048058  0.00024889  0.25194321  1
  Mn3.34+  Mn195  1  0.42291372  -0.00295063  0.07447207  1
  Mn3.34+  Mn196  1  0.24076517  0.50007207  0.24257334  1
  Mn3.34+  Mn197  1  0.58528918  0.50008758  0.58765411  1
  Mn3.34+  Mn198  1  0.58258383  0.00145527  0.90924633  1
  Mn3.34+  Mn199  1  0.40699459  -0.00074317  0.07695944  1
  Mn3.34+  Mn200  1  0.25132442  0.49742508  0.92482608  1
  Mn3.34+  Mn201  1  0.74670744  0.00284271  0.08269864  1
  Mn3.34+  Mn202  1  0.58487255  0.00139355  0.24904420  1
  Mn3.34+  Mn203  1  0.41531961  0.50526276  0.42100945  1
  Mn3.34+  Mn204  1  0.57232460  -0.00437783  0.58693074  1
  Mn3.34+  Mn205  1  0.08787475  -0.00290379  0.75382401  1
  Mn3.34+  Mn206  1  0.24854007  0.00243856  0.58968876  1
  Mn3.34+  Mn207  1  0.08542318  0.50352278  0.09346054  1
  Mn3.34+  Mn208  1  0.75411501  -0.00202731  0.41977447  1
  Mn3.34+  Mn209  1  0.10013487  0.50217432  0.08830348  1
  Mn3.34+  Mn210  1  0.57321975  0.49821750  0.24853731  1
  Mn3.34+  Mn211  1  0.73161737  -0.00196858  0.08151800  1
  Mn3.34+  Mn212  1  0.58406406  0.50354950  0.24949423  1
  Mn3.34+  Mn213  1  0.58147084  0.49506578  0.91208274  1
  Mn3.34+  Mn214  1  0.91262811  0.50138817  0.59576194  1
  Mn3.34+  Mn215  1  0.92860048  0.00689231  0.58250219  1
  O2-  O216  1  -0.00461732  0.14338467  0.00042905  1
  O2-  O217  1  -0.01148508  0.18421342  0.33236746  1
  O2-  O218  1  -0.00655235  0.15285604  0.67013349  1
  O2-  O219  1  -0.00508517  0.65975480  -0.00874424  1
  O2-  O220  1  0.00217091  0.67510762  0.32954455  1
  O2-  O221  1  -0.00310079  0.66101430  0.67019246  1
  O2-  O222  1  0.32651306  0.16987044  -0.00766130  1
  O2-  O223  1  0.33125529  0.15681738  0.33744966  1
  O2-  O224  1  0.32938150  0.15942054  0.66365812  1
  O2-  O225  1  0.32982759  0.68180325  0.00153895  1
  O2-  O226  1  0.33232375  0.67796353  0.33433649  1
  O2-  O227  1  0.33943184  0.66039056  0.67476874  1
  O2-  O228  1  0.66682265  0.15224119  -0.01000013  1
  O2-  O229  1  0.65738093  0.14795586  0.33732221  1
  O2-  O230  1  0.66797381  0.16294655  0.67263156  1
  O2-  O231  1  0.65753469  0.66486471  0.00883484  1
  O2-  O232  1  0.67196164  0.64803216  0.33311559  1
  O2-  O233  1  0.66592892  0.66203636  0.66806713  1
  O2-  O234  1  0.16218140  0.15300112  -0.00582308  1
  O2-  O235  1  0.17105049  0.17455761  0.33292228  1
  O2-  O236  1  0.17328386  0.14682423  0.67092217  1
  O2-  O237  1  0.16232778  0.67450194  -0.00836318  1
  O2-  O238  1  0.17486762  0.68672377  0.33423418  1
  O2-  O239  1  0.16946954  0.66838418  0.67116583  1
  O2-  O240  1  0.50534343  0.15776477  -0.00620767  1
  O2-  O241  1  0.49516627  0.15331358  0.33361112  1
  O2-  O242  1  0.48854356  0.16548650  0.66122538  1
  O2-  O243  1  0.49074873  0.65696784  -0.00213356  1
  O2-  O244  1  0.49899500  0.66524999  0.33638048  1
  O2-  O245  1  0.50509398  0.65659993  0.66921357  1
  O2-  O246  1  0.83204117  0.15594459  -0.01146252  1
  O2-  O247  1  0.82749328  0.16811976  0.32487951  1
  O2-  O248  1  0.82986599  0.16020709  0.66686980  1
  O2-  O249  1  0.83647480  0.66141626  -0.00313328  1
  O2-  O250  1  0.83295680  0.65938246  0.33496828  1
  O2-  O251  1  0.83216972  0.65655943  0.67004471  1
  O2-  O252  1  -0.00249632  0.34430644  0.00363711  1
  O2-  O253  1  -0.00252255  0.33476908  0.33544715  1
  O2-  O254  1  0.00444066  0.34333984  0.66305924  1
  O2-  O255  1  0.00038847  0.83944374  0.00024789  1
  O2-  O256  1  0.00394243  0.83992467  0.33258881  1
  O2-  O257  1  0.00003150  0.83640017  0.67018791  1
  O2-  O258  1  0.33572556  0.33257425  -0.00693844  1
  O2-  O259  1  0.33382807  0.33481384  0.33183527  1
  O2-  O260  1  0.33694279  0.33406842  0.66953613  1
  O2-  O261  1  0.33213628  0.81707527  -0.00642582  1
  O2-  O262  1  0.33520904  0.83762688  0.32805956  1
  O2-  O263  1  0.32951176  0.84185566  0.66965935  1
  O2-  O264  1  0.66668723  0.35325544  -0.00298373  1
  O2-  O265  1  0.66803422  0.35020351  0.33455463  1
  O2-  O266  1  0.66179265  0.33580261  0.67227351  1
  O2-  O267  1  0.66925155  0.83235807  0.00070255  1
  O2-  O268  1  0.66102127  0.85301570  0.33666024  1
  O2-  O269  1  0.67102692  0.83182542  0.66546678  1
  O2-  O270  1  0.17352186  0.32016767  0.00023853  1
  O2-  O271  1  0.17279056  0.33242380  0.33987907  1
  O2-  O272  1  0.17200160  0.34403468  0.67002914  1
  O2-  O273  1  0.16680060  0.82227426  -0.00203638  1
  O2-  O274  1  0.17544390  0.83686236  0.33883922  1
  O2-  O275  1  0.16822656  0.83743336  0.66817012  1
  O2-  O276  1  0.50132133  0.34679941  -0.00473358  1
  O2-  O277  1  0.50333136  0.35085275  0.33740498  1
  O2-  O278  1  0.49842436  0.33884871  0.66879451  1
  O2-  O279  1  0.49149439  0.83249415  -0.00210005  1
  O2-  O280  1  0.49484459  0.84854676  0.32682143  1
  O2-  O281  1  0.50388638  0.84005075  0.67272650  1
  O2-  O282  1  0.83469785  0.34199388  0.00469088  1
  O2-  O283  1  0.83787241  0.33878273  0.33032406  1
  O2-  O284  1  0.82666023  0.32005148  0.66957462  1
  O2-  O285  1  0.83767364  0.83794247  0.00422176  1
  O2-  O286  1  0.83524215  0.85090680  0.33322834  1
  O2-  O287  1  0.83836156  0.83836579  0.66929464  1
  O2-  O288  1  -0.00086962  0.18038396  0.16744681  1
  O2-  O289  1  -0.00476442  0.17574268  0.50117413  1
  O2-  O290  1  0.00566385  0.17736128  0.83709939  1
  O2-  O291  1  -0.00716707  0.67431187  0.16411845  1
  O2-  O292  1  0.00126182  0.68346116  0.50222567  1
  O2-  O293  1  0.00118644  0.68421091  0.82760123  1
  O2-  O294  1  0.33195126  0.18186150  0.17494409  1
  O2-  O295  1  0.34217217  0.17906188  0.50729977  1
  O2-  O296  1  0.32302266  0.17901518  0.82895026  1
  O2-  O297  1  0.33388103  0.69287215  0.17415599  1
  O2-  O298  1  0.33363156  0.67376081  0.49797718  1
  O2-  O299  1  0.33751079  0.68123655  0.84095339  1
  O2-  O300  1  0.65647223  0.17742635  0.16448046  1
  O2-  O301  1  0.66762391  0.16896160  0.49554427  1
  O2-  O302  1  0.67013296  0.18266963  0.83447167  1
  O2-  O303  1  0.66564752  0.67234433  0.17629009  1
  O2-  O304  1  0.67091959  0.67742767  0.50298402  1
  O2-  O305  1  0.66525712  0.68567910  0.82462500  1
  O2-  O306  1  0.17300516  0.18816293  0.17022941  1
  O2-  O307  1  0.17150626  0.17220532  0.49770244  1
  O2-  O308  1  0.16067904  0.18491796  0.83331622  1
  O2-  O309  1  0.17768994  0.68934984  0.17843411  1
  O2-  O310  1  0.16311077  0.68326943  0.48861708  1
  O2-  O311  1  0.16759806  0.68753170  0.83058318  1
  O2-  O312  1  0.50077929  0.17485082  0.17251334  1
  O2-  O313  1  0.50220176  0.16684141  0.49112055  1
  O2-  O314  1  0.50018616  0.18085115  0.83591928  1
  O2-  O315  1  0.50488195  0.68708114  0.15969974  1
  O2-  O316  1  0.49404816  0.67564154  0.50586133  1
  O2-  O317  1  0.50470189  0.67727234  0.83250876  1
  O2-  O318  1  0.84564057  0.18297480  0.15868253  1
  O2-  O319  1  0.82352833  0.17832201  0.50831104  1
  O2-  O320  1  0.83364907  0.18286154  0.83181023  1
  O2-  O321  1  0.83499417  0.66800947  0.17589465  1
  O2-  O322  1  0.83054619  0.67763657  0.50280805  1
  O2-  O323  1  0.83543553  0.67874895  0.82362060  1
  O2-  O324  1  -0.00477167  0.31906179  0.16446030  1
  O2-  O325  1  0.00230969  0.33463153  0.49842258  1
  O2-  O326  1  -0.00154692  0.32437222  0.82980225  1
  O2-  O327  1  -0.00347541  0.82692557  0.16346253  1
  O2-  O328  1  -0.00210294  0.81601997  0.49506602  1
  O2-  O329  1  -0.00482120  0.81692046  0.82755981  1
  O2-  O330  1  0.33710615  0.31818340  0.17141551  1
  O2-  O331  1  0.33180267  0.31987723  0.50034830  1
  O2-  O332  1  0.33619448  0.31183671  0.83476003  1
  O2-  O333  1  0.33122938  0.81254563  0.16956235  1
  O2-  O334  1  0.32416717  0.83301872  0.49107939  1
  O2-  O335  1  0.33183318  0.81908528  0.83203708  1
  O2-  O336  1  0.66255483  0.32916966  0.16257105  1
  O2-  O337  1  0.66284463  0.32773460  0.49655582  1
  O2-  O338  1  0.66696403  0.31344551  0.82987037  1
  O2-  O339  1  0.67402048  0.82726568  0.17490688  1
  O2-  O340  1  0.66401205  0.82585681  0.49909368  1
  O2-  O341  1  0.65853042  0.81995938  0.82586897  1
  O2-  O342  1  0.16705534  0.30567885  0.17039591  1
  O2-  O343  1  0.16586722  0.33257587  0.50303379  1
  O2-  O344  1  0.16914059  0.31523035  0.83157764  1
  O2-  O345  1  0.15869435  0.81954496  0.17630575  1
  O2-  O346  1  0.16410910  0.81940648  0.50299643  1
  O2-  O347  1  0.17142817  0.80825418  0.83167829  1
  O2-  O348  1  0.50442593  0.32335733  0.16628249  1
  O2-  O349  1  0.50360438  0.32983396  0.49650277  1
  O2-  O350  1  0.50317672  0.31423701  0.82753973  1
  O2-  O351  1  0.49284691  0.81592113  0.16752648  1
  O2-  O352  1  0.50884068  0.82949263  0.48890774  1
  O2-  O353  1  0.49639334  0.82706784  0.83174477  1
  O2-  O354  1  0.83194596  0.31986147  0.16814403  1
  O2-  O355  1  0.83830109  0.32491176  0.49661046  1
  O2-  O356  1  0.82857882  0.32276754  0.83786534  1
  O2-  O357  1  0.82895266  0.83508035  0.17487477  1
  O2-  O358  1  0.83833825  0.83018890  0.50176606  1
  O2-  O359  1  0.83647437  0.81813346  0.82956197  1
  O2-  O360  1  0.09125395  0.08022748  0.12544726  1
  O2-  O361  1  0.08792909  0.06815248  0.44468587  1
  O2-  O362  1  0.08260473  0.08055330  0.78127392  1
  O2-  O363  1  0.08221830  0.58408449  0.09621264  1
  O2-  O364  1  0.08923459  0.56553778  0.44902242  1
  O2-  O365  1  0.08547700  0.57881291  0.78996258  1
  O2-  O366  1  0.41642996  0.07809926  0.11143430  1
  O2-  O367  1  0.42641162  0.08013552  0.44747780  1
  O2-  O368  1  0.41015005  0.07572156  0.78946992  1
  O2-  O369  1  0.43603773  0.57337869  0.10606572  1
  O2-  O370  1  0.41343397  0.58578701  0.43840511  1
  O2-  O371  1  0.43888224  0.58160754  0.77578451  1
  O2-  O372  1  0.74950135  0.08215165  0.11038854  1
  O2-  O373  1  0.74834351  0.08009734  0.45136172  1
  O2-  O374  1  0.75685547  0.08138197  0.78375117  1
  O2-  O375  1  0.73462777  0.57201382  0.12052822  1
  O2-  O376  1  0.75349657  0.58007125  0.44407615  1
  O2-  O377  1  0.74328032  0.58394392  0.76806628  1
  O2-  O378  1  0.26581291  0.07766918  0.21392352  1
  O2-  O379  1  0.27013615  0.08222058  0.55327307  1
  O2-  O380  1  0.22536437  0.08075534  0.87558506  1
  O2-  O381  1  0.24557423  0.58685980  0.23007979  1
  O2-  O382  1  0.27250645  0.56520660  0.56342704  1
  O2-  O383  1  0.25541546  0.57933101  0.88120880  1
  O2-  O384  1  0.57286006  0.08227764  0.23148045  1
  O2-  O385  1  0.59650867  0.07888635  0.54983670  1
  O2-  O386  1  0.59324747  0.08269968  0.87792852  1
  O2-  O387  1  0.57396125  0.58313831  0.21941272  1
  O2-  O388  1  0.59060178  0.58181677  0.57875738  1
  O2-  O389  1  0.58292092  0.58193164  0.88776235  1
  O2-  O390  1  0.91760088  0.08501101  0.22237796  1
  O2-  O391  1  0.90101653  0.08602379  0.55422188  1
  O2-  O392  1  0.91981660  0.08433049  0.88453439  1
  O2-  O393  1  0.91445591  0.58029602  0.22597890  1
  O2-  O394  1  0.90848725  0.57972547  0.56311234  1
  O2-  O395  1  0.92624697  0.58128415  0.88559576  1
  O2-  O396  1  0.07771197  0.41932064  0.10914863  1
  O2-  O397  1  0.08879368  0.42902008  0.44397733  1
  O2-  O398  1  0.09790066  0.41977917  0.76803932  1
  O2-  O399  1  0.08174896  0.91640445  0.10968472  1
  O2-  O400  1  0.06964799  0.91418227  0.44794579  1
  O2-  O401  1  0.06790898  0.91633846  0.76734689  1
  O2-  O402  1  0.43588295  0.41697596  0.11013500  1
  O2-  O403  1  0.41200403  0.41840871  0.44724279  1
  O2-  O404  1  0.43006925  0.41729133  0.77618262  1
  O2-  O405  1  0.40961231  0.91879622  0.11558176  1
  O2-  O406  1  0.42282154  0.91615126  0.42508297  1
  O2-  O407  1  0.41138476  0.91592840  0.77347595  1
  O2-  O408  1  0.75653326  0.41962348  0.11150138  1
  O2-  O409  1  0.74189039  0.42142641  0.43666812  1
  O2-  O410  1  0.71810756  0.42259354  0.78551575  1
  O2-  O411  1  0.75493224  0.91844251  0.10838693  1
  O2-  O412  1  0.75164983  0.91647736  0.44784270  1
  O2-  O413  1  0.76865892  0.91760151  0.75983748  1
  O2-  O414  1  0.25939283  0.41982591  0.22442763  1
  O2-  O415  1  0.25660588  0.41559765  0.56709704  1
  O2-  O416  1  0.26220975  0.42195744  0.87770320  1
  O2-  O417  1  0.25360397  0.91284809  0.23363603  1
  O2-  O418  1  0.23348757  0.92203768  0.55237169  1
  O2-  O419  1  0.26278435  0.91646680  0.89004296  1
  O2-  O420  1  0.58318547  0.41725987  0.22071871  1
  O2-  O421  1  0.58181324  0.41890308  0.56298836  1
  O2-  O422  1  0.58087841  0.41363631  0.88088182  1
  O2-  O423  1  0.58908965  0.91942516  0.22546018  1
  O2-  O424  1  0.58709791  0.91446055  0.56298145  1
  O2-  O425  1  0.56948462  0.91995781  0.89097367  1
  O2-  O426  1  0.90713295  0.42141283  0.21046882  1
  O2-  O427  1  0.92738477  0.42666264  0.55487577  1
  O2-  O428  1  0.90824288  0.41786766  0.91529409  1
  O2-  O429  1  0.92676697  0.91826010  0.22700115  1
  O2-  O430  1  0.93002788  0.91825941  0.55924409  1
  O2-  O431  1  0.91681016  0.91561797  0.89808946  1
  O2-  O432  1  0.00221106  0.01438339  0.00983785  1
  O2-  O433  1  -0.01389891  -0.00614429  0.35370751  1
  O2-  O434  1  -0.00787698  0.00345580  0.68252337  1
  O2-  O435  1  -0.00710937  0.50159144  0.02734093  1
  O2-  O436  1  -0.01328312  0.49335089  0.35123259  1
  O2-  O437  1  -0.01040537  0.51120855  0.68350353  1
  O2-  O438  1  0.33600073  0.01614025  -0.00506866  1
  O2-  O439  1  0.33575017  -0.01852071  0.33456324  1
  O2-  O440  1  0.33776057  0.01640513  0.67071998  1
  O2-  O441  1  0.35501506  0.49962180  -0.04099618  1
  O2-  O442  1  0.33327149  0.49507438  0.32971802  1
  O2-  O443  1  0.34312379  0.50603427  0.65110197  1
  O2-  O444  1  0.67368863  0.01265054  -0.01670535  1
  O2-  O445  1  0.65576006  -0.00858452  0.34978395  1
  O2-  O446  1  0.67518686  0.01034740  0.65902622  1
  O2-  O447  1  0.66146088  0.49267897  0.01126143  1
  O2-  O448  1  0.65679196  0.49325053  0.34140863  1
  O2-  O449  1  0.64985367  0.50017148  0.68241343  1
  O2-  O450  1  0.16590309  0.02056058  -0.00178462  1
  O2-  O451  1  0.17797441  -0.00613296  0.36712530  1
  O2-  O452  1  0.18263274  -0.00045443  0.68848912  1
  O2-  O453  1  0.15604877  0.50685315  -0.01060230  1
  O2-  O454  1  0.17054471  0.49573106  0.34012199  1
  O2-  O455  1  0.17655416  0.49936098  0.68692637  1
  O2-  O456  1  0.50326026  0.01003515  -0.00290190  1
  O2-  O457  1  0.50339207  -0.00300276  0.33450319  1
  O2-  O458  1  0.50274827  0.01510248  0.67745226  1
  O2-  O459  1  0.50774821  0.49399011  -0.00159640  1
  O2-  O460  1  0.49878622  0.49164423  0.34019927  1
  O2-  O461  1  0.50382935  0.49517278  0.66663537  1
  O2-  O462  1  0.84033587  0.01547937  0.01474032  1
  O2-  O463  1  0.82265888  -0.01527061  0.32161340  1
  O2-  O464  1  0.83225505  0.01190102  0.66487080  1
  O2-  O465  1  0.84287094  0.49445818  0.01890534  1
  O2-  O466  1  0.81697612  0.50065634  0.31320930  1
  O2-  O467  1  0.82960064  0.51312213  0.66607010  1
  O2-  O468  1  0.58751573  0.25086905  0.94410449  1
  O2-  O469  1  0.57973152  0.74840257  0.59484339  1
  O2-  O470  1  0.57768629  0.75372554  0.93231981  1
  O2-  O471  1  0.42071152  0.74925421  0.73292328  1
  O2-  O472  1  0.42500560  0.25412420  0.07030763  1
  O2-  O473  1  0.75433654  0.75317984  0.08091930  1
  O2-  O474  1  0.90493627  0.74548921  0.60373092  1
  O2-  O475  1  0.25912062  0.75393449  0.59058470  1
  O2-  O476  1  0.42588797  0.75211744  0.40845425  1
  O2-  O477  1  0.42761195  0.24900608  0.40204131  1
  O2-  O478  1  0.07590453  0.25259123  0.72589853  1
  O2-  O479  1  0.90816555  0.75132261  0.26226072  1
  O2-  O480  1  0.07363715  0.75138623  0.07791467  1
  O2-  O481  1  0.73970941  0.25268141  0.40581308  1
  O2-  O482  1  0.92165291  0.24984266  0.93721770  1
  O2-  O483  1  0.58124726  0.25172115  0.58866517  1
  O2-  O484  1  0.58633531  0.24928538  0.27885485  1
  O2-  O485  1  0.58926737  0.75419799  0.27598355  1
  O2-  O486  1  0.91403959  0.74929836  0.93461069  1
  O2-  O487  1  0.74685049  0.74857973  0.39709392  1
  O2-  O488  1  0.92541603  0.25165961  0.59351641  1
  O2-  O489  1  0.74256373  0.25415859  0.06730302  1
  O2-  O490  1  0.23957053  0.24898640  0.59764691  1
  O2-  O491  1  0.06750988  0.24898960  0.05526967  1
  O2-  O492  1  0.08450619  0.25766257  0.41745541  1
