# generated using pymatgen
data_Ca108Mn108O277
_symmetry_space_group_name_H-M   'P 1'
_cell_length_a   16.01942068
_cell_length_b   22.29553197
_cell_length_c   16.38363697
_cell_angle_alpha   90.00382731
_cell_angle_beta   89.99734618
_cell_angle_gamma   89.99838691
_symmetry_Int_Tables_number   1
_chemical_formula_structural   Ca108Mn108O277
_chemical_formula_sum   'Ca108 Mn108 O277'
_cell_volume   5851.60442874
_cell_formula_units_Z   1
loop_
 _symmetry_equiv_pos_site_id
 _symmetry_equiv_pos_as_xyz
  1  'x, y, z'
loop_
 _atom_type_symbol
 _atom_type_oxidation_number
  Ca2+  2.0
  Mn3.34+  3.34
  O2-  -2.0
loop_
 _atom_site_type_symbol
 _atom_site_label
 _atom_site_symmetry_multiplicity
 _atom_site_fract_x
 _atom_site_fract_y
 _atom_site_fract_z
 _atom_site_occupancy
  Ca2+  Ca0  1  0.08459029  0.23080124  0.26254353  1
  Ca2+  Ca1  1  0.09977620  0.23960034  0.55907374  1
  Ca2+  Ca2  1  0.10030702  0.25375103  0.92032643  1
  Ca2+  Ca3  1  0.09485790  0.75624857  0.24537852  1
  Ca2+  Ca4  1  0.07589302  0.75069945  0.58006132  1
  Ca2+  Ca5  1  0.09611451  0.74635790  0.92352081  1
  Ca2+  Ca6  1  0.40341668  0.24801713  0.27076787  1
  Ca2+  Ca7  1  0.41013690  0.23460421  0.57882637  1
  Ca2+  Ca8  1  0.42838372  0.24627489  0.89106692  1
  Ca2+  Ca9  1  0.41140953  0.74988401  0.26750340  1
  Ca2+  Ca10  1  0.42932552  0.74556411  0.57431100  1
  Ca2+  Ca11  1  0.40502083  0.75128779  0.90577214  1
  Ca2+  Ca12  1  0.75767162  0.24858383  0.26428838  1
  Ca2+  Ca13  1  0.74585443  0.25117631  0.55574067  1
  Ca2+  Ca14  1  0.72225099  0.24988412  0.92133226  1
  Ca2+  Ca15  1  0.74584131  0.76559069  0.24983895  1
  Ca2+  Ca16  1  0.73150556  0.74947231  0.58779553  1
  Ca2+  Ca17  1  0.75076733  0.74891351  0.91399601  1
  Ca2+  Ca18  1  0.25017043  0.25276275  0.09979509  1
  Ca2+  Ca19  1  0.26333341  0.22662867  0.40789077  1
  Ca2+  Ca20  1  0.27527476  0.24681935  0.73310688  1
  Ca2+  Ca21  1  0.24441722  0.75211066  0.09132377  1
  Ca2+  Ca22  1  0.27430880  0.74350457  0.40773822  1
  Ca2+  Ca23  1  0.26249378  0.75573136  0.75037704  1
  Ca2+  Ca24  1  0.59492503  0.24696109  0.07180411  1
  Ca2+  Ca25  1  0.57929373  0.25203062  0.41808384  1
  Ca2+  Ca26  1  0.55986814  0.24708616  0.75357762  1
  Ca2+  Ca27  1  0.57876593  0.75508359  0.08751622  1
  Ca2+  Ca28  1  0.55914810  0.74277158  0.43090195  1
  Ca2+  Ca29  1  0.56822057  0.74957134  0.73026147  1
  Ca2+  Ca30  1  0.90206973  0.25251891  0.11869335  1
  Ca2+  Ca31  1  0.91789729  0.24724637  0.40174570  1
  Ca2+  Ca32  1  0.90746242  0.26819929  0.73278512  1
  Ca2+  Ca33  1  0.92878531  0.75293594  0.08751843  1
  Ca2+  Ca34  1  0.92032136  0.76320518  0.41934484  1
  Ca2+  Ca35  1  0.91341736  0.75377075  0.73985410  1
  Ca2+  Ca36  1  0.40562202  0.58977751  0.27694977  1
  Ca2+  Ca37  1  0.91220948  0.57830495  0.41571378  1
  Ca2+  Ca38  1  0.92684721  0.10067524  0.39767218  1
  Ca2+  Ca39  1  0.74278992  0.10207101  0.56436312  1
  Ca2+  Ca40  1  0.93517790  0.09793793  0.40246189  1
  Ca2+  Ca41  1  0.08242115  0.08204882  0.92783090  1
  Ca2+  Ca42  1  0.75221224  0.10025285  0.25985972  1
  Ca2+  Ca43  1  0.44153854  0.59697042  0.56593435  1
  Ca2+  Ca44  1  0.07850546  0.58919308  0.92419392  1
  Ca2+  Ca45  1  0.24207437  0.58682113  0.75038997  1
  Ca2+  Ca46  1  0.28559038  0.10545110  0.73094094  1
  Ca2+  Ca47  1  0.24163354  0.09399689  0.09734012  1
  Ca2+  Ca48  1  0.57158036  0.10435026  0.41505676  1
  Ca2+  Ca49  1  0.58817444  0.58775336  0.08408409  1
  Ca2+  Ca50  1  0.92081385  0.58545742  0.07310958  1
  Ca2+  Ca51  1  0.92459184  0.58112620  0.41528467  1
  Ca2+  Ca52  1  0.25478011  0.58707280  0.75053958  1
  Ca2+  Ca53  1  0.25113563  0.59592163  0.08147204  1
  Ca2+  Ca54  1  0.58215075  0.58574467  0.71057245  1
  Ca2+  Ca55  1  0.75978237  0.59180515  0.93174524  1
  Ca2+  Ca56  1  0.25438797  0.09338483  0.09608102  1
  Ca2+  Ca57  1  0.57532305  0.58915982  0.08239459  1
  Ca2+  Ca58  1  0.93007232  0.10380418  0.10548048  1
  Ca2+  Ca59  1  0.39648463  0.08604303  0.28919826  1
  Ca2+  Ca60  1  0.76246421  0.09910791  0.25828069  1
  Ca2+  Ca61  1  0.41176499  0.59720528  0.91925156  1
  Ca2+  Ca62  1  0.91808047  0.10367568  0.10446073  1
  Ca2+  Ca63  1  0.42990345  0.10980085  0.90254342  1
  Ca2+  Ca64  1  0.72492217  0.09859150  0.92846654  1
  Ca2+  Ca65  1  0.56199455  0.10260958  0.41842465  1
  Ca2+  Ca66  1  0.75415492  0.10136600  0.56537783  1
  Ca2+  Ca67  1  0.09512879  0.08276183  0.92764525  1
  Ca2+  Ca68  1  0.54819825  0.10699261  0.75478067  1
  Ca2+  Ca69  1  0.09337362  0.59154523  0.24712494  1
  Ca2+  Ca70  1  0.93104068  0.58681928  0.73756451  1
  Ca2+  Ca71  1  0.39428714  0.09210746  0.29405255  1
  Ca2+  Ca72  1  0.08925346  0.41002433  0.92080259  1
  Ca2+  Ca73  1  0.41493536  0.90308340  0.92665962  1
  Ca2+  Ca74  1  0.08639661  0.39989517  0.58510804  1
  Ca2+  Ca75  1  0.41498234  0.39696359  0.91770282  1
  Ca2+  Ca76  1  0.92045195  0.90489475  0.74734028  1
  Ca2+  Ca77  1  0.41794396  0.91575168  0.25814724  1
  Ca2+  Ca78  1  0.08137629  0.40055144  0.24386567  1
  Ca2+  Ca79  1  0.07476089  0.39967951  0.58478061  1
  Ca2+  Ca80  1  0.91671134  0.40529097  0.08828601  1
  Ca2+  Ca81  1  0.56699803  0.90645485  0.09004474  1
  Ca2+  Ca82  1  0.75591812  0.39746924  0.91648589  1
  Ca2+  Ca83  1  0.76025889  0.89950275  0.92147408  1
  Ca2+  Ca84  1  0.26120401  0.40216671  0.41587445  1
  Ca2+  Ca85  1  0.75813505  0.41444158  0.25013732  1
  Ca2+  Ca86  1  0.07909093  0.91380839  0.26903180  1
  Ca2+  Ca87  1  0.91375694  0.90108220  0.08856119  1
  Ca2+  Ca88  1  0.26837621  0.91270440  0.08435410  1
  Ca2+  Ca89  1  0.08150869  0.90093078  0.57575703  1
  Ca2+  Ca90  1  0.07858683  0.90867733  0.92351022  1
  Ca2+  Ca91  1  0.25385015  0.40626489  0.74659939  1
  Ca2+  Ca92  1  0.09123536  0.90878791  0.92325016  1
  Ca2+  Ca93  1  0.74726774  0.41432170  0.25012220  1
  Ca2+  Ca94  1  0.74987657  0.41451797  0.58516695  1
  Ca2+  Ca95  1  0.57869262  0.41842177  0.41462645  1
  Ca2+  Ca96  1  0.25521277  0.39987952  0.08683487  1
  Ca2+  Ca97  1  0.57351798  0.40078844  0.09193462  1
  Ca2+  Ca98  1  0.74986973  0.89837213  0.57986005  1
  Ca2+  Ca99  1  0.57355857  0.90524356  0.40911437  1
  Ca2+  Ca100  1  0.74738577  0.89948659  0.92126593  1
  Ca2+  Ca101  1  0.57884456  0.41177158  0.73566603  1
  Ca2+  Ca102  1  0.56994434  0.41454361  0.41104306  1
  Ca2+  Ca103  1  0.73918487  0.41469656  0.58551055  1
  Ca2+  Ca104  1  0.25416607  0.90994739  0.40932392  1
  Ca2+  Ca105  1  0.25292816  0.90557086  0.74988840  1
  Ca2+  Ca106  1  0.41413469  0.90036292  0.57379585  1
  Ca2+  Ca107  1  0.07664126  0.40816244  0.91888104  1
  Mn3.34+  Mn108  1  0.08072540  0.32808579  0.08757758  1
  Mn3.34+  Mn109  1  0.08400108  0.33066919  0.41368584  1
  Mn3.34+  Mn110  1  0.08167604  0.32866514  0.75260879  1
  Mn3.34+  Mn111  1  0.08499877  0.83367937  0.08939948  1
  Mn3.34+  Mn112  1  0.08594079  0.84024857  0.41926469  1
  Mn3.34+  Mn113  1  0.08359481  0.83110661  0.75036280  1
  Mn3.34+  Mn114  1  0.41754441  0.33077178  0.08831545  1
  Mn3.34+  Mn115  1  0.41516029  0.33175378  0.41840293  1
  Mn3.34+  Mn116  1  0.41711992  0.33599839  0.74387671  1
  Mn3.34+  Mn117  1  0.41631034  0.83581660  0.08930699  1
  Mn3.34+  Mn118  1  0.41572084  0.83677554  0.41742508  1
  Mn3.34+  Mn119  1  0.42024167  0.83596458  0.74857825  1
  Mn3.34+  Mn120  1  0.74948532  0.33281982  0.08488136  1
  Mn3.34+  Mn121  1  0.75191419  0.33393873  0.41641737  1
  Mn3.34+  Mn122  1  0.74930722  0.33555643  0.75174360  1
  Mn3.34+  Mn123  1  0.74862470  0.82801797  0.08664497  1
  Mn3.34+  Mn124  1  0.74717560  0.83479107  0.41657809  1
  Mn3.34+  Mn125  1  0.74584002  0.83634825  0.74831475  1
  Mn3.34+  Mn126  1  0.25132114  0.33124709  0.25320637  1
  Mn3.34+  Mn127  1  0.25605013  0.32979474  0.57928335  1
  Mn3.34+  Mn128  1  0.25328421  0.32908393  0.91539521  1
  Mn3.34+  Mn129  1  0.25152923  0.83517976  0.24896887  1
  Mn3.34+  Mn130  1  0.24949264  0.83347344  0.58047381  1
  Mn3.34+  Mn131  1  0.25140194  0.83243201  0.91676947  1
  Mn3.34+  Mn132  1  0.58067395  0.33336068  0.24685502  1
  Mn3.34+  Mn133  1  0.57937642  0.33674127  0.58071959  1
  Mn3.34+  Mn134  1  0.58057959  0.33086444  0.91467960  1
  Mn3.34+  Mn135  1  0.58289169  0.83420072  0.25110408  1
  Mn3.34+  Mn136  1  0.58198374  0.83065058  0.58087358  1
  Mn3.34+  Mn137  1  0.58067038  0.82435226  0.91444191  1
  Mn3.34+  Mn138  1  0.91720326  0.33676020  0.25425448  1
  Mn3.34+  Mn139  1  0.91387754  0.33392238  0.57819239  1
  Mn3.34+  Mn140  1  0.91611468  0.32626257  0.91574415  1
  Mn3.34+  Mn141  1  0.91481787  0.83395771  0.25506647  1
  Mn3.34+  Mn142  1  0.91419426  0.82930559  0.57872374  1
  Mn3.34+  Mn143  1  0.92007292  0.82482705  0.91396730  1
  Mn3.34+  Mn144  1  0.74236972  0.16838762  0.74870523  1
  Mn3.34+  Mn145  1  0.58423623  0.16941781  0.24560842  1
  Mn3.34+  Mn146  1  0.91224064  0.18069199  0.91691248  1
  Mn3.34+  Mn147  1  0.74616667  0.16727952  0.08608088  1
  Mn3.34+  Mn148  1  0.25352288  0.66684767  0.57618875  1
  Mn3.34+  Mn149  1  0.08224871  0.67034422  0.75318862  1
  Mn3.34+  Mn150  1  0.91960923  0.66953241  0.91325732  1
  Mn3.34+  Mn151  1  0.57738733  0.65952780  0.25232414  1
  Mn3.34+  Mn152  1  0.24295383  0.66239697  0.57472103  1
  Mn3.34+  Mn153  1  0.91795389  0.66551899  0.24561499  1
  Mn3.34+  Mn154  1  0.41299256  0.66924749  0.08519593  1
  Mn3.34+  Mn155  1  0.08739552  0.17642892  0.08447160  1
  Mn3.34+  Mn156  1  0.75539744  0.66591623  0.74922693  1
  Mn3.34+  Mn157  1  0.25063345  0.66698578  0.24969793  1
  Mn3.34+  Mn158  1  0.10328171  0.15099514  0.41136823  1
  Mn3.34+  Mn159  1  0.91896206  0.17176075  0.57705972  1
  Mn3.34+  Mn160  1  0.07651963  0.16594138  0.74773154  1
  Mn3.34+  Mn161  1  0.74871653  0.67374569  0.08150494  1
  Mn3.34+  Mn162  1  0.90465181  0.65939113  0.24427906  1
  Mn3.34+  Mn163  1  0.73938102  0.66327055  0.42608203  1
  Mn3.34+  Mn164  1  0.41913900  0.66660235  0.75086211  1
  Mn3.34+  Mn165  1  0.24881974  0.66768618  0.91535738  1
  Mn3.34+  Mn166  1  0.42843866  0.16605955  0.08418381  1
  Mn3.34+  Mn167  1  0.75614789  0.16203412  0.75022221  1
  Mn3.34+  Mn168  1  0.75035910  0.67012351  0.42567581  1
  Mn3.34+  Mn169  1  0.42361261  0.15586250  0.08944866  1
  Mn3.34+  Mn170  1  0.92273542  0.66659556  0.58093305  1
  Mn3.34+  Mn171  1  0.57517388  0.17220414  0.58190265  1
  Mn3.34+  Mn172  1  0.58786531  0.66423129  0.25396412  1
  Mn3.34+  Mn173  1  0.25270307  0.16789456  0.91103639  1
  Mn3.34+  Mn174  1  0.08560368  0.66668653  0.08258584  1
  Mn3.34+  Mn175  1  0.74499083  0.66113039  0.75102833  1
  Mn3.34+  Mn176  1  0.58049361  0.67426776  0.91434270  1
  Mn3.34+  Mn177  1  0.08733313  0.16524295  0.74186684  1
  Mn3.34+  Mn178  1  0.92105332  0.17509872  0.91455712  1
  Mn3.34+  Mn179  1  0.08464863  0.66853564  0.41536553  1
  Mn3.34+  Mn180  1  0.24172265  -0.00222502  0.26894136  1
  Mn3.34+  Mn181  1  0.91900353  0.50060516  0.58697760  1
  Mn3.34+  Mn182  1  0.58147774  -0.00522229  0.58854581  1
  Mn3.34+  Mn183  1  0.08179129  0.50064735  0.08164460  1
  Mn3.34+  Mn184  1  0.08069004  -0.00166597  0.08846159  1
  Mn3.34+  Mn185  1  0.57161736  -0.00366692  0.91363541  1
  Mn3.34+  Mn186  1  0.26272354  0.00235712  0.91900687  1
  Mn3.34+  Mn187  1  0.25586981  0.49832112  0.92145493  1
  Mn3.34+  Mn188  1  0.74922013  -0.00625542  0.40845604  1
  Mn3.34+  Mn189  1  0.92937505  0.00098311  0.57783819  1
  Mn3.34+  Mn190  1  0.91915136  -0.00401672  0.57592188  1
  Mn3.34+  Mn191  1  0.75145158  -0.00098418  0.08186139  1
  Mn3.34+  Mn192  1  0.58968801  0.49768403  0.90865492  1
  Mn3.34+  Mn193  1  0.41841859  0.49848307  0.40076117  1
  Mn3.34+  Mn194  1  0.25572765  0.01349458  0.57633250  1
  Mn3.34+  Mn195  1  0.08099690  0.49960307  0.74990388  1
  Mn3.34+  Mn196  1  0.57491162  0.50357042  0.90891823  1
  Mn3.34+  Mn197  1  0.25611545  0.49742897  0.58609056  1
  Mn3.34+  Mn198  1  0.24280004  0.00762050  0.57403511  1
  Mn3.34+  Mn199  1  0.25370729  0.49729668  0.24525664  1
  Mn3.34+  Mn200  1  0.91225973  0.00357767  0.90834598  1
  Mn3.34+  Mn201  1  0.58378487  0.00233826  0.92020725  1
  Mn3.34+  Mn202  1  0.08649305  0.00063518  0.74588913  1
  Mn3.34+  Mn203  1  0.74911684  0.49924068  0.74511306  1
  Mn3.34+  Mn204  1  0.41419546  0.49963882  0.08966647  1
  Mn3.34+  Mn205  1  0.56789551  0.00037564  0.58609633  1
  Mn3.34+  Mn206  1  0.74628903  0.50317788  0.40371454  1
  Mn3.34+  Mn207  1  0.91405444  0.49912106  0.91145423  1
  Mn3.34+  Mn208  1  0.91787385  -0.00699420  0.26587041  1
  Mn3.34+  Mn209  1  0.08301133  0.49729747  0.41234444  1
  Mn3.34+  Mn210  1  0.41268914  -0.00477878  0.75163096  1
  Mn3.34+  Mn211  1  0.75066941  0.00096270  0.74713841  1
  Mn3.34+  Mn212  1  0.42128349  0.50017457  0.74051571  1
  Mn3.34+  Mn213  1  0.58285739  0.00299938  0.25053908  1
  Mn3.34+  Mn214  1  0.09549478  0.50429255  0.41299475  1
  Mn3.34+  Mn215  1  0.75272210  0.50274187  0.08489195  1
  O2-  O216  1  0.00916171  0.17227330  -0.00515372  1
  O2-  O217  1  0.00578095  0.16815213  0.34189404  1
  O2-  O218  1  -0.00185053  0.17767244  0.66399882  1
  O2-  O219  1  -0.00194684  0.66183456  0.00044344  1
  O2-  O220  1  -0.00542247  0.65160385  0.33542038  1
  O2-  O221  1  0.00159743  0.67049246  0.67387066  1
  O2-  O222  1  0.33311921  0.15194199  0.00499450  1
  O2-  O223  1  0.33857947  0.16681005  0.32767156  1
  O2-  O224  1  0.34326665  0.17433615  0.66216066  1
  O2-  O225  1  0.33515751  0.66004678  -0.00176644  1
  O2-  O226  1  0.33052152  0.66530013  0.32422297  1
  O2-  O227  1  0.32788870  0.65010185  0.67280308  1
  O2-  O228  1  0.67206455  0.16693663  0.00465672  1
  O2-  O229  1  0.65924453  0.14940129  0.33042821  1
  O2-  O230  1  0.66427909  0.14746244  0.66306704  1
  O2-  O231  1  0.66258844  0.67715828  0.00139678  1
  O2-  O232  1  0.67512881  0.67067948  0.33239042  1
  O2-  O233  1  0.66498978  0.66345771  0.67262482  1
  O2-  O234  1  0.16597269  0.15473505  -0.00324909  1
  O2-  O235  1  0.16644299  0.15822526  0.33183971  1
  O2-  O236  1  0.17245447  0.17473625  0.67569894  1
  O2-  O237  1  0.16449797  0.65313618  -0.00400920  1
  O2-  O238  1  0.15492202  0.66807975  0.32286486  1
  O2-  O239  1  0.16920740  0.66046476  0.66715499  1
  O2-  O240  1  0.49300858  0.17553866  -0.00261416  1
  O2-  O241  1  0.50015985  0.16049953  0.32007744  1
  O2-  O242  1  0.50237060  0.17049016  0.66253840  1
  O2-  O243  1  0.50166627  0.66626861  0.00379175  1
  O2-  O244  1  0.49695731  0.65773397  0.33053654  1
  O2-  O245  1  0.49456202  0.65990638  0.67211989  1
  O2-  O246  1  0.83997082  0.15582496  0.00699945  1
  O2-  O247  1  0.83861530  0.15031611  0.33564273  1
  O2-  O248  1  0.82857098  0.15360334  0.66201816  1
  O2-  O249  1  0.83233393  0.67584647  -0.00471183  1
  O2-  O250  1  0.83394468  0.66370290  0.34505260  1
  O2-  O251  1  0.84057624  0.65069851  0.67190581  1
  O2-  O252  1  0.00482457  0.32058622  -0.00340080  1
  O2-  O253  1  0.00373214  0.34190095  0.33009496  1
  O2-  O254  1  0.00183582  0.33325914  0.66516838  1
  O2-  O255  1  0.00163127  0.83899705  -0.00133495  1
  O2-  O256  1  0.00865876  0.82754533  0.33368768  1
  O2-  O257  1  0.00088149  0.83460708  0.66794565  1
  O2-  O258  1  0.33112055  0.33714713  0.00165414  1
  O2-  O259  1  0.33574911  0.34150827  0.33288867  1
  O2-  O260  1  0.32731100  0.34197390  0.67091262  1
  O2-  O261  1  0.33574506  0.83788491  0.00264506  1
  O2-  O262  1  0.33348018  0.84414628  0.33134942  1
  O2-  O263  1  0.33046692  0.84903070  0.66745769  1
  O2-  O264  1  0.66585166  0.34365656  0.00116754  1
  O2-  O265  1  0.66761402  0.35238845  0.33613901  1
  O2-  O266  1  0.66753360  0.35112871  0.66245587  1
  O2-  O267  1  0.66867750  0.81978941  -0.00243213  1
  O2-  O268  1  0.66257842  0.82980674  0.33660259  1
  O2-  O269  1  0.66768449  0.83884240  0.65942006  1
  O2-  O270  1  0.16204242  0.34042899  -0.00060233  1
  O2-  O271  1  0.16740078  0.35025459  0.33471661  1
  O2-  O272  1  0.16384424  0.33922806  0.66856914  1
  O2-  O273  1  0.16598729  0.84647860  0.00044819  1
  O2-  O274  1  0.16637879  0.83973948  0.33277611  1
  O2-  O275  1  0.16525361  0.83880164  0.66716737  1
  O2-  O276  1  0.49755809  0.33463890  0.00028689  1
  O2-  O277  1  0.50608258  0.34369247  0.33777129  1
  O2-  O278  1  0.50569475  0.34083030  0.66962189  1
  O2-  O279  1  0.49863409  0.82293342  0.00211463  1
  O2-  O280  1  0.49566570  0.84443315  0.32932086  1
  O2-  O281  1  0.49654941  0.84222502  0.66046654  1
  O2-  O282  1  0.83720855  0.33944826  0.00381843  1
  O2-  O283  1  0.82629240  0.34758659  0.32886787  1
  O2-  O284  1  0.82975879  0.34865565  0.66272052  1
  O2-  O285  1  0.83332622  0.82452672  -0.00242746  1
  O2-  O286  1  0.82907201  0.81901597  0.33774606  1
  O2-  O287  1  0.83597016  0.84675600  0.66904482  1
  O2-  O288  1  -0.00213759  0.18156324  0.15493114  1
  O2-  O289  1  -0.00620795  0.17762310  0.49647146  1
  O2-  O290  1  -0.00052744  0.19386042  0.82765649  1
  O2-  O291  1  0.00124322  0.67724813  0.16254827  1
  O2-  O292  1  -0.00386810  0.68701818  0.48714392  1
  O2-  O293  1  0.00230727  0.69008079  0.83654403  1
  O2-  O294  1  0.33631303  0.18276305  0.15725076  1
  O2-  O295  1  0.33788182  0.16649744  0.49762404  1
  O2-  O296  1  0.32971060  0.17486274  0.83463377  1
  O2-  O297  1  0.32898906  0.68037071  0.16043888  1
  O2-  O298  1  0.34015679  0.67401790  0.50574999  1
  O2-  O299  1  0.33013624  0.67373162  0.83196386  1
  O2-  O300  1  0.67785525  0.17506377  0.17722434  1
  O2-  O301  1  0.66364147  0.16826950  0.50076364  1
  O2-  O302  1  0.66606881  0.17622589  0.82902614  1
  O2-  O303  1  0.66075439  0.67944610  0.16442111  1
  O2-  O304  1  0.66162485  0.68503029  0.49896823  1
  O2-  O305  1  0.66994081  0.68374573  0.83838260  1
  O2-  O306  1  0.17414636  0.17610386  0.15313576  1
  O2-  O307  1  0.16649202  0.17163022  0.48956479  1
  O2-  O308  1  0.15820704  0.18305343  0.83575647  1
  O2-  O309  1  0.16692129  0.67327132  0.16209632  1
  O2-  O310  1  0.16608301  0.69230054  0.49362421  1
  O2-  O311  1  0.17019354  0.68188752  0.82685250  1
  O2-  O312  1  0.50734968  0.18916794  0.16138616  1
  O2-  O313  1  0.50542386  0.17738970  0.49688574  1
  O2-  O314  1  0.49739470  0.17588046  0.83066661  1
  O2-  O315  1  0.50020700  0.68455183  0.15967773  1
  O2-  O316  1  0.50065372  0.67317603  0.50703357  1
  O2-  O317  1  0.49542599  0.68289812  0.83835414  1
  O2-  O318  1  0.83275802  0.16835426  0.16779983  1
  O2-  O319  1  0.83303163  0.16966961  0.50334988  1
  O2-  O320  1  0.82683868  0.18567703  0.83833150  1
  O2-  O321  1  0.83069686  0.68517425  0.15959516  1
  O2-  O322  1  0.83024951  0.68334385  0.50196488  1
  O2-  O323  1  0.83284664  0.68116808  0.83238998  1
  O2-  O324  1  -0.00551493  0.32524109  0.16503070  1
  O2-  O325  1  0.00575599  0.32517241  0.50712125  1
  O2-  O326  1  0.00231607  0.30960999  0.83609543  1
  O2-  O327  1  0.00053208  0.82228497  0.16478017  1
  O2-  O328  1  0.00574852  0.81865919  0.50098321  1
  O2-  O329  1  0.00290617  0.81362839  0.83391910  1
  O2-  O330  1  0.33142309  0.31880716  0.16444811  1
  O2-  O331  1  0.32902796  0.33264248  0.49390142  1
  O2-  O332  1  0.33346677  0.32951021  0.83411430  1
  O2-  O333  1  0.33279178  0.82034345  0.16432759  1
  O2-  O334  1  0.33225890  0.82700624  0.49940367  1
  O2-  O335  1  0.33144543  0.82513915  0.83377234  1
  O2-  O336  1  0.67141767  0.32502517  0.16927686  1
  O2-  O337  1  0.66783910  0.32857483  0.49736688  1
  O2-  O338  1  0.66616148  0.32707040  0.83417603  1
  O2-  O339  1  0.66234794  0.81919691  0.16247602  1
  O2-  O340  1  0.66499726  0.81662499  0.49820742  1
  O2-  O341  1  0.67430609  0.82204647  0.84279169  1
  O2-  O342  1  0.16407580  0.32113299  0.16546486  1
  O2-  O343  1  0.16040729  0.32732394  0.50697439  1
  O2-  O344  1  0.16401979  0.32082678  0.83643110  1
  O2-  O345  1  0.16873283  0.82784781  0.16525522  1
  O2-  O346  1  0.16434137  0.81863574  0.49973221  1
  O2-  O347  1  0.16349118  0.82136952  0.83554904  1
  O2-  O348  1  0.50749175  0.31485910  0.16050351  1
  O2-  O349  1  0.50933022  0.33230688  0.49052568  1
  O2-  O350  1  0.49708426  0.32862622  0.83345881  1
  O2-  O351  1  0.49958487  0.81930766  0.16506960  1
  O2-  O352  1  0.49942375  0.82736186  0.49778380  1
  O2-  O353  1  0.49806512  0.81664311  0.83651103  1
  O2-  O354  1  0.82710558  0.32836282  0.17123297  1
  O2-  O355  1  0.82487999  0.33450722  0.50623210  1
  O2-  O356  1  0.82948476  0.31458140  0.84112914  1
  O2-  O357  1  0.83654448  0.82032688  0.16017821  1
  O2-  O358  1  0.82459584  0.81687812  0.50402822  1
  O2-  O359  1  0.83357654  0.81874568  0.83804983  1
  O2-  O360  1  0.07550540  0.08300695  0.09237308  1
  O2-  O361  1  0.06677057  0.08004343  0.43387645  1
  O2-  O362  1  0.08287175  0.08110793  0.79175211  1
  O2-  O363  1  0.07897631  0.58207340  0.10671080  1
  O2-  O364  1  0.06867708  0.58214484  0.44850788  1
  O2-  O365  1  0.09187015  0.58087312  0.78174982  1
  O2-  O366  1  0.39502572  0.07957272  0.12634299  1
  O2-  O367  1  0.44169588  0.07435875  0.41666318  1
  O2-  O368  1  0.41158597  0.07224039  0.78111765  1
  O2-  O369  1  0.43337426  0.58096121  0.11450655  1
  O2-  O370  1  0.41129659  0.56710426  0.44013192  1
  O2-  O371  1  0.40697329  0.57935526  0.78140392  1
  O2-  O372  1  0.76382187  0.07966023  0.11207704  1
  O2-  O373  1  0.75203510  0.07106809  0.44263583  1
  O2-  O374  1  0.75000522  0.08208875  0.79008277  1
  O2-  O375  1  0.73005135  0.58572496  0.09045300  1
  O2-  O376  1  0.77274865  0.57817421  0.44651122  1
  O2-  O377  1  0.75251142  0.57846639  0.78937905  1
  O2-  O378  1  0.25966920  0.06974025  0.22434941  1
  O2-  O379  1  0.25762365  0.09091972  0.58532602  1
  O2-  O380  1  0.23492120  0.08268118  0.88645728  1
  O2-  O381  1  0.25219811  0.58030534  0.22002657  1
  O2-  O382  1  0.24983580  0.58031302  0.56293508  1
  O2-  O383  1  0.24761625  0.58028405  0.88569281  1
  O2-  O384  1  0.58278492  0.08243164  0.21905685  1
  O2-  O385  1  0.58749347  0.08034753  0.55238769  1
  O2-  O386  1  0.57885472  0.08022911  0.89150911  1
  O2-  O387  1  0.57769289  0.57845074  0.21783758  1
  O2-  O388  1  0.57724642  0.57652796  0.57403095  1
  O2-  O389  1  0.58678404  0.58550436  0.89520464  1
  O2-  O390  1  0.90504538  0.06975420  0.22424252  1
  O2-  O391  1  0.91223909  0.08324629  0.55538110  1
  O2-  O392  1  0.94355100  0.08784417  0.89653086  1
  O2-  O393  1  0.91852363  0.58021715  0.21496228  1
  O2-  O394  1  0.92273158  0.58213330  0.55070390  1
  O2-  O395  1  0.91560841  0.58128229  0.88205248  1
  O2-  O396  1  0.07367430  0.41895442  0.09982824  1
  O2-  O397  1  0.09056954  0.41898641  0.44908816  1
  O2-  O398  1  0.08689876  0.41939040  0.78481357  1
  O2-  O399  1  0.07658433  0.91621017  0.10268320  1
  O2-  O400  1  0.09480047  0.91783031  0.44017536  1
  O2-  O401  1  0.07667737  0.91999827  0.79055477  1
  O2-  O402  1  0.41402732  0.41853319  0.09329073  1
  O2-  O403  1  0.42229374  0.42620418  0.44361264  1
  O2-  O404  1  0.41715329  0.42234453  0.77629970  1
  O2-  O405  1  0.41956245  0.91587670  0.10671268  1
  O2-  O406  1  0.41799604  0.91872232  0.43804790  1
  O2-  O407  1  0.40644091  0.91817474  0.78823948  1
  O2-  O408  1  0.75413506  0.41983734  0.10659701  1
  O2-  O409  1  0.74581197  0.42635217  0.44930130  1
  O2-  O410  1  0.74719020  0.42159582  0.78235632  1
  O2-  O411  1  0.74508595  0.91609711  0.06908050  1
  O2-  O412  1  0.73139395  0.91915185  0.44571044  1
  O2-  O413  1  0.76342801  0.92061323  0.79016689  1
  O2-  O414  1  0.23766027  0.41789537  0.21884020  1
  O2-  O415  1  0.22753335  0.41806513  0.56170363  1
  O2-  O416  1  0.23565837  0.41620841  0.89539758  1
  O2-  O417  1  0.24961957  0.92392538  0.22080724  1
  O2-  O418  1  0.24619012  0.92713393  0.54822664  1
  O2-  O419  1  0.23845204  0.91921140  0.89410030  1
  O2-  O420  1  0.59903397  0.41572516  0.22282394  1
  O2-  O421  1  0.60226308  0.42144571  0.55163414  1
  O2-  O422  1  0.57469090  0.41684349  0.89590712  1
  O2-  O423  1  0.57758062  0.92077828  0.22480094  1
  O2-  O424  1  0.58652841  0.91672111  0.55021405  1
  O2-  O425  1  0.60161344  0.91538330  0.91256849  1
  O2-  O426  1  0.89964866  0.42069009  0.22057516  1
  O2-  O427  1  0.92996861  0.41850353  0.56305762  1
  O2-  O428  1  0.93711145  0.41557698  0.90608985  1
  O2-  O429  1  0.93166894  0.91916870  0.22358723  1
  O2-  O430  1  0.92457867  0.91346894  0.55631377  1
  O2-  O431  1  0.91334728  0.91693806  0.89267997  1
  O2-  O432  1  0.00809114  -0.00372253  -0.01627568  1
  O2-  O433  1  -0.00517344  0.00622359  0.33533540  1
  O2-  O434  1  -0.00189366  -0.01508860  0.66873746  1
  O2-  O435  1  0.00399300  0.50615039  -0.00963317  1
  O2-  O436  1  -0.00356329  0.51626975  0.33800673  1
  O2-  O437  1  0.00412415  0.49990259  0.66423067  1
  O2-  O438  1  0.31221430  0.00875937  0.01884497  1
  O2-  O439  1  0.33744469  -0.00685194  0.31897886  1
  O2-  O440  1  0.32896202  -0.00629411  0.66622994  1
  O2-  O441  1  0.33752838  0.51383072  0.00177632  1
  O2-  O442  1  0.33838098  0.49837365  0.32773693  1
  O2-  O443  1  0.31917963  0.50443409  0.69094230  1
  O2-  O444  1  0.67263599  0.01374158  -0.01205002  1
  O2-  O445  1  0.66109406  0.01570009  0.33474320  1
  O2-  O446  1  0.67204884  0.00817788  0.65682184  1
  O2-  O447  1  0.66617572  0.50326319  -0.00003140  1
  O2-  O448  1  0.66833285  0.47951116  0.33264588  1
  O2-  O449  1  0.66643400  0.49060657  0.67775328  1
  O2-  O450  1  0.15499263  0.00201147  -0.01677646  1
  O2-  O451  1  0.16401509  -0.01485234  0.33478239  1
  O2-  O452  1  0.16873427  -0.00477843  0.66088098  1
  O2-  O453  1  0.16188086  0.49765969  -0.00666758  1
  O2-  O454  1  0.16282485  0.50055310  0.31847061  1
  O2-  O455  1  0.17319471  0.50084125  0.68095405  1
  O2-  O456  1  0.48451246  -0.01317439  -0.01466092  1
  O2-  O457  1  0.49828129  0.00096993  0.31521920  1
  O2-  O458  1  0.49874391  0.00120196  0.67700265  1
  O2-  O459  1  0.50800648  0.50634275  0.00989753  1
  O2-  O460  1  0.50721589  0.49728016  0.34508354  1
  O2-  O461  1  0.50947172  0.50321050  0.67993742  1
  O2-  O462  1  0.83489231  0.00150241  -0.00021909  1
  O2-  O463  1  0.82941486  0.01568852  0.33126817  1
  O2-  O464  1  0.82960076  -0.00334715  0.65253553  1
  O2-  O465  1  0.83610339  0.51030759  0.00208099  1
  O2-  O466  1  0.83471481  0.50163902  0.34371632  1
  O2-  O467  1  0.82553628  0.49774879  0.65765568  1
  O2-  O468  1  0.91295217  0.74886824  0.60260198  1
  O2-  O469  1  0.41634440  0.25685846  0.74045695  1
  O2-  O470  1  0.57820148  0.74759062  0.26700336  1
  O2-  O471  1  0.57598379  0.75267589  0.59511045  1
  O2-  O472  1  0.41727713  0.25348930  0.41209632  1
  O2-  O473  1  0.90736761  0.25644430  0.26364174  1
  O2-  O474  1  0.75303646  0.25055384  0.06841439  1
  O2-  O475  1  0.24811843  0.24826087  0.94216067  1
  O2-  O476  1  0.91856043  0.74581637  0.26168406  1
  O2-  O477  1  0.25775825  0.74686452  0.60754672  1
  O2-  O478  1  0.59641276  0.25351625  0.59554304  1
  O2-  O479  1  0.40937833  0.75051653  0.73124616  1
  O2-  O480  1  0.75585096  0.75014103  0.72906389  1
  O2-  O481  1  0.08971295  0.75054160  0.06672838  1
  O2-  O482  1  0.24876263  0.74991977  0.93828025  1
  O2-  O483  1  0.41657950  0.75466628  0.40588122  1
  O2-  O484  1  0.24644722  0.75145403  0.26068915  1
  O2-  O485  1  0.89693205  0.25253576  0.59418480  1
  O2-  O486  1  0.75181250  0.24978675  0.72142773  1
  O2-  O487  1  0.59684614  0.25067235  0.27558802  1
  O2-  O488  1  0.25770424  0.25121525  0.58658665  1
  O2-  O489  1  0.75320552  0.25540922  0.40401121  1
  O2-  O490  1  0.08524192  0.25199337  0.40517146  1
  O2-  O491  1  0.24599886  0.25419634  0.26802069  1
  O2-  O492  1  0.58293093  0.25370501  0.92423689  1
