# generated using pymatgen
data_Ca108Mn108O277
_symmetry_space_group_name_H-M   'P 1'
_cell_length_a   16.03528114
_cell_length_b   22.31789446
_cell_length_c   16.39555526
_cell_angle_alpha   90.00550036
_cell_angle_beta   89.99821320
_cell_angle_gamma   89.99690682
_symmetry_Int_Tables_number   1
_chemical_formula_structural   Ca108Mn108O277
_chemical_formula_sum   'Ca108 Mn108 O277'
_cell_volume   5867.53818158
_cell_formula_units_Z   1
loop_
 _symmetry_equiv_pos_site_id
 _symmetry_equiv_pos_as_xyz
  1  'x, y, z'
loop_
 _atom_type_symbol
 _atom_type_oxidation_number
  Ca2+  2.0
  Mn3.34+  3.34
  O2-  -2.0
loop_
 _atom_site_type_symbol
 _atom_site_label
 _atom_site_symmetry_multiplicity
 _atom_site_fract_x
 _atom_site_fract_y
 _atom_site_fract_z
 _atom_site_occupancy
  Ca2+  Ca0  1  0.07874422  0.25041591  0.25480338  1
  Ca2+  Ca1  1  0.09687110  0.23525902  0.59676263  1
  Ca2+  Ca2  1  0.07343772  0.23213893  0.91209772  1
  Ca2+  Ca3  1  0.10035291  0.75721443  0.25336244  1
  Ca2+  Ca4  1  0.07151259  0.75316148  0.59109351  1
  Ca2+  Ca5  1  0.09140403  0.76828191  0.90769506  1
  Ca2+  Ca6  1  0.42117478  0.25112357  0.22378108  1
  Ca2+  Ca7  1  0.40293927  0.24322625  0.59387112  1
  Ca2+  Ca8  1  0.43646059  0.23881459  0.92885610  1
  Ca2+  Ca9  1  0.40764195  0.75763757  0.25472191  1
  Ca2+  Ca10  1  0.42583731  0.74090845  0.59776201  1
  Ca2+  Ca11  1  0.42873588  0.74909319  0.89442122  1
  Ca2+  Ca12  1  0.75456693  0.24928658  0.24825426  1
  Ca2+  Ca13  1  0.75858626  0.25320406  0.58644800  1
  Ca2+  Ca14  1  0.73971108  0.23264759  0.92077503  1
  Ca2+  Ca15  1  0.74011746  0.76015585  0.23986327  1
  Ca2+  Ca16  1  0.75085522  0.74551465  0.59721691  1
  Ca2+  Ca17  1  0.73269505  0.74548157  0.89775877  1
  Ca2+  Ca18  1  0.26495099  0.23601835  0.08246861  1
  Ca2+  Ca19  1  0.24093665  0.25029269  0.44907602  1
  Ca2+  Ca20  1  0.25073957  0.24941129  0.73945449  1
  Ca2+  Ca21  1  0.24911961  0.77164060  0.08400362  1
  Ca2+  Ca22  1  0.25314322  0.76128760  0.41837623  1
  Ca2+  Ca23  1  0.25868138  0.75328693  0.74917642  1
  Ca2+  Ca24  1  0.57983093  0.24601555  0.05891373  1
  Ca2+  Ca25  1  0.58809133  0.25650447  0.43443679  1
  Ca2+  Ca26  1  0.57429636  0.24592839  0.77146548  1
  Ca2+  Ca27  1  0.59017754  0.75341920  0.07772251  1
  Ca2+  Ca28  1  0.57061032  0.75665455  0.42343931  1
  Ca2+  Ca29  1  0.58436345  0.73964400  0.74807726  1
  Ca2+  Ca30  1  0.90762795  0.24471137  0.07945242  1
  Ca2+  Ca31  1  0.92105958  0.24830905  0.43280061  1
  Ca2+  Ca32  1  0.91848221  0.25036771  0.73989581  1
  Ca2+  Ca33  1  0.90708505  0.76898147  0.07840166  1
  Ca2+  Ca34  1  0.92620996  0.76044264  0.43329235  1
  Ca2+  Ca35  1  0.90442180  0.75606335  0.74138119  1
  Ca2+  Ca36  1  0.90978163  0.59643679  0.42363408  1
  Ca2+  Ca37  1  0.07203964  0.09362455  0.59832513  1
  Ca2+  Ca38  1  0.58756215  0.09175881  0.05200863  1
  Ca2+  Ca39  1  0.94521619  0.11133533  0.76986633  1
  Ca2+  Ca40  1  0.73594137  0.59987943  0.24985072  1
  Ca2+  Ca41  1  0.59720756  0.08829265  0.42421668  1
  Ca2+  Ca42  1  0.78153266  0.09117234  0.59214866  1
  Ca2+  Ca43  1  0.39899234  0.08383234  0.62092664  1
  Ca2+  Ca44  1  0.09410335  0.57656961  0.28285708  1
  Ca2+  Ca45  1  0.25497764  0.58043163  0.08800371  1
  Ca2+  Ca46  1  0.92264518  0.59777538  0.42474096  1
  Ca2+  Ca47  1  0.90648613  0.58163817  0.06427902  1
  Ca2+  Ca48  1  0.92292614  0.08969772  0.41804697  1
  Ca2+  Ca49  1  0.60985656  0.08902207  0.42394132  1
  Ca2+  Ca50  1  0.58188098  0.57038665  0.02665452  1
  Ca2+  Ca51  1  0.57998315  0.08862011  0.05724928  1
  Ca2+  Ca52  1  0.93303487  0.10512298  0.05343245  1
  Ca2+  Ca53  1  0.23151208  0.10923065  0.75382775  1
  Ca2+  Ca54  1  0.42780269  0.58961308  0.59431787  1
  Ca2+  Ca55  1  0.22122477  0.10969917  0.75504064  1
  Ca2+  Ca56  1  0.42094173  0.57551963  0.27296346  1
  Ca2+  Ca57  1  0.39521174  0.07712217  0.61742731  1
  Ca2+  Ca58  1  0.58138802  0.59226025  0.41683146  1
  Ca2+  Ca59  1  0.07654061  0.57744011  0.90439377  1
  Ca2+  Ca60  1  0.07329362  0.10712669  0.23270444  1
  Ca2+  Ca61  1  0.78205665  0.07119189  0.24381576  1
  Ca2+  Ca62  1  0.22842173  0.09926474  0.42412100  1
  Ca2+  Ca63  1  0.26687114  0.58138925  0.40999622  1
  Ca2+  Ca64  1  0.74537526  0.59295980  0.60372631  1
  Ca2+  Ca65  1  0.59381333  0.60187923  0.76035694  1
  Ca2+  Ca66  1  0.39447601  0.09446109  0.19511519  1
  Ca2+  Ca67  1  0.23260857  0.09764981  0.43346058  1
  Ca2+  Ca68  1  0.56897253  0.59411508  0.41848041  1
  Ca2+  Ca69  1  0.41876553  0.09749470  0.92987474  1
  Ca2+  Ca70  1  0.90207875  0.59874165  0.74717401  1
  Ca2+  Ca71  1  0.10492276  0.57534760  0.28404536  1
  Ca2+  Ca72  1  0.45254098  0.41118981  0.92688284  1
  Ca2+  Ca73  1  0.39965556  0.90345631  0.58583476  1
  Ca2+  Ca74  1  0.92638310  0.92165924  0.72321286  1
  Ca2+  Ca75  1  0.92338137  0.40033381  0.75945555  1
  Ca2+  Ca76  1  0.07930125  0.39074455  0.92247168  1
  Ca2+  Ca77  1  0.08337805  0.40002145  0.24519796  1
  Ca2+  Ca78  1  0.24124917  0.42304230  0.40831237  1
  Ca2+  Ca79  1  0.07743324  0.91186438  0.25622419  1
  Ca2+  Ca80  1  0.72398656  0.41167172  0.91702245  1
  Ca2+  Ca81  1  0.56695337  0.90468760  0.75438994  1
  Ca2+  Ca82  1  0.41143097  0.90335739  0.58679417  1
  Ca2+  Ca83  1  0.57536845  0.91637536  0.08250372  1
  Ca2+  Ca84  1  0.24732854  0.39229672  0.08296379  1
  Ca2+  Ca85  1  0.06469643  0.91154380  0.25690888  1
  Ca2+  Ca86  1  0.91983740  0.39719666  0.41637207  1
  Ca2+  Ca87  1  0.41345006  0.41415898  0.25317835  1
  Ca2+  Ca88  1  0.42148646  0.90272577  0.24023322  1
  Ca2+  Ca89  1  0.92294479  0.39453029  0.07625109  1
  Ca2+  Ca90  1  0.91431876  0.92113049  0.42000606  1
  Ca2+  Ca91  1  0.22972450  0.42020182  0.41192219  1
  Ca2+  Ca92  1  0.74920882  0.39280616  0.24868618  1
  Ca2+  Ca93  1  0.41420761  0.91622248  0.92082082  1
  Ca2+  Ca94  1  0.23640800  0.40330537  0.75133660  1
  Ca2+  Ca95  1  0.74671881  0.91777883  0.94045072  1
  Ca2+  Ca96  1  0.57662085  0.90723192  0.75162987  1
  Ca2+  Ca97  1  0.06813623  0.91118788  0.58412421  1
  Ca2+  Ca98  1  0.58748784  0.41284053  0.41570190  1
  Ca2+  Ca99  1  0.41086786  0.41181002  0.57840952  1
  Ca2+  Ca100  1  0.89093351  0.92644569  0.09789847  1
  Ca2+  Ca101  1  0.59781243  0.41004011  0.41846221  1
  Ca2+  Ca102  1  0.08118809  0.40370186  0.59319555  1
  Ca2+  Ca103  1  0.42457212  0.41438267  0.25199103  1
  Ca2+  Ca104  1  0.75633967  0.91499422  0.93717572  1
  Ca2+  Ca105  1  0.27729642  0.92300023  0.07604337  1
  Ca2+  Ca106  1  0.24205887  0.91147740  0.74925705  1
  Ca2+  Ca107  1  0.42369324  0.41198903  0.57800820  1
  Mn3.34+  Mn108  1  0.08479448  0.31944034  0.08328756  1
  Mn3.34+  Mn109  1  0.08271729  0.33482193  0.42038928  1
  Mn3.34+  Mn110  1  0.08276943  0.33256059  0.75847246  1
  Mn3.34+  Mn111  1  0.08128368  0.83519843  0.08117247  1
  Mn3.34+  Mn112  1  0.08409622  0.83425149  0.42273781  1
  Mn3.34+  Mn113  1  0.08214390  0.83373270  0.74996543  1
  Mn3.34+  Mn114  1  0.42050468  0.33377841  0.07868702  1
  Mn3.34+  Mn115  1  0.41497942  0.33741661  0.41710896  1
  Mn3.34+  Mn116  1  0.41728635  0.33278779  0.75810983  1
  Mn3.34+  Mn117  1  0.41889688  0.83526347  0.08304213  1
  Mn3.34+  Mn118  1  0.41528725  0.83158459  0.41782573  1
  Mn3.34+  Mn119  1  0.41203503  0.83380695  0.75535879  1
  Mn3.34+  Mn120  1  0.74756803  0.32911100  0.08083600  1
  Mn3.34+  Mn121  1  0.75193893  0.33061547  0.41817741  1
  Mn3.34+  Mn122  1  0.74749012  0.33970313  0.75313521  1
  Mn3.34+  Mn123  1  0.74610276  0.83747683  0.08977725  1
  Mn3.34+  Mn124  1  0.74669333  0.83129267  0.41761267  1
  Mn3.34+  Mn125  1  0.75002223  0.83502639  0.75169625  1
  Mn3.34+  Mn126  1  0.24873128  0.32707108  0.24823033  1
  Mn3.34+  Mn127  1  0.24909864  0.33638901  0.58552294  1
  Mn3.34+  Mn128  1  0.25252732  0.32511686  0.91312252  1
  Mn3.34+  Mn129  1  0.25044503  0.84024102  0.25283780  1
  Mn3.34+  Mn130  1  0.24207290  0.83132493  0.58302290  1
  Mn3.34+  Mn131  1  0.24883425  0.83982694  0.91805291  1
  Mn3.34+  Mn132  1  0.58551666  0.33207453  0.24453169  1
  Mn3.34+  Mn133  1  0.58769187  0.33368662  0.59595774  1
  Mn3.34+  Mn134  1  0.58739730  0.33450375  0.91359358  1
  Mn3.34+  Mn135  1  0.58689217  0.83935282  0.25442044  1
  Mn3.34+  Mn136  1  0.59030114  0.83020171  0.57738579  1
  Mn3.34+  Mn137  1  0.58138171  0.83211263  0.91871052  1
  Mn3.34+  Mn138  1  0.91866152  0.32723785  0.24678062  1
  Mn3.34+  Mn139  1  0.91489484  0.33333077  0.58528705  1
  Mn3.34+  Mn140  1  0.91134293  0.32545382  0.91322629  1
  Mn3.34+  Mn141  1  0.90419430  0.84013456  0.25576159  1
  Mn3.34+  Mn142  1  0.90893460  0.84107442  0.58100317  1
  Mn3.34+  Mn143  1  0.92125067  0.84326120  0.90914088  1
  Mn3.34+  Mn144  1  0.24692115  0.66553939  0.91222793  1
  Mn3.34+  Mn145  1  0.57829189  0.16627659  0.24748893  1
  Mn3.34+  Mn146  1  0.75402274  0.17019915  0.75448827  1
  Mn3.34+  Mn147  1  0.25112469  0.66241952  0.58780271  1
  Mn3.34+  Mn148  1  0.58307362  0.66313723  0.90859028  1
  Mn3.34+  Mn149  1  0.25448561  0.66927504  0.25503992  1
  Mn3.34+  Mn150  1  0.74213007  0.67203777  0.07942475  1
  Mn3.34+  Mn151  1  0.90772946  0.68629892  0.24791725  1
  Mn3.34+  Mn152  1  0.74790996  0.67397946  0.41998896  1
  Mn3.34+  Mn153  1  0.41344812  0.66327862  0.08452280  1
  Mn3.34+  Mn154  1  0.24265756  0.65600745  0.58735764  1
  Mn3.34+  Mn155  1  0.91370229  0.16076127  0.24549660  1
  Mn3.34+  Mn156  1  0.41820907  0.17067520  0.41673473  1
  Mn3.34+  Mn157  1  0.75170929  0.16308209  0.08414632  1
  Mn3.34+  Mn158  1  0.75645471  0.16800656  0.41863660  1
  Mn3.34+  Mn159  1  0.90826628  0.66635134  0.91305136  1
  Mn3.34+  Mn160  1  0.41724644  0.16412798  0.40811255  1
  Mn3.34+  Mn161  1  0.91518794  0.67227094  0.58644982  1
  Mn3.34+  Mn162  1  0.07686446  0.16993742  0.41824165  1
  Mn3.34+  Mn163  1  0.92053469  0.67314037  0.91596360  1
  Mn3.34+  Mn164  1  0.92082260  0.16670112  0.58474198  1
  Mn3.34+  Mn165  1  0.59274452  0.16123999  0.24426326  1
  Mn3.34+  Mn166  1  0.24221116  0.16471303  0.92438758  1
  Mn3.34+  Mn167  1  0.07826965  0.66342840  0.74905219  1
  Mn3.34+  Mn168  1  0.91522798  0.67990953  0.24507959  1
  Mn3.34+  Mn169  1  0.24256419  0.16534629  0.24583401  1
  Mn3.34+  Mn170  1  0.41195836  0.16628410  0.75687168  1
  Mn3.34+  Mn171  1  0.09410561  0.66492734  0.08437119  1
  Mn3.34+  Mn172  1  0.58108573  0.67030511  0.24595210  1
  Mn3.34+  Mn173  1  0.08538227  0.66837886  0.42240903  1
  Mn3.34+  Mn174  1  0.58530841  0.66729475  0.58545456  1
  Mn3.34+  Mn175  1  0.08254966  0.66072690  0.08599758  1
  Mn3.34+  Mn176  1  0.58776494  0.16947810  0.59205037  1
  Mn3.34+  Mn177  1  0.42217669  0.66945785  0.08238427  1
  Mn3.34+  Mn178  1  0.25729966  0.66072146  0.90960255  1
  Mn3.34+  Mn179  1  0.41365874  0.66688401  0.41781394  1
  Mn3.34+  Mn180  1  0.40851686  -0.00697283  0.40076366  1
  Mn3.34+  Mn181  1  0.08393818  -0.00050206  0.41554767  1
  Mn3.34+  Mn182  1  0.42130110  -0.00021231  0.40302613  1
  Mn3.34+  Mn183  1  0.91682485  0.49762075  0.91471215  1
  Mn3.34+  Mn184  1  0.59427463  -0.00387935  0.58052393  1
  Mn3.34+  Mn185  1  0.08578555  0.00736675  0.06840473  1
  Mn3.34+  Mn186  1  0.09434054  0.00134609  0.07149224  1
  Mn3.34+  Mn187  1  0.26159738  0.50147168  0.91667421  1
  Mn3.34+  Mn188  1  0.60438609  -0.00952998  0.58096022  1
  Mn3.34+  Mn189  1  0.74860426  0.50189283  0.75448983  1
  Mn3.34+  Mn190  1  0.91505284  0.50532824  0.23544520  1
  Mn3.34+  Mn191  1  0.59412189  0.50090420  0.24779484  1
  Mn3.34+  Mn192  1  0.59742392  -0.00119576  0.25147090  1
  Mn3.34+  Mn193  1  0.73673227  0.49247929  0.08036526  1
  Mn3.34+  Mn194  1  0.75800682  -0.00308446  0.41139454  1
  Mn3.34+  Mn195  1  0.91929994  0.49764016  0.59656508  1
  Mn3.34+  Mn196  1  0.90092940  0.49906958  0.23826076  1
  Mn3.34+  Mn197  1  0.25852315  0.00249488  0.91914529  1
  Mn3.34+  Mn198  1  0.74562795  0.49910328  0.08180259  1
  Mn3.34+  Mn199  1  0.42197217  0.49992414  0.07880397  1
  Mn3.34+  Mn200  1  0.25062512  0.49675543  0.24016341  1
  Mn3.34+  Mn201  1  0.58056873  -0.00089382  0.92134758  1
  Mn3.34+  Mn202  1  0.24243315  0.00574046  0.24986963  1
  Mn3.34+  Mn203  1  0.24776528  0.49572984  0.91644940  1
  Mn3.34+  Mn204  1  0.08460302  -0.00171947  0.74772604  1
  Mn3.34+  Mn205  1  0.75229423  0.00880346  0.75872839  1
  Mn3.34+  Mn206  1  0.76436287  0.00186709  0.75909293  1
  Mn3.34+  Mn207  1  0.59837497  0.49752987  0.60047292  1
  Mn3.34+  Mn208  1  0.91437021  0.00039849  0.92497725  1
  Mn3.34+  Mn209  1  0.41683162  0.50360834  0.75791542  1
  Mn3.34+  Mn210  1  0.23178628  0.50449583  0.60758620  1
  Mn3.34+  Mn211  1  0.42777417  0.49577777  0.75771433  1
  Mn3.34+  Mn212  1  0.75655154  0.50168931  0.42712944  1
  Mn3.34+  Mn213  1  0.08064118  0.49716243  0.08151226  1
  Mn3.34+  Mn214  1  0.23614398  -0.00859840  0.58012786  1
  Mn3.34+  Mn215  1  0.93064761  0.50182007  0.59895305  1
  O2-  O216  1  -0.01296856  0.18821314  0.00123669  1
  O2-  O217  1  -0.00697874  0.16134116  0.33593489  1
  O2-  O218  1  0.00049613  0.16604006  0.66248679  1
  O2-  O219  1  -0.00094061  0.64812291  -0.00362860  1
  O2-  O220  1  0.00098203  0.65549622  0.32152684  1
  O2-  O221  1  -0.00799855  0.66335630  0.67042483  1
  O2-  O222  1  0.33303157  0.17482246  -0.01550396  1
  O2-  O223  1  0.31922370  0.15154107  0.34019422  1
  O2-  O224  1  0.32819144  0.16104829  0.66968362  1
  O2-  O225  1  0.33133371  0.63841436  -0.00081053  1
  O2-  O226  1  0.33868201  0.64627957  0.33031674  1
  O2-  O227  1  0.33795004  0.65357404  0.65680797  1
  O2-  O228  1  0.66712455  0.16173263  0.00927730  1
  O2-  O229  1  0.66859207  0.14762276  0.33003750  1
  O2-  O230  1  0.68205237  0.17454736  0.65590488  1
  O2-  O231  1  0.65824453  0.65751711  0.00866940  1
  O2-  O232  1  0.66424867  0.66069167  0.33588708  1
  O2-  O233  1  0.66589343  0.66039698  0.65981071  1
  O2-  O234  1  0.17263607  0.19105531  -0.00313514  1
  O2-  O235  1  0.16009696  0.15255342  0.33362654  1
  O2-  O236  1  0.15796531  0.16227141  0.66742707  1
  O2-  O237  1  0.17156072  0.63485141  -0.00645955  1
  O2-  O238  1  0.17222895  0.64946665  0.34388707  1
  O2-  O239  1  0.16562853  0.64943773  0.67065739  1
  O2-  O240  1  0.50254405  0.15991528  0.00312385  1
  O2-  O241  1  0.50182809  0.13473481  0.33058421  1
  O2-  O242  1  0.49171232  0.14902770  0.66212678  1
  O2-  O243  1  0.49985255  0.65474875  0.00327340  1
  O2-  O244  1  0.50228651  0.65910165  0.33328075  1
  O2-  O245  1  0.50630970  0.65582850  0.65835285  1
  O2-  O246  1  0.83236597  0.16363635  0.00949755  1
  O2-  O247  1  0.83400875  0.15311882  0.33376954  1
  O2-  O248  1  0.83816098  0.16559533  0.66611009  1
  O2-  O249  1  0.83607117  0.65834534  0.00216185  1
  O2-  O250  1  0.83137558  0.65585172  0.33341074  1
  O2-  O251  1  0.83213471  0.66040909  0.65739409  1
  O2-  O252  1  -0.00217466  0.32199173  0.00085295  1
  O2-  O253  1  0.00264494  0.33998689  0.33088053  1
  O2-  O254  1  0.00190067  0.33763950  0.67169651  1
  O2-  O255  1  -0.00223260  0.82420760  -0.00588422  1
  O2-  O256  1  -0.00956900  0.84667536  0.34047836  1
  O2-  O257  1  -0.00018026  0.84448804  0.66587575  1
  O2-  O258  1  0.33789316  0.34553094  -0.00516042  1
  O2-  O259  1  0.33160776  0.35352199  0.33264657  1
  O2-  O260  1  0.33294374  0.35545680  0.66547382  1
  O2-  O261  1  0.33374569  0.85044575  0.00088915  1
  O2-  O262  1  0.33607501  0.85182262  0.33197822  1
  O2-  O263  1  0.32577328  0.84899465  0.67420736  1
  O2-  O264  1  0.66733822  0.34359810  0.00280512  1
  O2-  O265  1  0.66119422  0.34311384  0.33680366  1
  O2-  O266  1  0.66994303  0.31289199  0.67267889  1
  O2-  O267  1  0.66409934  0.84993424  0.00014096  1
  O2-  O268  1  0.66334097  0.80569914  0.33547829  1
  O2-  O269  1  0.66066858  0.85346992  0.67192756  1
  O2-  O270  1  0.17020742  0.32714694  0.00132676  1
  O2-  O271  1  0.17055611  0.34268642  0.33539183  1
  O2-  O272  1  0.16345190  0.33468656  0.66970197  1
  O2-  O273  1  0.17297884  0.85354505  0.00891882  1
  O2-  O274  1  0.15759426  0.85044393  0.33115599  1
  O2-  O275  1  0.16038648  0.85350725  0.66269875  1
  O2-  O276  1  0.50671846  0.34125554  0.00526611  1
  O2-  O277  1  0.50070881  0.35942334  0.33668106  1
  O2-  O278  1  0.49374653  0.35392305  0.66802199  1
  O2-  O279  1  0.50096315  0.84875723  -0.00060666  1
  O2-  O280  1  0.49931652  0.82975004  0.32963864  1
  O2-  O281  1  0.49634717  0.85053990  0.66340598  1
  O2-  O282  1  0.83256060  0.34272331  -0.00111520  1
  O2-  O283  1  0.83543733  0.33585161  0.33058015  1
  O2-  O284  1  0.83450431  0.33545544  0.67120434  1
  O2-  O285  1  0.84169775  0.85115181  0.00352371  1
  O2-  O286  1  0.84042311  0.78871645  0.32892461  1
  O2-  O287  1  0.83739002  0.84782317  0.67615037  1
  O2-  O288  1  -0.00927282  0.19170665  0.18135443  1
  O2-  O289  1  0.00238605  0.18167705  0.50136156  1
  O2-  O290  1  -0.01253881  0.19185535  0.82603909  1
  O2-  O291  1  -0.00491374  0.69381527  0.16033878  1
  O2-  O292  1  -0.00776379  0.67790307  0.49166106  1
  O2-  O293  1  -0.00146774  0.69463513  0.83924682  1
  O2-  O294  1  0.32919616  0.18425874  0.18244117  1
  O2-  O295  1  0.33342257  0.17657950  0.49705646  1
  O2-  O296  1  0.32236632  0.18052599  0.82676944  1
  O2-  O297  1  0.32897152  0.67989600  0.15892317  1
  O2-  O298  1  0.32627187  0.67532635  0.49667878  1
  O2-  O299  1  0.32988210  0.68734123  0.83397678  1
  O2-  O300  1  0.66414314  0.19324606  0.16795136  1
  O2-  O301  1  0.66200459  0.17644857  0.48961384  1
  O2-  O302  1  0.67259843  0.18769659  0.81781049  1
  O2-  O303  1  0.66677389  0.68814927  0.17324344  1
  O2-  O304  1  0.65905938  0.67894878  0.49114842  1
  O2-  O305  1  0.66074249  0.67653712  0.83399177  1
  O2-  O306  1  0.16474627  0.19155090  0.18133733  1
  O2-  O307  1  0.16381470  0.17291067  0.49238094  1
  O2-  O308  1  0.17532215  0.18469124  0.83466067  1
  O2-  O309  1  0.16505861  0.67964736  0.17911055  1
  O2-  O310  1  0.16751650  0.67402491  0.50676022  1
  O2-  O311  1  0.15698093  0.67876141  0.84079723  1
  O2-  O312  1  0.49776733  0.17564584  0.17099697  1
  O2-  O313  1  0.51048565  0.16294872  0.49128779  1
  O2-  O314  1  0.48605309  0.16968465  0.83542678  1
  O2-  O315  1  0.49619979  0.69261196  0.17067430  1
  O2-  O316  1  0.49882553  0.67809429  0.49609221  1
  O2-  O317  1  0.50691227  0.68076292  0.83492305  1
  O2-  O318  1  0.82905289  0.18131238  0.17566728  1
  O2-  O319  1  0.83338912  0.17944878  0.50071799  1
  O2-  O320  1  0.83488071  0.19064790  0.82170269  1
  O2-  O321  1  0.82618971  0.69203561  0.16384884  1
  O2-  O322  1  0.83730085  0.68672479  0.49261081  1
  O2-  O323  1  0.83807679  0.69006800  0.83300182  1
  O2-  O324  1  0.00119203  0.31407592  0.16669740  1
  O2-  O325  1  0.00111810  0.32548277  0.49807565  1
  O2-  O326  1  -0.00070576  0.31163453  0.83345556  1
  O2-  O327  1  0.00073990  0.81586289  0.17208143  1
  O2-  O328  1  0.00454327  0.82262870  0.50637721  1
  O2-  O329  1  -0.00577829  0.81792675  0.82547769  1
  O2-  O330  1  0.33132610  0.32155509  0.16770225  1
  O2-  O331  1  0.33825458  0.32428162  0.50272953  1
  O2-  O332  1  0.32565676  0.31323285  0.82518708  1
  O2-  O333  1  0.33353859  0.82580033  0.16855493  1
  O2-  O334  1  0.33817200  0.81975717  0.51573585  1
  O2-  O335  1  0.33742412  0.82090222  0.84004104  1
  O2-  O336  1  0.67502051  0.31846205  0.17375103  1
  O2-  O337  1  0.66249307  0.33140433  0.49623312  1
  O2-  O338  1  0.67308337  0.32006760  0.83609652  1
  O2-  O339  1  0.65931217  0.82157203  0.16371264  1
  O2-  O340  1  0.67068764  0.80643001  0.50218751  1
  O2-  O341  1  0.66159784  0.82796539  0.83399450  1
  O2-  O342  1  0.16599119  0.31068620  0.16925702  1
  O2-  O343  1  0.17059708  0.33130812  0.49924163  1
  O2-  O344  1  0.16414421  0.30768098  0.83384522  1
  O2-  O345  1  0.16116894  0.82742371  0.17475038  1
  O2-  O346  1  0.16431103  0.81403278  0.50283338  1
  O2-  O347  1  0.17494055  0.82481973  0.82572311  1
  O2-  O348  1  0.48968201  0.33357281  0.17925356  1
  O2-  O349  1  0.50014371  0.33324319  0.49318101  1
  O2-  O350  1  0.49215963  0.32072344  0.84190308  1
  O2-  O351  1  0.49603505  0.81418257  0.16524073  1
  O2-  O352  1  0.49390209  0.81758792  0.50873258  1
  O2-  O353  1  0.50726299  0.82535018  0.82648997  1
  O2-  O354  1  0.83601423  0.31443162  0.16739835  1
  O2-  O355  1  0.83644885  0.32152705  0.49318225  1
  O2-  O356  1  0.83457035  0.31344665  0.83044465  1
  O2-  O357  1  0.83090410  0.82266405  0.16795502  1
  O2-  O358  1  0.83417142  0.82159244  0.49577723  1
  O2-  O359  1  0.82483347  0.82022633  0.84504796  1
  O2-  O360  1  0.06717778  0.08378802  0.10373141  1
  O2-  O361  1  0.07941594  0.08112956  0.44790559  1
  O2-  O362  1  0.09102235  0.07297539  0.78335656  1
  O2-  O363  1  0.07866732  0.57817914  0.13926965  1
  O2-  O364  1  0.06033485  0.58223023  0.42032785  1
  O2-  O365  1  0.05283828  0.58765745  0.77597499  1
  O2-  O366  1  0.46534047  0.06098084  0.09940919  1
  O2-  O367  1  0.40642840  0.06955911  0.46906522  1
  O2-  O368  1  0.37838888  0.08220930  0.75810870  1
  O2-  O369  1  0.41975390  0.58063556  0.12435376  1
  O2-  O370  1  0.43235155  0.58169688  0.43545353  1
  O2-  O371  1  0.44093892  0.58036467  0.76233879  1
  O2-  O372  1  0.73172737  0.08507981  0.11444820  1
  O2-  O373  1  0.74430729  0.07596646  0.45868384  1
  O2-  O374  1  0.75986352  0.08844603  0.77601088  1
  O2-  O375  1  0.75348068  0.58179198  0.11555240  1
  O2-  O376  1  0.76971791  0.58330607  0.45855656  1
  O2-  O377  1  0.76498285  0.57068007  0.79615074  1
  O2-  O378  1  0.24064009  0.08503761  0.21353714  1
  O2-  O379  1  0.25803878  0.07204140  0.55322200  1
  O2-  O380  1  0.24848387  0.08283756  0.89241128  1
  O2-  O381  1  0.24211090  0.58025575  0.22488543  1
  O2-  O382  1  0.26715136  0.57233300  0.54546068  1
  O2-  O383  1  0.25063294  0.57756776  0.86559188  1
  O2-  O384  1  0.59231881  0.08177093  0.20555714  1
  O2-  O385  1  0.60908353  0.07900793  0.56225968  1
  O2-  O386  1  0.57246067  0.07368805  0.90407134  1
  O2-  O387  1  0.58910667  0.58207030  0.22364689  1
  O2-  O388  1  0.58808429  0.57901958  0.54914126  1
  O2-  O389  1  0.57961681  0.58435730  0.89509678  1
  O2-  O390  1  0.92153074  0.08441072  0.21238495  1
  O2-  O391  1  0.92143670  0.08694159  0.55752402  1
  O2-  O392  1  0.92136279  0.07245404  0.89443465  1
  O2-  O393  1  0.90188042  0.58673604  0.20760371  1
  O2-  O394  1  0.91360564  0.58219102  0.55619545  1
  O2-  O395  1  0.92234239  0.58023245  0.88509300  1
  O2-  O396  1  0.08271153  0.41260649  0.10420391  1
  O2-  O397  1  0.09286062  0.41823748  0.43710969  1
  O2-  O398  1  0.08530412  0.40801285  0.78936557  1
  O2-  O399  1  0.07027608  0.92613782  0.12228448  1
  O2-  O400  1  0.07505275  0.91968486  0.44471167  1
  O2-  O401  1  0.07802384  0.91978015  0.77632798  1
  O2-  O402  1  0.40193272  0.42211803  0.11624849  1
  O2-  O403  1  0.40898697  0.42192837  0.44373516  1
  O2-  O404  1  0.39929745  0.42073729  0.79628401  1
  O2-  O405  1  0.41878256  0.91492505  0.10746827  1
  O2-  O406  1  0.41845709  0.91854864  0.45189162  1
  O2-  O407  1  0.43242499  0.92048955  0.77507925  1
  O2-  O408  1  0.76779275  0.41535637  0.11733635  1
  O2-  O409  1  0.74271314  0.41756483  0.42066432  1
  O2-  O410  1  0.77701863  0.42735885  0.78879258  1
  O2-  O411  1  0.74724514  0.91804449  0.09578756  1
  O2-  O412  1  0.76748992  0.91657192  0.41802721  1
  O2-  O413  1  0.74015734  0.92372632  0.79674730  1
  O2-  O414  1  0.23745418  0.41650087  0.21766457  1
  O2-  O415  1  0.26411052  0.42950240  0.54314257  1
  O2-  O416  1  0.23403996  0.41625722  0.88941888  1
  O2-  O417  1  0.23469525  0.92506990  0.21725563  1
  O2-  O418  1  0.25195383  0.91208807  0.55060816  1
  O2-  O419  1  0.26443483  0.92436783  0.88193453  1
  O2-  O420  1  0.59964052  0.41940927  0.22697574  1
  O2-  O421  1  0.56527697  0.42454220  0.54679663  1
  O2-  O422  1  0.58625552  0.41363083  0.88736888  1
  O2-  O423  1  0.56236657  0.92045834  0.22068130  1
  O2-  O424  1  0.58294514  0.91278285  0.54471336  1
  O2-  O425  1  0.58962413  0.92109057  0.88461858  1
  O2-  O426  1  0.91780237  0.41757020  0.21903062  1
  O2-  O427  1  0.92139160  0.42042293  0.54880223  1
  O2-  O428  1  0.93644738  0.41629518  0.89969402  1
  O2-  O429  1  0.93015608  0.91906622  0.22675894  1
  O2-  O430  1  0.92536989  0.91879457  0.55809965  1
  O2-  O431  1  0.89290559  0.93140408  0.86765889  1
  O2-  O432  1  -0.01531548  -0.00934849  0.01367544  1
  O2-  O433  1  0.01752408  -0.00654489  0.32745174  1
  O2-  O434  1  0.01619124  0.00013655  0.66470386  1
  O2-  O435  1  -0.00132334  0.51430226  -0.00266072  1
  O2-  O436  1  0.00880145  0.50009047  0.30648266  1
  O2-  O437  1  -0.00835150  0.47416473  0.68545599  1
  O2-  O438  1  0.34891785  0.00134750  -0.02519133  1
  O2-  O439  1  0.35427100  0.00509726  0.29877891  1
  O2-  O440  1  0.34410323  -0.01191233  0.62831865  1
  O2-  O441  1  0.32006625  0.50144356  0.01936302  1
  O2-  O442  1  0.33775394  0.48840552  0.31792462  1
  O2-  O443  1  0.33124809  0.49374335  0.67173662  1
  O2-  O444  1  0.66468910  -0.00832417  -0.00881949  1
  O2-  O445  1  0.67961482  0.02418079  0.33394228  1
  O2-  O446  1  0.65773441  -0.01155992  0.68698449  1
  O2-  O447  1  0.66834699  0.49627195  -0.00988952  1
  O2-  O448  1  0.64897977  0.51333914  0.36483252  1
  O2-  O449  1  0.66125962  0.52489796  0.69083532  1
  O2-  O450  1  0.18929387  -0.00950435  0.00996521  1
  O2-  O451  1  0.18824926  0.01528505  0.35757334  1
  O2-  O452  1  0.18525520  0.00301996  0.69033282  1
  O2-  O453  1  0.16330415  0.51388512  -0.00554183  1
  O2-  O454  1  0.17899694  0.50211125  0.34052974  1
  O2-  O455  1  0.16263237  0.46535203  0.67003283  1
  O2-  O456  1  0.50388944  -0.01640905  -0.01156706  1
  O2-  O457  1  0.51944482  0.01440871  0.34713565  1
  O2-  O458  1  0.49277281  -0.00072146  0.63992163  1
  O2-  O459  1  0.49060938  0.49575566  -0.00137818  1
  O2-  O460  1  0.49538304  0.49163516  0.30919733  1
  O2-  O461  1  0.48752512  0.49114017  0.65396203  1
  O2-  O462  1  0.82968134  -0.00822561  -0.00774975  1
  O2-  O463  1  0.85166788  0.01251606  0.36098143  1
  O2-  O464  1  0.83673570  0.00482959  0.67174210  1
  O2-  O465  1  0.84023594  0.49881550  0.00809609  1
  O2-  O466  1  0.84024391  0.51669815  0.33877416  1
  O2-  O467  1  0.82663197  0.51509406  0.66742448  1
  O2-  O468  1  0.58456064  0.25272413  0.92523691  1
  O2-  O469  1  0.58181870  0.75234147  0.94044147  1
  O2-  O470  1  0.42343798  0.25554060  0.07250198  1
  O2-  O471  1  0.08913587  0.25104545  0.39730811  1
  O2-  O472  1  0.91623589  0.75397260  0.60230639  1
  O2-  O473  1  0.91604731  0.25190895  0.59348271  1
  O2-  O474  1  0.58039161  0.75109063  0.60917115  1
  O2-  O475  1  0.57372485  0.24585944  0.28564096  1
  O2-  O476  1  0.74041806  0.24943513  0.39149596  1
  O2-  O477  1  0.25248125  0.25775923  0.59605258  1
  O2-  O478  1  0.08599832  0.75112803  0.39158596  1
  O2-  O479  1  0.09564382  0.75158535  0.72623182  1
  O2-  O480  1  0.55889287  0.25015471  0.58596193  1
  O2-  O481  1  0.42311365  0.25126920  0.72712288  1
  O2-  O482  1  0.40146173  0.74807779  0.39338866  1
  O2-  O483  1  0.10428564  0.74700645  0.05275192  1
  O2-  O484  1  0.41688780  0.75617544  0.73189611  1
  O2-  O485  1  0.24232615  0.74819599  0.94752439  1
  O2-  O486  1  0.24580927  0.74807080  0.61073801  1
  O2-  O487  1  0.40333048  0.74877533  0.04630628  1
  O2-  O488  1  0.42577424  0.25528123  0.38209088  1
  O2-  O489  1  0.74265482  0.75814897  0.73246130  1
  O2-  O490  1  0.74968071  0.25043307  0.06075894  1
  O2-  O491  1  0.74808699  0.75427557  0.05001453  1
  O2-  O492  1  0.25216430  0.75404510  0.27756177  1
