# generated using pymatgen
data_Ca108Mn108O277
_symmetry_space_group_name_H-M   'P 1'
_cell_length_a   16.01172213
_cell_length_b   22.28556290
_cell_length_c   16.37683321
_cell_angle_alpha   89.99695064
_cell_angle_beta   90.00047736
_cell_angle_gamma   89.99992021
_symmetry_Int_Tables_number   1
_chemical_formula_structural   Ca108Mn108O277
_chemical_formula_sum   'Ca108 Mn108 O277'
_cell_volume   5843.74932950
_cell_formula_units_Z   1
loop_
 _symmetry_equiv_pos_site_id
 _symmetry_equiv_pos_as_xyz
  1  'x, y, z'
loop_
 _atom_type_symbol
 _atom_type_oxidation_number
  Ca2+  2.0
  Mn3.34+  3.34
  O2-  -2.0
loop_
 _atom_site_type_symbol
 _atom_site_label
 _atom_site_symmetry_multiplicity
 _atom_site_fract_x
 _atom_site_fract_y
 _atom_site_fract_z
 _atom_site_occupancy
  Ca2+  Ca0  1  0.09725203  0.24924091  0.24376508  1
  Ca2+  Ca1  1  0.06102722  0.24957649  0.58333852  1
  Ca2+  Ca2  1  0.10447439  0.24951553  0.92138990  1
  Ca2+  Ca3  1  0.09264100  0.75985945  0.23941555  1
  Ca2+  Ca4  1  0.06362840  0.74819445  0.59397460  1
  Ca2+  Ca5  1  0.08150245  0.75666541  0.91469809  1
  Ca2+  Ca6  1  0.40937307  0.24682951  0.23091644  1
  Ca2+  Ca7  1  0.42138022  0.25152676  0.58133260  1
  Ca2+  Ca8  1  0.40911118  0.24461026  0.93065202  1
  Ca2+  Ca9  1  0.41717900  0.75285234  0.24468601  1
  Ca2+  Ca10  1  0.43773964  0.74639215  0.60267535  1
  Ca2+  Ca11  1  0.44435735  0.74615218  0.89942318  1
  Ca2+  Ca12  1  0.74100062  0.25736391  0.24532830  1
  Ca2+  Ca13  1  0.76227653  0.25083197  0.59733901  1
  Ca2+  Ca14  1  0.73512255  0.25808223  0.90634378  1
  Ca2+  Ca15  1  0.74303957  0.75342339  0.23011746  1
  Ca2+  Ca16  1  0.74864119  0.74206908  0.60779019  1
  Ca2+  Ca17  1  0.72526947  0.74422622  0.90248708  1
  Ca2+  Ca18  1  0.26246866  0.22156290  0.07275653  1
  Ca2+  Ca19  1  0.25134014  0.24938127  0.40019194  1
  Ca2+  Ca20  1  0.25092179  0.24110898  0.77823962  1
  Ca2+  Ca21  1  0.25648232  0.75262412  0.08994212  1
  Ca2+  Ca22  1  0.25991475  0.75412874  0.41276138  1
  Ca2+  Ca23  1  0.26311821  0.75180849  0.75045396  1
  Ca2+  Ca24  1  0.55647611  0.24107860  0.07467534  1
  Ca2+  Ca25  1  0.58054347  0.26075916  0.40982229  1
  Ca2+  Ca26  1  0.59223508  0.24913534  0.75624641  1
  Ca2+  Ca27  1  0.58309556  0.74823339  0.05993758  1
  Ca2+  Ca28  1  0.56564799  0.74995414  0.43418165  1
  Ca2+  Ca29  1  0.58431629  0.74547603  0.75122024  1
  Ca2+  Ca30  1  0.92145462  0.25307788  0.08859040  1
  Ca2+  Ca31  1  0.91753290  0.25208934  0.43467518  1
  Ca2+  Ca32  1  0.90556187  0.24697100  0.72873774  1
  Ca2+  Ca33  1  0.91446164  0.76797719  0.08143231  1
  Ca2+  Ca34  1  0.92398412  0.75282522  0.43918272  1
  Ca2+  Ca35  1  0.90537202  0.74258536  0.73206588  1
  Ca2+  Ca36  1  0.93103617  0.60262352  0.43426442  1
  Ca2+  Ca37  1  0.10969103  0.10264925  0.94170541  1
  Ca2+  Ca38  1  0.93454942  0.08898785  0.43518188  1
  Ca2+  Ca39  1  0.70997345  0.08916140  0.90530632  1
  Ca2+  Ca40  1  0.06132693  0.06846095  0.59378120  1
  Ca2+  Ca41  1  0.59181699  0.59385494  0.06007792  1
  Ca2+  Ca42  1  0.90117421  0.58002457  0.07977548  1
  Ca2+  Ca43  1  0.06983258  0.61007489  0.59375336  1
  Ca2+  Ca44  1  0.44059692  0.60570570  0.90598416  1
  Ca2+  Ca45  1  0.23308890  0.60120663  0.74504484  1
  Ca2+  Ca46  1  0.73902330  0.58385097  0.23900104  1
  Ca2+  Ca47  1  0.43363662  0.60316180  0.58708608  1
  Ca2+  Ca48  1  0.41474591  0.10056337  0.92179140  1
  Ca2+  Ca49  1  0.74604743  0.59852097  0.61062190  1
  Ca2+  Ca50  1  0.91380406  0.58085603  0.08087183  1
  Ca2+  Ca51  1  0.79077425  0.09378519  0.59970004  1
  Ca2+  Ca52  1  0.55534971  0.09143192  0.41715023  1
  Ca2+  Ca53  1  0.40452341  0.10113804  0.23022262  1
  Ca2+  Ca54  1  0.08099645  0.58776174  0.25393926  1
  Ca2+  Ca55  1  0.41014846  0.07883179  0.58347632  1
  Ca2+  Ca56  1  0.90803413  0.60269885  0.73487677  1
  Ca2+  Ca57  1  0.94451222  0.08974532  0.43217056  1
  Ca2+  Ca58  1  0.75155368  0.58342747  0.23910822  1
  Ca2+  Ca59  1  0.43026937  0.60059563  0.57800414  1
  Ca2+  Ca60  1  0.41291278  0.59373256  0.25738226  1
  Ca2+  Ca61  1  0.42437069  0.59333067  0.25675938  1
  Ca2+  Ca62  1  0.56807519  0.59338614  0.42201672  1
  Ca2+  Ca63  1  0.09267491  0.58791575  0.25366472  1
  Ca2+  Ca64  1  0.56768983  0.08997787  0.41598937  1
  Ca2+  Ca65  1  0.24376347  0.59917452  0.74280926  1
  Ca2+  Ca66  1  0.60355759  0.60685140  0.75612295  1
  Ca2+  Ca67  1  0.42519922  0.09971676  0.92168387  1
  Ca2+  Ca68  1  0.25420873  0.59386006  0.42296580  1
  Ca2+  Ca69  1  0.08497302  0.58832321  0.90764908  1
  Ca2+  Ca70  1  0.59449204  0.60930705  0.75985760  1
  Ca2+  Ca71  1  0.09928561  0.09694492  0.23265772  1
  Ca2+  Ca72  1  0.42462339  0.40628144  0.56890109  1
  Ca2+  Ca73  1  0.90301560  0.40196511  0.75851495  1
  Ca2+  Ca74  1  0.40247309  0.91470260  0.57902588  1
  Ca2+  Ca75  1  0.40756846  0.40653802  0.91557168  1
  Ca2+  Ca76  1  0.24368520  0.40317912  0.07384815  1
  Ca2+  Ca77  1  0.25509352  0.90936525  0.08615871  1
  Ca2+  Ca78  1  0.74640398  0.40881251  0.24461906  1
  Ca2+  Ca79  1  0.08682666  0.40813167  0.91864916  1
  Ca2+  Ca80  1  0.07727363  0.40361480  0.25413529  1
  Ca2+  Ca81  1  0.75901789  0.40910487  0.24474472  1
  Ca2+  Ca82  1  0.42106272  0.40248935  0.26259645  1
  Ca2+  Ca83  1  0.91762373  0.41240536  0.08451959  1
  Ca2+  Ca84  1  0.73900412  0.40750030  0.60684061  1
  Ca2+  Ca85  1  0.40738205  0.91041819  0.25679827  1
  Ca2+  Ca86  1  0.24481744  0.91233679  0.73281957  1
  Ca2+  Ca87  1  0.90481405  0.41383362  0.08249457  1
  Ca2+  Ca88  1  0.93770173  0.91260235  0.72343931  1
  Ca2+  Ca89  1  0.08230393  0.90311799  0.90991473  1
  Ca2+  Ca90  1  0.75233534  0.89949266  0.24821117  1
  Ca2+  Ca91  1  0.24219762  0.90874696  0.08607205  1
  Ca2+  Ca92  1  0.08163964  0.91321555  0.26574021  1
  Ca2+  Ca93  1  0.92719414  0.91281398  0.72447634  1
  Ca2+  Ca94  1  0.41456588  0.91222325  0.57811535  1
  Ca2+  Ca95  1  0.57713200  0.90156849  0.42204005  1
  Ca2+  Ca96  1  0.23296232  0.92412728  0.42815887  1
  Ca2+  Ca97  1  0.57018937  0.90546413  0.76307386  1
  Ca2+  Ca98  1  0.25364497  0.40042058  0.42488062  1
  Ca2+  Ca99  1  0.41875939  0.91012144  0.25667105  1
  Ca2+  Ca100  1  0.93909089  0.91268970  0.44169278  1
  Ca2+  Ca101  1  0.24794034  0.40418393  0.75095068  1
  Ca2+  Ca102  1  0.76445893  0.89911634  0.24823987  1
  Ca2+  Ca103  1  0.59479248  0.40780661  0.07851441  1
  Ca2+  Ca104  1  0.92556376  0.39952440  0.41547596  1
  Ca2+  Ca105  1  0.58110199  0.90570267  0.76264635  1
  Ca2+  Ca106  1  0.42024174  0.40469176  0.91393808  1
  Ca2+  Ca107  1  0.23525998  0.40328702  0.75169432  1
  Mn3.34+  Mn108  1  0.08501247  0.32904356  0.08287511  1
  Mn3.34+  Mn109  1  0.08686729  0.33239181  0.42138029  1
  Mn3.34+  Mn110  1  0.07741884  0.33045768  0.74943234  1
  Mn3.34+  Mn111  1  0.07832096  0.83723819  0.08206296  1
  Mn3.34+  Mn112  1  0.08583454  0.83659853  0.42348935  1
  Mn3.34+  Mn113  1  0.08681857  0.83622136  0.74941588  1
  Mn3.34+  Mn114  1  0.41581972  0.33129645  0.08680658  1
  Mn3.34+  Mn115  1  0.41758480  0.33754620  0.41927188  1
  Mn3.34+  Mn116  1  0.42084735  0.32416617  0.74745545  1
  Mn3.34+  Mn117  1  0.42359916  0.83700958  0.07826334  1
  Mn3.34+  Mn118  1  0.41280436  0.83398695  0.42216317  1
  Mn3.34+  Mn119  1  0.41380331  0.83053849  0.75191576  1
  Mn3.34+  Mn120  1  0.74728366  0.33571715  0.07820011  1
  Mn3.34+  Mn121  1  0.74585178  0.33373642  0.42283355  1
  Mn3.34+  Mn122  1  0.74610166  0.33797064  0.75405906  1
  Mn3.34+  Mn123  1  0.74888628  0.83348144  0.07446911  1
  Mn3.34+  Mn124  1  0.75026154  0.82713494  0.42122266  1
  Mn3.34+  Mn125  1  0.75175710  0.83165741  0.75244580  1
  Mn3.34+  Mn126  1  0.25007839  0.33022333  0.24746329  1
  Mn3.34+  Mn127  1  0.24792131  0.32741395  0.58160997  1
  Mn3.34+  Mn128  1  0.24988760  0.33096411  0.91634618  1
  Mn3.34+  Mn129  1  0.24689971  0.83562769  0.25280549  1
  Mn3.34+  Mn130  1  0.24200297  0.83493164  0.58078472  1
  Mn3.34+  Mn131  1  0.25406602  0.83369240  0.91305292  1
  Mn3.34+  Mn132  1  0.58123851  0.33321001  0.24969569  1
  Mn3.34+  Mn133  1  0.58405340  0.33212277  0.58295787  1
  Mn3.34+  Mn134  1  0.58449609  0.33434006  0.91284674  1
  Mn3.34+  Mn135  1  0.58272687  0.83141248  0.24725319  1
  Mn3.34+  Mn136  1  0.58842326  0.83089510  0.58427785  1
  Mn3.34+  Mn137  1  0.58483850  0.83946593  0.92053653  1
  Mn3.34+  Mn138  1  0.91834469  0.33475016  0.24990673  1
  Mn3.34+  Mn139  1  0.91658493  0.33103755  0.58347259  1
  Mn3.34+  Mn140  1  0.91648938  0.33050444  0.91398315  1
  Mn3.34+  Mn141  1  0.92175101  0.83411677  0.25175455  1
  Mn3.34+  Mn142  1  0.91437139  0.83200787  0.58185442  1
  Mn3.34+  Mn143  1  0.91117172  0.83458382  0.91419854  1
  Mn3.34+  Mn144  1  0.74254224  0.16413256  0.41589343  1
  Mn3.34+  Mn145  1  0.91878396  0.17633968  0.91723460  1
  Mn3.34+  Mn146  1  0.25063278  0.66908028  0.24794959  1
  Mn3.34+  Mn147  1  0.57904452  0.16717001  0.90932393  1
  Mn3.34+  Mn148  1  0.74242904  0.67070557  0.42215126  1
  Mn3.34+  Mn149  1  0.58012299  0.16691388  0.58730830  1
  Mn3.34+  Mn150  1  0.92290779  0.66848675  0.25014072  1
  Mn3.34+  Mn151  1  0.24909229  0.16776675  0.24491996  1
  Mn3.34+  Mn152  1  0.90814188  0.66375560  0.91066573  1
  Mn3.34+  Mn153  1  0.24539228  0.15742835  0.57876952  1
  Mn3.34+  Mn154  1  0.24790224  0.67252115  0.58119373  1
  Mn3.34+  Mn155  1  0.41914714  0.16499153  0.74873263  1
  Mn3.34+  Mn156  1  0.41523229  0.66838157  0.42062683  1
  Mn3.34+  Mn157  1  0.91638029  0.16216522  0.24320478  1
  Mn3.34+  Mn158  1  0.58352950  0.66851425  0.24698061  1
  Mn3.34+  Mn159  1  0.09356814  0.15973368  0.41908152  1
  Mn3.34+  Mn160  1  0.74847684  0.16060155  0.08474902  1
  Mn3.34+  Mn161  1  0.74611966  0.66653285  0.07787256  1
  Mn3.34+  Mn162  1  0.74724667  0.17019916  0.74781019  1
  Mn3.34+  Mn163  1  0.92509280  0.16849915  0.24448796  1
  Mn3.34+  Mn164  1  0.57614319  0.17101417  0.24642968  1
  Mn3.34+  Mn165  1  0.41865242  0.66898368  0.08384910  1
  Mn3.34+  Mn166  1  0.24618925  0.66508882  0.91954177  1
  Mn3.34+  Mn167  1  0.07841251  0.15583665  0.74947815  1
  Mn3.34+  Mn168  1  0.08843882  0.16065025  0.74963027  1
  Mn3.34+  Mn169  1  0.25575425  0.16250027  0.57977788  1
  Mn3.34+  Mn170  1  0.40883120  0.16332579  0.41685828  1
  Mn3.34+  Mn171  1  0.75542180  0.17061815  0.41609343  1
  Mn3.34+  Mn172  1  0.73638985  0.16710055  0.08408062  1
  Mn3.34+  Mn173  1  0.91138572  0.16943228  0.91768327  1
  Mn3.34+  Mn174  1  0.91213128  0.66352108  0.25129650  1
  Mn3.34+  Mn175  1  0.25643190  0.66020839  0.91808945  1
  Mn3.34+  Mn176  1  0.74873737  0.68211297  0.41998409  1
  Mn3.34+  Mn177  1  0.09011053  0.66993448  0.42200709  1
  Mn3.34+  Mn178  1  0.91843841  0.66847964  0.91097573  1
  Mn3.34+  Mn179  1  0.08663479  0.66711092  0.08209634  1
  Mn3.34+  Mn180  1  0.75667017  0.50247980  0.42090477  1
  Mn3.34+  Mn181  1  0.24906864  0.00479045  0.26727707  1
  Mn3.34+  Mn182  1  0.58987519  0.49771577  0.58988677  1
  Mn3.34+  Mn183  1  0.89958081  0.49782622  0.91910997  1
  Mn3.34+  Mn184  1  0.41637249  0.50310086  0.75288382  1
  Mn3.34+  Mn185  1  0.42663135  0.49737720  0.75173134  1
  Mn3.34+  Mn186  1  0.74321408  -0.00095668  0.07382077  1
  Mn3.34+  Mn187  1  0.58876837  0.00115241  0.24117379  1
  Mn3.34+  Mn188  1  0.57630993  0.49942409  0.24841524  1
  Mn3.34+  Mn189  1  0.91100973  0.50088699  0.58729185  1
  Mn3.34+  Mn190  1  0.09372201  0.50050764  0.07180065  1
  Mn3.34+  Mn191  1  0.24200256  0.49830566  0.58364181  1
  Mn3.34+  Mn192  1  0.25715810  -0.00034247  0.90851056  1
  Mn3.34+  Mn193  1  0.24884344  0.49654453  0.24434565  1
  Mn3.34+  Mn194  1  0.90951702  -0.00177288  0.91337480  1
  Mn3.34+  Mn195  1  0.72949028  -0.00434186  0.06774272  1
  Mn3.34+  Mn196  1  0.08211417  0.50049855  0.75267818  1
  Mn3.34+  Mn197  1  0.60070696  0.49640458  0.92881349  1
  Mn3.34+  Mn198  1  0.75720109  -0.00082145  0.74981702  1
  Mn3.34+  Mn199  1  0.42752260  0.00019075  0.06512610  1
  Mn3.34+  Mn200  1  0.58603533  -0.00082326  0.58384614  1
  Mn3.34+  Mn201  1  0.92455928  0.00002626  0.25602179  1
  Mn3.34+  Mn202  1  0.07640670  0.50088964  0.41472335  1
  Mn3.34+  Mn203  1  0.24700455  0.00505997  0.90886917  1
  Mn3.34+  Mn204  1  0.26011396  0.50038146  0.24653966  1
  Mn3.34+  Mn205  1  0.92283603  0.00406458  0.91501638  1
  Mn3.34+  Mn206  1  0.08000375  0.00299053  0.08068731  1
  Mn3.34+  Mn207  1  0.75870451  -0.00059585  0.42532776  1
  Mn3.34+  Mn208  1  0.74814308  -0.00443262  0.42735888  1
  Mn3.34+  Mn209  1  0.40203592  0.50372284  0.07854536  1
  Mn3.34+  Mn210  1  0.74315155  0.00382952  0.75475271  1
  Mn3.34+  Mn211  1  0.74517902  0.49737557  0.42124270  1
  Mn3.34+  Mn212  1  0.57745935  0.00525048  0.24115880  1
  Mn3.34+  Mn213  1  0.41375022  0.49950660  0.08040758  1
  Mn3.34+  Mn214  1  0.92479110  0.49572412  0.58183853  1
  Mn3.34+  Mn215  1  0.40936479  0.00111390  0.74208805  1
  O2-  O216  1  0.00102463  0.18544399  -0.00568740  1
  O2-  O217  1  0.00398549  0.16517751  0.33591539  1
  O2-  O218  1  0.00914073  0.16129034  0.66143719  1
  O2-  O219  1  -0.00417070  0.65183489  -0.00183346  1
  O2-  O220  1  0.00784517  0.65894760  0.33445236  1
  O2-  O221  1  -0.00217629  0.67063354  0.67212575  1
  O2-  O222  1  0.34216919  0.16352929  -0.00846757  1
  O2-  O223  1  0.33806273  0.17390314  0.33066017  1
  O2-  O224  1  0.33311877  0.17999831  0.66407465  1
  O2-  O225  1  0.33437621  0.66015364  0.00201107  1
  O2-  O226  1  0.33279106  0.65470694  0.33464362  1
  O2-  O227  1  0.32957202  0.65828736  0.65996942  1
  O2-  O228  1  0.66679109  0.16223343  -0.00638931  1
  O2-  O229  1  0.65992210  0.16067491  0.33826539  1
  O2-  O230  1  0.66628915  0.17276952  0.66269206  1
  O2-  O231  1  0.66562673  0.66750032  0.00551642  1
  O2-  O232  1  0.66833681  0.65881927  0.33256641  1
  O2-  O233  1  0.66729233  0.66687780  0.66834218  1
  O2-  O234  1  0.16018328  0.17894105  0.00194466  1
  O2-  O235  1  0.16316049  0.17506441  0.33203005  1
  O2-  O236  1  0.17056800  0.17343258  0.66373144  1
  O2-  O237  1  0.16109724  0.65810231  -0.00528955  1
  O2-  O238  1  0.16643875  0.65947267  0.33257680  1
  O2-  O239  1  0.16955186  0.67103484  0.66505249  1
  O2-  O240  1  0.49848648  0.16840136  -0.01136546  1
  O2-  O241  1  0.50147543  0.16523616  0.34091080  1
  O2-  O242  1  0.49457387  0.18182740  0.66151289  1
  O2-  O243  1  0.49804160  0.66375767  0.00620589  1
  O2-  O244  1  0.49866802  0.65572063  0.33346881  1
  O2-  O245  1  0.50307238  0.64942832  0.66622754  1
  O2-  O246  1  0.83312843  0.16866185  0.00148983  1
  O2-  O247  1  0.83831594  0.15477985  0.32940695  1
  O2-  O248  1  0.82794541  0.16969505  0.67109022  1
  O2-  O249  1  0.84109453  0.65632143  0.00552453  1
  O2-  O250  1  0.82727418  0.65794864  0.33786793  1
  O2-  O251  1  0.83265807  0.66568672  0.66607577  1
  O2-  O252  1  -0.00054735  0.32451113  0.00258821  1
  O2-  O253  1  0.00125714  0.33195003  0.33387464  1
  O2-  O254  1  -0.00679023  0.33572201  0.67214219  1
  O2-  O255  1  0.00372930  0.83699277  -0.00689244  1
  O2-  O256  1  0.00311158  0.82975037  0.33887827  1
  O2-  O257  1  -0.00018754  0.82974018  0.67080119  1
  O2-  O258  1  0.33538306  0.34567172  -0.00280517  1
  O2-  O259  1  0.33307507  0.33497651  0.33656114  1
  O2-  O260  1  0.33177099  0.32665789  0.66848332  1
  O2-  O261  1  0.32477471  0.84333139  0.01025922  1
  O2-  O262  1  0.33368198  0.84524070  0.33402855  1
  O2-  O263  1  0.33164557  0.83755546  0.66312176  1
  O2-  O264  1  0.66188296  0.33828574  0.00238450  1
  O2-  O265  1  0.67259433  0.34105436  0.32643336  1
  O2-  O266  1  0.66869234  0.32737662  0.66265323  1
  O2-  O267  1  0.66565918  0.82743939  0.00011578  1
  O2-  O268  1  0.67099718  0.83572363  0.32970258  1
  O2-  O269  1  0.65869805  0.84335839  0.67528347  1
  O2-  O270  1  0.16451654  0.34027696  -0.00297997  1
  O2-  O271  1  0.16624893  0.33255090  0.33387342  1
  O2-  O272  1  0.17191146  0.33387714  0.67334537  1
  O2-  O273  1  0.16818680  0.84508108  0.00118878  1
  O2-  O274  1  0.16380760  0.83024089  0.33565004  1
  O2-  O275  1  0.16939773  0.81422506  0.66997260  1
  O2-  O276  1  0.49621298  0.34300610  -0.00009682  1
  O2-  O277  1  0.49487673  0.32867653  0.33149227  1
  O2-  O278  1  0.49924792  0.31690090  0.66290531  1
  O2-  O279  1  0.49963554  0.82697083  -0.00306841  1
  O2-  O280  1  0.49726013  0.84554929  0.33556604  1
  O2-  O281  1  0.49531919  0.84655503  0.66351715  1
  O2-  O282  1  0.84197907  0.33342999  0.00655740  1
  O2-  O283  1  0.83258595  0.34791469  0.32937589  1
  O2-  O284  1  0.83245998  0.33589993  0.66417575  1
  O2-  O285  1  0.83513386  0.83119416  0.00099433  1
  O2-  O286  1  0.82922906  0.83211073  0.33083718  1
  O2-  O287  1  0.83873763  0.83936015  0.67114183  1
  O2-  O288  1  0.00464739  0.18309761  0.16694614  1
  O2-  O289  1  0.00482622  0.17837220  0.48579300  1
  O2-  O290  1  -0.00479288  0.17776404  0.83238540  1
  O2-  O291  1  0.00117512  0.66658631  0.16047810  1
  O2-  O292  1  0.00660763  0.67983933  0.49369603  1
  O2-  O293  1  0.00407854  0.67590207  0.83804359  1
  O2-  O294  1  0.33155204  0.17240093  0.17273089  1
  O2-  O295  1  0.33304346  0.18639135  0.50011819  1
  O2-  O296  1  0.34886540  0.18192297  0.83044263  1
  O2-  O297  1  0.34111186  0.66959527  0.17763571  1
  O2-  O298  1  0.33370918  0.67799063  0.50114083  1
  O2-  O299  1  0.33038682  0.67049719  0.83266316  1
  O2-  O300  1  0.66623890  0.17530909  0.17438618  1
  O2-  O301  1  0.66218356  0.17655534  0.50121891  1
  O2-  O302  1  0.67017015  0.17595561  0.83701137  1
  O2-  O303  1  0.67372071  0.66830018  0.17144696  1
  O2-  O304  1  0.66154510  0.67850183  0.49918635  1
  O2-  O305  1  0.66008139  0.67766894  0.83119227  1
  O2-  O306  1  0.16587463  0.17741135  0.17288588  1
  O2-  O307  1  0.16856086  0.18641701  0.50142541  1
  O2-  O308  1  0.15848710  0.17012151  0.83634196  1
  O2-  O309  1  0.15826273  0.67102720  0.17848329  1
  O2-  O310  1  0.17176193  0.68844611  0.49763712  1
  O2-  O311  1  0.17111135  0.67637167  0.83126221  1
  O2-  O312  1  0.49632994  0.17671673  0.17444447  1
  O2-  O313  1  0.50187449  0.18303794  0.49528291  1
  O2-  O314  1  0.50092616  0.18243143  0.82786605  1
  O2-  O315  1  0.49753924  0.66718602  0.17244951  1
  O2-  O316  1  0.49480719  0.67420250  0.49819712  1
  O2-  O317  1  0.51043722  0.66845893  0.82895176  1
  O2-  O318  1  0.83165068  0.17624011  0.16347177  1
  O2-  O319  1  0.83774729  0.16694939  0.49425622  1
  O2-  O320  1  0.82923947  0.17872364  0.83946797  1
  O2-  O321  1  0.82848998  0.66833612  0.16628568  1
  O2-  O322  1  0.83319326  0.67840695  0.49634056  1
  O2-  O323  1  0.83487383  0.67180569  0.82817757  1
  O2-  O324  1  -0.00164072  0.32321447  0.16446492  1
  O2-  O325  1  -0.00169542  0.32304897  0.49595884  1
  O2-  O326  1  0.00304317  0.32162398  0.83788834  1
  O2-  O327  1  0.00571535  0.82937249  0.17271534  1
  O2-  O328  1  0.00101989  0.82306216  0.49932009  1
  O2-  O329  1  0.00384845  0.82181741  0.82966618  1
  O2-  O330  1  0.33401637  0.33374339  0.16881018  1
  O2-  O331  1  0.33419069  0.31516504  0.49891362  1
  O2-  O332  1  0.33274919  0.32551099  0.82968928  1
  O2-  O333  1  0.33319382  0.83753663  0.16996696  1
  O2-  O334  1  0.33294614  0.81842467  0.50329741  1
  O2-  O335  1  0.32754114  0.82727520  0.82601190  1
  O2-  O336  1  0.67182939  0.33381548  0.16996737  1
  O2-  O337  1  0.66694194  0.31420991  0.50496774  1
  O2-  O338  1  0.66308559  0.32677721  0.83157041  1
  O2-  O339  1  0.67350455  0.83095895  0.17175902  1
  O2-  O340  1  0.65967491  0.81858148  0.49250778  1
  O2-  O341  1  0.66151055  0.83063028  0.82779139  1
  O2-  O342  1  0.16335825  0.32687607  0.16674375  1
  O2-  O343  1  0.16994939  0.31010961  0.49804261  1
  O2-  O344  1  0.16869652  0.32916056  0.83214658  1
  O2-  O345  1  0.17116816  0.82976916  0.16335327  1
  O2-  O346  1  0.16843221  0.81370194  0.49678118  1
  O2-  O347  1  0.16411298  0.82087936  0.83305402  1
  O2-  O348  1  0.50183662  0.32975396  0.16651322  1
  O2-  O349  1  0.49783781  0.31661602  0.50017013  1
  O2-  O350  1  0.49058961  0.32350501  0.84023923  1
  O2-  O351  1  0.48995541  0.83436533  0.17794864  1
  O2-  O352  1  0.49558226  0.82667083  0.50289922  1
  O2-  O353  1  0.50440787  0.82852520  0.82553791  1
  O2-  O354  1  0.83249445  0.32901221  0.16782832  1
  O2-  O355  1  0.83639640  0.32861634  0.49693791  1
  O2-  O356  1  0.83689594  0.32032563  0.83149872  1
  O2-  O357  1  0.83038678  0.82893047  0.17201339  1
  O2-  O358  1  0.83638987  0.81996351  0.49612278  1
  O2-  O359  1  0.84336261  0.83159530  0.82321433  1
  O2-  O360  1  0.08338874  0.07865135  0.09948061  1
  O2-  O361  1  0.07465903  0.07848508  0.44634922  1
  O2-  O362  1  0.08339972  0.07564735  0.76870119  1
  O2-  O363  1  0.07449151  0.57699331  0.11518031  1
  O2-  O364  1  0.08747514  0.58082935  0.44720960  1
  O2-  O365  1  0.09771580  0.57960338  0.77168433  1
  O2-  O366  1  0.41704038  0.07087782  0.10170139  1
  O2-  O367  1  0.43065118  0.07816734  0.44931441  1
  O2-  O368  1  0.41372142  0.07829245  0.77879589  1
  O2-  O369  1  0.42028947  0.58322047  0.11228587  1
  O2-  O370  1  0.41523531  0.58418334  0.44665260  1
  O2-  O371  1  0.40305812  0.58214649  0.77175333  1
  O2-  O372  1  0.75321349  0.07849714  0.10555922  1
  O2-  O373  1  0.74944795  0.08114530  0.44106963  1
  O2-  O374  1  0.75054549  0.08449596  0.76735099  1
  O2-  O375  1  0.76140703  0.57923694  0.10753522  1
  O2-  O376  1  0.74807949  0.58466095  0.44135202  1
  O2-  O377  1  0.73165436  0.58282013  0.74926130  1
  O2-  O378  1  0.24778971  0.08240789  0.23748028  1
  O2-  O379  1  0.25509203  0.07585189  0.56588009  1
  O2-  O380  1  0.26340053  0.08572988  0.90291370  1
  O2-  O381  1  0.24163581  0.58355163  0.23128634  1
  O2-  O382  1  0.24416273  0.57970114  0.55918157  1
  O2-  O383  1  0.24227443  0.57812212  0.88366990  1
  O2-  O384  1  0.57490436  0.08722228  0.24600014  1
  O2-  O385  1  0.57667425  0.07945299  0.55156709  1
  O2-  O386  1  0.56618561  0.08767022  0.89551289  1
  O2-  O387  1  0.59752558  0.58075841  0.22391497  1
  O2-  O388  1  0.57471433  0.57146337  0.55001355  1
  O2-  O389  1  0.57742189  0.56768333  0.88644233  1
  O2-  O390  1  0.92992633  0.08042678  0.22926590  1
  O2-  O391  1  0.91490841  0.06393216  0.55134664  1
  O2-  O392  1  0.91577339  0.08563821  0.90307217  1
  O2-  O393  1  0.90868526  0.57722776  0.21753403  1
  O2-  O394  1  0.91655996  0.58057941  0.56469884  1
  O2-  O395  1  0.92267849  0.57906497  0.88892850  1
  O2-  O396  1  0.06762620  0.42128580  0.10259943  1
  O2-  O397  1  0.08360980  0.41954496  0.42325430  1
  O2-  O398  1  0.09371536  0.41798120  0.77361163  1
  O2-  O399  1  0.10249090  0.92380987  0.11225407  1
  O2-  O400  1  0.08557951  0.91623411  0.42494128  1
  O2-  O401  1  0.07191310  0.91859663  0.77071370  1
  O2-  O402  1  0.41774211  0.41777023  0.10460478  1
  O2-  O403  1  0.40258661  0.41707029  0.43508003  1
  O2-  O404  1  0.40651942  0.41566724  0.76810570  1
  O2-  O405  1  0.40473219  0.93027059  0.11836380  1
  O2-  O406  1  0.41422888  0.91762209  0.44350614  1
  O2-  O407  1  0.42475862  0.91970696  0.76160330  1
  O2-  O408  1  0.76239750  0.41969652  0.11066210  1
  O2-  O409  1  0.75019582  0.41631645  0.43772897  1
  O2-  O410  1  0.76201478  0.41612898  0.74916851  1
  O2-  O411  1  0.75417253  0.91887204  0.11215541  1
  O2-  O412  1  0.74858975  0.91374306  0.42404051  1
  O2-  O413  1  0.75157235  0.91904025  0.76461668  1
  O2-  O414  1  0.24302337  0.41445034  0.23613253  1
  O2-  O415  1  0.26102817  0.41714296  0.56547242  1
  O2-  O416  1  0.26212028  0.41820531  0.88340686  1
  O2-  O417  1  0.25117216  0.92655189  0.22149387  1
  O2-  O418  1  0.26495350  0.91926265  0.55968248  1
  O2-  O419  1  0.23903562  0.91847133  0.88745067  1
  O2-  O420  1  0.59326084  0.41871168  0.22941143  1
  O2-  O421  1  0.58125954  0.41917978  0.56665470  1
  O2-  O422  1  0.56259870  0.42023854  0.90249675  1
  O2-  O423  1  0.58942376  0.91794458  0.23774854  1
  O2-  O424  1  0.56902259  0.91864954  0.55888358  1
  O2-  O425  1  0.58328920  0.92025486  0.89214759  1
  O2-  O426  1  0.91135602  0.42020827  0.22059054  1
  O2-  O427  1  0.91142201  0.41706271  0.56333963  1
  O2-  O428  1  0.93163398  0.41852176  0.90261337  1
  O2-  O429  1  0.90508499  0.91843934  0.24118514  1
  O2-  O430  1  0.92236124  0.91420938  0.57855805  1
  O2-  O431  1  0.92712086  0.91834116  0.88861333  1
  O2-  O432  1  0.00735483  -0.00226874  -0.00965892  1
  O2-  O433  1  -0.00559559  0.00138525  0.33847083  1
  O2-  O434  1  0.00469972  -0.00558194  0.66975673  1
  O2-  O435  1  0.00044306  0.50963450  0.00377419  1
  O2-  O436  1  0.00746641  0.51537665  0.32614870  1
  O2-  O437  1  0.00396904  0.50663036  0.66657831  1
  O2-  O438  1  0.32732878  -0.00826693  0.00761209  1
  O2-  O439  1  0.34722405  -0.00793460  0.31116566  1
  O2-  O440  1  0.33749416  -0.00830796  0.66102006  1
  O2-  O441  1  0.33882604  0.48735091  -0.01313105  1
  O2-  O442  1  0.33748200  0.51210400  0.32655157  1
  O2-  O443  1  0.33472662  0.50348112  0.66242695  1
  O2-  O444  1  0.66643603  0.01342106  -0.01667469  1
  O2-  O445  1  0.66323473  0.00328417  0.34016255  1
  O2-  O446  1  0.66634379  0.00241549  0.66824206  1
  O2-  O447  1  0.65590993  0.49993538  0.01803796  1
  O2-  O448  1  0.66791570  0.50753529  0.32690510  1
  O2-  O449  1  0.67022341  0.50755994  0.65528920  1
  O2-  O450  1  0.16736332  -0.00235931  -0.00325084  1
  O2-  O451  1  0.16081311  -0.00700801  0.32310140  1
  O2-  O452  1  0.15804118  0.00196427  0.66940893  1
  O2-  O453  1  0.16200363  0.48937091  -0.00631599  1
  O2-  O454  1  0.16416145  0.50858376  0.32846759  1
  O2-  O455  1  0.18294992  0.50079277  0.68923673  1
  O2-  O456  1  0.48967211  0.01178352  -0.01487292  1
  O2-  O457  1  0.50516730  -0.00350698  0.33121648  1
  O2-  O458  1  0.49316395  -0.00251361  0.65676164  1
  O2-  O459  1  0.50016262  0.50586293  -0.00371074  1
  O2-  O460  1  0.48771776  0.51510919  0.31218412  1
  O2-  O461  1  0.49212943  0.50501491  0.65286617  1
  O2-  O462  1  0.83441387  0.00086985  0.00146236  1
  O2-  O463  1  0.83242537  0.00140544  0.33516845  1
  O2-  O464  1  0.84170682  -0.00292105  0.67934260  1
  O2-  O465  1  0.85402956  0.49667346  0.03103620  1
  O2-  O466  1  0.82011395  0.50290444  0.31782912  1
  O2-  O467  1  0.83298853  0.50870299  0.66291946  1
  O2-  O468  1  0.25323411  0.25111088  0.25777668  1
  O2-  O469  1  0.75067480  0.25094625  0.07839744  1
  O2-  O470  1  0.58083319  0.74994666  0.26071497  1
  O2-  O471  1  0.91909262  0.75026716  0.93261992  1
  O2-  O472  1  0.25097771  0.25197717  0.92503730  1
  O2-  O473  1  0.75400473  0.74948191  0.08537181  1
  O2-  O474  1  0.40971215  0.75061150  0.08714078  1
  O2-  O475  1  0.91510578  0.75176325  0.25376326  1
  O2-  O476  1  0.58735084  0.25263845  0.92848251  1
  O2-  O477  1  0.58303027  0.75487136  0.91716072  1
  O2-  O478  1  0.41660213  0.75091986  0.39471257  1
  O2-  O479  1  0.91451970  0.75212387  0.59168319  1
  O2-  O480  1  0.59251902  0.25166530  0.26247771  1
  O2-  O481  1  0.08545889  0.24561773  0.74300554  1
  O2-  O482  1  0.41829747  0.75208318  0.74217449  1
  O2-  O483  1  0.41322946  0.25303222  0.07666629  1
  O2-  O484  1  0.75509323  0.25235874  0.39644498  1
  O2-  O485  1  0.08536334  0.75107978  0.07541522  1
  O2-  O486  1  0.91420475  0.25214005  0.58750567  1
  O2-  O487  1  0.74872822  0.25169453  0.74547882  1
  O2-  O488  1  0.25554748  0.74975216  0.25610807  1
  O2-  O489  1  0.25075946  0.74890098  0.93438799  1
  O2-  O490  1  0.57985597  0.75347702  0.59890013  1
  O2-  O491  1  0.74968047  0.75395860  0.74548294  1
  O2-  O492  1  0.90382602  0.25010642  0.26145899  1
