# generated using pymatgen
data_Ca108Mn108O277
_symmetry_space_group_name_H-M   'P 1'
_cell_length_a   16.03090033
_cell_length_b   22.31214869
_cell_length_c   16.39074456
_cell_angle_alpha   89.99853379
_cell_angle_beta   89.99557232
_cell_angle_gamma   90.00226122
_symmetry_Int_Tables_number   1
_chemical_formula_structural   Ca108Mn108O277
_chemical_formula_sum   'Ca108 Mn108 O277'
_cell_volume   5862.70429726
_cell_formula_units_Z   1
loop_
 _symmetry_equiv_pos_site_id
 _symmetry_equiv_pos_as_xyz
  1  'x, y, z'
loop_
 _atom_type_symbol
 _atom_type_oxidation_number
  Ca2+  2.0
  Mn3.34+  3.34
  O2-  -2.0
loop_
 _atom_site_type_symbol
 _atom_site_label
 _atom_site_symmetry_multiplicity
 _atom_site_fract_x
 _atom_site_fract_y
 _atom_site_fract_z
 _atom_site_occupancy
  Ca2+  Ca0  1  0.07375763  0.25924449  0.24751318  1
  Ca2+  Ca1  1  0.07183734  0.25139827  0.58138752  1
  Ca2+  Ca2  1  0.08949646  0.26454094  0.91429407  1
  Ca2+  Ca3  1  0.06364005  0.74230191  0.24244574  1
  Ca2+  Ca4  1  0.08092075  0.76022705  0.58216272  1
  Ca2+  Ca5  1  0.07698235  0.73287204  0.91360350  1
  Ca2+  Ca6  1  0.42494898  0.25418593  0.26347944  1
  Ca2+  Ca7  1  0.41997654  0.24601304  0.56781335  1
  Ca2+  Ca8  1  0.41191380  0.24993113  0.91145662  1
  Ca2+  Ca9  1  0.42083168  0.75206737  0.23978472  1
  Ca2+  Ca10  1  0.43987189  0.75169820  0.58316085  1
  Ca2+  Ca11  1  0.42219235  0.74837553  0.92586354  1
  Ca2+  Ca12  1  0.74702517  0.25249272  0.23758048  1
  Ca2+  Ca13  1  0.76694163  0.24622647  0.58837607  1
  Ca2+  Ca14  1  0.74665247  0.25225487  0.92489017  1
  Ca2+  Ca15  1  0.77311374  0.73107229  0.24879834  1
  Ca2+  Ca16  1  0.73126193  0.75845790  0.57299437  1
  Ca2+  Ca17  1  0.75087492  0.75282548  0.92990757  1
  Ca2+  Ca18  1  0.24196555  0.24777028  0.07728052  1
  Ca2+  Ca19  1  0.26704155  0.25451323  0.41266182  1
  Ca2+  Ca20  1  0.25636155  0.24652458  0.75883269  1
  Ca2+  Ca21  1  0.25072314  0.74250232  0.08798354  1
  Ca2+  Ca22  1  0.24133204  0.75592956  0.41188795  1
  Ca2+  Ca23  1  0.23212100  0.74541892  0.75144107  1
  Ca2+  Ca24  1  0.58415799  0.24792389  0.08976523  1
  Ca2+  Ca25  1  0.55991445  0.25218571  0.41325322  1
  Ca2+  Ca26  1  0.56882931  0.24560339  0.74657964  1
  Ca2+  Ca27  1  0.57779978  0.74999093  0.08795695  1
  Ca2+  Ca28  1  0.59085419  0.74602241  0.42033939  1
  Ca2+  Ca29  1  0.57784160  0.75207567  0.74150650  1
  Ca2+  Ca30  1  0.91642223  0.25495092  0.09406692  1
  Ca2+  Ca31  1  0.92887406  0.25108044  0.42472582  1
  Ca2+  Ca32  1  0.92702723  0.24228895  0.73317451  1
  Ca2+  Ca33  1  0.92369763  0.74611405  0.08868739  1
  Ca2+  Ca34  1  0.91683381  0.74813049  0.40146777  1
  Ca2+  Ca35  1  0.93454019  0.75579745  0.75698983  1
  Ca2+  Ca36  1  0.93117247  0.58767226  0.37998053  1
  Ca2+  Ca37  1  0.94443443  0.59718963  0.08297741  1
  Ca2+  Ca38  1  0.42249227  0.09547329  0.24767573  1
  Ca2+  Ca39  1  0.42550125  0.09657717  0.92098554  1
  Ca2+  Ca40  1  0.24296168  0.57293150  0.39393767  1
  Ca2+  Ca41  1  0.60783630  0.08202653  0.07220974  1
  Ca2+  Ca42  1  0.91600470  0.08716381  0.41003002  1
  Ca2+  Ca43  1  0.41945840  0.09801033  0.58653078  1
  Ca2+  Ca44  1  0.19034158  0.59707341  0.06647923  1
  Ca2+  Ca45  1  0.56936049  0.08074034  0.74764760  1
  Ca2+  Ca46  1  0.41156678  0.09519216  0.24568398  1
  Ca2+  Ca47  1  0.87661409  0.07310511  0.09747071  1
  Ca2+  Ca48  1  0.04702532  0.09730271  0.58018122  1
  Ca2+  Ca49  1  0.08658186  0.09329535  0.93116882  1
  Ca2+  Ca50  1  0.57710688  0.58017260  0.38931573  1
  Ca2+  Ca51  1  0.94631518  0.58925908  0.78074431  1
  Ca2+  Ca52  1  0.03707698  0.09771168  0.57692387  1
  Ca2+  Ca53  1  0.58187046  0.08208853  0.74720634  1
  Ca2+  Ca54  1  0.06937247  0.08416590  0.25412622  1
  Ca2+  Ca55  1  0.93613045  0.58809551  0.78284235  1
  Ca2+  Ca56  1  0.95458124  0.59701995  0.08568346  1
  Ca2+  Ca57  1  0.88781364  0.07240688  0.09198503  1
  Ca2+  Ca58  1  0.54899552  0.09866008  0.41918603  1
  Ca2+  Ca59  1  0.08374870  0.58217530  0.58929196  1
  Ca2+  Ca60  1  0.42640716  0.58675583  0.25059628  1
  Ca2+  Ca61  1  0.93599194  0.58093932  0.38027948  1
  Ca2+  Ca62  1  0.79150508  0.09205070  0.59255098  1
  Ca2+  Ca63  1  0.59393177  0.59825923  0.08204904  1
  Ca2+  Ca64  1  0.08473172  0.60304835  0.23638301  1
  Ca2+  Ca65  1  0.07256761  0.58225777  0.59093384  1
  Ca2+  Ca66  1  0.26311927  0.10265989  0.41594614  1
  Ca2+  Ca67  1  0.70326429  0.60920727  0.57822314  1
  Ca2+  Ca68  1  0.09652690  0.09180925  0.92844208  1
  Ca2+  Ca69  1  0.08228608  0.08436912  0.25405588  1
  Ca2+  Ca70  1  0.27376544  0.10477798  0.41860012  1
  Ca2+  Ca71  1  0.90303694  0.08966863  0.73584246  1
  Ca2+  Ca72  1  0.75160545  0.39776456  0.58576543  1
  Ca2+  Ca73  1  0.42503549  0.90932940  0.59371808  1
  Ca2+  Ca74  1  0.59060569  0.40029612  0.75241452  1
  Ca2+  Ca75  1  0.57782205  0.40072814  0.75223215  1
  Ca2+  Ca76  1  0.77025724  0.41878511  0.92476768  1
  Ca2+  Ca77  1  0.44701517  0.43168313  0.29187319  1
  Ca2+  Ca78  1  0.08724886  0.42103656  0.26143864  1
  Ca2+  Ca79  1  0.08319883  0.88977868  0.92418952  1
  Ca2+  Ca80  1  0.93586393  0.41169789  0.41074394  1
  Ca2+  Ca81  1  0.58525804  0.40366369  0.09132408  1
  Ca2+  Ca82  1  0.57965931  0.90766195  0.74554680  1
  Ca2+  Ca83  1  0.73210589  0.40872942  0.25437471  1
  Ca2+  Ca84  1  0.76144203  0.42160025  0.92895614  1
  Ca2+  Ca85  1  0.90001509  0.90798233  0.74608896  1
  Ca2+  Ca86  1  0.08678298  0.40655444  0.57027795  1
  Ca2+  Ca87  1  0.90875057  0.90505461  0.08845559  1
  Ca2+  Ca88  1  0.26794165  0.89896850  0.74956027  1
  Ca2+  Ca89  1  0.93472612  0.40871814  0.75082126  1
  Ca2+  Ca90  1  0.25072743  0.41108801  0.39975153  1
  Ca2+  Ca91  1  0.75766856  0.90731609  0.24274450  1
  Ca2+  Ca92  1  0.92139264  0.91292498  0.40903398  1
  Ca2+  Ca93  1  0.22852424  0.41653011  0.07623585  1
  Ca2+  Ca94  1  0.24986222  0.39556392  0.75130872  1
  Ca2+  Ca95  1  0.41428308  0.39902655  0.92392093  1
  Ca2+  Ca96  1  0.92657040  0.41232424  0.74659276  1
  Ca2+  Ca97  1  0.58322200  0.89992816  0.42124360  1
  Ca2+  Ca98  1  0.06942939  0.90607130  0.57672573  1
  Ca2+  Ca99  1  0.93199874  0.41696970  0.08574383  1
  Ca2+  Ca100  1  0.06399268  0.44081656  0.95181002  1
  Ca2+  Ca101  1  0.41866773  0.90185471  0.24480046  1
  Ca2+  Ca102  1  0.59581211  0.90846982  0.08156628  1
  Ca2+  Ca103  1  0.93183658  0.91250013  0.40791008  1
  Ca2+  Ca104  1  0.42190813  0.90706130  0.91796122  1
  Ca2+  Ca105  1  0.25366779  0.90423806  0.40899768  1
  Ca2+  Ca106  1  0.75295162  0.91631419  0.93832077  1
  Ca2+  Ca107  1  0.24823934  0.89179333  0.08881795  1
  Mn3.34+  Mn108  1  0.08255743  0.33564214  0.08638304  1
  Mn3.34+  Mn109  1  0.09022474  0.33343604  0.41440255  1
  Mn3.34+  Mn110  1  0.08572282  0.33341345  0.74847427  1
  Mn3.34+  Mn111  1  0.08264211  0.83112806  0.08721437  1
  Mn3.34+  Mn112  1  0.08515459  0.83096374  0.41171371  1
  Mn3.34+  Mn113  1  0.08385868  0.83315462  0.74917571  1
  Mn3.34+  Mn114  1  0.41326675  0.33161682  0.09300463  1
  Mn3.34+  Mn115  1  0.41483431  0.33812575  0.42027316  1
  Mn3.34+  Mn116  1  0.41429403  0.32870398  0.74615473  1
  Mn3.34+  Mn117  1  0.41908530  0.83386632  0.08271155  1
  Mn3.34+  Mn118  1  0.41606611  0.83284473  0.41584997  1
  Mn3.34+  Mn119  1  0.41789192  0.83598020  0.75522806  1
  Mn3.34+  Mn120  1  0.75213835  0.33535117  0.08878815  1
  Mn3.34+  Mn121  1  0.74832918  0.33291743  0.41850744  1
  Mn3.34+  Mn122  1  0.75168943  0.32711017  0.75658437  1
  Mn3.34+  Mn123  1  0.74917860  0.83508323  0.08840507  1
  Mn3.34+  Mn124  1  0.75033510  0.83221243  0.41399262  1
  Mn3.34+  Mn125  1  0.74823045  0.83720941  0.75384934  1
  Mn3.34+  Mn126  1  0.25341622  0.33484954  0.24112992  1
  Mn3.34+  Mn127  1  0.24997309  0.33076566  0.57859080  1
  Mn3.34+  Mn128  1  0.24757076  0.33870992  0.91731026  1
  Mn3.34+  Mn129  1  0.24702956  0.82992431  0.24884470  1
  Mn3.34+  Mn130  1  0.25055603  0.83402589  0.58121685  1
  Mn3.34+  Mn131  1  0.25113994  0.82348856  0.91453273  1
  Mn3.34+  Mn132  1  0.58069148  0.33389670  0.25147134  1
  Mn3.34+  Mn133  1  0.58210269  0.32763688  0.57483190  1
  Mn3.34+  Mn134  1  0.58302439  0.33157536  0.91842550  1
  Mn3.34+  Mn135  1  0.58742740  0.83162230  0.25037252  1
  Mn3.34+  Mn136  1  0.58602230  0.83413322  0.58251936  1
  Mn3.34+  Mn137  1  0.58503915  0.83120835  0.91549440  1
  Mn3.34+  Mn138  1  0.91553787  0.33361646  0.25354393  1
  Mn3.34+  Mn139  1  0.91790505  0.33327543  0.57716800  1
  Mn3.34+  Mn140  1  0.91933706  0.33466543  0.91927498  1
  Mn3.34+  Mn141  1  0.91720064  0.83444750  0.24523822  1
  Mn3.34+  Mn142  1  0.91017306  0.83866571  0.58109827  1
  Mn3.34+  Mn143  1  0.91431238  0.83256482  0.91544951  1
  Mn3.34+  Mn144  1  0.91655598  0.67086444  0.58019488  1
  Mn3.34+  Mn145  1  0.91479981  0.16663973  0.24867108  1
  Mn3.34+  Mn146  1  0.73946204  0.66446381  0.76182314  1
  Mn3.34+  Mn147  1  0.91524241  0.66948423  0.92224656  1
  Mn3.34+  Mn148  1  0.25154050  0.66492209  0.91258921  1
  Mn3.34+  Mn149  1  0.08811387  0.16783412  0.75268155  1
  Mn3.34+  Mn150  1  0.74981527  0.67190212  0.76005062  1
  Mn3.34+  Mn151  1  0.41561849  0.66779770  0.08199876  1
  Mn3.34+  Mn152  1  0.09050086  0.66506532  0.41597662  1
  Mn3.34+  Mn153  1  0.90593463  0.66565780  0.57833420  1
  Mn3.34+  Mn154  1  0.91620076  0.16795300  0.91782905  1
  Mn3.34+  Mn155  1  0.26182642  0.66261934  0.58950413  1
  Mn3.34+  Mn156  1  0.58708092  0.16793003  0.91568552  1
  Mn3.34+  Mn157  1  0.75095943  0.17353672  0.41243774  1
  Mn3.34+  Mn158  1  0.41203694  0.16227357  0.75324560  1
  Mn3.34+  Mn159  1  0.74596255  0.16781710  0.08572258  1
  Mn3.34+  Mn160  1  0.08650496  0.17116575  0.41633039  1
  Mn3.34+  Mn161  1  0.73981097  0.16722464  0.41532532  1
  Mn3.34+  Mn162  1  0.75188476  0.66135073  0.08440288  1
  Mn3.34+  Mn163  1  0.24925313  0.16826223  0.23881829  1
  Mn3.34+  Mn164  1  0.74467456  0.16853346  0.75596609  1
  Mn3.34+  Mn165  1  0.41059675  0.66625860  0.41629023  1
  Mn3.34+  Mn166  1  0.90281158  0.16214788  0.91397196  1
  Mn3.34+  Mn167  1  0.41625358  0.16841122  0.08228072  1
  Mn3.34+  Mn168  1  0.25091472  0.66709305  0.58907365  1
  Mn3.34+  Mn169  1  0.58360700  0.16699728  0.24418149  1
  Mn3.34+  Mn170  1  0.58901211  0.66464773  0.24371768  1
  Mn3.34+  Mn171  1  0.41613806  0.67111094  0.76472447  1
  Mn3.34+  Mn172  1  0.25056483  0.66677501  0.24418469  1
  Mn3.34+  Mn173  1  0.42010124  0.65876258  0.41926013  1
  Mn3.34+  Mn174  1  0.08311485  0.16971742  0.08823525  1
  Mn3.34+  Mn175  1  0.57889467  0.66870465  0.92080130  1
  Mn3.34+  Mn176  1  0.74710747  0.66722240  0.41364719  1
  Mn3.34+  Mn177  1  0.25165020  0.17158353  0.91751344  1
  Mn3.34+  Mn178  1  0.58516066  0.16650141  0.58103778  1
  Mn3.34+  Mn179  1  0.24698361  0.17118296  0.58384243  1
  Mn3.34+  Mn180  1  0.59069758  -0.00281835  0.92495878  1
  Mn3.34+  Mn181  1  0.73414585  0.49776631  0.41358334  1
  Mn3.34+  Mn182  1  0.58800670  0.00115537  0.58737013  1
  Mn3.34+  Mn183  1  0.91784425  0.49645686  0.24421184  1
  Mn3.34+  Mn184  1  0.25043992  -0.00074560  0.24569036  1
  Mn3.34+  Mn185  1  0.08992708  -0.00489303  0.75243186  1
  Mn3.34+  Mn186  1  0.24977685  0.50229420  0.24629019  1
  Mn3.34+  Mn187  1  0.24799050  -0.00321457  0.58874794  1
  Mn3.34+  Mn188  1  0.90983844  0.00008383  0.92180398  1
  Mn3.34+  Mn189  1  0.26120824  0.00372934  0.90167425  1
  Mn3.34+  Mn190  1  0.41593862  -0.00046071  0.07851060  1
  Mn3.34+  Mn191  1  0.89855927  0.50042915  0.58934813  1
  Mn3.34+  Mn192  1  0.09164238  0.00195743  0.41550939  1
  Mn3.34+  Mn193  1  0.74003316  0.50316326  0.74909746  1
  Mn3.34+  Mn194  1  0.10710721  0.49887854  0.74686371  1
  Mn3.34+  Mn195  1  0.25092624  -0.00159035  0.90219790  1
  Mn3.34+  Mn196  1  0.41062153  0.49715943  0.08393566  1
  Mn3.34+  Mn197  1  0.74923247  0.00286643  0.42245064  1
  Mn3.34+  Mn198  1  0.75274683  0.50020738  0.08283230  1
  Mn3.34+  Mn199  1  0.73885430  -0.00144515  0.42522455  1
  Mn3.34+  Mn200  1  0.57395463  0.49734473  0.57530086  1
  Mn3.34+  Mn201  1  0.26214693  0.00311044  0.58944269  1
  Mn3.34+  Mn202  1  0.58386335  0.50651002  0.91955585  1
  Mn3.34+  Mn203  1  0.75150489  0.00002845  0.74980865  1
  Mn3.34+  Mn204  1  0.42079185  0.50239529  0.08262902  1
  Mn3.34+  Mn205  1  0.07615204  0.00147228  0.75040556  1
  Mn3.34+  Mn206  1  0.28348392  0.49537972  0.57921956  1
  Mn3.34+  Mn207  1  0.74815350  0.50364094  0.41043177  1
  Mn3.34+  Mn208  1  0.58646156  0.00235626  0.24900070  1
  Mn3.34+  Mn209  1  0.41635794  -0.00249717  0.41157931  1
  Mn3.34+  Mn210  1  0.27214970  0.49487402  0.57674394  1
  Mn3.34+  Mn211  1  0.24690897  0.50358175  0.92030051  1
  Mn3.34+  Mn212  1  0.08799827  -0.00017175  0.07857850  1
  Mn3.34+  Mn213  1  0.56490720  0.49142159  0.57645396  1
  Mn3.34+  Mn214  1  0.42018044  0.50411226  0.76460863  1
  Mn3.34+  Mn215  1  0.40912694  0.50827932  0.76617639  1
  O2-  O216  1  -0.00793808  0.13981170  0.00704470  1
  O2-  O217  1  0.00482721  0.14816025  0.33539093  1
  O2-  O218  1  -0.00310705  0.15129635  0.68329074  1
  O2-  O219  1  -0.00081952  0.66730867  -0.00377134  1
  O2-  O220  1  0.01102627  0.65770195  0.33628244  1
  O2-  O221  1  -0.00991815  0.64223394  0.66360696  1
  O2-  O222  1  0.33933897  0.16991043  -0.00506861  1
  O2-  O223  1  0.33170917  0.15920818  0.32255793  1
  O2-  O224  1  0.33299098  0.16661253  0.66264643  1
  O2-  O225  1  0.33204533  0.67184725  0.00329563  1
  O2-  O226  1  0.33227830  0.64382872  0.33475063  1
  O2-  O227  1  0.32804526  0.67553628  0.68035400  1
  O2-  O228  1  0.66266695  0.17099695  0.00387016  1
  O2-  O229  1  0.65884941  0.15331330  0.33773552  1
  O2-  O230  1  0.66378218  0.15387999  0.67040595  1
  O2-  O231  1  0.66546448  0.67400804  0.00473528  1
  O2-  O232  1  0.66741618  0.65265267  0.33186441  1
  O2-  O233  1  0.66455044  0.67170966  0.67679017  1
  O2-  O234  1  0.16665103  0.15606349  0.00302297  1
  O2-  O235  1  0.17067599  0.15161094  0.33069534  1
  O2-  O236  1  0.15155565  0.15675443  0.64941530  1
  O2-  O237  1  0.17767762  0.68399163  -0.00526609  1
  O2-  O238  1  0.17307936  0.64789087  0.33653644  1
  O2-  O239  1  0.16551868  0.64332321  0.65894504  1
  O2-  O240  1  0.50142513  0.17151573  -0.00051607  1
  O2-  O241  1  0.49791958  0.15488542  0.32061341  1
  O2-  O242  1  0.50476934  0.14961472  0.67128547  1
  O2-  O243  1  0.50207211  0.65182829  0.00546694  1
  O2-  O244  1  0.49949497  0.65278600  0.33188768  1
  O2-  O245  1  0.48177454  0.69276884  0.68427810  1
  O2-  O246  1  0.82929196  0.14487194  -0.00022305  1
  O2-  O247  1  0.83025832  0.15555497  0.33307986  1
  O2-  O248  1  0.82604774  0.16893604  0.67543187  1
  O2-  O249  1  0.83057471  0.67172589  0.00205448  1
  O2-  O250  1  0.84306200  0.65346120  0.35095886  1
  O2-  O251  1  0.82542568  0.66623284  0.67036700  1
  O2-  O252  1  0.00215036  0.35319605  -0.00290560  1
  O2-  O253  1  0.00700613  0.34841994  0.32774352  1
  O2-  O254  1  0.00318039  0.35361355  0.66094812  1
  O2-  O255  1  -0.00496217  0.84003217  0.00464810  1
  O2-  O256  1  -0.00318777  0.84331483  0.33492694  1
  O2-  O257  1  -0.00309594  0.85521708  0.66973000  1
  O2-  O258  1  0.33108247  0.34283940  0.00782912  1
  O2-  O259  1  0.32992355  0.33412486  0.32922725  1
  O2-  O260  1  0.32304118  0.33066684  0.67242550  1
  O2-  O261  1  0.33620283  0.83903734  -0.00400687  1
  O2-  O262  1  0.33615975  0.84788257  0.32997883  1
  O2-  O263  1  0.33976703  0.83626903  0.66376825  1
  O2-  O264  1  0.67410051  0.34757636  -0.00709516  1
  O2-  O265  1  0.67554934  0.33155529  0.32654338  1
  O2-  O266  1  0.67059567  0.33664739  0.67017172  1
  O2-  O267  1  0.67050944  0.83991440  -0.00122158  1
  O2-  O268  1  0.67107499  0.85163718  0.32962939  1
  O2-  O269  1  0.66352207  0.83813868  0.67285487  1
  O2-  O270  1  0.15976564  0.35116142  -0.00492444  1
  O2-  O271  1  0.17050536  0.33821160  0.32886718  1
  O2-  O272  1  0.16346530  0.34429350  0.66035160  1
  O2-  O273  1  0.16752692  0.82101756  0.00026503  1
  O2-  O274  1  0.17246104  0.84376191  0.33765018  1
  O2-  O275  1  0.16718805  0.85727502  0.66600625  1
  O2-  O276  1  0.49885788  0.32518943  0.00229167  1
  O2-  O277  1  0.49942749  0.34141541  0.33347485  1
  O2-  O278  1  0.50436380  0.34632696  0.66878451  1
  O2-  O279  1  0.50411112  0.85427660  0.00148548  1
  O2-  O280  1  0.50195117  0.84975745  0.33308017  1
  O2-  O281  1  0.49969534  0.83991564  0.67041879  1
  O2-  O282  1  0.83645584  0.35354542  0.00710311  1
  O2-  O283  1  0.83829974  0.34737988  0.34025436  1
  O2-  O284  1  0.83903413  0.34318836  0.67650166  1
  O2-  O285  1  0.82929811  0.83877926  0.00105181  1
  O2-  O286  1  0.83658658  0.85224638  0.33576144  1
  O2-  O287  1  0.83133855  0.83454206  0.66956181  1
  O2-  O288  1  0.00207935  0.18137954  0.17057862  1
  O2-  O289  1  0.00748024  0.17561176  0.49669950  1
  O2-  O290  1  0.00342254  0.18018328  0.84525463  1
  O2-  O291  1  0.00566173  0.67618468  0.15416774  1
  O2-  O292  1  0.00524059  0.68383711  0.49897037  1
  O2-  O293  1  -0.01459577  0.67511271  0.83035560  1
  O2-  O294  1  0.33798160  0.18471835  0.16746137  1
  O2-  O295  1  0.32498972  0.17997103  0.50061341  1
  O2-  O296  1  0.33383930  0.18098140  0.83700693  1
  O2-  O297  1  0.33889824  0.68141898  0.17080203  1
  O2-  O298  1  0.33548367  0.68656796  0.50628561  1
  O2-  O299  1  0.33434668  0.69619193  0.84042031  1
  O2-  O300  1  0.66722685  0.18428815  0.16602303  1
  O2-  O301  1  0.66824869  0.18919674  0.49929012  1
  O2-  O302  1  0.66327334  0.19254560  0.83335895  1
  O2-  O303  1  0.66845544  0.68427177  0.16251502  1
  O2-  O304  1  0.67084762  0.68186531  0.49285037  1
  O2-  O305  1  0.66278667  0.69120475  0.83770501  1
  O2-  O306  1  0.16064619  0.18993781  0.17337148  1
  O2-  O307  1  0.17337595  0.18467344  0.49004065  1
  O2-  O308  1  0.16193945  0.18223437  0.84019702  1
  O2-  O309  1  0.16918735  0.67910654  0.17183357  1
  O2-  O310  1  0.16867584  0.67184185  0.50529451  1
  O2-  O311  1  0.17676398  0.68633142  0.84226047  1
  O2-  O312  1  0.49598194  0.18357183  0.16643135  1
  O2-  O313  1  0.50311101  0.17176811  0.50617056  1
  O2-  O314  1  0.50118836  0.18215123  0.83886179  1
  O2-  O315  1  0.50170506  0.68143850  0.16675281  1
  O2-  O316  1  0.49930201  0.68040833  0.49103631  1
  O2-  O317  1  0.49912951  0.68870669  0.83897251  1
  O2-  O318  1  0.83898727  0.17440377  0.15772396  1
  O2-  O319  1  0.82990095  0.18656552  0.49148936  1
  O2-  O320  1  0.83119611  0.19459620  0.83062516  1
  O2-  O321  1  0.83634466  0.67597064  0.15117964  1
  O2-  O322  1  0.82537413  0.68815592  0.50425340  1
  O2-  O323  1  0.82896033  0.68695777  0.83602931  1
  O2-  O324  1  -0.00430506  0.32051069  0.16464407  1
  O2-  O325  1  0.00283771  0.32597584  0.49501290  1
  O2-  O326  1  -0.00969234  0.32500724  0.82126886  1
  O2-  O327  1  -0.00260846  0.81976802  0.16317748  1
  O2-  O328  1  0.00037798  0.82271639  0.49554761  1
  O2-  O329  1  0.00196931  0.82436024  0.83658006  1
  O2-  O330  1  0.33148816  0.30328320  0.16642396  1
  O2-  O331  1  0.33195046  0.31433532  0.50227762  1
  O2-  O332  1  0.33630781  0.32362300  0.83697032  1
  O2-  O333  1  0.33294153  0.82091500  0.16382120  1
  O2-  O334  1  0.32843140  0.81722189  0.49425471  1
  O2-  O335  1  0.33122986  0.81343216  0.82739482  1
  O2-  O336  1  0.66311206  0.31946555  0.16140328  1
  O2-  O337  1  0.67073608  0.30881718  0.50260105  1
  O2-  O338  1  0.65881212  0.31284329  0.82887827  1
  O2-  O339  1  0.66564211  0.81465398  0.16365787  1
  O2-  O340  1  0.66200256  0.82275160  0.48897609  1
  O2-  O341  1  0.66698128  0.81398671  0.83489562  1
  O2-  O342  1  0.16758273  0.31498035  0.16260669  1
  O2-  O343  1  0.16625495  0.30863495  0.49944388  1
  O2-  O344  1  0.17113570  0.32111930  0.82356844  1
  O2-  O345  1  0.16796747  0.81231875  0.16408490  1
  O2-  O346  1  0.16158252  0.82928166  0.49969863  1
  O2-  O347  1  0.16501745  0.81733919  0.83439327  1
  O2-  O348  1  0.50136033  0.31373012  0.16526814  1
  O2-  O349  1  0.49854933  0.32069217  0.50038606  1
  O2-  O350  1  0.50231734  0.32226680  0.83301372  1
  O2-  O351  1  0.49949027  0.82743850  0.16880345  1
  O2-  O352  1  0.49862251  0.82368846  0.49737134  1
  O2-  O353  1  0.49919556  0.81936007  0.83446019  1
  O2-  O354  1  0.82941565  0.32172052  0.17478419  1
  O2-  O355  1  0.83043486  0.31462083  0.50227988  1
  O2-  O356  1  0.82497393  0.32191055  0.84602359  1
  O2-  O357  1  0.83098987  0.81564270  0.16573056  1
  O2-  O358  1  0.83734270  0.81884844  0.49117327  1
  O2-  O359  1  0.83448722  0.81644858  0.83070074  1
  O2-  O360  1  0.08819653  0.08087195  0.11935999  1
  O2-  O361  1  0.10643166  0.08209709  0.45399408  1
  O2-  O362  1  0.08344719  0.07884910  0.79539452  1
  O2-  O363  1  0.07309917  0.56660241  0.11501656  1
  O2-  O364  1  0.07319151  0.58159773  0.45189142  1
  O2-  O365  1  0.07365892  0.57632765  0.76904114  1
  O2-  O366  1  0.42049639  0.07943650  0.11166565  1
  O2-  O367  1  0.40567891  0.07497551  0.45323305  1
  O2-  O368  1  0.43467540  0.08180678  0.78507202  1
  O2-  O369  1  0.41585094  0.58300940  0.11101711  1
  O2-  O370  1  0.41531116  0.58183885  0.44360880  1
  O2-  O371  1  0.41027565  0.58968660  0.78196515  1
  O2-  O372  1  0.74436559  0.08487339  0.10856207  1
  O2-  O373  1  0.75797539  0.08355635  0.45710280  1
  O2-  O374  1  0.73499907  0.08015997  0.77709843  1
  O2-  O375  1  0.74204855  0.57881363  0.10498768  1
  O2-  O376  1  0.75550044  0.57955008  0.45640167  1
  O2-  O377  1  0.78378558  0.58201486  0.77117723  1
  O2-  O378  1  0.25665576  0.07872571  0.21142172  1
  O2-  O379  1  0.25453697  0.08096588  0.54941086  1
  O2-  O380  1  0.24147906  0.08630750  0.88690686  1
  O2-  O381  1  0.24404084  0.57994421  0.20970718  1
  O2-  O382  1  0.25990719  0.57833722  0.53693236  1
  O2-  O383  1  0.24517995  0.58342767  0.90462508  1
  O2-  O384  1  0.56864687  0.08284182  0.20820057  1
  O2-  O385  1  0.59884338  0.08063933  0.54996452  1
  O2-  O386  1  0.58232112  0.07637357  0.88484681  1
  O2-  O387  1  0.57404528  0.58639438  0.21621247  1
  O2-  O388  1  0.58431326  0.57254207  0.53044531  1
  O2-  O389  1  0.59301774  0.58621236  0.90141336  1
  O2-  O390  1  0.93445352  0.07881336  0.22065738  1
  O2-  O391  1  0.91741191  0.07405418  0.54383966  1
  O2-  O392  1  0.91716960  0.08193963  0.87126543  1
  O2-  O393  1  0.93173310  0.57616024  0.22845676  1
  O2-  O394  1  0.92190312  0.58154422  0.53779860  1
  O2-  O395  1  0.91100389  0.58599216  0.91021930  1
  O2-  O396  1  0.08578370  0.41429908  0.11590421  1
  O2-  O397  1  0.09532702  0.41337480  0.43507520  1
  O2-  O398  1  0.07567298  0.41851994  0.78315299  1
  O2-  O399  1  0.09960280  0.91827566  0.08150736  1
  O2-  O400  1  0.07238739  0.92052871  0.43592423  1
  O2-  O401  1  0.08740067  0.91840622  0.79136748  1
  O2-  O402  1  0.42028637  0.41985847  0.13048385  1
  O2-  O403  1  0.39254459  0.41846512  0.42762476  1
  O2-  O404  1  0.42999532  0.42023068  0.78768821  1
  O2-  O405  1  0.40644227  0.91912774  0.10702754  1
  O2-  O406  1  0.41314917  0.91849368  0.44608133  1
  O2-  O407  1  0.41688538  0.91508315  0.77915585  1
  O2-  O408  1  0.73601924  0.42101766  0.11880527  1
  O2-  O409  1  0.75480422  0.42156210  0.45378472  1
  O2-  O410  1  0.72266649  0.42063701  0.79157725  1
  O2-  O411  1  0.74748901  0.91381488  0.10715834  1
  O2-  O412  1  0.74384766  0.91680530  0.44756110  1
  O2-  O413  1  0.75520230  0.92352046  0.79170900  1
  O2-  O414  1  0.24440562  0.42403533  0.21503743  1
  O2-  O415  1  0.23894691  0.41670868  0.54044403  1
  O2-  O416  1  0.25557044  0.42450423  0.88112534  1
  O2-  O417  1  0.25736642  0.91745386  0.22442504  1
  O2-  O418  1  0.25654753  0.92010568  0.54466816  1
  O2-  O419  1  0.25493064  0.91516533  0.88796929  1
  O2-  O420  1  0.58393023  0.41291302  0.22677257  1
  O2-  O421  1  0.59912061  0.41149273  0.55824038  1
  O2-  O422  1  0.57923340  0.42467369  0.88301873  1
  O2-  O423  1  0.59022808  0.91996361  0.21991269  1
  O2-  O424  1  0.57147896  0.92093825  0.56187908  1
  O2-  O425  1  0.58712046  0.91917839  0.88533882  1
  O2-  O426  1  0.91379075  0.41583551  0.22369105  1
  O2-  O427  1  0.90947719  0.41894353  0.54889303  1
  O2-  O428  1  0.89733939  0.42626578  0.87716112  1
  O2-  O429  1  0.90336363  0.91814796  0.22561752  1
  O2-  O430  1  0.92334117  0.91876696  0.54607642  1
  O2-  O431  1  0.91252736  0.91704967  0.89019256  1
  O2-  O432  1  0.00581762  0.02319945  -0.00520399  1
  O2-  O433  1  0.00560003  0.01600116  0.35249653  1
  O2-  O434  1  0.01485840  0.01048303  0.65412243  1
  O2-  O435  1  -0.01885687  0.50239033  0.03162988  1
  O2-  O436  1  -0.00906057  0.49765890  0.33569233  1
  O2-  O437  1  -0.00007209  0.50270392  0.66675357  1
  O2-  O438  1  0.34182373  -0.00000575  -0.01424490  1
  O2-  O439  1  0.32471945  0.01632481  0.33862282  1
  O2-  O440  1  0.34195170  -0.01746391  0.66316499  1
  O2-  O441  1  0.33676303  0.48464708  -0.00440927  1
  O2-  O442  1  0.33389886  0.50575848  0.31234475  1
  O2-  O443  1  0.31858263  0.48377735  0.69294151  1
  O2-  O444  1  0.66286557  -0.00968694  0.00343510  1
  O2-  O445  1  0.64936729  0.00229352  0.35179545  1
  O2-  O446  1  0.64708180  -0.00287705  0.69602173  1
  O2-  O447  1  0.67870404  0.48598748  -0.01091776  1
  O2-  O448  1  0.65736369  0.49926279  0.33332607  1
  O2-  O449  1  0.67532806  0.49937142  0.64411163  1
  O2-  O450  1  0.16264443  0.01035681  -0.01838759  1
  O2-  O451  1  0.16368198  0.01707276  0.32328684  1
  O2-  O452  1  0.17555439  0.00372723  0.67678997  1
  O2-  O453  1  0.17099745  0.49561087  -0.00197235  1
  O2-  O454  1  0.17044457  0.49920588  0.32239126  1
  O2-  O455  1  0.15829139  0.50232194  0.62807873  1
  O2-  O456  1  0.50216087  0.00762088  -0.00350475  1
  O2-  O457  1  0.48473088  0.01553236  0.31687335  1
  O2-  O458  1  0.49922352  0.01625475  0.64901813  1
  O2-  O459  1  0.50985829  0.48171969  0.01049926  1
  O2-  O460  1  0.49507889  0.51906285  0.32123631  1
  O2-  O461  1  0.50726971  0.49187637  0.68262304  1
  O2-  O462  1  0.85113735  -0.00965806  0.02521710  1
  O2-  O463  1  0.85319422  -0.00407994  0.37243283  1
  O2-  O464  1  0.84679309  0.00469580  0.69283276  1
  O2-  O465  1  0.83641085  0.47948645  0.01635580  1
  O2-  O466  1  0.82984040  0.50054154  0.32738469  1
  O2-  O467  1  0.84320175  0.47578854  0.69390765  1
  O2-  O468  1  0.58436122  0.24734828  0.27353490  1
  O2-  O469  1  0.40648814  0.74499778  0.38588294  1
  O2-  O470  1  0.57612931  0.75131277  0.27798976  1
  O2-  O471  1  0.42818481  0.75200105  0.06516798  1
  O2-  O472  1  0.42192720  0.24709385  0.73026286  1
  O2-  O473  1  0.91622775  0.25000713  0.27771965  1
  O2-  O474  1  0.24210677  0.25363774  0.93721102  1
  O2-  O475  1  0.09442713  0.74842491  0.39182291  1
  O2-  O476  1  0.41827354  0.25452218  0.40224414  1
  O2-  O477  1  0.75349214  0.75114876  0.38556380  1
  O2-  O478  1  0.58601545  0.75590219  0.59327827  1
  O2-  O479  1  0.76216027  0.25251726  0.06253561  1
  O2-  O480  1  0.26044903  0.74758128  0.27687032  1
  O2-  O481  1  0.22864834  0.75153067  0.60504447  1
  O2-  O482  1  0.07499900  0.24968039  0.05225247  1
  O2-  O483  1  0.91845122  0.75290428  0.93717846  1
  O2-  O484  1  0.07658696  0.25289636  0.72467783  1
  O2-  O485  1  0.91603263  0.75417288  0.26839954  1
  O2-  O486  1  0.92670129  0.25541906  0.60026996  1
  O2-  O487  1  0.08013263  0.75651100  0.72088002  1
  O2-  O488  1  0.92846822  0.75192508  0.61163502  1
  O2-  O489  1  0.07371960  0.24903009  0.38571286  1
  O2-  O490  1  0.57048275  0.75304216  0.94846842  1
  O2-  O491  1  0.91671484  0.24750134  0.95371358  1
  O2-  O492  1  0.57139482  0.24801246  0.60874316  1
