# generated using pymatgen
data_Ca108Mn108O277
_symmetry_space_group_name_H-M   'P 1'
_cell_length_a   16.03614045
_cell_length_b   22.31566145
_cell_length_c   16.39688824
_cell_angle_alpha   89.99745579
_cell_angle_beta   90.00137097
_cell_angle_gamma   90.00134506
_symmetry_Int_Tables_number   1
_chemical_formula_structural   Ca108Mn108O277
_chemical_formula_sum   'Ca108 Mn108 O277'
_cell_volume   5867.74255957
_cell_formula_units_Z   1
loop_
 _symmetry_equiv_pos_site_id
 _symmetry_equiv_pos_as_xyz
  1  'x, y, z'
loop_
 _atom_type_symbol
 _atom_type_oxidation_number
  Ca2+  2.0
  Mn3.34+  3.34
  O2-  -2.0
loop_
 _atom_site_type_symbol
 _atom_site_label
 _atom_site_symmetry_multiplicity
 _atom_site_fract_x
 _atom_site_fract_y
 _atom_site_fract_z
 _atom_site_occupancy
  Ca2+  Ca0  1  0.08384885  0.24773347  0.25421011  1
  Ca2+  Ca1  1  0.06894300  0.26096981  0.57649607  1
  Ca2+  Ca2  1  0.09794622  0.22205680  0.92983060  1
  Ca2+  Ca3  1  0.07705050  0.76058826  0.24969130  1
  Ca2+  Ca4  1  0.09453325  0.73391374  0.59212477  1
  Ca2+  Ca5  1  0.10519505  0.72997067  0.90962140  1
  Ca2+  Ca6  1  0.41374212  0.25033764  0.25645026  1
  Ca2+  Ca7  1  0.41771842  0.25893377  0.57208485  1
  Ca2+  Ca8  1  0.38813872  0.24236158  0.91492899  1
  Ca2+  Ca9  1  0.41162577  0.76368260  0.24271314  1
  Ca2+  Ca10  1  0.40249048  0.75767399  0.58021930  1
  Ca2+  Ca11  1  0.41085304  0.75738602  0.92002240  1
  Ca2+  Ca12  1  0.74588210  0.24150280  0.26683479  1
  Ca2+  Ca13  1  0.75856009  0.25119668  0.57894645  1
  Ca2+  Ca14  1  0.75793397  0.23764687  0.89852750  1
  Ca2+  Ca15  1  0.76230527  0.76310663  0.25080791  1
  Ca2+  Ca16  1  0.76409560  0.75982137  0.58650141  1
  Ca2+  Ca17  1  0.72872557  0.75326612  0.91023937  1
  Ca2+  Ca18  1  0.23947533  0.24532117  0.08356932  1
  Ca2+  Ca19  1  0.24384730  0.24877279  0.41021931  1
  Ca2+  Ca20  1  0.23837145  0.25282175  0.76644831  1
  Ca2+  Ca21  1  0.24303977  0.75567468  0.06987382  1
  Ca2+  Ca22  1  0.23466619  0.75981647  0.42164177  1
  Ca2+  Ca23  1  0.23694628  0.75613646  0.76096383  1
  Ca2+  Ca24  1  0.57736343  0.24824391  0.09267742  1
  Ca2+  Ca25  1  0.59428439  0.23858475  0.42414847  1
  Ca2+  Ca26  1  0.60819791  0.22923860  0.72720266  1
  Ca2+  Ca27  1  0.56739338  0.75540273  0.06496704  1
  Ca2+  Ca28  1  0.58841048  0.76835681  0.41774270  1
  Ca2+  Ca29  1  0.57779105  0.76155174  0.76793412  1
  Ca2+  Ca30  1  0.92449236  0.24629579  0.08433240  1
  Ca2+  Ca31  1  0.90097263  0.24149494  0.42334044  1
  Ca2+  Ca32  1  0.89436285  0.24506156  0.73889016  1
  Ca2+  Ca33  1  0.93274266  0.75979562  0.08700231  1
  Ca2+  Ca34  1  0.93020929  0.75911559  0.41346304  1
  Ca2+  Ca35  1  0.93877442  0.74915216  0.74484632  1
  Ca2+  Ca36  1  0.91270702  0.09968529  0.06855944  1
  Ca2+  Ca37  1  0.24635015  0.60136379  0.44723663  1
  Ca2+  Ca38  1  0.77772539  0.59289287  0.59214323  1
  Ca2+  Ca39  1  0.75134432  0.10670872  0.57307759  1
  Ca2+  Ca40  1  0.39173895  0.57135973  0.26124252  1
  Ca2+  Ca41  1  0.44018888  0.09378823  0.26651112  1
  Ca2+  Ca42  1  0.42272244  0.59856049  0.92253137  1
  Ca2+  Ca43  1  0.45169703  0.10613909  0.57499766  1
  Ca2+  Ca44  1  0.23469215  0.60141201  0.44817388  1
  Ca2+  Ca45  1  0.40176814  0.57451303  0.26449487  1
  Ca2+  Ca46  1  0.40939531  0.59926158  0.92159613  1
  Ca2+  Ca47  1  0.88015007  0.09922236  0.75802983  1
  Ca2+  Ca48  1  0.23907059  0.08910935  0.07147691  1
  Ca2+  Ca49  1  0.77144085  0.10016274  0.90412277  1
  Ca2+  Ca50  1  0.96467702  0.60904380  0.75238378  1
  Ca2+  Ca51  1  0.58453085  0.58708435  0.05769958  1
  Ca2+  Ca52  1  0.74168182  0.60325083  0.91597289  1
  Ca2+  Ca53  1  0.40949296  0.07933110  0.91987679  1
  Ca2+  Ca54  1  0.24578970  0.08511796  0.40743751  1
  Ca2+  Ca55  1  0.39543050  0.58615740  0.58754505  1
  Ca2+  Ca56  1  0.92125700  0.09724881  0.06373805  1
  Ca2+  Ca57  1  0.22352012  0.58862069  0.07238356  1
  Ca2+  Ca58  1  0.63612740  0.08074817  0.74586420  1
  Ca2+  Ca59  1  0.76839330  0.58047430  0.24659547  1
  Ca2+  Ca60  1  0.93803200  0.59553101  0.07585909  1
  Ca2+  Ca61  1  0.44197843  0.10606369  0.57894967  1
  Ca2+  Ca62  1  0.60138055  0.59714065  0.76170187  1
  Ca2+  Ca63  1  0.26511062  0.08625355  0.76112418  1
  Ca2+  Ca64  1  0.59220631  0.59081394  0.75987805  1
  Ca2+  Ca65  1  0.75642649  0.57792346  0.24978876  1
  Ca2+  Ca66  1  0.62294685  0.09889606  0.40012553  1
  Ca2+  Ca67  1  0.20525124  0.60443207  0.73841443  1
  Ca2+  Ca68  1  0.08012087  0.09222434  0.25647100  1
  Ca2+  Ca69  1  0.23479619  0.59214588  0.07048285  1
  Ca2+  Ca70  1  0.25270815  0.08606719  0.76135080  1
  Ca2+  Ca71  1  0.74172490  0.10535514  0.57069794  1
  Ca2+  Ca72  1  0.08975042  0.90731673  0.58407766  1
  Ca2+  Ca73  1  0.43828967  0.91625008  0.91244549  1
  Ca2+  Ca74  1  0.74961982  0.91885829  0.59051533  1
  Ca2+  Ca75  1  0.25135598  0.40489454  0.09784661  1
  Ca2+  Ca76  1  0.24714117  0.91610746  0.41641562  1
  Ca2+  Ca77  1  0.58872112  0.91838238  0.41179574  1
  Ca2+  Ca78  1  0.42381378  0.40046550  0.91556694  1
  Ca2+  Ca79  1  0.56697237  0.39829423  0.74506943  1
  Ca2+  Ca80  1  0.25388165  0.91264493  0.74369523  1
  Ca2+  Ca81  1  0.24887115  0.40590031  0.73864818  1
  Ca2+  Ca82  1  0.57934925  0.39987444  0.74393235  1
  Ca2+  Ca83  1  0.24402653  0.91023356  0.08487414  1
  Ca2+  Ca84  1  0.74560528  0.39367477  0.92287578  1
  Ca2+  Ca85  1  0.41821414  0.40869925  0.25655180  1
  Ca2+  Ca86  1  0.41375628  0.91375899  0.25829590  1
  Ca2+  Ca87  1  0.24662172  0.41091665  0.41189043  1
  Ca2+  Ca88  1  0.07837117  0.89669111  0.92097253  1
  Ca2+  Ca89  1  0.75658932  0.39228147  0.92554684  1
  Ca2+  Ca90  1  0.74967473  0.91999942  0.25965742  1
  Ca2+  Ca91  1  0.90999211  0.39392727  0.08968140  1
  Ca2+  Ca92  1  0.91687835  0.91940066  0.40643149  1
  Ca2+  Ca93  1  0.71412433  0.93342763  0.90083786  1
  Ca2+  Ca94  1  0.58738412  0.91989147  0.06585753  1
  Ca2+  Ca95  1  0.90734089  0.91708222  0.75072416  1
  Ca2+  Ca96  1  0.08011679  0.39430856  0.91656631  1
  Ca2+  Ca97  1  0.25779509  0.41093508  0.41315942  1
  Ca2+  Ca98  1  0.58955032  0.39921353  0.09080344  1
  Ca2+  Ca99  1  0.07921160  0.40275095  0.25057815  1
  Ca2+  Ca100  1  0.39932611  0.91965247  0.59224890  1
  Ca2+  Ca101  1  0.75797702  0.92265169  0.25453039  1
  Ca2+  Ca102  1  0.74041896  0.92218132  0.58842316  1
  Ca2+  Ca103  1  0.42897896  0.91307641  0.91501374  1
  Ca2+  Ca104  1  0.26023345  0.40523085  0.73850804  1
  Ca2+  Ca105  1  0.91664494  0.91346308  0.74822947  1
  Ca2+  Ca106  1  0.06886244  0.39395003  0.91559340  1
  Ca2+  Ca107  1  0.58216724  0.39039431  0.42642986  1
  Mn3.34+  Mn108  1  0.08095546  0.33059223  0.09191181  1
  Mn3.34+  Mn109  1  0.07349807  0.33073923  0.41729718  1
  Mn3.34+  Mn110  1  0.07209796  0.33477953  0.74130938  1
  Mn3.34+  Mn111  1  0.08178407  0.83646210  0.08478421  1
  Mn3.34+  Mn112  1  0.08285871  0.83847776  0.41558731  1
  Mn3.34+  Mn113  1  0.08304124  0.83553296  0.75234148  1
  Mn3.34+  Mn114  1  0.41695934  0.33234653  0.08670153  1
  Mn3.34+  Mn115  1  0.41699288  0.33014996  0.41757754  1
  Mn3.34+  Mn116  1  0.41619358  0.31951283  0.74828085  1
  Mn3.34+  Mn117  1  0.41435635  0.83731998  0.08693310  1
  Mn3.34+  Mn118  1  0.41529948  0.83766123  0.42002764  1
  Mn3.34+  Mn119  1  0.41839248  0.83815288  0.74614721  1
  Mn3.34+  Mn120  1  0.74942378  0.32081612  0.09424883  1
  Mn3.34+  Mn121  1  0.75042578  0.32540897  0.41890048  1
  Mn3.34+  Mn122  1  0.75427473  0.33029147  0.74393768  1
  Mn3.34+  Mn123  1  0.75696212  0.84018476  0.07884786  1
  Mn3.34+  Mn124  1  0.75245051  0.83831102  0.42090610  1
  Mn3.34+  Mn125  1  0.75031069  0.83927713  0.75514095  1
  Mn3.34+  Mn126  1  0.25023660  0.33424683  0.24819776  1
  Mn3.34+  Mn127  1  0.24412597  0.33123084  0.57816353  1
  Mn3.34+  Mn128  1  0.25046301  0.33220779  0.92101856  1
  Mn3.34+  Mn129  1  0.24453528  0.83827141  0.24969243  1
  Mn3.34+  Mn130  1  0.24641105  0.84112437  0.58039083  1
  Mn3.34+  Mn131  1  0.25001471  0.83558649  0.91515358  1
  Mn3.34+  Mn132  1  0.58490143  0.33219751  0.25242231  1
  Mn3.34+  Mn133  1  0.58334418  0.32986475  0.58052147  1
  Mn3.34+  Mn134  1  0.57935766  0.32485256  0.91934171  1
  Mn3.34+  Mn135  1  0.58478504  0.83597667  0.24285738  1
  Mn3.34+  Mn136  1  0.57940893  0.83327876  0.58613904  1
  Mn3.34+  Mn137  1  0.58540822  0.83560780  0.91466849  1
  Mn3.34+  Mn138  1  0.90991742  0.33427022  0.25595897  1
  Mn3.34+  Mn139  1  0.91329027  0.34272080  0.57637303  1
  Mn3.34+  Mn140  1  0.91733170  0.31581078  0.91463613  1
  Mn3.34+  Mn141  1  0.92181389  0.84003889  0.24521996  1
  Mn3.34+  Mn142  1  0.92290779  0.83463772  0.57703263  1
  Mn3.34+  Mn143  1  0.90941993  0.82923210  0.91822536  1
  Mn3.34+  Mn144  1  0.58869445  0.15349400  0.91846887  1
  Mn3.34+  Mn145  1  0.41285805  0.16511657  0.08934220  1
  Mn3.34+  Mn146  1  0.58749841  0.66143355  0.57441696  1
  Mn3.34+  Mn147  1  0.41751548  0.66934667  0.09037274  1
  Mn3.34+  Mn148  1  0.07966686  0.67189719  0.07842870  1
  Mn3.34+  Mn149  1  0.41469468  0.66809824  0.41877929  1
  Mn3.34+  Mn150  1  0.92910229  0.66638626  0.58057684  1
  Mn3.34+  Mn151  1  0.76020431  0.67090632  0.74884889  1
  Mn3.34+  Mn152  1  0.58682460  0.66250788  0.25029412  1
  Mn3.34+  Mn153  1  0.07519776  0.16562577  0.41680281  1
  Mn3.34+  Mn154  1  0.24493020  0.66794356  0.25151274  1
  Mn3.34+  Mn155  1  0.57523579  0.16058775  0.91704491  1
  Mn3.34+  Mn156  1  0.23479530  0.66234803  0.24911707  1
  Mn3.34+  Mn157  1  0.07607158  0.67016933  0.41985013  1
  Mn3.34+  Mn158  1  0.08004086  0.16598232  0.75064932  1
  Mn3.34+  Mn159  1  0.74954923  0.67339505  0.08422891  1
  Mn3.34+  Mn160  1  0.92880534  0.66836635  0.25128725  1
  Mn3.34+  Mn161  1  0.41872981  0.67094171  0.74732995  1
  Mn3.34+  Mn162  1  0.23605654  0.15702972  0.57763671  1
  Mn3.34+  Mn163  1  0.41924429  0.17139286  0.75123703  1
  Mn3.34+  Mn164  1  0.41923002  0.17039650  0.41264750  1
  Mn3.34+  Mn165  1  0.91261599  0.15798113  0.25112125  1
  Mn3.34+  Mn166  1  0.24856177  0.16392930  0.58052283  1
  Mn3.34+  Mn167  1  0.42283850  0.16002352  0.09131603  1
  Mn3.34+  Mn168  1  0.57518425  0.66838432  0.57821439  1
  Mn3.34+  Mn169  1  0.06962375  0.16161133  0.75356254  1
  Mn3.34+  Mn170  1  0.75880402  0.67904225  0.08238783  1
  Mn3.34+  Mn171  1  0.76551331  0.66291616  0.41891795  1
  Mn3.34+  Mn172  1  0.91795220  0.16677881  0.57869129  1
  Mn3.34+  Mn173  1  0.91630817  0.67352752  0.91253072  1
  Mn3.34+  Mn174  1  0.75104740  0.66827868  0.41676343  1
  Mn3.34+  Mn175  1  0.57709873  0.66847344  0.25317381  1
  Mn3.34+  Mn176  1  0.40384675  0.66656320  0.74885036  1
  Mn3.34+  Mn177  1  0.08445352  0.16730643  0.08980953  1
  Mn3.34+  Mn178  1  0.24707463  0.16513409  0.25147724  1
  Mn3.34+  Mn179  1  0.74700630  0.16296418  0.09271462  1
  Mn3.34+  Mn180  1  0.24170174  0.49651750  0.59572045  1
  Mn3.34+  Mn181  1  0.76919691  0.49590800  0.73710817  1
  Mn3.34+  Mn182  1  0.07468817  0.49844090  0.73952128  1
  Mn3.34+  Mn183  1  0.92794043  0.50098367  0.90482793  1
  Mn3.34+  Mn184  1  0.06839648  0.50128211  0.42558483  1
  Mn3.34+  Mn185  1  0.58447360  0.49815566  0.91652752  1
  Mn3.34+  Mn186  1  0.08141801  0.00285592  0.41399433  1
  Mn3.34+  Mn187  1  0.08243092  0.00048311  0.74890645  1
  Mn3.34+  Mn188  1  0.25083794  0.50026058  0.91129142  1
  Mn3.34+  Mn189  1  0.57758199  0.50112296  0.58817702  1
  Mn3.34+  Mn190  1  0.41710456  0.00192313  0.41333505  1
  Mn3.34+  Mn191  1  0.92732057  0.49954614  0.24648236  1
  Mn3.34+  Mn192  1  0.41502947  0.49833027  0.75240233  1
  Mn3.34+  Mn193  1  0.93234215  0.50115620  0.58626095  1
  Mn3.34+  Mn194  1  0.76613694  0.49050019  0.42061148  1
  Mn3.34+  Mn195  1  0.24031337  -0.00244252  0.92804751  1
  Mn3.34+  Mn196  1  0.91308614  0.50608367  0.90656069  1
  Mn3.34+  Mn197  1  0.24629079  0.00189481  0.25375670  1
  Mn3.34+  Mn198  1  0.92064923  0.00154495  0.58194806  1
  Mn3.34+  Mn199  1  0.75271511  0.49709833  0.08175430  1
  Mn3.34+  Mn200  1  0.42250403  0.49892438  0.08320049  1
  Mn3.34+  Mn201  1  0.59008163  0.49814658  0.24999166  1
  Mn3.34+  Mn202  1  0.91552620  0.00201134  0.25786605  1
  Mn3.34+  Mn203  1  0.07746663  -0.00000161  0.08576878  1
  Mn3.34+  Mn204  1  0.23619396  0.50628812  0.91018735  1
  Mn3.34+  Mn205  1  0.78556417  0.49517168  0.73430124  1
  Mn3.34+  Mn206  1  0.91917793  -0.00026540  0.92449935  1
  Mn3.34+  Mn207  1  0.07528029  0.49831594  0.09232443  1
  Mn3.34+  Mn208  1  0.58695678  0.00292872  0.57644796  1
  Mn3.34+  Mn209  1  0.05980124  0.50407501  0.41611643  1
  Mn3.34+  Mn210  1  0.42405232  0.49995306  0.41937402  1
  Mn3.34+  Mn211  1  0.42603805  0.00358185  0.73747053  1
  Mn3.34+  Mn212  1  0.58476422  0.00020437  0.25576156  1
  Mn3.34+  Mn213  1  0.42448585  0.00086749  0.08073804  1
  Mn3.34+  Mn214  1  0.75587331  0.49484245  0.42251673  1
  Mn3.34+  Mn215  1  0.74291784  0.00531636  0.06742473  1
  O2-  O216  1  -0.00013480  0.16675514  0.01093383  1
  O2-  O217  1  0.00366797  0.16332776  0.32639924  1
  O2-  O218  1  -0.00541882  0.15056847  0.67148657  1
  O2-  O219  1  -0.00566631  0.67056331  0.00105249  1
  O2-  O220  1  -0.00154493  0.65912849  0.33692584  1
  O2-  O221  1  0.01170852  0.66166499  0.65201754  1
  O2-  O222  1  0.34170277  0.14740832  0.00475551  1
  O2-  O223  1  0.33421307  0.14759566  0.32990824  1
  O2-  O224  1  0.33480059  0.14685278  0.66295181  1
  O2-  O225  1  0.33380140  0.64366252  0.01714901  1
  O2-  O226  1  0.32596948  0.64508434  0.33501271  1
  O2-  O227  1  0.34261683  0.66563854  0.65655703  1
  O2-  O228  1  0.67075340  0.14975312  -0.00017678  1
  O2-  O229  1  0.65599533  0.18051034  0.33078293  1
  O2-  O230  1  0.66136563  0.15432482  0.65896725  1
  O2-  O231  1  0.66896185  0.66700300  0.00300604  1
  O2-  O232  1  0.67558544  0.64006990  0.33189820  1
  O2-  O233  1  0.67551593  0.64639686  0.65943048  1
  O2-  O234  1  0.16699207  0.15930812  0.01564718  1
  O2-  O235  1  0.16797766  0.15138293  0.33345354  1
  O2-  O236  1  0.16756418  0.13973042  0.67342609  1
  O2-  O237  1  0.16407058  0.66014372  0.00295515  1
  O2-  O238  1  0.16343869  0.64253059  0.33770885  1
  O2-  O239  1  0.19014877  0.68861538  0.67066495  1
  O2-  O240  1  0.49902943  0.14058522  0.00098468  1
  O2-  O241  1  0.50165373  0.16798951  0.34012262  1
  O2-  O242  1  0.49103760  0.17889005  0.66370810  1
  O2-  O243  1  0.49289186  0.65410307  0.00736004  1
  O2-  O244  1  0.48485573  0.64430887  0.32721051  1
  O2-  O245  1  0.50157313  0.63766568  0.66972262  1
  O2-  O246  1  0.82916121  0.17329593  0.00953441  1
  O2-  O247  1  0.84227532  0.18047616  0.32518445  1
  O2-  O248  1  0.83538478  0.16104658  0.65813397  1
  O2-  O249  1  0.83545407  0.65713726  0.00051811  1
  O2-  O250  1  0.83122095  0.64747417  0.32310254  1
  O2-  O251  1  0.84780122  0.65795562  0.67434552  1
  O2-  O252  1  -0.00402552  0.33799815  0.00418773  1
  O2-  O253  1  0.00507796  0.33268131  0.32423672  1
  O2-  O254  1  -0.00361855  0.33918529  0.66079414  1
  O2-  O255  1  -0.00261872  0.83180286  -0.00392837  1
  O2-  O256  1  -0.00432222  0.84816641  0.33877712  1
  O2-  O257  1  -0.00257125  0.85605835  0.66782568  1
  O2-  O258  1  0.33338192  0.35299032  0.00036943  1
  O2-  O259  1  0.33196799  0.34789946  0.33322610  1
  O2-  O260  1  0.32815501  0.33326935  0.66987561  1
  O2-  O261  1  0.34062808  0.85874184  -0.00712646  1
  O2-  O262  1  0.33801168  0.83995532  0.33032886  1
  O2-  O263  1  0.33001477  0.83670793  0.66246383  1
  O2-  O264  1  0.66667463  0.33722688  0.00307946  1
  O2-  O265  1  0.65697791  0.32417600  0.34074895  1
  O2-  O266  1  0.65792839  0.33757853  0.67508634  1
  O2-  O267  1  0.67294410  0.84660800  -0.00544368  1
  O2-  O268  1  0.67055171  0.85524983  0.33058078  1
  O2-  O269  1  0.67667061  0.84155547  0.66451912  1
  O2-  O270  1  0.16565151  0.35424520  0.00281078  1
  O2-  O271  1  0.16937899  0.34915384  0.33370416  1
  O2-  O272  1  0.16644855  0.35074255  0.66702016  1
  O2-  O273  1  0.17272096  0.84671468  0.00249847  1
  O2-  O274  1  0.17299063  0.84963005  0.34277551  1
  O2-  O275  1  0.16936046  0.84885286  0.67079238  1
  O2-  O276  1  0.50213252  0.34871870  0.00376611  1
  O2-  O277  1  0.49531081  0.33705166  0.33061303  1
  O2-  O278  1  0.50324063  0.31402125  0.66813478  1
  O2-  O279  1  0.50198957  0.84821842  0.00193586  1
  O2-  O280  1  0.50128462  0.84547621  0.33608226  1
  O2-  O281  1  0.49286272  0.85238088  0.65865962  1
  O2-  O282  1  0.82902766  0.31887831  -0.00243098  1
  O2-  O283  1  0.83169687  0.31981137  0.33465295  1
  O2-  O284  1  0.83109922  0.34282179  0.66488972  1
  O2-  O285  1  0.82902369  0.79659974  -0.00111556  1
  O2-  O286  1  0.83009608  0.85299830  0.33089610  1
  O2-  O287  1  0.83318749  0.84963911  0.66273916  1
  O2-  O288  1  -0.00202607  0.18326766  0.17130651  1
  O2-  O289  1  0.00359508  0.18400990  0.50006730  1
  O2-  O290  1  -0.00184821  0.19096318  0.83066173  1
  O2-  O291  1  -0.00099227  0.68191546  0.16163430  1
  O2-  O292  1  -0.00237697  0.69201843  0.49596819  1
  O2-  O293  1  -0.00593626  0.68843869  0.83782700  1
  O2-  O294  1  0.32693506  0.18320744  0.16588177  1
  O2-  O295  1  0.33556903  0.17879059  0.50399060  1
  O2-  O296  1  0.32937194  0.18442843  0.81724274  1
  O2-  O297  1  0.33559910  0.68395467  0.17570760  1
  O2-  O298  1  0.32965915  0.68898933  0.48547593  1
  O2-  O299  1  0.34942941  0.68415241  0.84543859  1
  O2-  O300  1  0.67679945  0.20180153  0.15544786  1
  O2-  O301  1  0.66826426  0.17636961  0.50457509  1
  O2-  O302  1  0.66558822  0.17098919  0.83702549  1
  O2-  O303  1  0.67426059  0.69104066  0.16919622  1
  O2-  O304  1  0.66742846  0.68821302  0.49497483  1
  O2-  O305  1  0.66532577  0.68090350  0.81190616  1
  O2-  O306  1  0.16216268  0.18151792  0.17601974  1
  O2-  O307  1  0.16944132  0.17660558  0.48967290  1
  O2-  O308  1  0.16761264  0.17157407  0.82424212  1
  O2-  O309  1  0.16923553  0.67857349  0.15659809  1
  O2-  O310  1  0.16842011  0.68286950  0.48827170  1
  O2-  O311  1  0.17153383  0.67937573  0.81426788  1
  O2-  O312  1  0.49335953  0.18198379  0.17277494  1
  O2-  O313  1  0.49004000  0.18482858  0.50031829  1
  O2-  O314  1  0.49881114  0.18876480  0.83598762  1
  O2-  O315  1  0.50171647  0.69044278  0.16439031  1
  O2-  O316  1  0.49725097  0.69224720  0.49580528  1
  O2-  O317  1  0.50148528  0.66756783  0.82566133  1
  O2-  O318  1  0.84043906  0.17911679  0.16224131  1
  O2-  O319  1  0.83399979  0.17501044  0.50707421  1
  O2-  O320  1  0.84095804  0.17986924  0.83429634  1
  O2-  O321  1  0.83514510  0.68671506  0.16739734  1
  O2-  O322  1  0.82983271  0.68386868  0.50933091  1
  O2-  O323  1  0.82416717  0.69095702  0.84154155  1
  O2-  O324  1  -0.00163152  0.31509498  0.16854061  1
  O2-  O325  1  -0.00731080  0.31689687  0.49233171  1
  O2-  O326  1  0.00976959  0.31826007  0.84445472  1
  O2-  O327  1  0.00401297  0.82269653  0.16795954  1
  O2-  O328  1  0.00386709  0.82272168  0.50067388  1
  O2-  O329  1  -0.00825488  0.82751855  0.82584739  1
  O2-  O330  1  0.33068513  0.31838481  0.16486016  1
  O2-  O331  1  0.32799556  0.32255405  0.49426885  1
  O2-  O332  1  0.33158780  0.32394660  0.83202948  1
  O2-  O333  1  0.32724147  0.82070975  0.16217880  1
  O2-  O334  1  0.32614775  0.81735552  0.49821577  1
  O2-  O335  1  0.33386800  0.82725830  0.83112573  1
  O2-  O336  1  0.65975444  0.31950864  0.16584161  1
  O2-  O337  1  0.66384222  0.31505846  0.50505256  1
  O2-  O338  1  0.66932828  0.32514714  0.84061946  1
  O2-  O339  1  0.67020680  0.81735262  0.16166262  1
  O2-  O340  1  0.67025543  0.81951524  0.50420180  1
  O2-  O341  1  0.66716685  0.82356459  0.83130838  1
  O2-  O342  1  0.16765545  0.32266249  0.16746704  1
  O2-  O343  1  0.16938125  0.32259342  0.49017983  1
  O2-  O344  1  0.16666032  0.33069541  0.83307998  1
  O2-  O345  1  0.16829992  0.82274447  0.16471123  1
  O2-  O346  1  0.16045542  0.81983926  0.50982313  1
  O2-  O347  1  0.16067578  0.82470597  0.83956597  1
  O2-  O348  1  0.49865699  0.31281282  0.17023545  1
  O2-  O349  1  0.50440315  0.31419166  0.49273909  1
  O2-  O350  1  0.50031654  0.31959997  0.83165402  1
  O2-  O351  1  0.49857080  0.81894625  0.16560427  1
  O2-  O352  1  0.49663720  0.81627506  0.49948721  1
  O2-  O353  1  0.49162589  0.82763435  0.84112836  1
  O2-  O354  1  0.83845463  0.30954235  0.16548492  1
  O2-  O355  1  0.83063016  0.31949019  0.50094982  1
  O2-  O356  1  0.82647132  0.32406756  0.83958709  1
  O2-  O357  1  0.83392655  0.82157608  0.16375559  1
  O2-  O358  1  0.83627530  0.81974639  0.49847606  1
  O2-  O359  1  0.83348913  0.81177061  0.82690698  1
  O2-  O360  1  0.07457042  0.08247726  0.11599591  1
  O2-  O361  1  0.08728214  0.08193603  0.43512114  1
  O2-  O362  1  0.07868186  0.07999688  0.78442005  1
  O2-  O363  1  0.08641028  0.58482523  0.10300043  1
  O2-  O364  1  0.08825043  0.58588257  0.45869586  1
  O2-  O365  1  0.08525301  0.56506401  0.79996221  1
  O2-  O366  1  0.40845792  0.07761604  0.12933797  1
  O2-  O367  1  0.42100332  0.08414176  0.44220593  1
  O2-  O368  1  0.40664958  0.08115197  0.78068479  1
  O2-  O369  1  0.42902127  0.58158221  0.13042248  1
  O2-  O370  1  0.39241613  0.58013202  0.45417973  1
  O2-  O371  1  0.41101866  0.58151020  0.78224573  1
  O2-  O372  1  0.77867331  0.07750158  0.10580892  1
  O2-  O373  1  0.72212145  0.05237485  0.46762219  1
  O2-  O374  1  0.75805760  0.06073542  0.78595840  1
  O2-  O375  1  0.74618298  0.58223129  0.11235124  1
  O2-  O376  1  0.75562440  0.57791049  0.46000659  1
  O2-  O377  1  0.74339081  0.57372498  0.78724125  1
  O2-  O378  1  0.23343664  0.08048731  0.21613832  1
  O2-  O379  1  0.26286619  0.07894441  0.54954645  1
  O2-  O380  1  0.26425088  0.07208246  0.89169238  1
  O2-  O381  1  0.26231988  0.57827162  0.20449677  1
  O2-  O382  1  0.25563378  0.57770471  0.57656493  1
  O2-  O383  1  0.27255126  0.58316224  0.87810890  1
  O2-  O384  1  0.57813241  0.07409355  0.23579804  1
  O2-  O385  1  0.57179786  0.07764767  0.53776851  1
  O2-  O386  1  0.56548417  0.07924070  0.87464365  1
  O2-  O387  1  0.60331508  0.58086221  0.20164784  1
  O2-  O388  1  0.56545849  0.58245995  0.54364565  1
  O2-  O389  1  0.58635366  0.58038006  0.89347020  1
  O2-  O390  1  0.93142619  0.07391489  0.20472520  1
  O2-  O391  1  0.89510558  0.08026680  0.56852081  1
  O2-  O392  1  0.91123769  0.07585207  0.89841917  1
  O2-  O393  1  0.89857900  0.57799375  0.20408115  1
  O2-  O394  1  0.91816229  0.58238923  0.55354573  1
  O2-  O395  1  0.90165265  0.58551455  0.87765920  1
  O2-  O396  1  0.07359944  0.41444132  0.11237478  1
  O2-  O397  1  0.08335776  0.41670199  0.43538807  1
  O2-  O398  1  0.08281338  0.42176720  0.78721661  1
  O2-  O399  1  0.08817914  0.91891572  0.09435641  1
  O2-  O400  1  0.08488099  0.92281673  0.44989736  1
  O2-  O401  1  0.07462541  0.92213115  0.78470776  1
  O2-  O402  1  0.41933910  0.41632805  0.11645269  1
  O2-  O403  1  0.41773806  0.41593363  0.43242815  1
  O2-  O404  1  0.43294606  0.41564144  0.77374242  1
  O2-  O405  1  0.41989365  0.92236636  0.11966902  1
  O2-  O406  1  0.41090020  0.92455710  0.45474324  1
  O2-  O407  1  0.41083952  0.92492243  0.77721878  1
  O2-  O408  1  0.76269848  0.41320688  0.07819038  1
  O2-  O409  1  0.72727051  0.41088097  0.43174163  1
  O2-  O410  1  0.73370531  0.42243684  0.78746380  1
  O2-  O411  1  0.74064460  0.93034750  0.11863099  1
  O2-  O412  1  0.75173559  0.91714503  0.45200168  1
  O2-  O413  1  0.77254141  0.91963278  0.77993909  1
  O2-  O414  1  0.25080773  0.41719386  0.23231610  1
  O2-  O415  1  0.24623633  0.41990355  0.55066562  1
  O2-  O416  1  0.24978275  0.41967579  0.87645362  1
  O2-  O417  1  0.26368471  0.92241231  0.22309212  1
  O2-  O418  1  0.24955165  0.92069786  0.55889025  1
  O2-  O419  1  0.24292628  0.92182955  0.88473819  1
  O2-  O420  1  0.57130515  0.41781420  0.22304935  1
  O2-  O421  1  0.56948946  0.41670076  0.57726083  1
  O2-  O422  1  0.58563580  0.41797821  0.88065493  1
  O2-  O423  1  0.58779081  0.92582545  0.20695286  1
  O2-  O424  1  0.60040707  0.92180109  0.55265200  1
  O2-  O425  1  0.57546154  0.91825454  0.89446147  1
  O2-  O426  1  0.92466198  0.41930000  0.21886880  1
  O2-  O427  1  0.92332195  0.42443329  0.54551101  1
  O2-  O428  1  0.91403679  0.41626280  0.90233853  1
  O2-  O429  1  0.89700138  0.92529375  0.21627123  1
  O2-  O430  1  0.92010339  0.92156970  0.54322928  1
  O2-  O431  1  0.92167247  0.92115034  0.88882728  1
  O2-  O432  1  -0.01607389  0.01393074  0.01799691  1
  O2-  O433  1  -0.00184291  -0.00174980  0.33329803  1
  O2-  O434  1  -0.00611592  -0.01120310  0.67767455  1
  O2-  O435  1  -0.00003136  0.50000106  -0.00167096  1
  O2-  O436  1  0.03356368  0.49855148  0.30076954  1
  O2-  O437  1  -0.03370146  0.50977448  0.70258772  1
  O2-  O438  1  0.33828523  -0.00458483  -0.00590824  1
  O2-  O439  1  0.34363877  0.00632560  0.32192179  1
  O2-  O440  1  0.33336700  0.00295024  0.68510768  1
  O2-  O441  1  0.32425562  0.51468087  0.00752809  1
  O2-  O442  1  0.33339165  0.50412793  0.34035027  1
  O2-  O443  1  0.34003555  0.48465947  0.66470876  1
  O2-  O444  1  0.66045233  -0.00440566  0.00231821  1
  O2-  O445  1  0.66628103  -0.01389909  0.32406515  1
  O2-  O446  1  0.68566391  0.01055823  0.63130742  1
  O2-  O447  1  0.65701981  0.50027938  0.00970159  1
  O2-  O448  1  0.67834666  0.51518004  0.33102080  1
  O2-  O449  1  0.67266979  0.51406879  0.66857308  1
  O2-  O450  1  0.17895778  0.00186748  0.02570443  1
  O2-  O451  1  0.18309585  -0.00051619  0.35613010  1
  O2-  O452  1  0.19133085  0.00256600  0.72443943  1
  O2-  O453  1  0.16982328  0.49596238  0.01001482  1
  O2-  O454  1  0.18935609  0.50420446  0.40347039  1
  O2-  O455  1  0.18764774  0.49458650  0.70698701  1
  O2-  O456  1  0.49223763  -0.01226702  -0.00612267  1
  O2-  O457  1  0.50343088  -0.01475315  0.33204064  1
  O2-  O458  1  0.48189250  0.00760689  0.63100297  1
  O2-  O459  1  0.48423295  0.51205849  -0.02107709  1
  O2-  O460  1  0.48826800  0.50708696  0.31270037  1
  O2-  O461  1  0.52848539  0.50733004  0.71361819  1
  O2-  O462  1  0.81790311  -0.00143804  -0.01776135  1
  O2-  O463  1  0.83218181  -0.00997861  0.32564244  1
  O2-  O464  1  0.83991043  -0.02353051  0.65596772  1
  O2-  O465  1  0.82919839  0.50705040  -0.00947543  1
  O2-  O466  1  0.83656161  0.51067608  0.32593656  1
  O2-  O467  1  0.82136139  0.50195542  0.62859437  1
  O2-  O468  1  0.08477461  0.75309885  0.38724124  1
  O2-  O469  1  0.75193568  0.75214747  0.38689412  1
  O2-  O470  1  0.24526762  0.25433439  0.94105636  1
  O2-  O471  1  0.74712565  0.24566090  0.41503299  1
  O2-  O472  1  0.08211972  0.75878804  0.72933845  1
  O2-  O473  1  0.92019148  0.25024731  0.60147023  1
  O2-  O474  1  0.58787183  0.74388881  0.62183547  1
  O2-  O475  1  0.57807029  0.75568578  0.92871459  1
  O2-  O476  1  0.43429406  0.75197290  0.72317140  1
  O2-  O477  1  0.58710622  0.23953010  0.95123330  1
  O2-  O478  1  0.59152977  0.75048614  0.28562003  1
  O2-  O479  1  0.25037160  0.24914898  0.27496460  1
  O2-  O480  1  0.23809542  0.75046370  0.27962852  1
  O2-  O481  1  0.09117384  0.25145336  0.06355595  1
  O2-  O482  1  0.09577157  0.24666645  0.71920445  1
  O2-  O483  1  0.23389036  0.24285601  0.61094014  1
  O2-  O484  1  0.91436687  0.75414755  0.60798079  1
  O2-  O485  1  0.91605213  0.75494783  0.27385261  1
  O2-  O486  1  0.09354126  0.24931322  0.39401050  1
  O2-  O487  1  0.09119384  0.75333891  0.06317193  1
  O2-  O488  1  0.40949707  0.75070525  0.05728953  1
  O2-  O489  1  0.74996656  0.25216191  0.73361782  1
  O2-  O490  1  0.39531894  0.25027830  0.39275412  1
  O2-  O491  1  0.25742685  0.75744762  0.93471092  1
  O2-  O492  1  0.41878977  0.24731846  0.05068549  1
