# generated using pymatgen
data_Ca108Mn108O277
_symmetry_space_group_name_H-M   'P 1'
_cell_length_a   16.02368859
_cell_length_b   22.30224263
_cell_length_c   16.38538224
_cell_angle_alpha   89.99828407
_cell_angle_beta   90.00102216
_cell_angle_gamma   90.00301812
_symmetry_Int_Tables_number   1
_chemical_formula_structural   Ca108Mn108O277
_chemical_formula_sum   'Ca108 Mn108 O277'
_cell_volume   5855.54885577
_cell_formula_units_Z   1
loop_
 _symmetry_equiv_pos_site_id
 _symmetry_equiv_pos_as_xyz
  1  'x, y, z'
loop_
 _atom_type_symbol
 _atom_type_oxidation_number
  Ca2+  2.0
  Mn3.34+  3.34
  O2-  -2.0
loop_
 _atom_site_type_symbol
 _atom_site_label
 _atom_site_symmetry_multiplicity
 _atom_site_fract_x
 _atom_site_fract_y
 _atom_site_fract_z
 _atom_site_occupancy
  Ca2+  Ca0  1  0.07607113  0.25173720  0.23333527  1
  Ca2+  Ca1  1  0.09873057  0.25368365  0.58228668  1
  Ca2+  Ca2  1  0.08463488  0.25367320  0.93123054  1
  Ca2+  Ca3  1  0.08434086  0.77012186  0.25273017  1
  Ca2+  Ca4  1  0.08974419  0.75777676  0.58828146  1
  Ca2+  Ca5  1  0.09335197  0.74653323  0.91718358  1
  Ca2+  Ca6  1  0.42379755  0.24960157  0.25757251  1
  Ca2+  Ca7  1  0.40431113  0.24998308  0.56138071  1
  Ca2+  Ca8  1  0.42296713  0.24902992  0.91998662  1
  Ca2+  Ca9  1  0.43244119  0.74891473  0.25505452  1
  Ca2+  Ca10  1  0.42923074  0.74654278  0.58359736  1
  Ca2+  Ca11  1  0.42931819  0.73706666  0.91529312  1
  Ca2+  Ca12  1  0.74547636  0.25367077  0.24556563  1
  Ca2+  Ca13  1  0.74810587  0.25231077  0.58235002  1
  Ca2+  Ca14  1  0.74550463  0.26009011  0.92275523  1
  Ca2+  Ca15  1  0.73282756  0.75033912  0.25022100  1
  Ca2+  Ca16  1  0.73488611  0.74729842  0.60004003  1
  Ca2+  Ca17  1  0.72662740  0.74168035  0.90414468  1
  Ca2+  Ca18  1  0.22683167  0.24336710  0.08102327  1
  Ca2+  Ca19  1  0.26649361  0.24800554  0.43264003  1
  Ca2+  Ca20  1  0.25052445  0.24764795  0.73188297  1
  Ca2+  Ca21  1  0.24945005  0.74980034  0.07508295  1
  Ca2+  Ca22  1  0.24661507  0.75131868  0.41408247  1
  Ca2+  Ca23  1  0.24812628  0.75292198  0.75867630  1
  Ca2+  Ca24  1  0.58450676  0.24905855  0.08664039  1
  Ca2+  Ca25  1  0.56120166  0.23884069  0.40970863  1
  Ca2+  Ca26  1  0.58973801  0.23985686  0.75284775  1
  Ca2+  Ca27  1  0.58656866  0.74407755  0.07358081  1
  Ca2+  Ca28  1  0.57660696  0.74634676  0.40780806  1
  Ca2+  Ca29  1  0.59123829  0.74953956  0.76466502  1
  Ca2+  Ca30  1  0.92442496  0.25438122  0.09578364  1
  Ca2+  Ca31  1  0.91415684  0.25764562  0.41739240  1
  Ca2+  Ca32  1  0.91017796  0.25948078  0.74125971  1
  Ca2+  Ca33  1  0.91886252  0.75397603  0.08901060  1
  Ca2+  Ca34  1  0.92363426  0.75754244  0.41066109  1
  Ca2+  Ca35  1  0.89940551  0.74689434  0.75513610  1
  Ca2+  Ca36  1  0.09423409  0.09897526  0.59033083  1
  Ca2+  Ca37  1  0.08257801  0.08193598  0.25424568  1
  Ca2+  Ca38  1  0.93877918  0.07804500  0.73247983  1
  Ca2+  Ca39  1  0.57483998  0.11175445  0.08879291  1
  Ca2+  Ca40  1  0.07774679  0.57406783  0.27068875  1
  Ca2+  Ca41  1  0.91075057  0.58433699  0.08102236  1
  Ca2+  Ca42  1  0.47466486  0.09957383  0.25227047  1
  Ca2+  Ca43  1  0.42816508  0.60263214  0.56807966  1
  Ca2+  Ca44  1  0.94378180  0.09743049  0.09574057  1
  Ca2+  Ca45  1  0.44797472  0.10796298  0.91589788  1
  Ca2+  Ca46  1  0.56994728  0.58092882  0.07381100  1
  Ca2+  Ca47  1  0.10294335  0.10159673  0.92590490  1
  Ca2+  Ca48  1  0.70769964  0.10540144  0.90907867  1
  Ca2+  Ca49  1  0.59053994  0.60485341  0.76134226  1
  Ca2+  Ca50  1  0.56985496  0.60273359  0.40395891  1
  Ca2+  Ca51  1  0.74850837  0.58737188  0.60159524  1
  Ca2+  Ca52  1  0.26711344  0.59322718  0.05201994  1
  Ca2+  Ca53  1  0.11501135  0.59749706  0.91186422  1
  Ca2+  Ca54  1  0.71849978  0.59090519  0.91774159  1
  Ca2+  Ca55  1  0.70796934  0.59174812  0.91643949  1
  Ca2+  Ca56  1  0.70212822  0.09401405  0.25212585  1
  Ca2+  Ca57  1  0.92967938  0.57690241  0.41939594  1
  Ca2+  Ca58  1  0.43706420  0.59276000  0.24163850  1
  Ca2+  Ca59  1  0.26048667  0.10342112  0.42802808  1
  Ca2+  Ca60  1  0.24414053  0.60228420  0.76837704  1
  Ca2+  Ca61  1  0.40858018  0.11393485  0.57525136  1
  Ca2+  Ca62  1  0.92804565  0.08077860  0.73083716  1
  Ca2+  Ca63  1  0.44098380  0.58911675  0.92790744  1
  Ca2+  Ca64  1  0.75201379  0.09170636  0.59449923  1
  Ca2+  Ca65  1  0.93191962  0.09687439  0.09452285  1
  Ca2+  Ca66  1  0.59363008  0.60688384  0.75190632  1
  Ca2+  Ca67  1  0.25088728  0.10547407  0.73969095  1
  Ca2+  Ca68  1  0.71662837  0.10650025  0.91458022  1
  Ca2+  Ca69  1  0.08888888  0.57461158  0.27097785  1
  Ca2+  Ca70  1  0.40053538  0.11841499  0.57157373  1
  Ca2+  Ca71  1  0.06977131  0.56415315  0.59986506  1
  Ca2+  Ca72  1  0.92630771  0.91673677  0.41173097  1
  Ca2+  Ca73  1  0.23441497  0.40840298  0.41378420  1
  Ca2+  Ca74  1  0.22919320  0.91320887  0.39686514  1
  Ca2+  Ca75  1  0.91368134  0.40182039  0.08836550  1
  Ca2+  Ca76  1  0.92304414  0.91002907  0.73963625  1
  Ca2+  Ca77  1  0.58127833  0.42035065  0.08574051  1
  Ca2+  Ca78  1  0.41307212  0.90170128  0.58417287  1
  Ca2+  Ca79  1  0.73866928  0.90419554  0.91327215  1
  Ca2+  Ca80  1  0.43732815  0.42442605  0.94699351  1
  Ca2+  Ca81  1  0.21782547  0.91455856  0.39610097  1
  Ca2+  Ca82  1  0.25895088  0.39980710  0.08489839  1
  Ca2+  Ca83  1  0.42443110  0.90230098  0.58290644  1
  Ca2+  Ca84  1  0.07369207  0.91375156  0.58882211  1
  Ca2+  Ca85  1  0.94471825  0.42309341  0.71961483  1
  Ca2+  Ca86  1  0.93405772  0.41335858  0.41744068  1
  Ca2+  Ca87  1  0.42617335  0.42428120  0.94652041  1
  Ca2+  Ca88  1  0.75018128  0.90416478  0.91371791  1
  Ca2+  Ca89  1  0.09350763  0.89981531  0.91224924  1
  Ca2+  Ca90  1  0.75573858  0.40915152  0.58505738  1
  Ca2+  Ca91  1  0.09491483  0.40541349  0.91905961  1
  Ca2+  Ca92  1  0.59200650  0.90807258  0.38762053  1
  Ca2+  Ca93  1  0.72943664  0.41187843  0.93050103  1
  Ca2+  Ca94  1  0.42247463  0.90189577  0.92917803  1
  Ca2+  Ca95  1  0.58230322  0.90376463  0.75043758  1
  Ca2+  Ca96  1  0.94563171  0.41638581  0.42127783  1
  Ca2+  Ca97  1  0.76703435  0.40912492  0.58431938  1
  Ca2+  Ca98  1  0.40989195  0.90103102  0.92887324  1
  Ca2+  Ca99  1  0.42227930  0.40020614  0.57976749  1
  Ca2+  Ca100  1  0.22193081  0.41471635  0.73964175  1
  Ca2+  Ca101  1  0.73788040  0.90656355  0.25845067  1
  Ca2+  Ca102  1  0.92380602  0.90932576  0.08795544  1
  Ca2+  Ca103  1  0.08549128  0.40934117  0.25229438  1
  Ca2+  Ca104  1  0.93290447  0.91379127  0.74120815  1
  Ca2+  Ca105  1  0.41017174  0.40040327  0.57985654  1
  Ca2+  Ca106  1  0.58952257  0.40517225  0.75512151  1
  Ca2+  Ca107  1  0.93386614  0.90607859  0.09107098  1
  Mn3.34+  Mn108  1  0.08385203  0.33356524  0.08454680  1
  Mn3.34+  Mn109  1  0.08810901  0.33337161  0.41528733  1
  Mn3.34+  Mn110  1  0.08171219  0.33520619  0.75651069  1
  Mn3.34+  Mn111  1  0.09187039  0.83137453  0.08480990  1
  Mn3.34+  Mn112  1  0.07917428  0.83126498  0.42032757  1
  Mn3.34+  Mn113  1  0.08791713  0.83295401  0.75083043  1
  Mn3.34+  Mn114  1  0.41950062  0.33127640  0.09158057  1
  Mn3.34+  Mn115  1  0.41989464  0.33227368  0.40711773  1
  Mn3.34+  Mn116  1  0.41591140  0.32889780  0.75684446  1
  Mn3.34+  Mn117  1  0.41596127  0.83395209  0.09277721  1
  Mn3.34+  Mn118  1  0.41531590  0.83109307  0.41600091  1
  Mn3.34+  Mn119  1  0.41424995  0.83275045  0.75400872  1
  Mn3.34+  Mn120  1  0.74696856  0.33423676  0.08769065  1
  Mn3.34+  Mn121  1  0.74222386  0.33594104  0.41081368  1
  Mn3.34+  Mn122  1  0.75288087  0.33547566  0.75666747  1
  Mn3.34+  Mn123  1  0.74759389  0.82989498  0.08648373  1
  Mn3.34+  Mn124  1  0.74999468  0.83235157  0.42445737  1
  Mn3.34+  Mn125  1  0.74796157  0.83255128  0.74658184  1
  Mn3.34+  Mn126  1  0.25438780  0.33258180  0.24970535  1
  Mn3.34+  Mn127  1  0.24511950  0.33281569  0.58285171  1
  Mn3.34+  Mn128  1  0.25447257  0.33032170  0.91040062  1
  Mn3.34+  Mn129  1  0.25557411  0.83311747  0.24180818  1
  Mn3.34+  Mn130  1  0.24760783  0.83260459  0.58511158  1
  Mn3.34+  Mn131  1  0.25311129  0.82671547  0.91759578  1
  Mn3.34+  Mn132  1  0.58361539  0.34446896  0.24857912  1
  Mn3.34+  Mn133  1  0.58503884  0.33290725  0.58150796  1
  Mn3.34+  Mn134  1  0.58019777  0.33113110  0.91343550  1
  Mn3.34+  Mn135  1  0.57902937  0.83285280  0.24272336  1
  Mn3.34+  Mn136  1  0.58946768  0.82992561  0.57904733  1
  Mn3.34+  Mn137  1  0.58126684  0.82887713  0.91991522  1
  Mn3.34+  Mn138  1  0.91189231  0.33552536  0.25131353  1
  Mn3.34+  Mn139  1  0.92297104  0.33383240  0.58186190  1
  Mn3.34+  Mn140  1  0.91676764  0.33428086  0.91530304  1
  Mn3.34+  Mn141  1  0.91614093  0.83854889  0.25407983  1
  Mn3.34+  Mn142  1  0.91100095  0.83203980  0.57790696  1
  Mn3.34+  Mn143  1  0.91831871  0.83459612  0.91358973  1
  Mn3.34+  Mn144  1  0.74717064  0.17253857  0.08915053  1
  Mn3.34+  Mn145  1  0.92160062  0.66568051  0.58297626  1
  Mn3.34+  Mn146  1  0.25022917  0.66770430  0.25242585  1
  Mn3.34+  Mn147  1  0.74798897  0.17131999  0.74872186  1
  Mn3.34+  Mn148  1  0.25773645  0.16026686  0.24257527  1
  Mn3.34+  Mn149  1  0.41954587  0.66412144  0.08389533  1
  Mn3.34+  Mn150  1  0.24540014  0.65993308  0.57727890  1
  Mn3.34+  Mn151  1  0.75612916  0.16479423  0.41782272  1
  Mn3.34+  Mn152  1  0.41351364  0.67059348  0.75332654  1
  Mn3.34+  Mn153  1  0.42044624  0.16702315  0.75739996  1
  Mn3.34+  Mn154  1  0.58487131  0.66521222  0.24321283  1
  Mn3.34+  Mn155  1  0.08175647  0.66308798  0.42193864  1
  Mn3.34+  Mn156  1  0.58346001  0.17102701  0.58626993  1
  Mn3.34+  Mn157  1  0.91618831  0.17001663  0.58607408  1
  Mn3.34+  Mn158  1  0.24767052  0.16506281  0.24387720  1
  Mn3.34+  Mn159  1  0.25554847  0.66488384  0.57924366  1
  Mn3.34+  Mn160  1  0.25450831  0.17383872  0.91253048  1
  Mn3.34+  Mn161  1  0.91018115  0.17106057  0.91437864  1
  Mn3.34+  Mn162  1  0.90982884  0.66031179  0.58198920  1
  Mn3.34+  Mn163  1  0.08594650  0.66519732  0.08562641  1
  Mn3.34+  Mn164  1  0.91262580  0.16685414  0.25310259  1
  Mn3.34+  Mn165  1  0.74130535  0.15976044  0.41838039  1
  Mn3.34+  Mn166  1  0.41366870  0.16746838  0.08258680  1
  Mn3.34+  Mn167  1  0.07307528  0.15921171  0.41943273  1
  Mn3.34+  Mn168  1  0.08282636  0.16445374  0.41784260  1
  Mn3.34+  Mn169  1  0.91757508  0.66770867  0.24973160  1
  Mn3.34+  Mn170  1  0.26085498  0.66313087  0.25187308  1
  Mn3.34+  Mn171  1  0.92078178  0.66437752  0.91422583  1
  Mn3.34+  Mn172  1  0.74684729  0.66552097  0.42100934  1
  Mn3.34+  Mn173  1  0.08564087  0.16776933  0.75653175  1
  Mn3.34+  Mn174  1  0.58426155  0.66830942  0.57756461  1
  Mn3.34+  Mn175  1  0.08523332  0.66571298  0.75254299  1
  Mn3.34+  Mn176  1  0.92400788  0.16515653  0.91110408  1
  Mn3.34+  Mn177  1  0.91030618  0.66876894  0.91698359  1
  Mn3.34+  Mn178  1  0.90347406  0.66186298  0.24897922  1
  Mn3.34+  Mn179  1  0.74529377  0.66451107  0.08681551  1
  Mn3.34+  Mn180  1  0.24701792  0.00003949  0.90979348  1
  Mn3.34+  Mn181  1  0.90200831  0.49716164  0.24923948  1
  Mn3.34+  Mn182  1  0.57486498  0.00027079  0.90867436  1
  Mn3.34+  Mn183  1  0.73630272  0.50333830  0.39007024  1
  Mn3.34+  Mn184  1  0.42115787  0.00161153  0.75216737  1
  Mn3.34+  Mn185  1  0.58185532  0.00250303  0.57508139  1
  Mn3.34+  Mn186  1  0.08970726  0.49987250  0.08144863  1
  Mn3.34+  Mn187  1  0.25592831  0.00568902  0.91301873  1
  Mn3.34+  Mn188  1  0.73484193  0.50267712  0.40519838  1
  Mn3.34+  Mn189  1  0.74321995  0.00329176  0.75077513  1
  Mn3.34+  Mn190  1  0.73728889  0.00356376  0.08982143  1
  Mn3.34+  Mn191  1  0.42052912  0.49908408  0.40247722  1
  Mn3.34+  Mn192  1  0.74443203  -0.00182415  0.40981406  1
  Mn3.34+  Mn193  1  0.58304552  0.50174971  0.57628125  1
  Mn3.34+  Mn194  1  0.42236933  0.49723516  0.75301379  1
  Mn3.34+  Mn195  1  0.43604623  -0.00081013  0.40371707  1
  Mn3.34+  Mn196  1  0.91569220  0.49446974  0.90940926  1
  Mn3.34+  Mn197  1  0.59284776  -0.00234769  0.57347690  1
  Mn3.34+  Mn198  1  0.25014340  -0.00219778  0.58544327  1
  Mn3.34+  Mn199  1  0.92216950  0.00237133  0.27163017  1
  Mn3.34+  Mn200  1  0.40743082  0.50263854  0.75283249  1
  Mn3.34+  Mn201  1  0.24059344  0.49798486  0.58730916  1
  Mn3.34+  Mn202  1  0.41916098  0.00157694  0.08138199  1
  Mn3.34+  Mn203  1  0.92634733  0.50001067  0.90948725  1
  Mn3.34+  Mn204  1  0.23902702  0.00080621  0.59005932  1
  Mn3.34+  Mn205  1  0.93000186  0.00263613  0.92516186  1
  Mn3.34+  Mn206  1  0.26020857  0.49620725  0.24611388  1
  Mn3.34+  Mn207  1  0.72691580  -0.00040309  0.08845132  1
  Mn3.34+  Mn208  1  0.09744141  -0.00284596  0.08155780  1
  Mn3.34+  Mn209  1  0.75823668  0.49668496  0.74314161  1
  Mn3.34+  Mn210  1  0.42142493  0.00436992  0.40126398  1
  Mn3.34+  Mn211  1  0.74536337  0.50030288  0.08602393  1
  Mn3.34+  Mn212  1  0.43261936  0.49378628  0.39706263  1
  Mn3.34+  Mn213  1  0.25388850  0.49809702  0.91746409  1
  Mn3.34+  Mn214  1  0.91438358  0.00068054  0.57735836  1
  Mn3.34+  Mn215  1  0.24454211  -0.00133381  0.25011461  1
  O2-  O216  1  -0.00086249  0.15019581  -0.00380187  1
  O2-  O217  1  0.00214380  0.15124629  0.33100515  1
  O2-  O218  1  -0.00118932  0.16431060  0.67410251  1
  O2-  O219  1  -0.00327145  0.64740624  -0.00231727  1
  O2-  O220  1  -0.00306440  0.64726118  0.33169000  1
  O2-  O221  1  0.00161534  0.66615375  0.66282320  1
  O2-  O222  1  0.33623476  0.18530226  -0.00519392  1
  O2-  O223  1  0.33716771  0.14870114  0.31875278  1
  O2-  O224  1  0.33956146  0.16789641  0.67344245  1
  O2-  O225  1  0.33979330  0.67860268  0.00804411  1
  O2-  O226  1  0.33902045  0.67284942  0.33103931  1
  O2-  O227  1  0.33434365  0.64883118  0.66543199  1
  O2-  O228  1  0.66740397  0.16909353  0.00527952  1
  O2-  O229  1  0.66510463  0.17139187  0.33602687  1
  O2-  O230  1  0.67280994  0.15799799  0.66484778  1
  O2-  O231  1  0.66399852  0.65431895  0.00996860  1
  O2-  O232  1  0.66648095  0.66899052  0.33820958  1
  O2-  O233  1  0.66432255  0.65261789  0.65994506  1
  O2-  O234  1  0.17003177  0.17877613  -0.01405183  1
  O2-  O235  1  0.17077221  0.14670534  0.33357559  1
  O2-  O236  1  0.15933931  0.16764711  0.67323967  1
  O2-  O237  1  0.16570926  0.66377780  0.00636097  1
  O2-  O238  1  0.16792128  0.64496085  0.33117656  1
  O2-  O239  1  0.16736678  0.64997168  0.66073269  1
  O2-  O240  1  0.49656256  0.17869049  0.00513677  1
  O2-  O241  1  0.50564368  0.18134127  0.31807272  1
  O2-  O242  1  0.49706626  0.16455699  0.66606880  1
  O2-  O243  1  0.49851102  0.66314773  0.00763806  1
  O2-  O244  1  0.50169903  0.66433262  0.32217998  1
  O2-  O245  1  0.50103519  0.65054348  0.66391634  1
  O2-  O246  1  0.83010751  0.13888746  -0.00485133  1
  O2-  O247  1  0.82393871  0.14918772  0.32729664  1
  O2-  O248  1  0.83804740  0.15012289  0.67606994  1
  O2-  O249  1  0.82836987  0.64501498  -0.00244128  1
  O2-  O250  1  0.83651046  0.66866775  0.34326503  1
  O2-  O251  1  0.83269876  0.67012030  0.66277108  1
  O2-  O252  1  0.00160313  0.35079710  -0.00153933  1
  O2-  O253  1  -0.00158419  0.34527929  0.33495568  1
  O2-  O254  1  0.00236678  0.32855849  0.67073831  1
  O2-  O255  1  -0.00004377  0.84955024  -0.00415779  1
  O2-  O256  1  -0.00704536  0.84303306  0.34349006  1
  O2-  O257  1  -0.00333404  0.84178974  0.66429096  1
  O2-  O258  1  0.34001738  0.33473430  -0.00526365  1
  O2-  O259  1  0.32645869  0.34489226  0.34066309  1
  O2-  O260  1  0.33451054  0.34486658  0.66971343  1
  O2-  O261  1  0.33863243  0.81692141  -0.00187586  1
  O2-  O262  1  0.32132534  0.83417437  0.34642428  1
  O2-  O263  1  0.33507358  0.84759462  0.66656396  1
  O2-  O264  1  0.66132244  0.33396164  -0.00216738  1
  O2-  O265  1  0.66304748  0.31893026  0.32599240  1
  O2-  O266  1  0.67200713  0.35262615  0.66711770  1
  O2-  O267  1  0.67195820  0.84271681  -0.00449426  1
  O2-  O268  1  0.67115180  0.82996548  0.33614821  1
  O2-  O269  1  0.66516465  0.84542069  0.66736653  1
  O2-  O270  1  0.17185910  0.33779161  -0.00088098  1
  O2-  O271  1  0.16373208  0.34493254  0.32846281  1
  O2-  O272  1  0.16678278  0.33169937  0.67318117  1
  O2-  O273  1  0.16521362  0.82469114  -0.00661905  1
  O2-  O274  1  0.15788301  0.84085216  0.33368667  1
  O2-  O275  1  0.15976147  0.84765802  0.65773213  1
  O2-  O276  1  0.49890963  0.32340474  -0.00049583  1
  O2-  O277  1  0.50351747  0.32725032  0.32787391  1
  O2-  O278  1  0.49706843  0.34372621  0.67092020  1
  O2-  O279  1  0.49514410  0.83226454  -0.00340038  1
  O2-  O280  1  0.50000617  0.82759276  0.33806679  1
  O2-  O281  1  0.49974125  0.85016065  0.66665824  1
  O2-  O282  1  0.82995011  0.35384479  -0.00416484  1
  O2-  O283  1  0.84215197  0.35323679  0.34598405  1
  O2-  O284  1  0.83863472  0.35210034  0.67252984  1
  O2-  O285  1  0.83662935  0.85807728  0.00096154  1
  O2-  O286  1  0.83120061  0.83720779  0.33710831  1
  O2-  O287  1  0.84234739  0.83996297  0.67630153  1
  O2-  O288  1  -0.00845765  0.17382123  0.17180055  1
  O2-  O289  1  -0.00008989  0.18346060  0.50834888  1
  O2-  O290  1  0.00000484  0.19345354  0.83216353  1
  O2-  O291  1  -0.00274559  0.67139219  0.16580695  1
  O2-  O292  1  -0.00781629  0.68850127  0.50060374  1
  O2-  O293  1  -0.00101628  0.68567325  0.83313010  1
  O2-  O294  1  0.32791094  0.18727365  0.15858353  1
  O2-  O295  1  0.33345664  0.17443988  0.49837756  1
  O2-  O296  1  0.33249114  0.18817600  0.82868273  1
  O2-  O297  1  0.33615915  0.68280131  0.16698567  1
  O2-  O298  1  0.33733960  0.68328370  0.50565515  1
  O2-  O299  1  0.33305806  0.68472840  0.82557892  1
  O2-  O300  1  0.67014434  0.18521848  0.16637785  1
  O2-  O301  1  0.66794826  0.18062138  0.50278917  1
  O2-  O302  1  0.67612719  0.18532281  0.83667132  1
  O2-  O303  1  0.66846181  0.68416758  0.16348150  1
  O2-  O304  1  0.66879841  0.68503529  0.50133865  1
  O2-  O305  1  0.66322518  0.66628838  0.83718796  1
  O2-  O306  1  0.16164384  0.17773166  0.17678084  1
  O2-  O307  1  0.16248690  0.17763614  0.49613969  1
  O2-  O308  1  0.16864614  0.18954583  0.82979465  1
  O2-  O309  1  0.16995896  0.67535973  0.17302423  1
  O2-  O310  1  0.16392122  0.68463453  0.50286118  1
  O2-  O311  1  0.16563074  0.68066279  0.83045376  1
  O2-  O312  1  0.49167650  0.18605597  0.16011341  1
  O2-  O313  1  0.49883142  0.18051570  0.51334596  1
  O2-  O314  1  0.49584781  0.18865040  0.83235068  1
  O2-  O315  1  0.49812623  0.68581922  0.16331173  1
  O2-  O316  1  0.50389741  0.68160984  0.50065304  1
  O2-  O317  1  0.50022564  0.67323304  0.82417835  1
  O2-  O318  1  0.84100537  0.17197564  0.15730743  1
  O2-  O319  1  0.82669032  0.16879977  0.50844144  1
  O2-  O320  1  0.83171913  0.18133179  0.83373667  1
  O2-  O321  1  0.83594621  0.68131598  0.15996320  1
  O2-  O322  1  0.83152588  0.68528614  0.50384978  1
  O2-  O323  1  0.82778739  0.67800862  0.84203342  1
  O2-  O324  1  -0.00152508  0.32702888  0.16772234  1
  O2-  O325  1  -0.00238344  0.32205230  0.49326635  1
  O2-  O326  1  0.00127028  0.31220859  0.83482101  1
  O2-  O327  1  -0.00179448  0.83104420  0.16187682  1
  O2-  O328  1  0.00159578  0.81485123  0.50566264  1
  O2-  O329  1  -0.00668428  0.81909088  0.82824309  1
  O2-  O330  1  0.33017427  0.31542984  0.15949224  1
  O2-  O331  1  0.33823685  0.33065510  0.50475534  1
  O2-  O332  1  0.33261479  0.30593755  0.83015360  1
  O2-  O333  1  0.33867135  0.80664877  0.16911934  1
  O2-  O334  1  0.34027483  0.82165529  0.50775070  1
  O2-  O335  1  0.34048094  0.81477216  0.84148597  1
  O2-  O336  1  0.66210623  0.31640222  0.16585673  1
  O2-  O337  1  0.67581115  0.33134920  0.51147776  1
  O2-  O338  1  0.66405442  0.31854322  0.83355027  1
  O2-  O339  1  0.67197871  0.82045301  0.16926091  1
  O2-  O340  1  0.66143383  0.80990797  0.49443443  1
  O2-  O341  1  0.66691739  0.83113723  0.83591635  1
  O2-  O342  1  0.16714778  0.32258287  0.16582346  1
  O2-  O343  1  0.17156439  0.32241894  0.49244676  1
  O2-  O344  1  0.16423250  0.31517385  0.83620661  1
  O2-  O345  1  0.17250834  0.81908210  0.16165417  1
  O2-  O346  1  0.17334779  0.82163450  0.49274643  1
  O2-  O347  1  0.16590470  0.81891962  0.83824007  1
  O2-  O348  1  0.50239935  0.31362123  0.16723354  1
  O2-  O349  1  0.49455203  0.32423175  0.50740686  1
  O2-  O350  1  0.50375150  0.30908603  0.83033299  1
  O2-  O351  1  0.50326888  0.81458652  0.16070099  1
  O2-  O352  1  0.49335260  0.81990096  0.50674156  1
  O2-  O353  1  0.50200790  0.82539165  0.83377106  1
  O2-  O354  1  0.83563843  0.32385043  0.16518210  1
  O2-  O355  1  0.83079025  0.33163850  0.50544208  1
  O2-  O356  1  0.83100415  0.31703762  0.83814053  1
  O2-  O357  1  0.84092048  0.82771431  0.15890989  1
  O2-  O358  1  0.83106152  0.80458013  0.50309625  1
  O2-  O359  1  0.82588569  0.82592033  0.84188066  1
  O2-  O360  1  0.07297406  0.07332182  0.11871127  1
  O2-  O361  1  0.09150833  0.08059895  0.45203776  1
  O2-  O362  1  0.06699694  0.08513050  0.78666820  1
  O2-  O363  1  0.08374442  0.57753008  0.12574917  1
  O2-  O364  1  0.06910946  0.58263284  0.44275574  1
  O2-  O365  1  0.09493616  0.58602235  0.77568526  1
  O2-  O366  1  0.43064506  0.08183630  0.11040100  1
  O2-  O367  1  0.40770484  0.07658488  0.45043745  1
  O2-  O368  1  0.40215719  0.08273887  0.78500814  1
  O2-  O369  1  0.41201769  0.58545308  0.10129348  1
  O2-  O370  1  0.42786652  0.57246732  0.44183696  1
  O2-  O371  1  0.41064213  0.58357204  0.78272733  1
  O2-  O372  1  0.73926756  0.08632813  0.10933323  1
  O2-  O373  1  0.74337999  0.07749046  0.45091146  1
  O2-  O374  1  0.75437349  0.08523199  0.78355400  1
  O2-  O375  1  0.76026874  0.58068942  0.10851075  1
  O2-  O376  1  0.75705502  0.57690542  0.45776357  1
  O2-  O377  1  0.73653142  0.57080457  0.78135000  1
  O2-  O378  1  0.23973316  0.07844890  0.21559222  1
  O2-  O379  1  0.25789424  0.08380867  0.56924451  1
  O2-  O380  1  0.23991935  0.08553501  0.87821587  1
  O2-  O381  1  0.25720585  0.57949101  0.21304303  1
  O2-  O382  1  0.25050494  0.57702175  0.55029025  1
  O2-  O383  1  0.25876637  0.57712892  0.90003355  1
  O2-  O384  1  0.59304110  0.06336796  0.19614101  1
  O2-  O385  1  0.57891633  0.08570209  0.56366473  1
  O2-  O386  1  0.58181935  0.08191889  0.89359510  1
  O2-  O387  1  0.57388052  0.58858353  0.21154440  1
  O2-  O388  1  0.58593458  0.58327447  0.54633381  1
  O2-  O389  1  0.58540340  0.56485056  0.87490328  1
  O2-  O390  1  0.91725679  0.07627182  0.22457176  1
  O2-  O391  1  0.92663488  0.08425019  0.58205562  1
  O2-  O392  1  0.91747608  0.08135686  0.87226109  1
  O2-  O393  1  0.91592215  0.58002330  0.21923494  1
  O2-  O394  1  0.91817141  0.57749748  0.55460803  1
  O2-  O395  1  0.91718956  0.58087998  0.88061411  1
  O2-  O396  1  0.09039545  0.41945935  0.10733651  1
  O2-  O397  1  0.08122208  0.41654728  0.43094619  1
  O2-  O398  1  0.08300698  0.41541845  0.78131689  1
  O2-  O399  1  0.07835582  0.91573686  0.09538085  1
  O2-  O400  1  0.08839407  0.91421338  0.44873827  1
  O2-  O401  1  0.06636737  0.91475843  0.77898960  1
  O2-  O402  1  0.42577946  0.41185238  0.08551368  1
  O2-  O403  1  0.41547718  0.41988514  0.44515327  1
  O2-  O404  1  0.42190378  0.41833670  0.79560021  1
  O2-  O405  1  0.40626424  0.91899204  0.06887491  1
  O2-  O406  1  0.42277262  0.92168261  0.44816208  1
  O2-  O407  1  0.42120615  0.91868996  0.79278591  1
  O2-  O408  1  0.73450243  0.41823893  0.09820613  1
  O2-  O409  1  0.74694030  0.42674417  0.45004762  1
  O2-  O410  1  0.74074471  0.42101114  0.78859397  1
  O2-  O411  1  0.74953858  0.91791445  0.11259587  1
  O2-  O412  1  0.74423234  0.91984770  0.43877067  1
  O2-  O413  1  0.75323219  0.92080806  0.78067656  1
  O2-  O414  1  0.25241392  0.41636714  0.21929325  1
  O2-  O415  1  0.26294481  0.41953665  0.55681653  1
  O2-  O416  1  0.25414347  0.41945742  0.87900842  1
  O2-  O417  1  0.25293155  0.91682131  0.25286382  1
  O2-  O418  1  0.25965859  0.91987352  0.54038870  1
  O2-  O419  1  0.27155098  0.91692774  0.90449567  1
  O2-  O420  1  0.58279253  0.41817204  0.22107638  1
  O2-  O421  1  0.56560208  0.41839474  0.56708455  1
  O2-  O422  1  0.56877463  0.41328200  0.89509874  1
  O2-  O423  1  0.59396517  0.91045747  0.24809189  1
  O2-  O424  1  0.57422046  0.91645869  0.53924360  1
  O2-  O425  1  0.58446894  0.91755044  0.89315911  1
  O2-  O426  1  0.92428803  0.41736910  0.22428484  1
  O2-  O427  1  0.90982823  0.41936246  0.55284569  1
  O2-  O428  1  0.92721077  0.41608467  0.87156748  1
  O2-  O429  1  0.90486831  0.92937729  0.22028507  1
  O2-  O430  1  0.92372863  0.91999240  0.55060073  1
  O2-  O431  1  0.91027147  0.92260960  0.87871153  1
  O2-  O432  1  -0.01771513  -0.00070387  0.03674702  1
  O2-  O433  1  0.01014607  -0.00036018  0.32577761  1
  O2-  O434  1  -0.01156948  -0.00841345  0.67488584  1
  O2-  O435  1  -0.00287957  0.50285612  0.00511651  1
  O2-  O436  1  -0.00054058  0.50391949  0.32283034  1
  O2-  O437  1  -0.00095405  0.50404055  0.67449055  1
  O2-  O438  1  0.33435913  0.01302982  -0.00573584  1
  O2-  O439  1  0.33686806  0.00241801  0.32646842  1
  O2-  O440  1  0.34287025  -0.00607583  0.65592504  1
  O2-  O441  1  0.33215246  0.49236147  -0.00680471  1
  O2-  O442  1  0.32300806  0.50014967  0.34808793  1
  O2-  O443  1  0.33390340  0.48885119  0.66419783  1
  O2-  O444  1  0.67749013  -0.00033305  -0.02259064  1
  O2-  O445  1  0.67717851  -0.00407352  0.32841075  1
  O2-  O446  1  0.67273483  0.00165565  0.65735781  1
  O2-  O447  1  0.66652517  0.50829094  0.00533899  1
  O2-  O448  1  0.64058715  0.52266742  0.34254817  1
  O2-  O449  1  0.66997874  0.49890181  0.65921495  1
  O2-  O450  1  0.14039583  0.00264282  -0.03337498  1
  O2-  O451  1  0.17960181  0.00242551  0.34253894  1
  O2-  O452  1  0.14419610  0.01083103  0.64796265  1
  O2-  O453  1  0.16458185  0.50393933  -0.00951605  1
  O2-  O454  1  0.15626567  0.49547276  0.29606864  1
  O2-  O455  1  0.16677161  0.50059424  0.66609108  1
  O2-  O456  1  0.48913996  0.00036702  -0.01705263  1
  O2-  O457  1  0.50867958  0.00559184  0.32202639  1
  O2-  O458  1  0.50159314  -0.02039593  0.65962703  1
  O2-  O459  1  0.49311806  0.50332276  -0.01179803  1
  O2-  O460  1  0.48955853  0.51542404  0.31231731  1
  O2-  O461  1  0.49657014  0.50649052  0.66232469  1
  O2-  O462  1  0.83082247  0.00001576  0.00927158  1
  O2-  O463  1  0.84097004  -0.00910394  0.34511585  1
  O2-  O464  1  0.84192206  0.00404748  0.68177339  1
  O2-  O465  1  0.83498450  0.49729793  -0.00159677  1
  O2-  O466  1  0.85104411  0.49741591  0.36448167  1
  O2-  O467  1  0.82808458  0.48401193  0.66043118  1
  O2-  O468  1  0.24699699  0.24665971  0.27844288  1
  O2-  O469  1  0.74447133  0.75402444  0.74143719  1
  O2-  O470  1  0.23273604  0.75003341  0.27297216  1
  O2-  O471  1  0.92450056  0.74965629  0.26319583  1
  O2-  O472  1  0.91245011  0.25059377  0.95350932  1
  O2-  O473  1  0.75720399  0.74894178  0.05580532  1
  O2-  O474  1  0.58505747  0.75074563  0.92653026  1
  O2-  O475  1  0.06788522  0.74926257  0.06836026  1
  O2-  O476  1  0.76737197  0.24808638  0.40759121  1
  O2-  O477  1  0.58738365  0.74988666  0.26322322  1
  O2-  O478  1  0.42466853  0.75159131  0.72323969  1
  O2-  O479  1  0.24694225  0.74726376  0.61342016  1
  O2-  O480  1  0.08252776  0.74676613  0.39068728  1
  O2-  O481  1  0.25200127  0.25471659  0.59111221  1
  O2-  O482  1  0.91423509  0.75188244  0.94783296  1
  O2-  O483  1  0.76713307  0.25157865  0.06169144  1
  O2-  O484  1  0.09024466  0.75108135  0.72547483  1
  O2-  O485  1  0.75692131  0.25260319  0.72250352  1
  O2-  O486  1  0.59579617  0.25277753  0.60922273  1
  O2-  O487  1  0.91043536  0.25122023  0.27421272  1
  O2-  O488  1  0.58209615  0.74951004  0.61609237  1
  O2-  O489  1  0.07419770  0.25488111  0.07200640  1
  O2-  O490  1  0.89986883  0.25117511  0.60043425  1
  O2-  O491  1  0.07648194  0.24611002  0.39067747  1
  O2-  O492  1  0.41116476  0.25347917  0.40532049  1
