# generated using pymatgen
data_Ca108Mn108O277
_symmetry_space_group_name_H-M   'P 1'
_cell_length_a   16.03498726
_cell_length_b   22.31605141
_cell_length_c   16.39596481
_cell_angle_alpha   90.00401018
_cell_angle_beta   90.00326115
_cell_angle_gamma   89.98952516
_symmetry_Int_Tables_number   1
_chemical_formula_structural   Ca108Mn108O277
_chemical_formula_sum   'Ca108 Mn108 O277'
_cell_volume   5867.09257625
_cell_formula_units_Z   1
loop_
 _symmetry_equiv_pos_site_id
 _symmetry_equiv_pos_as_xyz
  1  'x, y, z'
loop_
 _atom_type_symbol
 _atom_type_oxidation_number
  Ca2+  2.0
  Mn3.34+  3.34
  O2-  -2.0
loop_
 _atom_site_type_symbol
 _atom_site_label
 _atom_site_symmetry_multiplicity
 _atom_site_fract_x
 _atom_site_fract_y
 _atom_site_fract_z
 _atom_site_occupancy
  Ca2+  Ca0  1  0.06271818  0.24138869  0.26178846  1
  Ca2+  Ca1  1  0.07202403  0.24710380  0.57842926  1
  Ca2+  Ca2  1  0.08738804  0.25768320  0.91856831  1
  Ca2+  Ca3  1  0.08284477  0.77290763  0.24395101  1
  Ca2+  Ca4  1  0.09074344  0.76285246  0.57543600  1
  Ca2+  Ca5  1  0.07307595  0.74772109  0.93656829  1
  Ca2+  Ca6  1  0.42732922  0.23828739  0.25701284  1
  Ca2+  Ca7  1  0.40146367  0.24534761  0.59001113  1
  Ca2+  Ca8  1  0.42283827  0.23317092  0.91128913  1
  Ca2+  Ca9  1  0.42053416  0.74715867  0.23492834  1
  Ca2+  Ca10  1  0.41957641  0.75576353  0.58710429  1
  Ca2+  Ca11  1  0.42244454  0.75159797  0.92583166  1
  Ca2+  Ca12  1  0.76580998  0.23555947  0.27545579  1
  Ca2+  Ca13  1  0.77606329  0.24542879  0.56822307  1
  Ca2+  Ca14  1  0.73937718  0.25538469  0.90876497  1
  Ca2+  Ca15  1  0.74861577  0.75742458  0.24461317  1
  Ca2+  Ca16  1  0.73866781  0.76036611  0.58601997  1
  Ca2+  Ca17  1  0.75289795  0.74295118  0.90714049  1
  Ca2+  Ca18  1  0.26476354  0.24693678  0.07670987  1
  Ca2+  Ca19  1  0.25024113  0.23862530  0.42242537  1
  Ca2+  Ca20  1  0.26734405  0.24650908  0.74784535  1
  Ca2+  Ca21  1  0.24343766  0.75555262  0.08822846  1
  Ca2+  Ca22  1  0.23850583  0.76355589  0.41803004  1
  Ca2+  Ca23  1  0.25197723  0.76641966  0.74657610  1
  Ca2+  Ca24  1  0.56683931  0.23792231  0.08706617  1
  Ca2+  Ca25  1  0.60007794  0.25110751  0.40683347  1
  Ca2+  Ca26  1  0.57310108  0.24963005  0.76337625  1
  Ca2+  Ca27  1  0.56130626  0.73561494  0.08173592  1
  Ca2+  Ca28  1  0.58322683  0.75674924  0.41480005  1
  Ca2+  Ca29  1  0.58869944  0.76179510  0.75347130  1
  Ca2+  Ca30  1  0.91926256  0.25529950  0.10531060  1
  Ca2+  Ca31  1  0.90935808  0.23355570  0.41576631  1
  Ca2+  Ca32  1  0.91609729  0.25476120  0.73705108  1
  Ca2+  Ca33  1  0.93611879  0.75182912  0.07916545  1
  Ca2+  Ca34  1  0.93274513  0.77307364  0.41169333  1
  Ca2+  Ca35  1  0.90836194  0.76370913  0.75780640  1
  Ca2+  Ca36  1  0.25409920  0.59552495  0.42399762  1
  Ca2+  Ca37  1  0.93590089  0.06922681  0.72025296  1
  Ca2+  Ca38  1  0.06031526  0.09658507  0.55945543  1
  Ca2+  Ca39  1  0.25307038  0.57003177  0.73785518  1
  Ca2+  Ca40  1  0.07772572  0.58690524  0.24101897  1
  Ca2+  Ca41  1  0.94535454  0.59275464  0.06348821  1
  Ca2+  Ca42  1  0.58171042  0.61864153  0.76498878  1
  Ca2+  Ca43  1  0.58629176  0.10864552  0.39233813  1
  Ca2+  Ca44  1  0.75711521  0.10290679  0.27382713  1
  Ca2+  Ca45  1  0.73369434  0.59126579  0.25386873  1
  Ca2+  Ca46  1  0.72115214  0.59314195  0.25184662  1
  Ca2+  Ca47  1  0.57579662  0.10909227  0.39267856  1
  Ca2+  Ca48  1  0.08095364  0.08870748  0.28547414  1
  Ca2+  Ca49  1  0.93394484  0.10164213  0.42224163  1
  Ca2+  Ca50  1  0.95009944  0.06641157  0.07047205  1
  Ca2+  Ca51  1  0.75073218  0.59112962  0.57258202  1
  Ca2+  Ca52  1  0.57612393  0.60767396  0.39154722  1
  Ca2+  Ca53  1  0.56507555  0.60836917  0.39393397  1
  Ca2+  Ca54  1  0.78848786  0.09214141  0.56570280  1
  Ca2+  Ca55  1  0.73790649  0.58971502  0.57384199  1
  Ca2+  Ca56  1  0.25252934  0.59374200  0.08265837  1
  Ca2+  Ca57  1  0.07482259  0.09291947  0.29117313  1
  Ca2+  Ca58  1  0.39672136  0.09573768  0.59814397  1
  Ca2+  Ca59  1  0.40017766  0.09132858  0.59071459  1
  Ca2+  Ca60  1  0.43633812  0.10671073  0.24543991  1
  Ca2+  Ca61  1  0.44878361  0.60885713  0.92789850  1
  Ca2+  Ca62  1  0.56173590  0.10112774  0.76358006  1
  Ca2+  Ca63  1  0.40867352  0.59685778  0.59134528  1
  Ca2+  Ca64  1  0.79512994  0.09519050  0.57250110  1
  Ca2+  Ca65  1  0.92351816  0.57932312  0.75177094  1
  Ca2+  Ca66  1  0.09596347  0.57872824  0.59427156  1
  Ca2+  Ca67  1  0.22841775  0.10436004  0.41974119  1
  Ca2+  Ca68  1  0.74135038  0.08858556  0.90967929  1
  Ca2+  Ca69  1  0.09061375  0.58641700  0.24165509  1
  Ca2+  Ca70  1  0.24011687  0.56989311  0.73805783  1
  Ca2+  Ca71  1  0.23969736  0.59305941  0.08234193  1
  Ca2+  Ca72  1  0.23414882  0.92461955  0.73845154  1
  Ca2+  Ca73  1  0.59232630  0.40036013  0.09081122  1
  Ca2+  Ca74  1  0.57501688  0.90970408  0.08697295  1
  Ca2+  Ca75  1  0.76737601  0.91766727  0.58659816  1
  Ca2+  Ca76  1  0.06247046  0.93551673  0.92380314  1
  Ca2+  Ca77  1  0.04775805  0.92943991  0.58108916  1
  Ca2+  Ca78  1  0.40127884  0.39960386  0.90647468  1
  Ca2+  Ca79  1  0.77226457  0.91246918  0.91336161  1
  Ca2+  Ca80  1  0.41307954  0.39987581  0.90858345  1
  Ca2+  Ca81  1  0.22862021  0.92451457  0.08478791  1
  Ca2+  Ca82  1  0.05268371  0.93594341  0.92689641  1
  Ca2+  Ca83  1  0.41831111  0.91546481  0.92412812  1
  Ca2+  Ca84  1  0.57987388  0.39690327  0.75215471  1
  Ca2+  Ca85  1  0.41314459  0.91331987  0.25868564  1
  Ca2+  Ca86  1  0.40880531  0.91917006  0.92603415  1
  Ca2+  Ca87  1  0.75197071  0.90649119  0.26572450  1
  Ca2+  Ca88  1  0.25133836  0.38383117  0.41590925  1
  Ca2+  Ca89  1  0.05761957  0.92692758  0.58273055  1
  Ca2+  Ca90  1  0.56264841  0.90757783  0.08824629  1
  Ca2+  Ca91  1  0.92124203  0.92755740  0.73817473  1
  Ca2+  Ca92  1  0.40918404  0.39121403  0.57662973  1
  Ca2+  Ca93  1  0.75948025  0.39757476  0.57393085  1
  Ca2+  Ca94  1  0.91751031  0.39252299  0.42080333  1
  Ca2+  Ca95  1  0.74279702  0.40262744  0.25576359  1
  Ca2+  Ca96  1  0.93857682  0.91711679  0.08606356  1
  Ca2+  Ca97  1  0.23904043  0.39429936  0.09106443  1
  Ca2+  Ca98  1  0.76082289  0.91166102  0.91317092  1
  Ca2+  Ca99  1  0.23211820  0.92492981  0.40738401  1
  Ca2+  Ca100  1  0.41853657  0.90923273  0.58813201  1
  Ca2+  Ca101  1  0.76782952  0.40287771  0.91813237  1
  Ca2+  Ca102  1  0.07864168  0.42551326  0.63023486  1
  Ca2+  Ca103  1  0.08929266  0.39095114  0.24382821  1
  Ca2+  Ca104  1  0.23849781  0.92119879  0.08248642  1
  Ca2+  Ca105  1  0.41377714  0.38484273  0.25631054  1
  Ca2+  Ca106  1  0.75366669  0.40053912  0.25547379  1
  Ca2+  Ca107  1  0.58327599  0.90686439  0.40927378  1
  Mn3.34+  Mn108  1  0.07793777  0.33042283  0.07792735  1
  Mn3.34+  Mn109  1  0.08247438  0.32643123  0.42037228  1
  Mn3.34+  Mn110  1  0.08513584  0.33608514  0.75520081  1
  Mn3.34+  Mn111  1  0.08393012  0.83953827  0.08378082  1
  Mn3.34+  Mn112  1  0.08309805  0.84567885  0.41495652  1
  Mn3.34+  Mn113  1  0.08158778  0.84112522  0.75378003  1
  Mn3.34+  Mn114  1  0.41807578  0.32874671  0.08522600  1
  Mn3.34+  Mn115  1  0.42169367  0.31911666  0.42065520  1
  Mn3.34+  Mn116  1  0.41372095  0.32925321  0.74599636  1
  Mn3.34+  Mn117  1  0.40904444  0.83253882  0.09008377  1
  Mn3.34+  Mn118  1  0.41447173  0.83347722  0.42034284  1
  Mn3.34+  Mn119  1  0.41929963  0.83889044  0.75521698  1
  Mn3.34+  Mn120  1  0.75617108  0.33480135  0.08102830  1
  Mn3.34+  Mn121  1  0.74988991  0.32970597  0.42223325  1
  Mn3.34+  Mn122  1  0.75200065  0.32949539  0.74606825  1
  Mn3.34+  Mn123  1  0.75248074  0.83310446  0.08707740  1
  Mn3.34+  Mn124  1  0.75348009  0.83278377  0.42211948  1
  Mn3.34+  Mn125  1  0.74741670  0.83718166  0.74637532  1
  Mn3.34+  Mn126  1  0.24831494  0.31919886  0.24872892  1
  Mn3.34+  Mn127  1  0.24148401  0.33056987  0.58668985  1
  Mn3.34+  Mn128  1  0.24177068  0.33609155  0.90827710  1
  Mn3.34+  Mn129  1  0.24839387  0.84132373  0.25314128  1
  Mn3.34+  Mn130  1  0.24982153  0.83817624  0.58088871  1
  Mn3.34+  Mn131  1  0.24617610  0.83937152  0.91130412  1
  Mn3.34+  Mn132  1  0.58268066  0.32887020  0.25017085  1
  Mn3.34+  Mn133  1  0.58444361  0.33023802  0.58230752  1
  Mn3.34+  Mn134  1  0.58571331  0.33204360  0.91933578  1
  Mn3.34+  Mn135  1  0.58202497  0.82683514  0.24749313  1
  Mn3.34+  Mn136  1  0.58354507  0.83591478  0.58312757  1
  Mn3.34+  Mn137  1  0.58427274  0.83750008  0.91032956  1
  Mn3.34+  Mn138  1  0.91709052  0.32951486  0.25100086  1
  Mn3.34+  Mn139  1  0.92325031  0.33109785  0.58655821  1
  Mn3.34+  Mn140  1  0.92413266  0.34077234  0.90851623  1
  Mn3.34+  Mn141  1  0.91861428  0.84251105  0.25063188  1
  Mn3.34+  Mn142  1  0.91401799  0.83516227  0.58352301  1
  Mn3.34+  Mn143  1  0.91863675  0.83330323  0.91449223  1
  Mn3.34+  Mn144  1  0.24894487  0.67050741  0.25366149  1
  Mn3.34+  Mn145  1  0.24345164  0.16788470  0.58240742  1
  Mn3.34+  Mn146  1  0.25602153  0.15541518  0.91353404  1
  Mn3.34+  Mn147  1  0.92337386  0.66345876  0.57805349  1
  Mn3.34+  Mn148  1  0.08718185  0.67164953  0.74969136  1
  Mn3.34+  Mn149  1  0.25516560  0.67110387  0.91303325  1
  Mn3.34+  Mn150  1  0.25945864  0.66588266  0.25217277  1
  Mn3.34+  Mn151  1  0.07790594  0.66600779  0.75271403  1
  Mn3.34+  Mn152  1  0.73644930  0.66163781  0.07254831  1
  Mn3.34+  Mn153  1  0.08476806  0.67086064  0.41999419  1
  Mn3.34+  Mn154  1  0.91532619  0.66485762  0.91482782  1
  Mn3.34+  Mn155  1  0.91164242  0.67074002  0.58263734  1
  Mn3.34+  Mn156  1  0.74081409  0.16490896  0.08859577  1
  Mn3.34+  Mn157  1  0.25478411  0.16709710  0.24585731  1
  Mn3.34+  Mn158  1  0.92424431  0.14870582  0.90420989  1
  Mn3.34+  Mn159  1  0.41506621  0.15672374  0.08148083  1
  Mn3.34+  Mn160  1  0.08449282  0.16276279  0.75281178  1
  Mn3.34+  Mn161  1  0.74813966  0.66482175  0.07221974  1
  Mn3.34+  Mn162  1  0.41425012  0.68083896  0.42172087  1
  Mn3.34+  Mn163  1  0.59251584  0.16286669  0.58290609  1
  Mn3.34+  Mn164  1  0.74994231  0.16625518  0.75237293  1
  Mn3.34+  Mn165  1  0.91323050  0.66795011  0.25162548  1
  Mn3.34+  Mn166  1  0.24304107  0.66585292  0.91042654  1
  Mn3.34+  Mn167  1  0.09797379  0.15899182  0.08540809  1
  Mn3.34+  Mn168  1  0.75115663  0.67667836  0.41647608  1
  Mn3.34+  Mn169  1  0.09640854  0.15726071  0.75555368  1
  Mn3.34+  Mn170  1  0.41337432  0.66957403  0.75272804  1
  Mn3.34+  Mn171  1  0.75359291  0.16967357  0.08839250  1
  Mn3.34+  Mn172  1  0.75194118  0.66926120  0.75349155  1
  Mn3.34+  Mn173  1  0.92337298  0.66233063  0.25085476  1
  Mn3.34+  Mn174  1  0.57958837  0.16402292  0.92018424  1
  Mn3.34+  Mn175  1  0.58176589  0.67265873  0.58448382  1
  Mn3.34+  Mn176  1  0.58340843  0.17072076  0.58521590  1
  Mn3.34+  Mn177  1  0.25016776  0.67266215  0.58225521  1
  Mn3.34+  Mn178  1  0.91531038  0.15439420  0.90975517  1
  Mn3.34+  Mn179  1  0.08753571  0.16342282  0.08368161  1
  Mn3.34+  Mn180  1  0.91817984  -0.00263141  0.26853807  1
  Mn3.34+  Mn181  1  0.76969468  0.49707970  0.07306487  1
  Mn3.34+  Mn182  1  0.92337812  0.49837091  0.91831791  1
  Mn3.34+  Mn183  1  0.25661404  0.00692471  0.92521326  1
  Mn3.34+  Mn184  1  0.58304763  0.49280731  0.57633840  1
  Mn3.34+  Mn185  1  0.25044558  0.00768105  0.26012199  1
  Mn3.34+  Mn186  1  0.41902319  -0.00118997  0.41689649  1
  Mn3.34+  Mn187  1  0.42391740  0.49303597  0.42329479  1
  Mn3.34+  Mn188  1  0.59232120  0.50526197  0.92694254  1
  Mn3.34+  Mn189  1  0.75768100  0.49721724  0.75643809  1
  Mn3.34+  Mn190  1  0.25693875  0.49499679  0.57677722  1
  Mn3.34+  Mn191  1  0.74143998  0.00389807  0.73510358  1
  Mn3.34+  Mn192  1  0.25675196  0.49435874  0.25191375  1
  Mn3.34+  Mn193  1  0.08650856  0.49825365  0.41730221  1
  Mn3.34+  Mn194  1  0.42142828  0.50200023  0.08705303  1
  Mn3.34+  Mn195  1  0.57207484  0.50272233  0.24729152  1
  Mn3.34+  Mn196  1  0.75553435  -0.00171978  0.08842256  1
  Mn3.34+  Mn197  1  0.07177728  0.50378446  0.41798579  1
  Mn3.34+  Mn198  1  0.91730605  0.50101112  0.57605022  1
  Mn3.34+  Mn199  1  0.91651729  0.49709671  0.23697932  1
  Mn3.34+  Mn200  1  0.57439723  0.00118141  0.91905410  1
  Mn3.34+  Mn201  1  0.57016942  0.50000344  0.57535544  1
  Mn3.34+  Mn202  1  0.58188419  0.00089089  0.25069797  1
  Mn3.34+  Mn203  1  0.75693584  0.50101212  0.40471404  1
  Mn3.34+  Mn204  1  0.22813226  0.49673794  0.92432953  1
  Mn3.34+  Mn205  1  0.74500135  0.50352979  0.75709791  1
  Mn3.34+  Mn206  1  0.41673234  0.00144615  0.74202209  1
  Mn3.34+  Mn207  1  0.08773859  0.49135861  0.06454451  1
  Mn3.34+  Mn208  1  0.74903309  -0.00403556  0.41092933  1
  Mn3.34+  Mn209  1  0.42210922  0.50239259  0.75251190  1
  Mn3.34+  Mn210  1  0.60506358  0.49882864  0.92405877  1
  Mn3.34+  Mn211  1  0.24638840  -0.00147329  0.58081369  1
  Mn3.34+  Mn212  1  0.40909172  0.49450706  0.08436775  1
  Mn3.34+  Mn213  1  0.58442893  -0.00110185  0.58279383  1
  Mn3.34+  Mn214  1  0.41050230  0.49963444  0.42436242  1
  Mn3.34+  Mn215  1  0.74547646  0.00446017  0.08593808  1
  O2-  O216  1  0.00090538  0.14953335  0.00102693  1
  O2-  O217  1  0.00251064  0.16401460  0.33286171  1
  O2-  O218  1  0.00428681  0.15293032  0.67381311  1
  O2-  O219  1  -0.00969599  0.66885953  -0.00283727  1
  O2-  O220  1  0.00655121  0.64399264  0.33383738  1
  O2-  O221  1  -0.00031078  0.63887812  0.66514955  1
  O2-  O222  1  0.32784260  0.17049958  -0.00256423  1
  O2-  O223  1  0.32899565  0.16876626  0.32686233  1
  O2-  O224  1  0.32988120  0.16059478  0.65877430  1
  O2-  O225  1  0.33149194  0.64289373  -0.00994432  1
  O2-  O226  1  0.33278098  0.66291274  0.34055393  1
  O2-  O227  1  0.32525010  0.65577954  0.67483818  1
  O2-  O228  1  0.67027929  0.14916614  0.00325389  1
  O2-  O229  1  0.67041773  0.16900829  0.33645591  1
  O2-  O230  1  0.66288220  0.13962848  0.66879714  1
  O2-  O231  1  0.66038359  0.68368457  -0.00446911  1
  O2-  O232  1  0.66951000  0.67474236  0.33438712  1
  O2-  O233  1  0.67160496  0.64694780  0.66007761  1
  O2-  O234  1  0.16893943  0.17100332  -0.00248837  1
  O2-  O235  1  0.16815146  0.17510105  0.32130725  1
  O2-  O236  1  0.16244134  0.14291896  0.66429343  1
  O2-  O237  1  0.17117517  0.65193052  -0.00278005  1
  O2-  O238  1  0.17124643  0.64280594  0.33156711  1
  O2-  O239  1  0.16624011  0.64879799  0.66667335  1
  O2-  O240  1  0.49901598  0.15848823  -0.00011520  1
  O2-  O241  1  0.50270585  0.17728064  0.33744728  1
  O2-  O242  1  0.49732141  0.15234854  0.65533931  1
  O2-  O243  1  0.50096280  0.68414870  -0.01251668  1
  O2-  O244  1  0.49753036  0.68728847  0.34322034  1
  O2-  O245  1  0.49297399  0.65901336  0.66247400  1
  O2-  O246  1  0.83266914  0.14456022  0.00494316  1
  O2-  O247  1  0.84437142  0.15651565  0.34132956  1
  O2-  O248  1  0.83135357  0.14886575  0.67636458  1
  O2-  O249  1  0.82279924  0.64086815  -0.00709062  1
  O2-  O250  1  0.82831752  0.65299716  0.32871988  1
  O2-  O251  1  0.83477435  0.64146720  0.66473168  1
  O2-  O252  1  -0.00506416  0.32052505  -0.00491852  1
  O2-  O253  1  0.00304187  0.34003970  0.33196469  1
  O2-  O254  1  0.00328665  0.33992148  0.66575961  1
  O2-  O255  1  0.00380447  0.85000510  -0.00640821  1
  O2-  O256  1  0.00263178  0.84485006  0.33111132  1
  O2-  O257  1  -0.00151727  0.85411327  0.66937079  1
  O2-  O258  1  0.33181753  0.34791794  0.00360034  1
  O2-  O259  1  0.33368959  0.31579860  0.33517671  1
  O2-  O260  1  0.33166996  0.34045937  0.66468949  1
  O2-  O261  1  0.32634053  0.85830592  0.00838825  1
  O2-  O262  1  0.33210692  0.84449516  0.33800004  1
  O2-  O263  1  0.32974177  0.84429252  0.67337294  1
  O2-  O264  1  0.67157907  0.35181741  -0.00368266  1
  O2-  O265  1  0.66935723  0.33463569  0.33226385  1
  O2-  O266  1  0.66694932  0.35662183  0.66256915  1
  O2-  O267  1  0.66700261  0.85585642  -0.00229158  1
  O2-  O268  1  0.66803975  0.82536467  0.33041208  1
  O2-  O269  1  0.67311105  0.85054484  0.65702177  1
  O2-  O270  1  0.17124094  0.32562183  0.00002337  1
  O2-  O271  1  0.16424846  0.31616801  0.33377171  1
  O2-  O272  1  0.16073296  0.34558566  0.66032244  1
  O2-  O273  1  0.16276641  0.86091186  -0.00939323  1
  O2-  O274  1  0.16848549  0.85110202  0.33617647  1
  O2-  O275  1  0.15772155  0.85851730  0.65826981  1
  O2-  O276  1  0.49817679  0.35672574  0.00165728  1
  O2-  O277  1  0.49961245  0.31566261  0.33170234  1
  O2-  O278  1  0.49896736  0.34659881  0.66545684  1
  O2-  O279  1  0.49571443  0.84440779  -0.00301533  1
  O2-  O280  1  0.49919486  0.82780318  0.33253554  1
  O2-  O281  1  0.49243809  0.83393431  0.66418896  1
  O2-  O282  1  0.83714358  0.33609709  -0.00612522  1
  O2-  O283  1  0.83059788  0.33954701  0.33482855  1
  O2-  O284  1  0.83272282  0.34207114  0.66273504  1
  O2-  O285  1  0.83789198  0.85720466  0.00534991  1
  O2-  O286  1  0.82990267  0.83256834  0.33625766  1
  O2-  O287  1  0.83731985  0.84990986  0.67197096  1
  O2-  O288  1  0.00942687  0.16920066  0.16559717  1
  O2-  O289  1  0.00500646  0.17975019  0.49409995  1
  O2-  O290  1  0.00427648  0.18927391  0.83466282  1
  O2-  O291  1  0.00508174  0.67497305  0.17240818  1
  O2-  O292  1  -0.00194499  0.69013994  0.50024397  1
  O2-  O293  1  -0.00048255  0.68583391  0.83146225  1
  O2-  O294  1  0.33525460  0.18569633  0.16752611  1
  O2-  O295  1  0.32886824  0.17475372  0.50609192  1
  O2-  O296  1  0.32226543  0.18855087  0.84389101  1
  O2-  O297  1  0.32382024  0.68182374  0.16226681  1
  O2-  O298  1  0.33948181  0.68446766  0.50844939  1
  O2-  O299  1  0.32927677  0.69408276  0.83241243  1
  O2-  O300  1  0.66853057  0.18999223  0.16801276  1
  O2-  O301  1  0.67490432  0.17776920  0.51081659  1
  O2-  O302  1  0.66873709  0.17941289  0.83758129  1
  O2-  O303  1  0.67399474  0.67919629  0.16498501  1
  O2-  O304  1  0.66492149  0.68419567  0.49685335  1
  O2-  O305  1  0.66742648  0.68945747  0.81841999  1
  O2-  O306  1  0.17386107  0.19068698  0.16273905  1
  O2-  O307  1  0.16356659  0.17805923  0.50359029  1
  O2-  O308  1  0.16666051  0.18245779  0.83870036  1
  O2-  O309  1  0.16554244  0.66896652  0.17224585  1
  O2-  O310  1  0.17392262  0.68343517  0.49467970  1
  O2-  O311  1  0.16945470  0.69593830  0.83200368  1
  O2-  O312  1  0.48980367  0.17728062  0.16207028  1
  O2-  O313  1  0.51034741  0.18434319  0.50003823  1
  O2-  O314  1  0.51003730  0.17656469  0.83659613  1
  O2-  O315  1  0.50875186  0.68350522  0.18295772  1
  O2-  O316  1  0.50431845  0.68140707  0.49702774  1
  O2-  O317  1  0.49524474  0.68978394  0.82188451  1
  O2-  O318  1  0.83122414  0.17876758  0.16593711  1
  O2-  O319  1  0.84253717  0.16759430  0.50047423  1
  O2-  O320  1  0.83228466  0.18925666  0.83961567  1
  O2-  O321  1  0.83134191  0.67048820  0.16203218  1
  O2-  O322  1  0.82145315  0.68456471  0.50847573  1
  O2-  O323  1  0.84051596  0.68185867  0.82337457  1
  O2-  O324  1  0.00171831  0.32548652  0.17199772  1
  O2-  O325  1  -0.00442479  0.31520413  0.49287565  1
  O2-  O326  1  0.00091165  0.31199478  0.83115836  1
  O2-  O327  1  -0.00468574  0.82919303  0.15791821  1
  O2-  O328  1  0.00578623  0.82732810  0.50661351  1
  O2-  O329  1  0.00320752  0.81533879  0.83632579  1
  O2-  O330  1  0.33539953  0.31676816  0.16798960  1
  O2-  O331  1  0.33391797  0.31380685  0.49908206  1
  O2-  O332  1  0.34045392  0.31825061  0.84275499  1
  O2-  O333  1  0.33185468  0.82278568  0.17358521  1
  O2-  O334  1  0.33559377  0.81294654  0.50342380  1
  O2-  O335  1  0.34063517  0.82083725  0.84322280  1
  O2-  O336  1  0.66712281  0.32604127  0.17004570  1
  O2-  O337  1  0.67277952  0.31887477  0.50764788  1
  O2-  O338  1  0.66083044  0.32141241  0.82791568  1
  O2-  O339  1  0.65950717  0.81016035  0.16035210  1
  O2-  O340  1  0.66372710  0.81756131  0.49408550  1
  O2-  O341  1  0.67341224  0.81998300  0.84001281  1
  O2-  O342  1  0.16725481  0.31728036  0.16588687  1
  O2-  O343  1  0.16944469  0.31214701  0.49494900  1
  O2-  O344  1  0.17045057  0.30916730  0.82854602  1
  O2-  O345  1  0.17487737  0.83214886  0.15782588  1
  O2-  O346  1  0.16890417  0.82605678  0.49731105  1
  O2-  O347  1  0.17162373  0.82417924  0.82352953  1
  O2-  O348  1  0.50142040  0.31424123  0.16737527  1
  O2-  O349  1  0.49740608  0.30715609  0.50752218  1
  O2-  O350  1  0.49619154  0.32433282  0.83955530  1
  O2-  O351  1  0.50175012  0.81591568  0.16182318  1
  O2-  O352  1  0.49821734  0.81281522  0.49870660  1
  O2-  O353  1  0.50034003  0.81296250  0.83663477  1
  O2-  O354  1  0.82635898  0.32187536  0.17559068  1
  O2-  O355  1  0.83679120  0.32752076  0.50029307  1
  O2-  O356  1  0.82957309  0.31528123  0.83270795  1
  O2-  O357  1  0.82735520  0.82542705  0.17442848  1
  O2-  O358  1  0.83326430  0.81033132  0.50472820  1
  O2-  O359  1  0.82661745  0.82616712  0.84253022  1
  O2-  O360  1  0.09298013  0.07995132  0.11656392  1
  O2-  O361  1  0.08897085  0.08200787  0.42510069  1
  O2-  O362  1  0.07059570  0.08114897  0.78549646  1
  O2-  O363  1  0.09314014  0.56939339  0.11063471  1
  O2-  O364  1  0.09022944  0.58262217  0.45827816  1
  O2-  O365  1  0.10138190  0.58562423  0.77764107  1
  O2-  O366  1  0.40668760  0.08302363  0.11360239  1
  O2-  O367  1  0.43655846  0.07302949  0.46263334  1
  O2-  O368  1  0.42451062  0.07861301  0.75029994  1
  O2-  O369  1  0.38487409  0.57661354  0.11882602  1
  O2-  O370  1  0.42796383  0.58166531  0.45192299  1
  O2-  O371  1  0.40149440  0.58226016  0.78927576  1
  O2-  O372  1  0.74446933  0.08187969  0.13203075  1
  O2-  O373  1  0.72079096  0.07103614  0.44983027  1
  O2-  O374  1  0.73845245  0.08004765  0.77787497  1
  O2-  O375  1  0.74526178  0.57789580  0.12090417  1
  O2-  O376  1  0.72076154  0.58188007  0.43895343  1
  O2-  O377  1  0.74814345  0.58314398  0.78636710  1
  O2-  O378  1  0.23182206  0.08581251  0.23384630  1
  O2-  O379  1  0.25677562  0.07867675  0.55280101  1
  O2-  O380  1  0.25443433  0.07689740  0.87746642  1
  O2-  O381  1  0.23891137  0.57736896  0.21511578  1
  O2-  O382  1  0.25920787  0.58179212  0.55700769  1
  O2-  O383  1  0.24715809  0.57862463  0.87283771  1
  O2-  O384  1  0.58018858  0.08027760  0.25677321  1
  O2-  O385  1  0.57683461  0.08159167  0.54579894  1
  O2-  O386  1  0.59540888  0.08017227  0.89283482  1
  O2-  O387  1  0.58772635  0.58634525  0.25514135  1
  O2-  O388  1  0.59504920  0.58004635  0.53905523  1
  O2-  O389  1  0.57567024  0.57852092  0.88296823  1
  O2-  O390  1  0.92980627  0.05805763  0.20483766  1
  O2-  O391  1  0.91785594  0.06483859  0.54830669  1
  O2-  O392  1  0.89032025  0.07204047  0.87136658  1
  O2-  O393  1  0.93795371  0.57895298  0.20665693  1
  O2-  O394  1  0.88707808  0.58099990  0.53631517  1
  O2-  O395  1  0.93051425  0.58019756  0.88682508  1
  O2-  O396  1  0.09413137  0.41384278  0.10527126  1
  O2-  O397  1  0.08654009  0.41653860  0.43731622  1
  O2-  O398  1  0.08398674  0.41341325  0.76811068  1
  O2-  O399  1  0.09136177  0.92268278  0.10272080  1
  O2-  O400  1  0.09445500  0.92361715  0.45019971  1
  O2-  O401  1  0.08267121  0.92030653  0.78979491  1
  O2-  O402  1  0.42114158  0.41702405  0.12541831  1
  O2-  O403  1  0.40482840  0.41128706  0.42910380  1
  O2-  O404  1  0.42753471  0.41919234  0.77579659  1
  O2-  O405  1  0.43032773  0.91503433  0.12268189  1
  O2-  O406  1  0.42559034  0.91996381  0.44674948  1
  O2-  O407  1  0.41393303  0.92602555  0.78732625  1
  O2-  O408  1  0.74758716  0.42074155  0.12445449  1
  O2-  O409  1  0.76194575  0.41814650  0.43314016  1
  O2-  O410  1  0.74239309  0.41708008  0.78090311  1
  O2-  O411  1  0.71873696  0.92222224  0.13039845  1
  O2-  O412  1  0.74039673  0.91907791  0.44645279  1
  O2-  O413  1  0.75213709  0.92557928  0.77936055  1
  O2-  O414  1  0.24989959  0.41011791  0.24002220  1
  O2-  O415  1  0.25602725  0.41378243  0.54793269  1
  O2-  O416  1  0.26894856  0.42053636  0.88663071  1
  O2-  O417  1  0.26347885  0.92921686  0.21844123  1
  O2-  O418  1  0.27010788  0.92118317  0.54584912  1
  O2-  O419  1  0.26914261  0.93016184  0.87411527  1
  O2-  O420  1  0.57451053  0.42015691  0.22811206  1
  O2-  O421  1  0.56579980  0.41463630  0.54580381  1
  O2-  O422  1  0.57274553  0.42250548  0.88367871  1
  O2-  O423  1  0.57911976  0.91789087  0.22292909  1
  O2-  O424  1  0.57415385  0.91867073  0.54890632  1
  O2-  O425  1  0.56876730  0.92359450  0.87696902  1
  O2-  O426  1  0.89436959  0.41676684  0.24586516  1
  O2-  O427  1  0.92405135  0.41954665  0.55612505  1
  O2-  O428  1  0.90404532  0.42398088  0.87693269  1
  O2-  O429  1  0.89195541  0.92959543  0.21787176  1
  O2-  O430  1  0.91034861  0.91479247  0.55918501  1
  O2-  O431  1  0.91629787  0.91722772  0.88149316  1
  O2-  O432  1  -0.00787471  -0.00946649  0.00835923  1
  O2-  O433  1  -0.00773593  0.01372095  0.33944581  1
  O2-  O434  1  -0.00001458  -0.00691632  0.66297368  1
  O2-  O435  1  -0.01384159  0.50237604  0.01614616  1
  O2-  O436  1  0.00563249  0.50252433  0.31673473  1
  O2-  O437  1  0.00375034  0.51499028  0.64348437  1
  O2-  O438  1  0.32823774  -0.02194682  0.00385435  1
  O2-  O439  1  0.33242718  -0.00553898  0.33812511  1
  O2-  O440  1  0.32709391  -0.00336628  0.66401482  1
  O2-  O441  1  0.34972093  0.50135136  -0.01804913  1
  O2-  O442  1  0.32672050  0.50880836  0.34691591  1
  O2-  O443  1  0.34024641  0.50998224  0.66453635  1
  O2-  O444  1  0.67477918  -0.01170187  -0.01278053  1
  O2-  O445  1  0.66351704  -0.01604793  0.33454663  1
  O2-  O446  1  0.69404451  0.00547853  0.62249193  1
  O2-  O447  1  0.66593058  0.48177930  0.01579833  1
  O2-  O448  1  0.67392683  0.49770018  0.30835937  1
  O2-  O449  1  0.67358156  0.50691403  0.65525272  1
  O2-  O450  1  0.16797809  -0.01490517  -0.01512621  1
  O2-  O451  1  0.16838745  0.00808849  0.33014244  1
  O2-  O452  1  0.15684282  -0.01335120  0.63927026  1
  O2-  O453  1  0.20539020  0.49775863  0.05001889  1
  O2-  O454  1  0.16212227  0.51858571  0.32887564  1
  O2-  O455  1  0.17150200  0.50791098  0.65798989  1
  O2-  O456  1  0.50429174  -0.02693275  0.00336350  1
  O2-  O457  1  0.49802701  -0.00860886  0.33247180  1
  O2-  O458  1  0.48397120  0.00095707  0.64104362  1
  O2-  O459  1  0.50686773  0.49948932  0.00685277  1
  O2-  O460  1  0.50882338  0.51323088  0.34687211  1
  O2-  O461  1  0.50701110  0.51501320  0.67057321  1
  O2-  O462  1  0.83070808  -0.01699836  0.00389353  1
  O2-  O463  1  0.82058235  0.01337435  0.31952012  1
  O2-  O464  1  0.83562830  0.00179962  0.68335667  1
  O2-  O465  1  0.82160002  0.50060793  -0.03139655  1
  O2-  O466  1  0.81912504  0.51913100  0.29578731  1
  O2-  O467  1  0.83176100  0.51264543  0.66481968  1
  O2-  O468  1  0.08543217  0.75266298  0.38817860  1
  O2-  O469  1  0.06977534  0.24377495  0.06614269  1
  O2-  O470  1  0.75200304  0.24904358  0.05031385  1
  O2-  O471  1  0.42226579  0.25187538  0.72963560  1
  O2-  O472  1  0.92827017  0.74999990  0.62100483  1
  O2-  O473  1  0.91683832  0.25192408  0.26450607  1
  O2-  O474  1  0.23796004  0.75477007  0.61206444  1
  O2-  O475  1  0.92291455  0.75052523  0.26930244  1
  O2-  O476  1  0.58762114  0.24992289  0.94613167  1
  O2-  O477  1  0.40081708  0.75500999  0.06419896  1
  O2-  O478  1  0.24237322  0.75566510  0.95024579  1
  O2-  O479  1  0.74179496  0.24763360  0.71665950  1
  O2-  O480  1  0.59183070  0.24805744  0.62393385  1
  O2-  O481  1  0.59214735  0.75263248  0.61437540  1
  O2-  O482  1  0.41982613  0.25303439  0.05125559  1
  O2-  O483  1  0.08987799  0.24325207  0.72108450  1
  O2-  O484  1  0.91839505  0.25218848  0.59980550  1
  O2-  O485  1  0.24481647  0.24936355  0.61037756  1
  O2-  O486  1  0.23423698  0.75409371  0.27352136  1
  O2-  O487  1  0.90594217  0.75172324  0.94051849  1
  O2-  O488  1  0.77549341  0.74829024  0.05754218  1
  O2-  O489  1  0.75680837  0.25200466  0.41163731  1
  O2-  O490  1  0.08293751  0.75128872  0.71580483  1
  O2-  O491  1  0.08914427  0.75890981  0.06968597  1
  O2-  O492  1  0.76046279  0.75031762  0.71974003  1
