# generated using pymatgen
data_Ca108Mn108O277
_symmetry_space_group_name_H-M   'P 1'
_cell_length_a   16.03053949
_cell_length_b   22.31199822
_cell_length_c   16.39233594
_cell_angle_alpha   89.99594016
_cell_angle_beta   90.00163268
_cell_angle_gamma   90.00213430
_symmetry_Int_Tables_number   1
_chemical_formula_structural   Ca108Mn108O277
_chemical_formula_sum   'Ca108 Mn108 O277'
_cell_volume   5863.10199358
_cell_formula_units_Z   1
loop_
 _symmetry_equiv_pos_site_id
 _symmetry_equiv_pos_as_xyz
  1  'x, y, z'
loop_
 _atom_type_symbol
 _atom_type_oxidation_number
  Ca2+  2.0
  Mn3.34+  3.34
  O2-  -2.0
loop_
 _atom_site_type_symbol
 _atom_site_label
 _atom_site_symmetry_multiplicity
 _atom_site_fract_x
 _atom_site_fract_y
 _atom_site_fract_z
 _atom_site_occupancy
  Ca2+  Ca0  1  0.08103245  0.24211247  0.26999547  1
  Ca2+  Ca1  1  0.08667416  0.24892467  0.57745714  1
  Ca2+  Ca2  1  0.08364800  0.23374307  0.90271767  1
  Ca2+  Ca3  1  0.08683160  0.76024540  0.24558577  1
  Ca2+  Ca4  1  0.08235408  0.76318644  0.58904317  1
  Ca2+  Ca5  1  0.07401772  0.76013146  0.91573910  1
  Ca2+  Ca6  1  0.43082960  0.26026734  0.25581494  1
  Ca2+  Ca7  1  0.40274993  0.26675712  0.58547770  1
  Ca2+  Ca8  1  0.41293730  0.25376103  0.91449946  1
  Ca2+  Ca9  1  0.43920022  0.73513151  0.26457045  1
  Ca2+  Ca10  1  0.44079025  0.73966247  0.57198323  1
  Ca2+  Ca11  1  0.42650076  0.75085692  0.91431746  1
  Ca2+  Ca12  1  0.73644988  0.24962279  0.25623411  1
  Ca2+  Ca13  1  0.76080007  0.25632909  0.57838279  1
  Ca2+  Ca14  1  0.76014991  0.24599643  0.92180702  1
  Ca2+  Ca15  1  0.72856597  0.74624072  0.25704038  1
  Ca2+  Ca16  1  0.72231944  0.74636615  0.58156672  1
  Ca2+  Ca17  1  0.75293072  0.75079953  0.90917361  1
  Ca2+  Ca18  1  0.22973639  0.26153335  0.08603640  1
  Ca2+  Ca19  1  0.23007654  0.26052696  0.42934581  1
  Ca2+  Ca20  1  0.23335771  0.25473197  0.73433201  1
  Ca2+  Ca21  1  0.24859318  0.75052371  0.08177782  1
  Ca2+  Ca22  1  0.28305584  0.73735600  0.42248255  1
  Ca2+  Ca23  1  0.25211585  0.74851334  0.74828791  1
  Ca2+  Ca24  1  0.57747352  0.25029838  0.11783299  1
  Ca2+  Ca25  1  0.58219524  0.26382075  0.39994659  1
  Ca2+  Ca26  1  0.56961008  0.26084170  0.74468039  1
  Ca2+  Ca27  1  0.57754819  0.74565376  0.09594539  1
  Ca2+  Ca28  1  0.57555124  0.73124466  0.41534035  1
  Ca2+  Ca29  1  0.57990554  0.74179616  0.74309996  1
  Ca2+  Ca30  1  0.94520844  0.24243878  0.09442626  1
  Ca2+  Ca31  1  0.93502281  0.25990753  0.41720771  1
  Ca2+  Ca32  1  0.94269844  0.24705656  0.73964446  1
  Ca2+  Ca33  1  0.92700563  0.74583038  0.07779909  1
  Ca2+  Ca34  1  0.90654397  0.75325980  0.41337893  1
  Ca2+  Ca35  1  0.91516646  0.75531721  0.75891052  1
  Ca2+  Ca36  1  0.58410773  0.60562246  0.09865281  1
  Ca2+  Ca37  1  0.43422729  0.07959742  0.92910577  1
  Ca2+  Ca38  1  0.42426061  0.08373758  0.93020510  1
  Ca2+  Ca39  1  0.92274002  0.58468973  0.75216600  1
  Ca2+  Ca40  1  0.24866683  0.57991495  0.07748201  1
  Ca2+  Ca41  1  0.74407415  0.06928334  0.93778335  1
  Ca2+  Ca42  1  0.59498458  0.07923006  0.74659490  1
  Ca2+  Ca43  1  0.73669129  0.59299006  0.25614363  1
  Ca2+  Ca44  1  0.21835083  0.11695098  0.09133379  1
  Ca2+  Ca45  1  0.42155395  0.59989090  0.55003325  1
  Ca2+  Ca46  1  0.08676567  0.57087644  0.60406101  1
  Ca2+  Ca47  1  0.08421931  0.09890954  0.58522187  1
  Ca2+  Ca48  1  0.58201843  0.59611841  0.73164963  1
  Ca2+  Ca49  1  0.94395737  0.11823760  0.40328130  1
  Ca2+  Ca50  1  0.21117545  0.10285562  0.74508126  1
  Ca2+  Ca51  1  0.71311919  0.59711636  0.57925051  1
  Ca2+  Ca52  1  0.22220400  0.10774658  0.42421198  1
  Ca2+  Ca53  1  0.41241239  0.59740471  0.92147454  1
  Ca2+  Ca54  1  0.59281662  0.08177335  0.07036351  1
  Ca2+  Ca55  1  0.57426134  0.59067290  0.41302565  1
  Ca2+  Ca56  1  0.44961039  0.58692317  0.26926476  1
  Ca2+  Ca57  1  0.93735154  0.09335242  0.74505627  1
  Ca2+  Ca58  1  0.22899706  0.10191535  0.42928703  1
  Ca2+  Ca59  1  0.06008584  0.57485420  0.25112568  1
  Ca2+  Ca60  1  0.92208333  0.56913191  0.38900771  1
  Ca2+  Ca61  1  0.72461350  0.59223522  0.25203887  1
  Ca2+  Ca62  1  0.94661494  0.09453658  0.75076121  1
  Ca2+  Ca63  1  0.23532025  0.58789020  0.74235811  1
  Ca2+  Ca64  1  0.75631291  0.60387420  0.91806647  1
  Ca2+  Ca65  1  0.22641149  0.11951688  0.08529621  1
  Ca2+  Ca66  1  0.93867868  0.11215690  0.40654495  1
  Ca2+  Ca67  1  0.07333369  0.59043502  0.91143650  1
  Ca2+  Ca68  1  0.44194389  0.10319121  0.23894378  1
  Ca2+  Ca69  1  0.42980966  0.10334154  0.24212734  1
  Ca2+  Ca70  1  0.08583235  0.59105065  0.91203723  1
  Ca2+  Ca71  1  0.26095049  0.58231215  0.07796170  1
  Ca2+  Ca72  1  0.91330971  0.90395171  0.07257465  1
  Ca2+  Ca73  1  0.74749143  0.91321043  0.92419945  1
  Ca2+  Ca74  1  0.41555907  0.90357967  0.92362203  1
  Ca2+  Ca75  1  0.40244298  0.90399033  0.58529231  1
  Ca2+  Ca76  1  0.73847058  0.91749477  0.92583253  1
  Ca2+  Ca77  1  0.59203481  0.89881480  0.42228561  1
  Ca2+  Ca78  1  0.58271326  0.92169286  0.06587832  1
  Ca2+  Ca79  1  0.57402655  0.42348951  0.40403455  1
  Ca2+  Ca80  1  0.77510387  0.91899993  0.59297456  1
  Ca2+  Ca81  1  0.75186361  0.40694271  0.58444034  1
  Ca2+  Ca82  1  0.26050213  0.90082323  0.42412834  1
  Ca2+  Ca83  1  0.91787719  0.89912032  0.41740492  1
  Ca2+  Ca84  1  0.93667774  0.42275098  0.73430963  1
  Ca2+  Ca85  1  0.76349305  0.91552795  0.59611129  1
  Ca2+  Ca86  1  0.24813471  0.90049724  0.42398948  1
  Ca2+  Ca87  1  0.93044665  0.41681044  0.40542545  1
  Ca2+  Ca88  1  0.75051023  0.41063165  0.25958540  1
  Ca2+  Ca89  1  0.40061429  0.40206574  0.92708534  1
  Ca2+  Ca90  1  0.59031267  0.40546875  0.73929989  1
  Ca2+  Ca91  1  0.41401682  0.42610060  0.27218212  1
  Ca2+  Ca92  1  0.41317328  0.40353089  0.92858615  1
  Ca2+  Ca93  1  0.76286265  0.39422466  0.91413200  1
  Ca2+  Ca94  1  0.07946610  0.41570277  0.26820736  1
  Ca2+  Ca95  1  0.94565403  0.41999083  0.73815819  1
  Ca2+  Ca96  1  0.92094784  0.39736591  0.09488473  1
  Ca2+  Ca97  1  0.93076562  0.91434109  0.74392661  1
  Ca2+  Ca98  1  0.75005080  0.39457590  0.91589486  1
  Ca2+  Ca99  1  0.42423744  0.42563171  0.27167992  1
  Ca2+  Ca100  1  0.75582638  0.90174704  0.24337189  1
  Ca2+  Ca101  1  0.24261746  0.41015910  0.09127385  1
  Ca2+  Ca102  1  0.58070153  0.89983271  0.42264928  1
  Ca2+  Ca103  1  0.58852874  0.90761783  0.75491822  1
  Ca2+  Ca104  1  0.08855409  0.40416715  0.91901944  1
  Ca2+  Ca105  1  0.25340384  0.89093125  0.08456568  1
  Ca2+  Ca106  1  0.23669129  0.91168047  0.72650640  1
  Ca2+  Ca107  1  0.59382805  0.92031763  0.06488202  1
  Mn3.34+  Mn108  1  0.08220850  0.33367502  0.08956256  1
  Mn3.34+  Mn109  1  0.08888108  0.34124937  0.42207330  1
  Mn3.34+  Mn110  1  0.08967484  0.33490882  0.74802212  1
  Mn3.34+  Mn111  1  0.08317508  0.82964111  0.08254259  1
  Mn3.34+  Mn112  1  0.08544657  0.82479399  0.41454704  1
  Mn3.34+  Mn113  1  0.08404222  0.83212965  0.75067038  1
  Mn3.34+  Mn114  1  0.41287652  0.32992021  0.09032531  1
  Mn3.34+  Mn115  1  0.40987687  0.33974566  0.42312542  1
  Mn3.34+  Mn116  1  0.40889100  0.33471487  0.74576024  1
  Mn3.34+  Mn117  1  0.41770056  0.82985949  0.08543096  1
  Mn3.34+  Mn118  1  0.41930365  0.83097166  0.41421918  1
  Mn3.34+  Mn119  1  0.41486560  0.83086266  0.75095630  1
  Mn3.34+  Mn120  1  0.75172766  0.32528946  0.09119748  1
  Mn3.34+  Mn121  1  0.74833025  0.33746188  0.41963123  1
  Mn3.34+  Mn122  1  0.75293810  0.32881798  0.74954021  1
  Mn3.34+  Mn123  1  0.75063242  0.83271366  0.08858463  1
  Mn3.34+  Mn124  1  0.75245502  0.83137681  0.41994496  1
  Mn3.34+  Mn125  1  0.75191528  0.83279560  0.75189367  1
  Mn3.34+  Mn126  1  0.25086705  0.34280481  0.25277091  1
  Mn3.34+  Mn127  1  0.24609767  0.34454603  0.58337476  1
  Mn3.34+  Mn128  1  0.24283628  0.32977086  0.91473453  1
  Mn3.34+  Mn129  1  0.25258774  0.82954035  0.24858866  1
  Mn3.34+  Mn130  1  0.24926849  0.83280070  0.58320508  1
  Mn3.34+  Mn131  1  0.24772548  0.83134125  0.90980790  1
  Mn3.34+  Mn132  1  0.58187251  0.34109630  0.24860046  1
  Mn3.34+  Mn133  1  0.57919945  0.33570962  0.57727148  1
  Mn3.34+  Mn134  1  0.58312158  0.32698538  0.92068364  1
  Mn3.34+  Mn135  1  0.58102192  0.83376769  0.24617419  1
  Mn3.34+  Mn136  1  0.58021343  0.83535550  0.58847994  1
  Mn3.34+  Mn137  1  0.58234230  0.83085552  0.91187907  1
  Mn3.34+  Mn138  1  0.91445522  0.33833207  0.24943929  1
  Mn3.34+  Mn139  1  0.92103795  0.33563990  0.57873617  1
  Mn3.34+  Mn140  1  0.92393577  0.32678492  0.91581119  1
  Mn3.34+  Mn141  1  0.91908733  0.83396308  0.24467970  1
  Mn3.34+  Mn142  1  0.92333516  0.83650461  0.58292106  1
  Mn3.34+  Mn143  1  0.92064680  0.83617849  0.91314522  1
  Mn3.34+  Mn144  1  0.24927519  0.66968352  0.91402298  1
  Mn3.34+  Mn145  1  0.91823120  0.16157795  0.91622261  1
  Mn3.34+  Mn146  1  0.42013145  0.66709165  0.08626950  1
  Mn3.34+  Mn147  1  0.90810953  0.66150849  0.58108574  1
  Mn3.34+  Mn148  1  0.74927969  0.66722265  0.75063270  1
  Mn3.34+  Mn149  1  0.76621412  0.15772791  0.09715109  1
  Mn3.34+  Mn150  1  0.41327216  0.17029261  0.42280599  1
  Mn3.34+  Mn151  1  0.77358440  0.14958526  0.10650876  1
  Mn3.34+  Mn152  1  0.75508636  0.67346097  0.08543408  1
  Mn3.34+  Mn153  1  0.58038801  0.16814325  0.59145584  1
  Mn3.34+  Mn154  1  0.92138361  0.66751314  0.58483640  1
  Mn3.34+  Mn155  1  0.73830826  0.16119391  0.41440326  1
  Mn3.34+  Mn156  1  0.09196972  0.65677906  0.42335586  1
  Mn3.34+  Mn157  1  0.24922104  0.65864869  0.58433974  1
  Mn3.34+  Mn158  1  0.91666125  0.16493286  0.57995477  1
  Mn3.34+  Mn159  1  0.59528945  0.16962975  0.91116442  1
  Mn3.34+  Mn160  1  0.08279903  0.66892750  0.75065040  1
  Mn3.34+  Mn161  1  0.07780114  0.66450569  0.08954643  1
  Mn3.34+  Mn162  1  0.25441374  0.16884984  0.90751674  1
  Mn3.34+  Mn163  1  0.91242224  0.66134852  0.24401706  1
  Mn3.34+  Mn164  1  0.74936929  0.66735094  0.42062600  1
  Mn3.34+  Mn165  1  0.25733540  0.65616875  0.25006634  1
  Mn3.34+  Mn166  1  0.24712581  0.66084405  0.25237251  1
  Mn3.34+  Mn167  1  0.91604113  0.66917364  0.91667053  1
  Mn3.34+  Mn168  1  0.25042222  0.17804973  0.25189875  1
  Mn3.34+  Mn169  1  0.75654137  0.16579152  0.75589477  1
  Mn3.34+  Mn170  1  0.41582151  0.17089084  0.08353363  1
  Mn3.34+  Mn171  1  0.24754472  0.16714899  0.58803868  1
  Mn3.34+  Mn172  1  0.58404531  0.66954233  0.91634863  1
  Mn3.34+  Mn173  1  0.08158687  0.66154349  0.42098016  1
  Mn3.34+  Mn174  1  0.41259593  0.16715048  0.74898706  1
  Mn3.34+  Mn175  1  0.41239749  0.66735216  0.74915902  1
  Mn3.34+  Mn176  1  0.75105302  0.16873049  0.41463061  1
  Mn3.34+  Mn177  1  0.58584757  0.17522632  0.91419359  1
  Mn3.34+  Mn178  1  0.42482744  0.16277168  0.42510516  1
  Mn3.34+  Mn179  1  0.59027975  0.16300345  0.58970603  1
  Mn3.34+  Mn180  1  0.42884829  0.49910909  0.08402192  1
  Mn3.34+  Mn181  1  0.58525402  0.00228601  0.58501531  1
  Mn3.34+  Mn182  1  0.08429567  -0.00481369  0.09360681  1
  Mn3.34+  Mn183  1  0.57824287  0.49523739  0.58401876  1
  Mn3.34+  Mn184  1  0.75544647  0.00558853  0.74678567  1
  Mn3.34+  Mn185  1  0.41851452  0.00154522  0.42350058  1
  Mn3.34+  Mn186  1  0.75228532  0.50095858  0.41409796  1
  Mn3.34+  Mn187  1  0.91459881  0.49848256  0.91778673  1
  Mn3.34+  Mn188  1  0.25496050  0.00099800  0.25317147  1
  Mn3.34+  Mn189  1  0.41556011  -0.00275800  0.73963237  1
  Mn3.34+  Mn190  1  0.59809860  0.00454456  0.26166498  1
  Mn3.34+  Mn191  1  0.92124370  0.00766130  0.24467034  1
  Mn3.34+  Mn192  1  0.08036398  -0.00282318  0.43063540  1
  Mn3.34+  Mn193  1  0.40256540  0.00399184  0.73990786  1
  Mn3.34+  Mn194  1  0.58274543  0.50421282  0.90838405  1
  Mn3.34+  Mn195  1  0.07077876  0.50040392  0.07907034  1
  Mn3.34+  Mn196  1  0.07249833  0.00211108  0.09422157  1
  Mn3.34+  Mn197  1  0.22778758  -0.00369354  0.91016791  1
  Mn3.34+  Mn198  1  0.40547769  -0.00160087  0.08671935  1
  Mn3.34+  Mn199  1  0.07005658  -0.00811110  0.43259147  1
  Mn3.34+  Mn200  1  0.92264201  -0.00006596  0.91975725  1
  Mn3.34+  Mn201  1  0.74303736  0.49796899  0.08977810  1
  Mn3.34+  Mn202  1  0.74477204  0.50194930  0.74729116  1
  Mn3.34+  Mn203  1  0.58717300  -0.00082434  0.25900665  1
  Mn3.34+  Mn204  1  0.40321402  0.49610980  0.73869082  1
  Mn3.34+  Mn205  1  0.91728802  0.50154884  0.58510613  1
  Mn3.34+  Mn206  1  0.75904349  0.00112809  0.42092475  1
  Mn3.34+  Mn207  1  0.41426512  0.50346834  0.74193450  1
  Mn3.34+  Mn208  1  0.23965134  -0.00351381  0.25199553  1
  Mn3.34+  Mn209  1  0.75741780  0.50351710  0.08713550  1
  Mn3.34+  Mn210  1  0.90755803  0.00227450  0.24308480  1
  Mn3.34+  Mn211  1  0.24122793  0.00255643  0.90963511  1
  Mn3.34+  Mn212  1  0.24273841  0.49780423  0.58918844  1
  Mn3.34+  Mn213  1  0.08512062  -0.00449402  0.74466249  1
  Mn3.34+  Mn214  1  0.24813993  0.50038292  0.91366200  1
  Mn3.34+  Mn215  1  0.59814541  0.49978021  0.91056764  1
  O2-  O216  1  -0.00989687  0.18969774  -0.01270636  1
  O2-  O217  1  -0.00923700  0.18698145  0.33605372  1
  O2-  O218  1  -0.00215204  0.15611544  0.65989797  1
  O2-  O219  1  0.00210823  0.65207376  -0.00515423  1
  O2-  O220  1  -0.00586224  0.65162606  0.33828276  1
  O2-  O221  1  -0.00183656  0.64289531  0.66425414  1
  O2-  O222  1  0.33356165  0.14559735  -0.00130324  1
  O2-  O223  1  0.33827848  0.15270943  0.32377105  1
  O2-  O224  1  0.32279659  0.15130985  0.68001922  1
  O2-  O225  1  0.32731491  0.65597311  0.00242029  1
  O2-  O226  1  0.34058166  0.65619610  0.32513616  1
  O2-  O227  1  0.31760382  0.65966313  0.68240839  1
  O2-  O228  1  0.67458299  0.17607370  -0.00041476  1
  O2-  O229  1  0.66410464  0.15933821  0.33525216  1
  O2-  O230  1  0.67285346  0.16734496  0.67154704  1
  O2-  O231  1  0.66835833  0.65880751  0.00142553  1
  O2-  O232  1  0.67097323  0.65460922  0.34011460  1
  O2-  O233  1  0.66636528  0.66098395  0.67493905  1
  O2-  O234  1  0.18066847  0.18053938  -0.00634123  1
  O2-  O235  1  0.17889488  0.17252371  0.33848229  1
  O2-  O236  1  0.16151094  0.16582712  0.65724665  1
  O2-  O237  1  0.16918471  0.64786623  0.00025528  1
  O2-  O238  1  0.16061521  0.63888119  0.32666830  1
  O2-  O239  1  0.16281569  0.66268507  0.66702076  1
  O2-  O240  1  0.50639573  0.15070014  0.00120914  1
  O2-  O241  1  0.49847381  0.15417536  0.33839897  1
  O2-  O242  1  0.50811337  0.14717425  0.68235959  1
  O2-  O243  1  0.49950120  0.64845756  -0.00037487  1
  O2-  O244  1  0.50803598  0.66078433  0.33879081  1
  O2-  O245  1  0.48299772  0.64635061  0.66837248  1
  O2-  O246  1  0.83321443  0.16480005  0.00262822  1
  O2-  O247  1  0.83134240  0.16845743  0.33768193  1
  O2-  O248  1  0.84233812  0.15192276  0.67893161  1
  O2-  O249  1  0.83011254  0.67341231  -0.00433785  1
  O2-  O250  1  0.83075462  0.66156039  0.32900669  1
  O2-  O251  1  0.83180625  0.64037732  0.66555383  1
  O2-  O252  1  0.00024089  0.34636105  0.00090302  1
  O2-  O253  1  -0.00502828  0.33591661  0.33136739  1
  O2-  O254  1  -0.00057658  0.34729067  0.66762000  1
  O2-  O255  1  -0.00349924  0.84215026  0.00181586  1
  O2-  O256  1  -0.00530787  0.82765036  0.33275855  1
  O2-  O257  1  0.00511910  0.84906048  0.66464434  1
  O2-  O258  1  0.32916391  0.32971710  0.00058883  1
  O2-  O259  1  0.33919853  0.33219762  0.32530099  1
  O2-  O260  1  0.33153189  0.34292923  0.66587280  1
  O2-  O261  1  0.33487358  0.83515527  -0.00496876  1
  O2-  O262  1  0.32914178  0.84203746  0.34018729  1
  O2-  O263  1  0.32832421  0.84137992  0.67186019  1
  O2-  O264  1  0.67460237  0.32050228  -0.00279620  1
  O2-  O265  1  0.66169806  0.35243302  0.33682030  1
  O2-  O266  1  0.67109676  0.33596389  0.66649788  1
  O2-  O267  1  0.66681135  0.84221467  0.00083476  1
  O2-  O268  1  0.66785297  0.85236040  0.32981639  1
  O2-  O269  1  0.67281037  0.85381569  0.66175479  1
  O2-  O270  1  0.16837251  0.34379725  0.00621103  1
  O2-  O271  1  0.16788456  0.33005323  0.32945068  1
  O2-  O272  1  0.17050102  0.34204218  0.67028070  1
  O2-  O273  1  0.17241370  0.83093596  0.00101879  1
  O2-  O274  1  0.17024410  0.84556889  0.33366156  1
  O2-  O275  1  0.17138057  0.82577911  0.66872789  1
  O2-  O276  1  0.49612112  0.34435685  -0.00260381  1
  O2-  O277  1  0.49811774  0.34374308  0.33224670  1
  O2-  O278  1  0.50423378  0.34706695  0.67052760  1
  O2-  O279  1  0.50496137  0.85048468  -0.00149957  1
  O2-  O280  1  0.50142323  0.85668594  0.33081235  1
  O2-  O281  1  0.49822792  0.85724900  0.67001252  1
  O2-  O282  1  0.83485313  0.32912331  -0.00112878  1
  O2-  O283  1  0.82915049  0.33870152  0.32976944  1
  O2-  O284  1  0.83930572  0.35043274  0.67399198  1
  O2-  O285  1  0.82698885  0.84359306  -0.00364920  1
  O2-  O286  1  0.83595195  0.84289732  0.33290585  1
  O2-  O287  1  0.83899047  0.85329464  0.67348609  1
  O2-  O288  1  0.00020193  0.18046971  0.18931929  1
  O2-  O289  1  -0.00738785  0.18185037  0.50070873  1
  O2-  O290  1  -0.01100870  0.17235689  0.82881263  1
  O2-  O291  1  0.00242140  0.68401251  0.17908967  1
  O2-  O292  1  -0.00268908  0.68994207  0.50039311  1
  O2-  O293  1  0.00003231  0.67289699  0.83565289  1
  O2-  O294  1  0.32465436  0.18193988  0.15932145  1
  O2-  O295  1  0.32779858  0.17956264  0.49695488  1
  O2-  O296  1  0.35281473  0.17607406  0.84843017  1
  O2-  O297  1  0.32860868  0.68240111  0.16075959  1
  O2-  O298  1  0.33600799  0.68095225  0.52201471  1
  O2-  O299  1  0.33605179  0.68730928  0.84241907  1
  O2-  O300  1  0.67476891  0.17888191  0.15960654  1
  O2-  O301  1  0.66779864  0.18189689  0.50161698  1
  O2-  O302  1  0.66895996  0.19540849  0.82799145  1
  O2-  O303  1  0.67432029  0.67938908  0.16450177  1
  O2-  O304  1  0.67033516  0.67402961  0.49793167  1
  O2-  O305  1  0.67029409  0.68480442  0.83684843  1
  O2-  O306  1  0.17148715  0.18804359  0.17309302  1
  O2-  O307  1  0.17158091  0.17786037  0.50179030  1
  O2-  O308  1  0.18432433  0.18800277  0.82786668  1
  O2-  O309  1  0.17366187  0.67968439  0.16633397  1
  O2-  O310  1  0.16680700  0.68593113  0.50480517  1
  O2-  O311  1  0.16171919  0.68776599  0.84153688  1
  O2-  O312  1  0.48766128  0.17830352  0.17041264  1
  O2-  O313  1  0.49816756  0.17979761  0.51397834  1
  O2-  O314  1  0.50250560  0.19234950  0.83696812  1
  O2-  O315  1  0.49795190  0.67379438  0.16430680  1
  O2-  O316  1  0.50107877  0.66757127  0.48985637  1
  O2-  O317  1  0.50036914  0.67662674  0.83097841  1
  O2-  O318  1  0.83542546  0.20240221  0.16676986  1
  O2-  O319  1  0.83003013  0.18373371  0.49702099  1
  O2-  O320  1  0.83340411  0.18984829  0.83584138  1
  O2-  O321  1  0.83575918  0.69431907  0.16959030  1
  O2-  O322  1  0.83330734  0.68627081  0.50219896  1
  O2-  O323  1  0.83483692  0.67890204  0.83295911  1
  O2-  O324  1  -0.00143859  0.32099136  0.17084535  1
  O2-  O325  1  -0.00363860  0.32898893  0.49702346  1
  O2-  O326  1  -0.00257613  0.31579709  0.83173136  1
  O2-  O327  1  -0.00270385  0.81461764  0.16196416  1
  O2-  O328  1  -0.00480275  0.81774825  0.49305690  1
  O2-  O329  1  -0.00345013  0.82646976  0.82789825  1
  O2-  O330  1  0.33006712  0.30870861  0.16787825  1
  O2-  O331  1  0.32760415  0.32231181  0.49646098  1
  O2-  O332  1  0.33441506  0.31732401  0.84211791  1
  O2-  O333  1  0.33242694  0.81571909  0.16047727  1
  O2-  O334  1  0.33751139  0.81803130  0.50412758  1
  O2-  O335  1  0.33533256  0.81182747  0.83510305  1
  O2-  O336  1  0.67159655  0.32375933  0.17350301  1
  O2-  O337  1  0.66792668  0.31773478  0.50351266  1
  O2-  O338  1  0.66689317  0.31412043  0.83601539  1
  O2-  O339  1  0.66900349  0.81284099  0.16706324  1
  O2-  O340  1  0.65919650  0.82375074  0.49546442  1
  O2-  O341  1  0.66573687  0.81822109  0.83179613  1
  O2-  O342  1  0.17041999  0.33256176  0.16849397  1
  O2-  O343  1  0.16217027  0.32693379  0.50759351  1
  O2-  O344  1  0.15921083  0.31823165  0.84054268  1
  O2-  O345  1  0.17157865  0.81620055  0.16129724  1
  O2-  O346  1  0.17710513  0.81245441  0.49597328  1
  O2-  O347  1  0.16698568  0.81121865  0.83003288  1
  O2-  O348  1  0.49464987  0.32578121  0.16940276  1
  O2-  O349  1  0.49990447  0.32362235  0.49656257  1
  O2-  O350  1  0.49740774  0.32491247  0.84064426  1
  O2-  O351  1  0.50971808  0.82697630  0.15538741  1
  O2-  O352  1  0.50334778  0.82878970  0.49787562  1
  O2-  O353  1  0.49986711  0.82273170  0.83317567  1
  O2-  O354  1  0.83909021  0.31498434  0.16588746  1
  O2-  O355  1  0.83114579  0.32402399  0.50239768  1
  O2-  O356  1  0.82751577  0.31484673  0.84186866  1
  O2-  O357  1  0.83403537  0.81602246  0.16474521  1
  O2-  O358  1  0.82965094  0.81936976  0.50862282  1
  O2-  O359  1  0.83017965  0.82162222  0.83792492  1
  O2-  O360  1  0.09835353  0.08107026  0.11877799  1
  O2-  O361  1  0.07624566  0.08171895  0.44373206  1
  O2-  O362  1  0.07713427  0.06666069  0.79401475  1
  O2-  O363  1  0.09566514  0.58142103  0.11540767  1
  O2-  O364  1  0.07090581  0.58006650  0.45826560  1
  O2-  O365  1  0.08905668  0.58554944  0.77844203  1
  O2-  O366  1  0.40333353  0.08376481  0.11035330  1
  O2-  O367  1  0.38614484  0.08340535  0.44082323  1
  O2-  O368  1  0.42342259  0.07786885  0.79322653  1
  O2-  O369  1  0.40370005  0.58258402  0.11406854  1
  O2-  O370  1  0.43726071  0.56743220  0.41918265  1
  O2-  O371  1  0.39511542  0.57792707  0.78998547  1
  O2-  O372  1  0.73192364  0.07479176  0.08153779  1
  O2-  O373  1  0.77771026  0.08459028  0.43759328  1
  O2-  O374  1  0.73037128  0.07871699  0.79585893  1
  O2-  O375  1  0.75823858  0.58461149  0.11604384  1
  O2-  O376  1  0.76299848  0.58081992  0.44473937  1
  O2-  O377  1  0.74569919  0.58190382  0.78414181  1
  O2-  O378  1  0.26370266  0.08051277  0.21371653  1
  O2-  O379  1  0.22930672  0.08340258  0.55587293  1
  O2-  O380  1  0.25162630  0.08005333  0.87646514  1
  O2-  O381  1  0.24914329  0.57755237  0.21158928  1
  O2-  O382  1  0.23622960  0.57201832  0.54859698  1
  O2-  O383  1  0.22817776  0.58008661  0.88124235  1
  O2-  O384  1  0.56550776  0.07465418  0.20059649  1
  O2-  O385  1  0.59522641  0.08433354  0.56400944  1
  O2-  O386  1  0.57183516  0.08332250  0.88551210  1
  O2-  O387  1  0.61291510  0.56011475  0.20740698  1
  O2-  O388  1  0.57371969  0.57124373  0.55233634  1
  O2-  O389  1  0.58695110  0.58458127  0.87902489  1
  O2-  O390  1  0.92171601  0.08679927  0.26034106  1
  O2-  O391  1  0.93141117  0.08469480  0.54302360  1
  O2-  O392  1  0.89771971  0.07810482  0.88048887  1
  O2-  O393  1  0.89488229  0.58353201  0.23092980  1
  O2-  O394  1  0.92126246  0.58182266  0.54191674  1
  O2-  O395  1  0.91893098  0.58279136  0.89174315  1
  O2-  O396  1  0.07436228  0.41978045  0.11462844  1
  O2-  O397  1  0.07315426  0.41999458  0.41334474  1
  O2-  O398  1  0.06668600  0.41785401  0.78838158  1
  O2-  O399  1  0.08320022  0.91500719  0.11179270  1
  O2-  O400  1  0.09975844  0.91115343  0.44239012  1
  O2-  O401  1  0.09590854  0.91869428  0.77468191  1
  O2-  O402  1  0.39482191  0.41471182  0.09547786  1
  O2-  O403  1  0.41867959  0.41845302  0.41715590  1
  O2-  O404  1  0.41922949  0.42341698  0.79582376  1
  O2-  O405  1  0.41248537  0.91496629  0.09252589  1
  O2-  O406  1  0.40804129  0.91759156  0.44920686  1
  O2-  O407  1  0.40747300  0.92106545  0.79043718  1
  O2-  O408  1  0.76343633  0.41560412  0.10599689  1
  O2-  O409  1  0.74708542  0.42248169  0.44640520  1
  O2-  O410  1  0.73474013  0.42063048  0.78570772  1
  O2-  O411  1  0.73785783  0.91675829  0.10824196  1
  O2-  O412  1  0.74632303  0.91809972  0.45950172  1
  O2-  O413  1  0.74226221  0.92409113  0.78812219  1
  O2-  O414  1  0.28137544  0.41982178  0.22555116  1
  O2-  O415  1  0.25078899  0.42556305  0.55329633  1
  O2-  O416  1  0.26671569  0.41835041  0.90641673  1
  O2-  O417  1  0.24736246  0.91791234  0.21574807  1
  O2-  O418  1  0.25518209  0.91688221  0.55359386  1
  O2-  O419  1  0.25160979  0.91821191  0.87961533  1
  O2-  O420  1  0.55958613  0.42235959  0.23802902  1
  O2-  O421  1  0.59815714  0.41745204  0.55226813  1
  O2-  O422  1  0.61005397  0.41702590  0.89366033  1
  O2-  O423  1  0.59910808  0.92370247  0.20496607  1
  O2-  O424  1  0.58355311  0.92156578  0.55200481  1
  O2-  O425  1  0.59153179  0.91368800  0.89347206  1
  O2-  O426  1  0.90605390  0.41640206  0.22781343  1
  O2-  O427  1  0.90800359  0.42127422  0.55458726  1
  O2-  O428  1  0.89466502  0.41826308  0.87338139  1
  O2-  O429  1  0.91043210  0.92387614  0.20658604  1
  O2-  O430  1  0.90639096  0.91915516  0.54958641  1
  O2-  O431  1  0.90759392  0.91854796  0.88599411  1
  O2-  O432  1  -0.01351438  -0.00852163  0.01788732  1
  O2-  O433  1  -0.00895427  -0.01079248  0.34303171  1
  O2-  O434  1  -0.00821665  0.00589827  0.69095753  1
  O2-  O435  1  0.02482196  0.49868554  -0.03663551  1
  O2-  O436  1  0.00270676  0.49951292  0.32606932  1
  O2-  O437  1  -0.00634899  0.50495823  0.67448902  1
  O2-  O438  1  0.34218847  0.00382434  -0.02445751  1
  O2-  O439  1  0.31725387  -0.01446484  0.35073327  1
  O2-  O440  1  0.32337431  -0.01602726  0.66626544  1
  O2-  O441  1  0.33500857  0.51757907  -0.00547130  1
  O2-  O442  1  0.36339232  0.51234234  0.29253120  1
  O2-  O443  1  0.34062752  0.51528818  0.64539970  1
  O2-  O444  1  0.66360212  -0.01657011  -0.00801621  1
  O2-  O445  1  0.65397842  -0.01935763  0.35810611  1
  O2-  O446  1  0.67468867  -0.01185253  0.66531772  1
  O2-  O447  1  0.65279698  0.51692218  0.01351265  1
  O2-  O448  1  0.66968319  0.50527306  0.34451914  1
  O2-  O449  1  0.67633112  0.50519472  0.64952060  1
  O2-  O450  1  0.16862251  0.00651864  0.00895582  1
  O2-  O451  1  0.16501420  0.01695628  0.34427842  1
  O2-  O452  1  0.16611999  0.00945196  0.68289833  1
  O2-  O453  1  0.17840893  0.50467714  0.01373693  1
  O2-  O454  1  0.13842295  0.50241876  0.29965427  1
  O2-  O455  1  0.17625117  0.50908326  0.66978164  1
  O2-  O456  1  0.50238503  0.01220248  0.01483929  1
  O2-  O457  1  0.48814200  0.01219204  0.32302856  1
  O2-  O458  1  0.51462353  0.00122323  0.68142918  1
  O2-  O459  1  0.48807482  0.48677965  -0.02619929  1
  O2-  O460  1  0.50023851  0.50208391  0.33654405  1
  O2-  O461  1  0.51727966  0.49517435  0.68630556  1
  O2-  O462  1  0.81978085  -0.00781731  -0.03450148  1
  O2-  O463  1  0.82681324  -0.01633912  0.32313116  1
  O2-  O464  1  0.83806742  -0.01484274  0.67765632  1
  O2-  O465  1  0.81219537  0.49051274  -0.01819958  1
  O2-  O466  1  0.83476133  0.49359864  0.34391143  1
  O2-  O467  1  0.84174012  0.48819747  0.68151848  1
  O2-  O468  1  0.42730648  0.74849591  0.05620210  1
  O2-  O469  1  0.43277688  0.24897315  0.05384842  1
  O2-  O470  1  0.08468147  0.25890455  0.41481289  1
  O2-  O471  1  0.57645511  0.74999603  0.94597488  1
  O2-  O472  1  0.58243501  0.25775316  0.26280072  1
  O2-  O473  1  0.73795517  0.25091929  0.39713599  1
  O2-  O474  1  0.75063972  0.75045632  0.39472981  1
  O2-  O475  1  0.08563629  0.25632121  0.07276956  1
  O2-  O476  1  0.08254924  0.74520753  0.05785497  1
  O2-  O477  1  0.57949207  0.75763945  0.27531107  1
  O2-  O478  1  0.75903999  0.75046037  0.72120766  1
  O2-  O479  1  0.09090316  0.73980231  0.38515589  1
  O2-  O480  1  0.42549863  0.75294894  0.39950872  1
  O2-  O481  1  0.90873813  0.25196653  0.60513015  1
  O2-  O482  1  0.42091194  0.24868232  0.72219244  1
  O2-  O483  1  0.42804279  0.74979260  0.71922660  1
  O2-  O484  1  0.24298665  0.74208241  0.28101892  1
  O2-  O485  1  0.91681816  0.74821796  0.61714585  1
  O2-  O486  1  0.06246346  0.74977374  0.72698398  1
  O2-  O487  1  0.92540330  0.75210081  0.93298294  1
  O2-  O488  1  0.58041551  0.75677436  0.60755491  1
  O2-  O489  1  0.42763654  0.25019729  0.39872810  1
  O2-  O490  1  0.25594935  0.25230775  0.59773199  1
  O2-  O491  1  0.57527636  0.24995391  0.60672703  1
  O2-  O492  1  0.08337667  0.25621912  0.72595161  1
