# generated using pymatgen
data_Ca108Mn108O277
_symmetry_space_group_name_H-M   'P 1'
_cell_length_a   16.02423301
_cell_length_b   22.30237559
_cell_length_c   16.38510724
_cell_angle_alpha   90.00193924
_cell_angle_beta   90.00026707
_cell_angle_gamma   89.99803348
_symmetry_Int_Tables_number   1
_chemical_formula_structural   Ca108Mn108O277
_chemical_formula_sum   'Ca108 Mn108 O277'
_cell_volume   5855.68443695
_cell_formula_units_Z   1
loop_
 _symmetry_equiv_pos_site_id
 _symmetry_equiv_pos_as_xyz
  1  'x, y, z'
loop_
 _atom_type_symbol
 _atom_type_oxidation_number
  Ca2+  2.0
  Mn3.34+  3.34
  O2-  -2.0
loop_
 _atom_site_type_symbol
 _atom_site_label
 _atom_site_symmetry_multiplicity
 _atom_site_fract_x
 _atom_site_fract_y
 _atom_site_fract_z
 _atom_site_occupancy
  Ca2+  Ca0  1  0.07307854  0.24852887  0.26458138  1
  Ca2+  Ca1  1  0.07227695  0.25719638  0.56827580  1
  Ca2+  Ca2  1  0.07136724  0.24836676  0.92975454  1
  Ca2+  Ca3  1  0.08138558  0.74322577  0.26752165  1
  Ca2+  Ca4  1  0.09859252  0.75192137  0.55936017  1
  Ca2+  Ca5  1  0.07738441  0.76029329  0.90829565  1
  Ca2+  Ca6  1  0.42378709  0.24673086  0.25867467  1
  Ca2+  Ca7  1  0.42467158  0.24736859  0.57798614  1
  Ca2+  Ca8  1  0.41094700  0.25945918  0.91960625  1
  Ca2+  Ca9  1  0.40475135  0.75487987  0.25108840  1
  Ca2+  Ca10  1  0.39624968  0.74837971  0.59006260  1
  Ca2+  Ca11  1  0.42198781  0.75369106  0.91610565  1
  Ca2+  Ca12  1  0.75342787  0.24617149  0.25471763  1
  Ca2+  Ca13  1  0.76446786  0.24397528  0.58038687  1
  Ca2+  Ca14  1  0.77106579  0.24137112  0.91174147  1
  Ca2+  Ca15  1  0.77172720  0.75208645  0.25662977  1
  Ca2+  Ca16  1  0.75725002  0.75870793  0.56379851  1
  Ca2+  Ca17  1  0.74393907  0.74749459  0.92729712  1
  Ca2+  Ca18  1  0.23402212  0.25870739  0.08852053  1
  Ca2+  Ca19  1  0.22866378  0.25178168  0.42268167  1
  Ca2+  Ca20  1  0.24673505  0.26267982  0.74195684  1
  Ca2+  Ca21  1  0.27029306  0.75585771  0.09267329  1
  Ca2+  Ca22  1  0.23642578  0.72060810  0.41901706  1
  Ca2+  Ca23  1  0.27351354  0.74656890  0.73454450  1
  Ca2+  Ca24  1  0.58465974  0.25191304  0.09611888  1
  Ca2+  Ca25  1  0.58244839  0.24351888  0.43104342  1
  Ca2+  Ca26  1  0.59218260  0.24693705  0.73213036  1
  Ca2+  Ca27  1  0.56932953  0.75516098  0.07637179  1
  Ca2+  Ca28  1  0.58739159  0.76327483  0.41246361  1
  Ca2+  Ca29  1  0.55312243  0.75128235  0.75904006  1
  Ca2+  Ca30  1  0.92994850  0.25239849  0.08955423  1
  Ca2+  Ca31  1  0.93458423  0.24824202  0.42985853  1
  Ca2+  Ca32  1  0.91542716  0.26284210  0.73652109  1
  Ca2+  Ca33  1  0.90889824  0.73937615  0.10096520  1
  Ca2+  Ca34  1  0.93283971  0.73291379  0.40807824  1
  Ca2+  Ca35  1  0.92758255  0.75153873  0.74576309  1
  Ca2+  Ca36  1  0.26275504  0.08539890  0.40714877  1
  Ca2+  Ca37  1  0.43744550  0.08327777  0.57002587  1
  Ca2+  Ca38  1  0.58025305  0.07056426  0.71240833  1
  Ca2+  Ca39  1  0.06508063  0.11218374  0.55855002  1
  Ca2+  Ca40  1  0.74843539  0.59128456  0.93061248  1
  Ca2+  Ca41  1  0.08295145  0.59675885  0.53772733  1
  Ca2+  Ca42  1  0.73150966  0.10581931  0.57495214  1
  Ca2+  Ca43  1  0.40756648  0.59998388  0.24365528  1
  Ca2+  Ca44  1  0.07964282  0.09064650  0.26150153  1
  Ca2+  Ca45  1  0.56759548  0.59296766  0.40638565  1
  Ca2+  Ca46  1  0.78797260  0.58701692  0.57738677  1
  Ca2+  Ca47  1  0.25438656  0.08784054  0.40188490  1
  Ca2+  Ca48  1  0.36565426  0.61046774  0.56132190  1
  Ca2+  Ca49  1  0.90113490  0.11058526  0.76622745  1
  Ca2+  Ca50  1  0.59182312  0.10930912  0.11109937  1
  Ca2+  Ca51  1  0.43601916  0.59144308  0.93608610  1
  Ca2+  Ca52  1  0.55542357  0.59029223  0.40764431  1
  Ca2+  Ca53  1  0.58639375  0.10459168  0.42050205  1
  Ca2+  Ca54  1  0.27176484  0.59851431  0.72454491  1
  Ca2+  Ca55  1  0.55300500  0.60525132  0.76503551  1
  Ca2+  Ca56  1  0.92418362  0.57461865  0.72134590  1
  Ca2+  Ca57  1  0.25613036  0.07360203  0.06972843  1
  Ca2+  Ca58  1  0.79605962  0.60420368  0.24628500  1
  Ca2+  Ca59  1  0.06983404  0.08895615  0.25852871  1
  Ca2+  Ca60  1  0.91840125  0.11041881  0.41943584  1
  Ca2+  Ca61  1  0.26706634  0.07250389  0.07251776  1
  Ca2+  Ca62  1  0.06428000  0.58808134  0.29251090  1
  Ca2+  Ca63  1  0.44773650  0.08365333  0.57192763  1
  Ca2+  Ca64  1  0.73649068  0.10729786  0.25239621  1
  Ca2+  Ca65  1  0.90415721  0.10922479  0.77597339  1
  Ca2+  Ca66  1  0.91193469  0.11151263  0.06520124  1
  Ca2+  Ca67  1  0.06152745  0.57450831  0.93585310  1
  Ca2+  Ca68  1  0.07735151  0.11382328  0.55998938  1
  Ca2+  Ca69  1  0.39505348  0.06587086  0.92390433  1
  Ca2+  Ca70  1  0.09349698  0.59626327  0.53669514  1
  Ca2+  Ca71  1  0.58832869  0.07293884  0.71814476  1
  Ca2+  Ca72  1  0.56989711  0.40721565  0.08256896  1
  Ca2+  Ca73  1  0.43254921  0.92272090  0.59357857  1
  Ca2+  Ca74  1  0.75054608  0.90651263  0.91354332  1
  Ca2+  Ca75  1  0.27099905  0.91877894  0.08134937  1
  Ca2+  Ca76  1  0.92469386  0.90215330  0.09216263  1
  Ca2+  Ca77  1  0.91193678  0.90216376  0.09236132  1
  Ca2+  Ca78  1  0.73053072  0.91243890  0.58463143  1
  Ca2+  Ca79  1  0.57607925  0.39255145  0.41437454  1
  Ca2+  Ca80  1  0.41643038  0.40859207  0.93810206  1
  Ca2+  Ca81  1  0.90548338  0.90105646  0.74848495  1
  Ca2+  Ca82  1  0.73802184  0.90539287  0.91189609  1
  Ca2+  Ca83  1  0.07577695  0.40665412  0.92726102  1
  Ca2+  Ca84  1  0.24078167  0.40708034  0.74456597  1
  Ca2+  Ca85  1  0.56720960  0.91887854  0.74131180  1
  Ca2+  Ca86  1  0.91809062  0.90858300  0.40064362  1
  Ca2+  Ca87  1  0.26672364  0.90945675  0.75728485  1
  Ca2+  Ca88  1  0.75095262  0.91113882  0.26119682  1
  Ca2+  Ca89  1  0.57364638  0.91676827  0.41565383  1
  Ca2+  Ca90  1  0.75508235  0.39342913  0.91958900  1
  Ca2+  Ca91  1  0.77276621  0.40146342  0.57939710  1
  Ca2+  Ca92  1  0.75372124  0.39493415  0.24839341  1
  Ca2+  Ca93  1  0.05450533  0.41595033  0.56160535  1
  Ca2+  Ca94  1  0.93597836  0.41024672  0.07797563  1
  Ca2+  Ca95  1  0.08937260  0.40899165  0.25800117  1
  Ca2+  Ca96  1  0.26258379  0.91169711  0.40943554  1
  Ca2+  Ca97  1  0.25161740  0.91064752  0.41042604  1
  Ca2+  Ca98  1  0.10353685  0.90749557  0.92229740  1
  Ca2+  Ca99  1  0.40816823  0.39436051  0.57509003  1
  Ca2+  Ca100  1  0.58255456  0.39305567  0.75720371  1
  Ca2+  Ca101  1  0.42204944  0.92277122  0.59280750  1
  Ca2+  Ca102  1  0.91824149  0.90120040  0.74920639  1
  Ca2+  Ca103  1  0.08871343  0.91076536  0.25521079  1
  Ca2+  Ca104  1  0.40888004  0.91960396  0.24477459  1
  Ca2+  Ca105  1  0.40140700  0.91992095  0.93072243  1
  Ca2+  Ca106  1  0.07861207  0.40899770  0.25646025  1
  Ca2+  Ca107  1  0.55829536  0.41051252  0.08488760  1
  Mn3.34+  Mn108  1  0.08815210  0.33812667  0.08899404  1
  Mn3.34+  Mn109  1  0.08287085  0.33786037  0.41759427  1
  Mn3.34+  Mn110  1  0.07916430  0.33784343  0.74952979  1
  Mn3.34+  Mn111  1  0.08804458  0.82730775  0.08569538  1
  Mn3.34+  Mn112  1  0.08477222  0.83273579  0.41672349  1
  Mn3.34+  Mn113  1  0.09184382  0.83423451  0.74490393  1
  Mn3.34+  Mn114  1  0.40543818  0.33287139  0.09200570  1
  Mn3.34+  Mn115  1  0.40752549  0.33099887  0.41333376  1
  Mn3.34+  Mn116  1  0.41503137  0.32951454  0.75143382  1
  Mn3.34+  Mn117  1  0.42122617  0.83930099  0.08567132  1
  Mn3.34+  Mn118  1  0.41790386  0.83654776  0.42176021  1
  Mn3.34+  Mn119  1  0.41544541  0.83824622  0.75304982  1
  Mn3.34+  Mn120  1  0.75271995  0.32534818  0.08525723  1
  Mn3.34+  Mn121  1  0.75366728  0.32776535  0.41916738  1
  Mn3.34+  Mn122  1  0.75216695  0.32996211  0.74852362  1
  Mn3.34+  Mn123  1  0.74233467  0.83245872  0.09076005  1
  Mn3.34+  Mn124  1  0.74959714  0.83762259  0.41641378  1
  Mn3.34+  Mn125  1  0.74160973  0.82737330  0.74685414  1
  Mn3.34+  Mn126  1  0.25645171  0.33263431  0.25412869  1
  Mn3.34+  Mn127  1  0.24587466  0.33311723  0.57954366  1
  Mn3.34+  Mn128  1  0.24614408  0.33371812  0.91491990  1
  Mn3.34+  Mn129  1  0.25006194  0.83674837  0.24557699  1
  Mn3.34+  Mn130  1  0.24913619  0.83444836  0.58088479  1
  Mn3.34+  Mn131  1  0.25170398  0.83764861  0.91592720  1
  Mn3.34+  Mn132  1  0.58220699  0.32972203  0.25226938  1
  Mn3.34+  Mn133  1  0.58469447  0.32726290  0.58190159  1
  Mn3.34+  Mn134  1  0.58512179  0.32830919  0.91386093  1
  Mn3.34+  Mn135  1  0.58190221  0.83919836  0.24760874  1
  Mn3.34+  Mn136  1  0.58104466  0.83594422  0.58134193  1
  Mn3.34+  Mn137  1  0.57818081  0.83619890  0.91739705  1
  Mn3.34+  Mn138  1  0.91505632  0.33025422  0.25059604  1
  Mn3.34+  Mn139  1  0.91777934  0.33501749  0.58178085  1
  Mn3.34+  Mn140  1  0.91749281  0.33218729  0.91179209  1
  Mn3.34+  Mn141  1  0.92110789  0.83237491  0.25109701  1
  Mn3.34+  Mn142  1  0.92046068  0.82943825  0.57585713  1
  Mn3.34+  Mn143  1  0.91651749  0.82987494  0.91688836  1
  Mn3.34+  Mn144  1  0.08473027  0.17286489  0.08445286  1
  Mn3.34+  Mn145  1  0.59266518  0.15963251  0.91167691  1
  Mn3.34+  Mn146  1  0.24505771  0.15932829  0.91734960  1
  Mn3.34+  Mn147  1  0.57280518  0.67219083  0.58086732  1
  Mn3.34+  Mn148  1  0.58160948  0.66914423  0.92305546  1
  Mn3.34+  Mn149  1  0.08772077  0.65792407  0.08708329  1
  Mn3.34+  Mn150  1  0.75312329  0.17902476  0.08487696  1
  Mn3.34+  Mn151  1  0.07675096  0.66205219  0.75232579  1
  Mn3.34+  Mn152  1  0.09652282  0.16753700  0.75697879  1
  Mn3.34+  Mn153  1  0.91483519  0.66471606  0.91870120  1
  Mn3.34+  Mn154  1  0.25776581  0.66281780  0.91745846  1
  Mn3.34+  Mn155  1  0.24718995  0.66740913  0.92039541  1
  Mn3.34+  Mn156  1  0.59167199  0.66652505  0.24305234  1
  Mn3.34+  Mn157  1  0.75551687  0.66919613  0.41706454  1
  Mn3.34+  Mn158  1  0.74332453  0.67401622  0.74819565  1
  Mn3.34+  Mn159  1  0.25197878  0.66963864  0.25173767  1
  Mn3.34+  Mn160  1  0.58194513  0.67201055  0.24436869  1
  Mn3.34+  Mn161  1  0.42253112  0.16456131  0.09218094  1
  Mn3.34+  Mn162  1  0.91943700  0.66818736  0.57669941  1
  Mn3.34+  Mn163  1  0.25273874  0.16815656  0.57839402  1
  Mn3.34+  Mn164  1  0.08575787  0.17242858  0.75455065  1
  Mn3.34+  Mn165  1  0.24938895  0.16019511  0.24493509  1
  Mn3.34+  Mn166  1  0.75215173  0.66954251  0.08355023  1
  Mn3.34+  Mn167  1  0.41273596  0.16988258  0.09056196  1
  Mn3.34+  Mn168  1  0.58428038  0.16554519  0.91484247  1
  Mn3.34+  Mn169  1  0.58643561  0.66571714  0.58075809  1
  Mn3.34+  Mn170  1  0.91716119  0.16391888  0.24639736  1
  Mn3.34+  Mn171  1  0.08625155  0.65643252  0.75388665  1
  Mn3.34+  Mn172  1  0.08757185  0.65326737  0.09757662  1
  Mn3.34+  Mn173  1  0.41640654  0.16611150  0.41344039  1
  Mn3.34+  Mn174  1  0.41406666  0.16376459  0.75635669  1
  Mn3.34+  Mn175  1  0.75265546  0.66844870  0.75034979  1
  Mn3.34+  Mn176  1  0.41725693  0.66278224  0.08736113  1
  Mn3.34+  Mn177  1  0.74611985  0.16923407  0.74823447  1
  Mn3.34+  Mn178  1  0.39962684  0.15719105  0.75638307  1
  Mn3.34+  Mn179  1  0.75047856  0.16734792  0.41657364  1
  Mn3.34+  Mn180  1  0.58150076  0.49912644  0.92093023  1
  Mn3.34+  Mn181  1  0.07143513  0.00521422  0.08692075  1
  Mn3.34+  Mn182  1  0.08169713  0.00000139  0.08793370  1
  Mn3.34+  Mn183  1  0.08033363  -0.00256293  0.40531867  1
  Mn3.34+  Mn184  1  0.24896152  0.49998176  0.94891654  1
  Mn3.34+  Mn185  1  0.58848520  0.49983918  0.58057985  1
  Mn3.34+  Mn186  1  0.74752380  0.00465466  0.08927922  1
  Mn3.34+  Mn187  1  0.74689775  0.49381079  0.75239555  1
  Mn3.34+  Mn188  1  0.25561636  0.50012413  0.93510689  1
  Mn3.34+  Mn189  1  0.07844595  0.49364493  0.73527904  1
  Mn3.34+  Mn190  1  0.91550820  0.00109220  0.58010446  1
  Mn3.34+  Mn191  1  0.75712122  0.49671644  0.41504369  1
  Mn3.34+  Mn192  1  0.75223881  0.00318493  0.75734715  1
  Mn3.34+  Mn193  1  0.75818928  0.49955679  0.08792631  1
  Mn3.34+  Mn194  1  0.42103365  0.49483425  0.75459357  1
  Mn3.34+  Mn195  1  0.57625651  0.49797748  0.25406687  1
  Mn3.34+  Mn196  1  0.40740896  0.50130145  0.75372130  1
  Mn3.34+  Mn197  1  0.57975276  0.00002103  0.92101011  1
  Mn3.34+  Mn198  1  0.24983770  0.50683144  0.25074948  1
  Mn3.34+  Mn199  1  0.76067341  0.49950882  0.75065462  1
  Mn3.34+  Mn200  1  0.57403033  0.49426738  0.58166279  1
  Mn3.34+  Mn201  1  0.91343348  0.49816297  0.91525272  1
  Mn3.34+  Mn202  1  0.73696097  -0.00055265  0.08957387  1
  Mn3.34+  Mn203  1  0.75605469  0.00184027  0.40951674  1
  Mn3.34+  Mn204  1  0.40963388  0.49567397  0.41600637  1
  Mn3.34+  Mn205  1  0.92552893  -0.00493907  0.57643703  1
  Mn3.34+  Mn206  1  0.09889771  0.00806829  0.75771783  1
  Mn3.34+  Mn207  1  0.26124248  0.49998801  0.25165436  1
  Mn3.34+  Mn208  1  0.57614986  -0.00094403  0.26813529  1
  Mn3.34+  Mn209  1  0.08664878  0.00115123  0.75912363  1
  Mn3.34+  Mn210  1  0.76724644  0.50237741  0.41367954  1
  Mn3.34+  Mn211  1  0.91860243  0.49831757  0.24824705  1
  Mn3.34+  Mn212  1  0.74724199  0.50424474  0.08815657  1
  Mn3.34+  Mn213  1  0.91394872  0.00125660  0.91606174  1
  Mn3.34+  Mn214  1  0.24714884  0.00174234  0.58404615  1
  Mn3.34+  Mn215  1  0.24548304  0.49427809  0.58219936  1
  O2-  O216  1  0.00528792  0.17152183  0.00696890  1
  O2-  O217  1  -0.00098224  0.15626059  0.32603561  1
  O2-  O218  1  0.00241319  0.14249463  0.67751701  1
  O2-  O219  1  0.00899474  0.66246724  0.00416347  1
  O2-  O220  1  0.00272005  0.67074209  0.33130628  1
  O2-  O221  1  -0.00811786  0.65731097  0.67312828  1
  O2-  O222  1  0.33888564  0.16053659  0.00067070  1
  O2-  O223  1  0.32758873  0.16888091  0.33444146  1
  O2-  O224  1  0.34076642  0.14571043  0.65258929  1
  O2-  O225  1  0.33725477  0.65425348  -0.00049650  1
  O2-  O226  1  0.33403566  0.66589517  0.32535460  1
  O2-  O227  1  0.33196324  0.66935913  0.66245854  1
  O2-  O228  1  0.66489688  0.18566070  0.00279849  1
  O2-  O229  1  0.67168490  0.17833660  0.33628304  1
  O2-  O230  1  0.65968001  0.15147652  0.67779399  1
  O2-  O231  1  0.67440139  0.66101814  -0.00625899  1
  O2-  O232  1  0.66566736  0.64800149  0.33679162  1
  O2-  O233  1  0.66328644  0.64730250  0.66694642  1
  O2-  O234  1  0.18073438  0.16317827  0.01421653  1
  O2-  O235  1  0.17180556  0.14457500  0.32949625  1
  O2-  O236  1  0.16566237  0.15042970  0.66577497  1
  O2-  O237  1  0.16410599  0.65770564  -0.00077430  1
  O2-  O238  1  0.16451336  0.66204616  0.31747140  1
  O2-  O239  1  0.16172367  0.64931885  0.67151635  1
  O2-  O240  1  0.50398023  0.15116042  0.00131957  1
  O2-  O241  1  0.49892378  0.18315056  0.34512745  1
  O2-  O242  1  0.49556330  0.14668006  0.67457582  1
  O2-  O243  1  0.50213801  0.66415077  0.00418130  1
  O2-  O244  1  0.50198916  0.66185214  0.32928036  1
  O2-  O245  1  0.49809893  0.65681568  0.66174218  1
  O2-  O246  1  0.83843341  0.19045828  0.01091039  1
  O2-  O247  1  0.83193026  0.15903986  0.32732722  1
  O2-  O248  1  0.82476827  0.15012049  0.66951442  1
  O2-  O249  1  0.83115835  0.65840887  -0.00265160  1
  O2-  O250  1  0.83240555  0.66718121  0.34101726  1
  O2-  O251  1  0.83286295  0.65831043  0.66603601  1
  O2-  O252  1  -0.00363136  0.33651246  0.00123463  1
  O2-  O253  1  0.00128102  0.34399996  0.32666780  1
  O2-  O254  1  0.00297730  0.34705578  0.66268072  1
  O2-  O255  1  0.00337275  0.84617735  -0.00002115  1
  O2-  O256  1  0.00591265  0.84708473  0.32916646  1
  O2-  O257  1  -0.00489203  0.84343566  0.67069412  1
  O2-  O258  1  0.33232656  0.32886141  -0.00254990  1
  O2-  O259  1  0.32903434  0.30190034  0.33665722  1
  O2-  O260  1  0.32968223  0.34332100  0.67095343  1
  O2-  O261  1  0.33123575  0.84587878  0.00157514  1
  O2-  O262  1  0.33725570  0.84659136  0.33252983  1
  O2-  O263  1  0.34010483  0.85142233  0.65882111  1
  O2-  O264  1  0.66276582  0.33127859  0.00650941  1
  O2-  O265  1  0.66579606  0.32586397  0.33504861  1
  O2-  O266  1  0.66758609  0.34907703  0.66568451  1
  O2-  O267  1  0.66882522  0.84679496  -0.00236513  1
  O2-  O268  1  0.66174624  0.85334855  0.33848810  1
  O2-  O269  1  0.66145589  0.84918416  0.66749219  1
  O2-  O270  1  0.16176999  0.33254821  -0.00537251  1
  O2-  O271  1  0.16462238  0.33700350  0.32855119  1
  O2-  O272  1  0.16642143  0.34798113  0.66533193  1
  O2-  O273  1  0.16565202  0.83728742  0.00046429  1
  O2-  O274  1  0.16969483  0.84934352  0.33252864  1
  O2-  O275  1  0.17979897  0.84746858  0.67420925  1
  O2-  O276  1  0.50404600  0.33668470  -0.00136154  1
  O2-  O277  1  0.50063651  0.32017327  0.33644652  1
  O2-  O278  1  0.49885470  0.34485345  0.66587320  1
  O2-  O279  1  0.49348706  0.84477277  -0.00741067  1
  O2-  O280  1  0.49824122  0.83697707  0.33835483  1
  O2-  O281  1  0.49870322  0.84911019  0.66524702  1
  O2-  O282  1  0.83189319  0.32406135  -0.00274822  1
  O2-  O283  1  0.82676930  0.32917371  0.32717155  1
  O2-  O284  1  0.83201268  0.33816825  0.66684017  1
  O2-  O285  1  0.83020169  0.85217302  0.00047301  1
  O2-  O286  1  0.83223212  0.84625766  0.32964089  1
  O2-  O287  1  0.82950166  0.83779948  0.66891970  1
  O2-  O288  1  0.00398605  0.17627133  0.16821538  1
  O2-  O289  1  0.00335372  0.17829158  0.49854828  1
  O2-  O290  1  -0.00336174  0.18396776  0.82665523  1
  O2-  O291  1  0.01104973  0.68625866  0.16587655  1
  O2-  O292  1  0.00372996  0.68040574  0.50944876  1
  O2-  O293  1  0.00198937  0.67675121  0.83592581  1
  O2-  O294  1  0.32632154  0.18749107  0.16771868  1
  O2-  O295  1  0.32861723  0.18369910  0.49386277  1
  O2-  O296  1  0.32953926  0.18422593  0.84156819  1
  O2-  O297  1  0.33950927  0.68064636  0.16872204  1
  O2-  O298  1  0.34186393  0.69093146  0.49528199  1
  O2-  O299  1  0.32628264  0.67485659  0.83151829  1
  O2-  O300  1  0.67124725  0.18698081  0.16435794  1
  O2-  O301  1  0.67303747  0.17874888  0.49499350  1
  O2-  O302  1  0.66846447  0.18898492  0.83330004  1
  O2-  O303  1  0.66714231  0.68346133  0.16300634  1
  O2-  O304  1  0.66270857  0.67663263  0.49710824  1
  O2-  O305  1  0.66143395  0.68322249  0.83035541  1
  O2-  O306  1  0.16202582  0.18772779  0.17905536  1
  O2-  O307  1  0.16916698  0.17513683  0.50407245  1
  O2-  O308  1  0.16652097  0.19438239  0.84273353  1
  O2-  O309  1  0.17374718  0.68705901  0.15704692  1
  O2-  O310  1  0.16010919  0.67401760  0.50761241  1
  O2-  O311  1  0.16204494  0.67730851  0.83970875  1
  O2-  O312  1  0.50567916  0.17968214  0.16857137  1
  O2-  O313  1  0.48846547  0.17178769  0.49998318  1
  O2-  O314  1  0.49751447  0.19027661  0.83724482  1
  O2-  O315  1  0.49807651  0.68630200  0.16717812  1
  O2-  O316  1  0.50430477  0.68033332  0.49141220  1
  O2-  O317  1  0.50109344  0.67765716  0.84530760  1
  O2-  O318  1  0.83453607  0.17821762  0.16817923  1
  O2-  O319  1  0.83237216  0.18215025  0.48676632  1
  O2-  O320  1  0.83622351  0.18665406  0.81877985  1
  O2-  O321  1  0.82431593  0.68131218  0.16733021  1
  O2-  O322  1  0.82843300  0.68110326  0.50494709  1
  O2-  O323  1  0.83237717  0.69034287  0.82922135  1
  O2-  O324  1  0.00113842  0.32768306  0.17059526  1
  O2-  O325  1  0.00046071  0.32765235  0.49905922  1
  O2-  O326  1  0.00288361  0.31455083  0.83760325  1
  O2-  O327  1  -0.00386003  0.81832170  0.15821270  1
  O2-  O328  1  -0.00413729  0.82471366  0.49133622  1
  O2-  O329  1  -0.00463289  0.82882374  0.82780418  1
  O2-  O330  1  0.33134817  0.30866755  0.17202023  1
  O2-  O331  1  0.33519995  0.31527357  0.50349310  1
  O2-  O332  1  0.33086981  0.31547706  0.83512538  1
  O2-  O333  1  0.33556349  0.82632126  0.16839668  1
  O2-  O334  1  0.33367144  0.82114894  0.49711912  1
  O2-  O335  1  0.33061167  0.82489617  0.83131677  1
  O2-  O336  1  0.67086085  0.31295518  0.17102385  1
  O2-  O337  1  0.66707255  0.31628770  0.49837526  1
  O2-  O338  1  0.66825717  0.31630785  0.83422901  1
  O2-  O339  1  0.67428134  0.82191293  0.17809595  1
  O2-  O340  1  0.66566839  0.82889295  0.50302560  1
  O2-  O341  1  0.67131105  0.82056850  0.83842991  1
  O2-  O342  1  0.16380522  0.32326085  0.17638878  1
  O2-  O343  1  0.16151680  0.32449618  0.50420727  1
  O2-  O344  1  0.16754019  0.32058518  0.82924616  1
  O2-  O345  1  0.16557904  0.82081038  0.16908999  1
  O2-  O346  1  0.17457447  0.83070303  0.49173764  1
  O2-  O347  1  0.16162025  0.82659452  0.83912953  1
  O2-  O348  1  0.50615048  0.32253087  0.16371497  1
  O2-  O349  1  0.49785803  0.31862315  0.49842282  1
  O2-  O350  1  0.50255159  0.31461068  0.83238169  1
  O2-  O351  1  0.49896813  0.82043902  0.17016464  1
  O2-  O352  1  0.49925647  0.81351994  0.50243677  1
  O2-  O353  1  0.50123602  0.82899689  0.83131953  1
  O2-  O354  1  0.83506434  0.31695988  0.16496496  1
  O2-  O355  1  0.83095851  0.31526124  0.50213260  1
  O2-  O356  1  0.83204656  0.31471620  0.83433329  1
  O2-  O357  1  0.83991567  0.82465221  0.16132467  1
  O2-  O358  1  0.83172707  0.82642242  0.49885905  1
  O2-  O359  1  0.83059651  0.81931572  0.82865478  1
  O2-  O360  1  0.08757980  0.08698883  0.10609294  1
  O2-  O361  1  0.09168083  0.07387077  0.43981766  1
  O2-  O362  1  0.08307144  0.08494944  0.79734145  1
  O2-  O363  1  0.08316393  0.57304636  0.10242100  1
  O2-  O364  1  0.07439076  0.56645784  0.42030332  1
  O2-  O365  1  0.07376353  0.57170395  0.79009570  1
  O2-  O366  1  0.40551914  0.08380079  0.11050901  1
  O2-  O367  1  0.39833409  0.08342846  0.44067037  1
  O2-  O368  1  0.42450397  0.07906422  0.78942264  1
  O2-  O369  1  0.42092159  0.58465836  0.10705778  1
  O2-  O370  1  0.43429983  0.57040472  0.45877395  1
  O2-  O371  1  0.41608057  0.57788564  0.79327043  1
  O2-  O372  1  0.74125244  0.08750584  0.10551456  1
  O2-  O373  1  0.74591852  0.08218635  0.43590484  1
  O2-  O374  1  0.75200532  0.08529034  0.78124017  1
  O2-  O375  1  0.74962106  0.58551913  0.11214145  1
  O2-  O376  1  0.74995457  0.58200611  0.44912845  1
  O2-  O377  1  0.75384418  0.58062435  0.78907120  1
  O2-  O378  1  0.22537372  0.07525377  0.20240448  1
  O2-  O379  1  0.23949861  0.08176957  0.54621193  1
  O2-  O380  1  0.25374282  0.08189661  0.91505274  1
  O2-  O381  1  0.25601807  0.58284775  0.22119270  1
  O2-  O382  1  0.23019516  0.57198608  0.55727519  1
  O2-  O383  1  0.23965792  0.57670941  0.88387417  1
  O2-  O384  1  0.60482116  0.06851201  0.22737646  1
  O2-  O385  1  0.57837962  0.07567031  0.55825806  1
  O2-  O386  1  0.58195390  0.07676616  0.86888323  1
  O2-  O387  1  0.57263672  0.58354975  0.23096265  1
  O2-  O388  1  0.58336287  0.57997101  0.54399871  1
  O2-  O389  1  0.58660392  0.58119441  0.89593369  1
  O2-  O390  1  0.93535086  0.08313082  0.21423413  1
  O2-  O391  1  0.93184062  0.08066319  0.55055842  1
  O2-  O392  1  0.91302052  0.08188643  0.89832103  1
  O2-  O393  1  0.92434642  0.57120152  0.21575473  1
  O2-  O394  1  0.92650309  0.58747502  0.56421296  1
  O2-  O395  1  0.91571530  0.57870417  0.88040242  1
  O2-  O396  1  0.07522561  0.41882869  0.11529705  1
  O2-  O397  1  0.08680785  0.41791526  0.42390211  1
  O2-  O398  1  0.09193762  0.42224587  0.78946051  1
  O2-  O399  1  0.06697608  0.91864841  0.11607431  1
  O2-  O400  1  0.08897706  0.92050756  0.43415494  1
  O2-  O401  1  0.07312637  0.92133563  0.78254458  1
  O2-  O402  1  0.42370299  0.41345524  0.09327120  1
  O2-  O403  1  0.42848137  0.41660049  0.44031013  1
  O2-  O404  1  0.41703634  0.41644859  0.78805543  1
  O2-  O405  1  0.41153654  0.91851978  0.10741241  1
  O2-  O406  1  0.41451677  0.91918588  0.45532738  1
  O2-  O407  1  0.41329650  0.92240939  0.76795049  1
  O2-  O408  1  0.74854735  0.41604382  0.10739158  1
  O2-  O409  1  0.74024896  0.41640086  0.44186484  1
  O2-  O410  1  0.74487487  0.41485359  0.78449474  1
  O2-  O411  1  0.75901735  0.91868156  0.12139112  1
  O2-  O412  1  0.75202622  0.92388243  0.44784227  1
  O2-  O413  1  0.76894298  0.92014092  0.78045768  1
  O2-  O414  1  0.24668420  0.42175276  0.22922555  1
  O2-  O415  1  0.26441450  0.41489983  0.56241557  1
  O2-  O416  1  0.25681323  0.42309003  0.88735550  1
  O2-  O417  1  0.25211058  0.91902044  0.23064834  1
  O2-  O418  1  0.26399348  0.92208875  0.55108014  1
  O2-  O419  1  0.24667746  0.91886587  0.89434797  1
  O2-  O420  1  0.60248892  0.41833061  0.21529828  1
  O2-  O421  1  0.58091214  0.41430648  0.55118746  1
  O2-  O422  1  0.58538859  0.41911925  0.88982237  1
  O2-  O423  1  0.58110329  0.92601957  0.22424710  1
  O2-  O424  1  0.56919159  0.91760155  0.55752896  1
  O2-  O425  1  0.60255066  0.92194516  0.88014919  1
  O2-  O426  1  0.90594523  0.41887751  0.21627997  1
  O2-  O427  1  0.91000308  0.41505416  0.56036696  1
  O2-  O428  1  0.90143112  0.41785935  0.89926895  1
  O2-  O429  1  0.92190037  0.91771861  0.22312541  1
  O2-  O430  1  0.90618737  0.91408065  0.56885827  1
  O2-  O431  1  0.89878730  0.91942975  0.88167592  1
  O2-  O432  1  -0.00404331  -0.01370559  0.00204613  1
  O2-  O433  1  0.00518248  0.00685997  0.32930541  1
  O2-  O434  1  -0.00062031  -0.00042627  0.67548984  1
  O2-  O435  1  -0.00490205  0.49022307  -0.01741652  1
  O2-  O436  1  0.00695558  0.48782353  0.30424677  1
  O2-  O437  1  0.01492693  0.51303803  0.65206337  1
  O2-  O438  1  0.33214632  0.00271456  0.01464031  1
  O2-  O439  1  0.30414222  -0.00220088  0.37987924  1
  O2-  O440  1  0.35545361  0.00818791  0.61668558  1
  O2-  O441  1  0.36685672  0.50500971  -0.04091791  1
  O2-  O442  1  0.34939336  0.51002180  0.31310403  1
  O2-  O443  1  0.34064298  0.50742365  0.65655392  1
  O2-  O444  1  0.67373391  -0.00616477  -0.01010446  1
  O2-  O445  1  0.66293852  -0.00641109  0.34105371  1
  O2-  O446  1  0.66247856  -0.00765269  0.68379912  1
  O2-  O447  1  0.66959835  0.49304247  -0.00027953  1
  O2-  O448  1  0.66109755  0.50844090  0.34893129  1
  O2-  O449  1  0.66381419  0.50146642  0.66916028  1
  O2-  O450  1  0.17830069  -0.00523616  0.02641131  1
  O2-  O451  1  0.16036600  0.00823257  0.33074791  1
  O2-  O452  1  0.17454810  -0.00354256  0.67404230  1
  O2-  O453  1  0.14072583  0.49474205  -0.02899490  1
  O2-  O454  1  0.15332355  0.50011184  0.29772924  1
  O2-  O455  1  0.17851412  0.49467014  0.67992501  1
  O2-  O456  1  0.48436755  -0.00152872  -0.03176053  1
  O2-  O457  1  0.49531441  -0.00891977  0.33418678  1
  O2-  O458  1  0.49826364  0.00707579  0.65945073  1
  O2-  O459  1  0.51166053  0.48416557  0.00147716  1
  O2-  O460  1  0.50858266  0.50550231  0.35411476  1
  O2-  O461  1  0.50673921  0.50819783  0.67543689  1
  O2-  O462  1  0.83578444  -0.01378211  0.01158078  1
  O2-  O463  1  0.83906930  -0.00560986  0.34458101  1
  O2-  O464  1  0.83611024  0.00007445  0.66902957  1
  O2-  O465  1  0.82638113  0.50556442  -0.00849839  1
  O2-  O466  1  0.82370462  0.49940128  0.31129137  1
  O2-  O467  1  0.82785173  0.50946864  0.65961785  1
  O2-  O468  1  0.58393988  0.75331375  0.93836658  1
  O2-  O469  1  0.08028891  0.74764228  0.73815511  1
  O2-  O470  1  0.42887109  0.24874410  0.06192660  1
  O2-  O471  1  0.92555219  0.24890622  0.26567431  1
  O2-  O472  1  0.08436427  0.25356011  0.07146235  1
  O2-  O473  1  0.25133652  0.75153677  0.93744630  1
  O2-  O474  1  0.08699288  0.75436282  0.40533469  1
  O2-  O475  1  0.08316704  0.25571499  0.40272071  1
  O2-  O476  1  0.08498419  0.25222316  0.71501726  1
  O2-  O477  1  0.59403840  0.75209973  0.27466484  1
  O2-  O478  1  0.41508837  0.75254406  0.06219605  1
  O2-  O479  1  0.57785985  0.25025383  0.59927793  1
  O2-  O480  1  0.92373384  0.25384547  0.60048542  1
  O2-  O481  1  0.24415279  0.75657623  0.59911070  1
  O2-  O482  1  0.24544595  0.24871194  0.60596228  1
  O2-  O483  1  0.41674403  0.75854998  0.73348004  1
  O2-  O484  1  0.74147428  0.24978269  0.71750895  1
  O2-  O485  1  0.59710679  0.75300420  0.61207840  1
  O2-  O486  1  0.75155626  0.75278164  0.06215169  1
  O2-  O487  1  0.40642441  0.24271743  0.71982785  1
  O2-  O488  1  0.91739345  0.75412810  0.26864400  1
  O2-  O489  1  0.73678045  0.75247199  0.40102579  1
  O2-  O490  1  0.91308528  0.75075386  0.60555288  1
  O2-  O491  1  0.92499182  0.74948857  0.93936179  1
  O2-  O492  1  0.25411871  0.75353523  0.26595679  1
