# generated using pymatgen
data_Ca108Mn108O277
_symmetry_space_group_name_H-M   'P 1'
_cell_length_a   16.02730074
_cell_length_b   22.30890696
_cell_length_c   16.39053214
_cell_angle_alpha   89.99534954
_cell_angle_beta   89.99615206
_cell_angle_gamma   90.00448718
_symmetry_Int_Tables_number   1
_chemical_formula_structural   Ca108Mn108O277
_chemical_formula_sum   'Ca108 Mn108 O277'
_cell_volume   5860.46030158
_cell_formula_units_Z   1
loop_
 _symmetry_equiv_pos_site_id
 _symmetry_equiv_pos_as_xyz
  1  'x, y, z'
loop_
 _atom_type_symbol
 _atom_type_oxidation_number
  Ca2+  2.0
  Mn3.34+  3.34
  O2-  -2.0
loop_
 _atom_site_type_symbol
 _atom_site_label
 _atom_site_symmetry_multiplicity
 _atom_site_fract_x
 _atom_site_fract_y
 _atom_site_fract_z
 _atom_site_occupancy
  Ca2+  Ca0  1  0.06625767  0.24329803  0.25205819  1
  Ca2+  Ca1  1  0.08468147  0.24305703  0.58649268  1
  Ca2+  Ca2  1  0.05697760  0.25251596  0.92386188  1
  Ca2+  Ca3  1  0.07958218  0.75759120  0.25291911  1
  Ca2+  Ca4  1  0.07975727  0.75963564  0.60449904  1
  Ca2+  Ca5  1  0.07241353  0.75572057  0.90257295  1
  Ca2+  Ca6  1  0.42042575  0.24817293  0.24022851  1
  Ca2+  Ca7  1  0.41863974  0.26098284  0.57738133  1
  Ca2+  Ca8  1  0.42978463  0.25371935  0.93174114  1
  Ca2+  Ca9  1  0.43209885  0.75180886  0.24168634  1
  Ca2+  Ca10  1  0.41567539  0.76062498  0.57047137  1
  Ca2+  Ca11  1  0.44194763  0.73642282  0.92569844  1
  Ca2+  Ca12  1  0.76269338  0.24461803  0.25325806  1
  Ca2+  Ca13  1  0.75472918  0.24411199  0.57884123  1
  Ca2+  Ca14  1  0.76370743  0.23429490  0.91605274  1
  Ca2+  Ca15  1  0.74331435  0.75726324  0.23755412  1
  Ca2+  Ca16  1  0.75174653  0.76529716  0.58146329  1
  Ca2+  Ca17  1  0.73825853  0.73650226  0.92603486  1
  Ca2+  Ca18  1  0.25863807  0.24935078  0.09062483  1
  Ca2+  Ca19  1  0.24650420  0.24698563  0.41328206  1
  Ca2+  Ca20  1  0.24697696  0.27114378  0.75620477  1
  Ca2+  Ca21  1  0.25986618  0.74882074  0.08562661  1
  Ca2+  Ca22  1  0.24661101  0.75913853  0.41454444  1
  Ca2+  Ca23  1  0.22181810  0.74459368  0.75529660  1
  Ca2+  Ca24  1  0.57570613  0.23795363  0.08657644  1
  Ca2+  Ca25  1  0.60474501  0.25572482  0.40267455  1
  Ca2+  Ca26  1  0.59931536  0.25506472  0.76603056  1
  Ca2+  Ca27  1  0.58294738  0.73641442  0.08809446  1
  Ca2+  Ca28  1  0.57664514  0.75929944  0.40534387  1
  Ca2+  Ca29  1  0.58912941  0.75465118  0.76394351  1
  Ca2+  Ca30  1  0.91294277  0.24224105  0.08891133  1
  Ca2+  Ca31  1  0.90120066  0.24627462  0.40168766  1
  Ca2+  Ca32  1  0.90479009  0.24755534  0.76652686  1
  Ca2+  Ca33  1  0.90860188  0.75197639  0.07726991  1
  Ca2+  Ca34  1  0.92273712  0.77437356  0.41114809  1
  Ca2+  Ca35  1  0.93529969  0.75032805  0.75654266  1
  Ca2+  Ca36  1  0.72373932  0.59773970  0.23432884  1
  Ca2+  Ca37  1  0.58902295  0.60394397  0.78627277  1
  Ca2+  Ca38  1  0.75836712  0.11132760  0.24543441  1
  Ca2+  Ca39  1  0.25444181  0.58094302  0.39556302  1
  Ca2+  Ca40  1  0.55765987  0.58188279  0.40547047  1
  Ca2+  Ca41  1  0.22725019  0.08864210  0.73353765  1
  Ca2+  Ca42  1  0.61087124  0.09196698  0.76716688  1
  Ca2+  Ca43  1  0.42579682  0.59736892  0.24364893  1
  Ca2+  Ca44  1  0.93225076  0.59308165  0.77198244  1
  Ca2+  Ca45  1  0.90209628  0.11026541  0.40901498  1
  Ca2+  Ca46  1  0.07868874  0.57964719  0.24850070  1
  Ca2+  Ca47  1  0.41227108  0.58666964  0.58246884  1
  Ca2+  Ca48  1  0.25682207  0.59822245  0.07957602  1
  Ca2+  Ca49  1  0.61625106  0.11256092  0.39142661  1
  Ca2+  Ca50  1  0.90891669  0.10329557  0.07864065  1
  Ca2+  Ca51  1  0.23865676  0.08625631  0.36999288  1
  Ca2+  Ca52  1  0.41778864  0.59199255  0.24078861  1
  Ca2+  Ca53  1  0.73607477  0.59765016  0.23674190  1
  Ca2+  Ca54  1  0.91526756  0.58463338  0.05350858  1
  Ca2+  Ca55  1  0.25154119  0.10338431  0.11888565  1
  Ca2+  Ca56  1  0.23991200  0.08984725  0.73324836  1
  Ca2+  Ca57  1  0.39966577  0.08817304  0.57159700  1
  Ca2+  Ca58  1  0.60133907  0.60232444  0.78707229  1
  Ca2+  Ca59  1  0.93721975  0.58055927  0.39881108  1
  Ca2+  Ca60  1  0.08839027  0.58326890  0.24997236  1
  Ca2+  Ca61  1  0.38957491  0.08916202  0.24829350  1
  Ca2+  Ca62  1  0.41209486  0.08570559  0.57232916  1
  Ca2+  Ca63  1  0.05669844  0.08619189  0.58475352  1
  Ca2+  Ca64  1  0.75225642  0.57030362  0.63041268  1
  Ca2+  Ca65  1  0.24313836  0.58100007  0.39668499  1
  Ca2+  Ca66  1  0.57681749  0.59360347  0.05831303  1
  Ca2+  Ca67  1  0.07114877  0.10493953  0.25526166  1
  Ca2+  Ca68  1  0.08417381  0.61218417  0.90542441  1
  Ca2+  Ca69  1  0.56766145  0.58607853  0.40496374  1
  Ca2+  Ca70  1  0.92715739  0.57934847  0.39623896  1
  Ca2+  Ca71  1  0.42501429  0.58598263  0.58303278  1
  Ca2+  Ca72  1  0.59387503  0.91270488  0.08221752  1
  Ca2+  Ca73  1  0.06229478  0.91512793  0.59115793  1
  Ca2+  Ca74  1  0.76455539  0.90948212  0.24571733  1
  Ca2+  Ca75  1  0.59793756  0.90655674  0.74800794  1
  Ca2+  Ca76  1  0.22600639  0.90422235  0.74759326  1
  Ca2+  Ca77  1  0.75472040  0.40231081  0.59550650  1
  Ca2+  Ca78  1  0.26723927  0.92423176  0.39590950  1
  Ca2+  Ca79  1  0.75613081  0.92030446  0.91978772  1
  Ca2+  Ca80  1  0.91398281  0.40362866  0.07708011  1
  Ca2+  Ca81  1  0.07648784  0.39920521  0.59244793  1
  Ca2+  Ca82  1  0.57373603  0.39925803  0.08249692  1
  Ca2+  Ca83  1  0.58532179  0.90636410  0.74708714  1
  Ca2+  Ca84  1  0.26077155  0.41821970  0.38693025  1
  Ca2+  Ca85  1  0.92530753  0.40396207  0.07747554  1
  Ca2+  Ca86  1  0.27164095  0.41883955  0.38652880  1
  Ca2+  Ca87  1  0.08215771  0.91450973  0.25600318  1
  Ca2+  Ca88  1  0.07582761  0.40172747  0.25308030  1
  Ca2+  Ca89  1  0.06525309  0.39868504  0.58986193  1
  Ca2+  Ca90  1  0.90698890  0.40847284  0.76312622  1
  Ca2+  Ca91  1  0.75457702  0.39290373  0.24568174  1
  Ca2+  Ca92  1  0.75591264  0.40375293  0.90531114  1
  Ca2+  Ca93  1  0.25162541  0.91285615  0.09487856  1
  Ca2+  Ca94  1  0.77908725  0.91012463  0.58967362  1
  Ca2+  Ca95  1  0.41768896  0.90982383  0.93049225  1
  Ca2+  Ca96  1  0.42094712  0.90528430  0.57685534  1
  Ca2+  Ca97  1  0.42781422  0.40240292  0.57160273  1
  Ca2+  Ca98  1  0.26424872  0.91523448  0.09427817  1
  Ca2+  Ca99  1  0.58481646  0.91025737  0.07815358  1
  Ca2+  Ca100  1  0.94939212  0.93551773  0.73567434  1
  Ca2+  Ca101  1  0.60199117  0.40874686  0.74833709  1
  Ca2+  Ca102  1  0.91643337  0.91007375  0.08212146  1
  Ca2+  Ca103  1  0.56981744  0.91276665  0.41652592  1
  Ca2+  Ca104  1  0.41522129  0.39674736  0.91940165  1
  Ca2+  Ca105  1  0.40421583  0.92682951  0.26041141  1
  Ca2+  Ca106  1  0.76129411  0.91814418  0.92831793  1
  Ca2+  Ca107  1  0.25670848  0.92479171  0.39666531  1
  Mn3.34+  Mn108  1  0.08915817  0.32622542  0.08566844  1
  Mn3.34+  Mn109  1  0.08320498  0.32851307  0.41853161  1
  Mn3.34+  Mn110  1  0.08143855  0.33216226  0.75965997  1
  Mn3.34+  Mn111  1  0.08417346  0.83352800  0.08238559  1
  Mn3.34+  Mn112  1  0.08341071  0.83888591  0.42149372  1
  Mn3.34+  Mn113  1  0.08013942  0.83790467  0.75382746  1
  Mn3.34+  Mn114  1  0.41204844  0.33092259  0.08880212  1
  Mn3.34+  Mn115  1  0.42543729  0.33734823  0.41000642  1
  Mn3.34+  Mn116  1  0.41899651  0.33336534  0.74995586  1
  Mn3.34+  Mn117  1  0.41743333  0.83534786  0.08971489  1
  Mn3.34+  Mn118  1  0.41491924  0.83674538  0.41372833  1
  Mn3.34+  Mn119  1  0.41124896  0.82782077  0.75431888  1
  Mn3.34+  Mn120  1  0.74409270  0.32369055  0.08319494  1
  Mn3.34+  Mn121  1  0.75181114  0.32970239  0.41814558  1
  Mn3.34+  Mn122  1  0.75193267  0.33284900  0.75098997  1
  Mn3.34+  Mn123  1  0.75132197  0.83748817  0.08620968  1
  Mn3.34+  Mn124  1  0.75069315  0.83860910  0.41432090  1
  Mn3.34+  Mn125  1  0.75986841  0.83595966  0.75469965  1
  Mn3.34+  Mn126  1  0.24849733  0.33709235  0.24201357  1
  Mn3.34+  Mn127  1  0.25016723  0.32809609  0.57861533  1
  Mn3.34+  Mn128  1  0.24553366  0.33331365  0.92312958  1
  Mn3.34+  Mn129  1  0.24807465  0.83047020  0.24864899  1
  Mn3.34+  Mn130  1  0.24889493  0.83487795  0.58092436  1
  Mn3.34+  Mn131  1  0.24971160  0.83143091  0.91461213  1
  Mn3.34+  Mn132  1  0.58342176  0.33595573  0.24765996  1
  Mn3.34+  Mn133  1  0.58636221  0.33263029  0.58174035  1
  Mn3.34+  Mn134  1  0.58527369  0.33249197  0.91637099  1
  Mn3.34+  Mn135  1  0.58366261  0.83474275  0.25119024  1
  Mn3.34+  Mn136  1  0.58562693  0.83780449  0.57813386  1
  Mn3.34+  Mn137  1  0.58212998  0.83310231  0.91643058  1
  Mn3.34+  Mn138  1  0.91721584  0.33228277  0.25086763  1
  Mn3.34+  Mn139  1  0.91300774  0.32611109  0.57933260  1
  Mn3.34+  Mn140  1  0.91465237  0.33398676  0.91603086  1
  Mn3.34+  Mn141  1  0.91946227  0.83410209  0.24946552  1
  Mn3.34+  Mn142  1  0.91954379  0.83593369  0.58194248  1
  Mn3.34+  Mn143  1  0.91986048  0.83668454  0.91576541  1
  Mn3.34+  Mn144  1  0.74990978  0.66862431  0.41486690  1
  Mn3.34+  Mn145  1  0.24564352  0.66865138  0.24416692  1
  Mn3.34+  Mn146  1  0.42794126  0.16456196  0.75763559  1
  Mn3.34+  Mn147  1  0.42167746  0.17023514  0.41153425  1
  Mn3.34+  Mn148  1  0.06572502  0.16066248  0.75724492  1
  Mn3.34+  Mn149  1  0.08495692  0.67443016  0.08275451  1
  Mn3.34+  Mn150  1  0.92151131  0.66777976  0.23724837  1
  Mn3.34+  Mn151  1  0.58224013  0.67062361  0.58828376  1
  Mn3.34+  Mn152  1  0.74900838  0.67085833  0.07971702  1
  Mn3.34+  Mn153  1  0.23617222  0.66243862  0.58669714  1
  Mn3.34+  Mn154  1  0.41608765  0.17184721  0.75455776  1
  Mn3.34+  Mn155  1  0.24733351  0.66631033  0.58830661  1
  Mn3.34+  Mn156  1  0.58780090  0.16434432  0.92586514  1
  Mn3.34+  Mn157  1  0.91550889  0.66860852  0.91755499  1
  Mn3.34+  Mn158  1  0.58562155  0.16543949  0.58410151  1
  Mn3.34+  Mn159  1  0.90768787  0.15664489  0.57889052  1
  Mn3.34+  Mn160  1  0.08230030  0.67070037  0.41702043  1
  Mn3.34+  Mn161  1  0.41213304  0.66979381  0.41582157  1
  Mn3.34+  Mn162  1  0.08460586  0.16668410  0.42545164  1
  Mn3.34+  Mn163  1  0.59235389  0.66494605  0.58674407  1
  Mn3.34+  Mn164  1  0.41010668  0.66992602  0.75853601  1
  Mn3.34+  Mn165  1  0.40915987  0.16578464  0.41528520  1
  Mn3.34+  Mn166  1  0.75845799  0.66494683  0.75991490  1
  Mn3.34+  Mn167  1  0.25406239  0.67125483  0.91491568  1
  Mn3.34+  Mn168  1  0.59536216  0.15963133  0.58200829  1
  Mn3.34+  Mn169  1  0.24086285  0.15981827  0.92172870  1
  Mn3.34+  Mn170  1  0.91249417  0.65987768  0.58317168  1
  Mn3.34+  Mn171  1  0.41807947  0.66762458  0.08062962  1
  Mn3.34+  Mn172  1  0.07479358  0.16639777  0.75491351  1
  Mn3.34+  Mn173  1  0.92665338  0.66537671  0.58374124  1
  Mn3.34+  Mn174  1  0.25460583  0.16532016  0.92200492  1
  Mn3.34+  Mn175  1  0.76028743  0.16519318  0.75415573  1
  Mn3.34+  Mn176  1  0.74425356  0.15521458  0.08449585  1
  Mn3.34+  Mn177  1  0.75980504  0.66303752  0.41772986  1
  Mn3.34+  Mn178  1  0.08115862  0.16339999  0.09091120  1
  Mn3.34+  Mn179  1  0.42322786  0.15866758  0.09212887  1
  Mn3.34+  Mn180  1  0.41332040  -0.00247863  0.75790690  1
  Mn3.34+  Mn181  1  0.74821362  0.49070120  0.41318940  1
  Mn3.34+  Mn182  1  0.25540816  0.00358985  0.92431057  1
  Mn3.34+  Mn183  1  0.57471566  0.00532678  0.93799641  1
  Mn3.34+  Mn184  1  0.09095873  0.49897840  0.08091724  1
  Mn3.34+  Mn185  1  0.74909850  0.49904352  0.07759780  1
  Mn3.34+  Mn186  1  0.24653470  0.49762929  0.90381632  1
  Mn3.34+  Mn187  1  0.07376347  0.00193438  0.41531511  1
  Mn3.34+  Mn188  1  0.40782365  0.50423325  0.75921872  1
  Mn3.34+  Mn189  1  0.10025909  0.49290631  0.07830788  1
  Mn3.34+  Mn190  1  0.08176601  0.00218941  0.08844158  1
  Mn3.34+  Mn191  1  0.57165777  0.48972467  0.25280137  1
  Mn3.34+  Mn192  1  0.91600150  0.49693296  0.58483451  1
  Mn3.34+  Mn193  1  0.75842358  0.49663593  0.41568139  1
  Mn3.34+  Mn194  1  0.59332574  0.00586252  0.24772730  1
  Mn3.34+  Mn195  1  0.40838134  0.49250721  0.08092044  1
  Mn3.34+  Mn196  1  0.24254984  -0.00316593  0.92359836  1
  Mn3.34+  Mn197  1  0.07865265  0.49576280  0.75024396  1
  Mn3.34+  Mn198  1  0.91976717  0.00142585  0.25177360  1
  Mn3.34+  Mn199  1  0.91966843  0.00257579  0.93592356  1
  Mn3.34+  Mn200  1  0.07862937  0.49621086  0.41856600  1
  Mn3.34+  Mn201  1  0.56812828  0.49593714  0.92664308  1
  Mn3.34+  Mn202  1  0.57993206  0.01278075  0.24816214  1
  Mn3.34+  Mn203  1  0.59084106  0.49661471  0.58573038  1
  Mn3.34+  Mn204  1  0.22390887  0.00011776  0.57892029  1
  Mn3.34+  Mn205  1  0.75568596  0.00637158  0.42500291  1
  Mn3.34+  Mn206  1  0.75948060  0.00547096  0.73943904  1
  Mn3.34+  Mn207  1  0.24847711  0.49225382  0.58661821  1
  Mn3.34+  Mn208  1  0.42777925  0.00377545  0.75741088  1
  Mn3.34+  Mn209  1  0.60159725  0.00477939  0.58785129  1
  Mn3.34+  Mn210  1  0.23585928  0.49953942  0.58523816  1
  Mn3.34+  Mn211  1  0.76533974  0.00022174  0.42414972  1
  Mn3.34+  Mn212  1  0.73840734  0.49475012  0.07924983  1
  Mn3.34+  Mn213  1  0.41734516  0.49826697  0.75340180  1
  Mn3.34+  Mn214  1  0.23196721  0.00196250  0.56984156  1
  Mn3.34+  Mn215  1  0.25868925  0.50452024  0.90333107  1
  O2-  O216  1  0.00746362  0.18352198  0.01596334  1
  O2-  O217  1  0.00037425  0.16862053  0.34851853  1
  O2-  O218  1  -0.00467243  0.16469918  0.66240384  1
  O2-  O219  1  0.00266159  0.66671121  0.00274432  1
  O2-  O220  1  0.00310333  0.64925791  0.32294444  1
  O2-  O221  1  -0.00501636  0.65303083  0.66849696  1
  O2-  O222  1  0.33035074  0.14726561  0.00247711  1
  O2-  O223  1  0.32874757  0.16689161  0.33471531  1
  O2-  O224  1  0.33738144  0.14762393  0.67009376  1
  O2-  O225  1  0.33068013  0.67001505  0.00382795  1
  O2-  O226  1  0.32989897  0.64606725  0.32894116  1
  O2-  O227  1  0.33273251  0.65139467  0.66872887  1
  O2-  O228  1  0.66905032  0.17616196  0.00265584  1
  O2-  O229  1  0.67215113  0.18481124  0.32153393  1
  O2-  O230  1  0.66982819  0.15143455  0.66913493  1
  O2-  O231  1  0.66707880  0.66380130  0.00936190  1
  O2-  O232  1  0.66354918  0.63971301  0.33859877  1
  O2-  O233  1  0.67450594  0.66692276  0.67301193  1
  O2-  O234  1  0.16705517  0.16295577  0.00728580  1
  O2-  O235  1  0.15659079  0.17517925  0.33840157  1
  O2-  O236  1  0.15654269  0.15630699  0.67039462  1
  O2-  O237  1  0.17356456  0.67122668  0.00798159  1
  O2-  O238  1  0.16321333  0.64859636  0.32691109  1
  O2-  O239  1  0.15858743  0.66640833  0.66601744  1
  O2-  O240  1  0.49916330  0.16650747  -0.00224580  1
  O2-  O241  1  0.50135068  0.16407124  0.33602061  1
  O2-  O242  1  0.50121701  0.13947057  0.65945349  1
  O2-  O243  1  0.49788357  0.66356092  0.00712929  1
  O2-  O244  1  0.49620791  0.65269735  0.33390580  1
  O2-  O245  1  0.49380459  0.64860132  0.66660062  1
  O2-  O246  1  0.82307738  0.17493467  0.01344220  1
  O2-  O247  1  0.83082548  0.16808426  0.32795530  1
  O2-  O248  1  0.83667631  0.17638471  0.66306962  1
  O2-  O249  1  0.83701116  0.66423429  0.00602610  1
  O2-  O250  1  0.83737512  0.64088364  0.32875618  1
  O2-  O251  1  0.83525109  0.65438721  0.67193743  1
  O2-  O252  1  -0.00161579  0.33670579  0.00377692  1
  O2-  O253  1  0.00790011  0.33377188  0.32915280  1
  O2-  O254  1  -0.00178625  0.32834904  0.66151880  1
  O2-  O255  1  -0.00256102  0.83891681  0.00489137  1
  O2-  O256  1  0.00551660  0.84422245  0.33096716  1
  O2-  O257  1  -0.00275119  0.84325377  0.66925386  1
  O2-  O258  1  0.33445164  0.34138064  0.00106006  1
  O2-  O259  1  0.33079810  0.33707246  0.33016400  1
  O2-  O260  1  0.33466414  0.32780047  0.66080601  1
  O2-  O261  1  0.32972508  0.84523654  0.00575864  1
  O2-  O262  1  0.33098659  0.84784135  0.33174273  1
  O2-  O263  1  0.33666823  0.84065188  0.66295636  1
  O2-  O264  1  0.66576435  0.34374534  -0.00081911  1
  O2-  O265  1  0.67033819  0.33480922  0.32886575  1
  O2-  O266  1  0.66729661  0.34142679  0.66840613  1
  O2-  O267  1  0.66980622  0.85435119  -0.00709930  1
  O2-  O268  1  0.66429911  0.85675786  0.33196858  1
  O2-  O269  1  0.67496382  0.84447597  0.66886339  1
  O2-  O270  1  0.16482517  0.30950931  0.00546118  1
  O2-  O271  1  0.17261252  0.32431109  0.34057105  1
  O2-  O272  1  0.16220528  0.33515771  0.66081848  1
  O2-  O273  1  0.17350362  0.81984287  0.00508619  1
  O2-  O274  1  0.16958430  0.85201732  0.33582041  1
  O2-  O275  1  0.16190290  0.84044397  0.66097861  1
  O2-  O276  1  0.49869255  0.33948013  -0.00324460  1
  O2-  O277  1  0.50641404  0.31712323  0.32734269  1
  O2-  O278  1  0.50147097  0.35263476  0.66667556  1
  O2-  O279  1  0.50265532  0.85004300  0.00368100  1
  O2-  O280  1  0.49664386  0.85072105  0.33021256  1
  O2-  O281  1  0.50220403  0.84271377  0.67184897  1
  O2-  O282  1  0.83174522  0.33994327  0.00383200  1
  O2-  O283  1  0.83499519  0.34306818  0.33360210  1
  O2-  O284  1  0.83601536  0.33568516  0.66844468  1
  O2-  O285  1  0.83433749  0.85529135  0.00136069  1
  O2-  O286  1  0.83208289  0.84551096  0.32932408  1
  O2-  O287  1  0.83303907  0.83015493  0.66582845  1
  O2-  O288  1  0.00445360  0.17513261  0.16607122  1
  O2-  O289  1  -0.00160461  0.18271629  0.50985750  1
  O2-  O290  1  -0.00466409  0.17894642  0.83764856  1
  O2-  O291  1  0.00354137  0.69240454  0.16381000  1
  O2-  O292  1  -0.01774681  0.67621251  0.48228256  1
  O2-  O293  1  -0.00484115  0.67840739  0.83983609  1
  O2-  O294  1  0.33686763  0.17762832  0.16574680  1
  O2-  O295  1  0.34493808  0.17714412  0.50801861  1
  O2-  O296  1  0.31870869  0.17035674  0.82438127  1
  O2-  O297  1  0.33377591  0.67436275  0.17141647  1
  O2-  O298  1  0.33872183  0.67542951  0.51402644  1
  O2-  O299  1  0.33431614  0.69702227  0.83477887  1
  O2-  O300  1  0.67858016  0.18785938  0.15529299  1
  O2-  O301  1  0.66315752  0.18020157  0.49691569  1
  O2-  O302  1  0.66778047  0.17465904  0.83144601  1
  O2-  O303  1  0.67587993  0.67560703  0.16982030  1
  O2-  O304  1  0.65825057  0.67636131  0.49052479  1
  O2-  O305  1  0.67023732  0.68444374  0.82548008  1
  O2-  O306  1  0.16187733  0.18862196  0.15798519  1
  O2-  O307  1  0.16155583  0.19203452  0.49607946  1
  O2-  O308  1  0.16521587  0.17843934  0.83399191  1
  O2-  O309  1  0.16393662  0.68834358  0.16850149  1
  O2-  O310  1  0.18333234  0.67039003  0.48333280  1
  O2-  O311  1  0.16611403  0.68946731  0.85234700  1
  O2-  O312  1  0.49583340  0.17862218  0.16755223  1
  O2-  O313  1  0.49836183  0.18050319  0.50354428  1
  O2-  O314  1  0.50934660  0.17749613  0.83254700  1
  O2-  O315  1  0.49138448  0.66637280  0.16887521  1
  O2-  O316  1  0.49646685  0.67966196  0.50340568  1
  O2-  O317  1  0.50579895  0.68552852  0.81645228  1
  O2-  O318  1  0.82592186  0.17709487  0.15685301  1
  O2-  O319  1  0.84339868  0.18436201  0.50405311  1
  O2-  O320  1  0.83369340  0.17593640  0.82922747  1
  O2-  O321  1  0.82780821  0.67562430  0.17408810  1
  O2-  O322  1  0.82718209  0.68389384  0.51191238  1
  O2-  O323  1  0.83705038  0.68710806  0.83222386  1
  O2-  O324  1  -0.00236607  0.31885473  0.16096107  1
  O2-  O325  1  0.00659604  0.31595635  0.50667634  1
  O2-  O326  1  -0.00874266  0.32443898  0.82854981  1
  O2-  O327  1  0.00154511  0.82003393  0.16494439  1
  O2-  O328  1  0.00798774  0.82121514  0.50721576  1
  O2-  O329  1  -0.00608978  0.82872869  0.83087321  1
  O2-  O330  1  0.33190610  0.31525256  0.17036365  1
  O2-  O331  1  0.33027891  0.31721289  0.49836634  1
  O2-  O332  1  0.34320939  0.31887870  0.83418736  1
  O2-  O333  1  0.33118453  0.81783325  0.16797975  1
  O2-  O334  1  0.33400788  0.82064786  0.49606370  1
  O2-  O335  1  0.33351312  0.81260786  0.83657565  1
  O2-  O336  1  0.66748586  0.30807980  0.16722912  1
  O2-  O337  1  0.66957835  0.31479904  0.50616561  1
  O2-  O338  1  0.66883979  0.33015159  0.83430986  1
  O2-  O339  1  0.66188564  0.82457142  0.16092908  1
  O2-  O340  1  0.66545503  0.82066271  0.49446839  1
  O2-  O341  1  0.66262545  0.82723727  0.82769520  1
  O2-  O342  1  0.16201974  0.31054284  0.17571006  1
  O2-  O343  1  0.16296775  0.31065944  0.50389175  1
  O2-  O344  1  0.16227998  0.32241836  0.83910376  1
  O2-  O345  1  0.16817301  0.81547741  0.16660060  1
  O2-  O346  1  0.17228479  0.82333151  0.49539810  1
  O2-  O347  1  0.16798523  0.82247277  0.83158105  1
  O2-  O348  1  0.50546435  0.31728496  0.16256357  1
  O2-  O349  1  0.49920462  0.32591332  0.50397801  1
  O2-  O350  1  0.50391395  0.32432179  0.83072320  1
  O2-  O351  1  0.50672519  0.82775675  0.16216630  1
  O2-  O352  1  0.49693367  0.82489754  0.49385980  1
  O2-  O353  1  0.50205764  0.81932231  0.83254360  1
  O2-  O354  1  0.83422929  0.32152428  0.16079995  1
  O2-  O355  1  0.83116194  0.31424661  0.50344629  1
  O2-  O356  1  0.83007364  0.32251769  0.83451215  1
  O2-  O357  1  0.83344258  0.82534807  0.16570121  1
  O2-  O358  1  0.83275707  0.82247439  0.50167114  1
  O2-  O359  1  0.82426352  0.82633538  0.84713155  1
  O2-  O360  1  0.08786743  0.08234535  0.11736518  1
  O2-  O361  1  0.08947693  0.08288345  0.44477339  1
  O2-  O362  1  0.09449915  0.08163831  0.77330574  1
  O2-  O363  1  0.10118782  0.58202002  0.11238554  1
  O2-  O364  1  0.07209585  0.58166737  0.44462114  1
  O2-  O365  1  0.06576871  0.56685192  0.79184236  1
  O2-  O366  1  0.40675915  0.08066711  0.11593784  1
  O2-  O367  1  0.41267971  0.08271967  0.43757105  1
  O2-  O368  1  0.41193540  0.08224604  0.78812206  1
  O2-  O369  1  0.39943931  0.57647802  0.10872073  1
  O2-  O370  1  0.42184976  0.58303892  0.45048734  1
  O2-  O371  1  0.43559784  0.58234438  0.78633594  1
  O2-  O372  1  0.75296313  0.08144107  0.10494812  1
  O2-  O373  1  0.75502799  0.08745594  0.42596758  1
  O2-  O374  1  0.75158259  0.08089902  0.77328945  1
  O2-  O375  1  0.75702235  0.58189275  0.10390127  1
  O2-  O376  1  0.74584773  0.57114967  0.47752951  1
  O2-  O377  1  0.73774639  0.58481852  0.77264662  1
  O2-  O378  1  0.24686004  0.07202074  0.23992203  1
  O2-  O379  1  0.25992151  0.08206920  0.55574767  1
  O2-  O380  1  0.24337021  0.07623553  0.86738286  1
  O2-  O381  1  0.23676927  0.58447138  0.22140876  1
  O2-  O382  1  0.26986568  0.57606106  0.53871981  1
  O2-  O383  1  0.24311295  0.58421488  0.88622938  1
  O2-  O384  1  0.60767960  0.09021622  0.24875701  1
  O2-  O385  1  0.56237596  0.07990257  0.53486449  1
  O2-  O386  1  0.58285949  0.07994587  0.89755361  1
  O2-  O387  1  0.60058355  0.56425193  0.19670653  1
  O2-  O388  1  0.56425933  0.57585092  0.54231201  1
  O2-  O389  1  0.57327398  0.57567032  0.91032517  1
  O2-  O390  1  0.91353201  0.07473507  0.21507818  1
  O2-  O391  1  0.91937618  0.08219298  0.54666214  1
  O2-  O392  1  0.92229456  0.07150422  0.90446959  1
  O2-  O393  1  0.94243730  0.58689749  0.20602510  1
  O2-  O394  1  0.91135291  0.57717366  0.54184240  1
  O2-  O395  1  0.92330636  0.58756302  0.90781272  1
  O2-  O396  1  0.07960217  0.41457601  0.11484888  1
  O2-  O397  1  0.10344936  0.41746690  0.45336108  1
  O2-  O398  1  0.06450012  0.41338355  0.74367066  1
  O2-  O399  1  0.10954135  0.92158027  0.11602071  1
  O2-  O400  1  0.09206743  0.92332804  0.45378683  1
  O2-  O401  1  0.08816594  0.91860431  0.75918866  1
  O2-  O402  1  0.42656022  0.41427709  0.10528975  1
  O2-  O403  1  0.39950933  0.41675321  0.43854545  1
  O2-  O404  1  0.41433378  0.41790089  0.77682257  1
  O2-  O405  1  0.40239273  0.91577734  0.12146137  1
  O2-  O406  1  0.40464627  0.91785778  0.44242685  1
  O2-  O407  1  0.42990883  0.91698754  0.77980579  1
  O2-  O408  1  0.74691149  0.41449991  0.11159264  1
  O2-  O409  1  0.75013443  0.41350900  0.45297819  1
  O2-  O410  1  0.75408541  0.41528294  0.76512897  1
  O2-  O411  1  0.73558694  0.91888604  0.11241772  1
  O2-  O412  1  0.74230661  0.92211327  0.45749102  1
  O2-  O413  1  0.73384263  0.92780425  0.78910946  1
  O2-  O414  1  0.22308348  0.41611749  0.25250293  1
  O2-  O415  1  0.24353595  0.41609752  0.54282099  1
  O2-  O416  1  0.26103033  0.41776156  0.89311865  1
  O2-  O417  1  0.24710229  0.91526992  0.22844397  1
  O2-  O418  1  0.26209703  0.91938264  0.55272083  1
  O2-  O419  1  0.26442065  0.92151924  0.87510932  1
  O2-  O420  1  0.61336649  0.41809623  0.21419152  1
  O2-  O421  1  0.59216425  0.41645503  0.56582949  1
  O2-  O422  1  0.57552642  0.41859526  0.88817421  1
  O2-  O423  1  0.58464662  0.92556754  0.21643406  1
  O2-  O424  1  0.57368626  0.92163575  0.55839698  1
  O2-  O425  1  0.57479929  0.92712206  0.87710524  1
  O2-  O426  1  0.91883062  0.41712286  0.21148659  1
  O2-  O427  1  0.93219636  0.41715595  0.56120856  1
  O2-  O428  1  0.90050936  0.41625599  0.90178266  1
  O2-  O429  1  0.92182586  0.92124051  0.21785389  1
  O2-  O430  1  0.91795485  0.91444931  0.56937347  1
  O2-  O431  1  0.90601078  0.93246213  0.87841894  1
  O2-  O432  1  -0.01850341  -0.00559272  0.02695694  1
  O2-  O433  1  0.02130206  0.00623503  0.30582466  1
  O2-  O434  1  0.01973594  0.00000230  0.64013057  1
  O2-  O435  1  -0.00568273  0.49777206  0.02140544  1
  O2-  O436  1  0.00398980  0.51433705  0.32648737  1
  O2-  O437  1  0.00089888  0.49834707  0.66148751  1
  O2-  O438  1  0.33101580  -0.02078531  0.00545345  1
  O2-  O439  1  0.32786505  -0.00549778  0.33752837  1
  O2-  O440  1  0.33304510  0.01025134  0.66463691  1
  O2-  O441  1  0.33404293  0.50183287  -0.00831613  1
  O2-  O442  1  0.32033840  0.50611838  0.36128976  1
  O2-  O443  1  0.33105540  0.51509887  0.66467290  1
  O2-  O444  1  0.66441133  -0.02344840  -0.00677176  1
  O2-  O445  1  0.65918211  -0.00260865  0.34861889  1
  O2-  O446  1  0.64555863  -0.00225616  0.70233783  1
  O2-  O447  1  0.66510324  0.49258048  -0.00851157  1
  O2-  O448  1  0.65722770  0.51702342  0.34254761  1
  O2-  O449  1  0.64510136  0.51645118  0.68146019  1
  O2-  O450  1  0.17223198  0.00289718  0.01538007  1
  O2-  O451  1  0.17063011  -0.00368382  0.36442504  1
  O2-  O452  1  0.18096058  0.00649545  0.68237169  1
  O2-  O453  1  0.16617135  0.51041927  -0.01345347  1
  O2-  O454  1  0.16436440  0.51265623  0.33941278  1
  O2-  O455  1  0.16317187  0.49679621  0.67151999  1
  O2-  O456  1  0.50330882  -0.02561800  0.00882133  1
  O2-  O457  1  0.49419081  -0.00591941  0.31798488  1
  O2-  O458  1  0.48741848  0.00653614  0.65321417  1
  O2-  O459  1  0.50988017  0.49747811  0.02693051  1
  O2-  O460  1  0.48985907  0.52825252  0.31812637  1
  O2-  O461  1  0.48036566  0.50388460  0.64743751  1
  O2-  O462  1  0.83041689  -0.00950998  -0.00671638  1
  O2-  O463  1  0.82715664  -0.00317792  0.32383436  1
  O2-  O464  1  0.83543811  -0.02013848  0.67245241  1
  O2-  O465  1  0.85236517  0.49008731  0.03393701  1
  O2-  O466  1  0.82893282  0.52577882  0.33111973  1
  O2-  O467  1  0.82747338  0.49041206  0.64858830  1
  O2-  O468  1  0.08823541  0.75203016  0.39332573  1
  O2-  O469  1  0.91390199  0.25322294  0.26181987  1
  O2-  O470  1  0.58202586  0.75562757  0.60523527  1
  O2-  O471  1  0.07682572  0.75609523  0.73984821  1
  O2-  O472  1  0.25285495  0.74869357  0.27918076  1
  O2-  O473  1  0.41454793  0.75155142  0.38994164  1
  O2-  O474  1  0.91171783  0.25399331  0.92759553  1
  O2-  O475  1  0.92407884  0.74892618  0.60273728  1
  O2-  O476  1  0.57370846  0.24766307  0.61445110  1
  O2-  O477  1  0.25147051  0.75129562  0.59801408  1
  O2-  O478  1  0.08669330  0.24788995  0.73733819  1
  O2-  O479  1  0.75396319  0.75483392  0.06470219  1
  O2-  O480  1  0.26660059  0.24784313  0.92450269  1
  O2-  O481  1  0.58783052  0.75667832  0.94208898  1
  O2-  O482  1  0.41492797  0.25132336  0.40475253  1
  O2-  O483  1  0.75293382  0.25215726  0.40057151  1
  O2-  O484  1  0.74519262  0.75287196  0.38692779  1
  O2-  O485  1  0.42319158  0.75195245  0.07304912  1
  O2-  O486  1  0.41098742  0.24950162  0.06486921  1
  O2-  O487  1  0.43498151  0.24914622  0.72138520  1
  O2-  O488  1  0.58399732  0.75639957  0.26968470  1
  O2-  O489  1  0.91407391  0.75541331  0.93752783  1
  O2-  O490  1  0.58137992  0.25115472  0.92594474  1
  O2-  O491  1  0.91157735  0.74785171  0.27647541  1
  O2-  O492  1  0.74229606  0.24921378  0.73433366  1
