# generated using pymatgen
data_Ca108Mn108O277
_symmetry_space_group_name_H-M   'P 1'
_cell_length_a   16.02040685
_cell_length_b   22.29710100
_cell_length_c   16.38372857
_cell_angle_alpha   90.00242810
_cell_angle_beta   89.99858313
_cell_angle_gamma   89.99922757
_symmetry_Int_Tables_number   1
_chemical_formula_structural   Ca108Mn108O277
_chemical_formula_sum   'Ca108 Mn108 O277'
_cell_volume   5852.40922199
_cell_formula_units_Z   1
loop_
 _symmetry_equiv_pos_site_id
 _symmetry_equiv_pos_as_xyz
  1  'x, y, z'
loop_
 _atom_type_symbol
 _atom_type_oxidation_number
  Ca2+  2.0
  Mn3.34+  3.34
  O2-  -2.0
loop_
 _atom_site_type_symbol
 _atom_site_label
 _atom_site_symmetry_multiplicity
 _atom_site_fract_x
 _atom_site_fract_y
 _atom_site_fract_z
 _atom_site_occupancy
  Ca2+  Ca0  1  0.06715523  0.24373474  0.26642185  1
  Ca2+  Ca1  1  0.07229792  0.24736181  0.56942236  1
  Ca2+  Ca2  1  0.06627288  0.25912441  0.90737131  1
  Ca2+  Ca3  1  0.08791583  0.74922740  0.25832341  1
  Ca2+  Ca4  1  0.07348447  0.74018024  0.57456536  1
  Ca2+  Ca5  1  0.08919668  0.75144363  0.91694213  1
  Ca2+  Ca6  1  0.40154825  0.25283313  0.26199671  1
  Ca2+  Ca7  1  0.43507172  0.25268125  0.58441477  1
  Ca2+  Ca8  1  0.42510212  0.25890118  0.90766134  1
  Ca2+  Ca9  1  0.42516627  0.74866118  0.26630350  1
  Ca2+  Ca10  1  0.43623281  0.74632080  0.57163674  1
  Ca2+  Ca11  1  0.39284610  0.74811060  0.91128146  1
  Ca2+  Ca12  1  0.78301181  0.24234556  0.26653850  1
  Ca2+  Ca13  1  0.74217043  0.23740530  0.58868541  1
  Ca2+  Ca14  1  0.75934982  0.25664663  0.89710668  1
  Ca2+  Ca15  1  0.73723949  0.75754344  0.25450827  1
  Ca2+  Ca16  1  0.73651164  0.75003620  0.59170401  1
  Ca2+  Ca17  1  0.76338119  0.76358945  0.90148617  1
  Ca2+  Ca18  1  0.24257673  0.26610783  0.09503181  1
  Ca2+  Ca19  1  0.23241413  0.25012298  0.41579836  1
  Ca2+  Ca20  1  0.24394482  0.26499975  0.74343330  1
  Ca2+  Ca21  1  0.25761885  0.72349106  0.07206418  1
  Ca2+  Ca22  1  0.25357476  0.73901379  0.40999159  1
  Ca2+  Ca23  1  0.24382986  0.75047919  0.76410384  1
  Ca2+  Ca24  1  0.58298503  0.26082139  0.08027669  1
  Ca2+  Ca25  1  0.59130008  0.23694088  0.45310411  1
  Ca2+  Ca26  1  0.59748036  0.24497601  0.73440488  1
  Ca2+  Ca27  1  0.57669088  0.74957714  0.09172441  1
  Ca2+  Ca28  1  0.57414272  0.74835331  0.43163199  1
  Ca2+  Ca29  1  0.59133883  0.74847760  0.72279868  1
  Ca2+  Ca30  1  0.92344477  0.25506343  0.09227164  1
  Ca2+  Ca31  1  0.92955665  0.23348082  0.40905175  1
  Ca2+  Ca32  1  0.91214860  0.24110428  0.74474538  1
  Ca2+  Ca33  1  0.92925480  0.76070873  0.07287563  1
  Ca2+  Ca34  1  0.93755355  0.74901338  0.42509797  1
  Ca2+  Ca35  1  0.91106955  0.75105343  0.74710613  1
  Ca2+  Ca36  1  0.90585112  0.57832243  0.71527582  1
  Ca2+  Ca37  1  0.92916115  0.59625010  0.08546215  1
  Ca2+  Ca38  1  0.94097496  0.59849799  0.08835698  1
  Ca2+  Ca39  1  0.75985413  0.59208284  0.90003807  1
  Ca2+  Ca40  1  0.07172274  0.08787303  0.28230922  1
  Ca2+  Ca41  1  0.39064023  0.61713623  0.24535385  1
  Ca2+  Ca42  1  0.38519733  0.60251591  0.93563725  1
  Ca2+  Ca43  1  0.10687306  0.60050805  0.92140566  1
  Ca2+  Ca44  1  0.76092327  0.08426896  0.28625201  1
  Ca2+  Ca45  1  0.05715261  0.08199874  0.90593589  1
  Ca2+  Ca46  1  0.72592071  0.58049009  0.61013110  1
  Ca2+  Ca47  1  0.24801285  0.59897780  0.76441645  1
  Ca2+  Ca48  1  0.22980813  0.09795662  0.42267361  1
  Ca2+  Ca49  1  0.04563325  0.07899714  0.90444833  1
  Ca2+  Ca50  1  0.40775372  0.08279259  0.25173674  1
  Ca2+  Ca51  1  0.55480370  0.60263032  0.09017718  1
  Ca2+  Ca52  1  0.06533094  0.09381922  0.28322416  1
  Ca2+  Ca53  1  0.45264095  0.09314959  0.58540448  1
  Ca2+  Ca54  1  0.77874958  0.07570063  0.89626208  1
  Ca2+  Ca55  1  0.38620585  0.59554213  0.93251491  1
  Ca2+  Ca56  1  0.25643081  0.07809725  0.08024561  1
  Ca2+  Ca57  1  0.91514084  0.10090790  0.41842824  1
  Ca2+  Ca58  1  0.93495345  0.60326102  0.43087803  1
  Ca2+  Ca59  1  0.25726698  0.59446492  0.76379089  1
  Ca2+  Ca60  1  0.55308522  0.60251484  0.44092638  1
  Ca2+  Ca61  1  0.07515166  0.10329874  0.56503995  1
  Ca2+  Ca62  1  0.74709910  0.59133057  0.89976882  1
  Ca2+  Ca63  1  0.24981037  0.08883787  0.73744720  1
  Ca2+  Ca64  1  0.74878629  0.60139242  0.25079240  1
  Ca2+  Ca65  1  0.59760119  0.08168514  0.72814878  1
  Ca2+  Ca66  1  0.57855125  0.07610641  0.07072419  1
  Ca2+  Ca67  1  0.91066445  0.08673349  0.07223770  1
  Ca2+  Ca68  1  0.11104550  0.61472910  0.25986903  1
  Ca2+  Ca69  1  0.42029507  0.08058595  0.25257901  1
  Ca2+  Ca70  1  0.21927758  0.09827703  0.42260462  1
  Ca2+  Ca71  1  0.71896883  0.08805005  0.57706356  1
  Ca2+  Ca72  1  0.08675130  0.90053792  0.57743518  1
  Ca2+  Ca73  1  0.58163014  0.42407840  0.74087941  1
  Ca2+  Ca74  1  0.74912009  0.39964422  0.25227113  1
  Ca2+  Ca75  1  0.26407038  0.90174831  0.09021486  1
  Ca2+  Ca76  1  0.24573378  0.89428078  0.41476544  1
  Ca2+  Ca77  1  0.09819927  0.40579380  0.92234866  1
  Ca2+  Ca78  1  0.57176799  0.90531751  0.08297765  1
  Ca2+  Ca79  1  0.08136071  0.89966258  0.25702300  1
  Ca2+  Ca80  1  0.89445806  0.41745566  0.74358419  1
  Ca2+  Ca81  1  0.72287278  0.92033467  0.60632655  1
  Ca2+  Ca82  1  0.92777407  0.40326514  0.07838179  1
  Ca2+  Ca83  1  0.25488773  0.89796876  0.75488257  1
  Ca2+  Ca84  1  0.90434303  0.41466357  0.74020203  1
  Ca2+  Ca85  1  0.58441270  0.90515368  0.08361942  1
  Ca2+  Ca86  1  0.42756844  0.42191103  0.60408700  1
  Ca2+  Ca87  1  0.74888933  0.43091935  0.59721161  1
  Ca2+  Ca88  1  0.25379899  0.39858299  0.41886481  1
  Ca2+  Ca89  1  0.41517817  0.90058230  0.25097940  1
  Ca2+  Ca90  1  0.58437358  0.41419098  0.42462628  1
  Ca2+  Ca91  1  0.59146466  0.42612046  0.74326093  1
  Ca2+  Ca92  1  0.42470284  0.40184814  0.24246547  1
  Ca2+  Ca93  1  0.90963055  0.40914127  0.42495287  1
  Ca2+  Ca94  1  0.40679667  0.41479307  0.90299104  1
  Ca2+  Ca95  1  0.25143196  0.90148155  0.09049627  1
  Ca2+  Ca96  1  0.89884150  0.90920910  0.76720433  1
  Ca2+  Ca97  1  0.08416766  0.40192811  0.23803568  1
  Ca2+  Ca98  1  0.74735029  0.91045949  0.26593626  1
  Ca2+  Ca99  1  0.59695952  0.41393327  0.42361926  1
  Ca2+  Ca100  1  0.41194679  0.40240861  0.24221003  1
  Ca2+  Ca101  1  0.07752046  0.90228715  0.57214703  1
  Ca2+  Ca102  1  0.41794763  0.89678686  0.91096378  1
  Ca2+  Ca103  1  0.74493786  0.42791918  0.58880888  1
  Ca2+  Ca104  1  0.07925139  0.40402338  0.59244264  1
  Ca2+  Ca105  1  0.90768261  0.90132866  0.41403429  1
  Ca2+  Ca106  1  0.89825043  0.40840695  0.42537941  1
  Ca2+  Ca107  1  0.60041109  0.90652734  0.42870423  1
  Mn3.34+  Mn108  1  0.08551195  0.33810912  0.08272444  1
  Mn3.34+  Mn109  1  0.08308979  0.33426290  0.41810418  1
  Mn3.34+  Mn110  1  0.08362015  0.33436963  0.75240925  1
  Mn3.34+  Mn111  1  0.08299706  0.83241990  0.08344176  1
  Mn3.34+  Mn112  1  0.08422167  0.83060498  0.41647249  1
  Mn3.34+  Mn113  1  0.07938398  0.83286445  0.75339334  1
  Mn3.34+  Mn114  1  0.41704901  0.33236922  0.07815360  1
  Mn3.34+  Mn115  1  0.41625722  0.33306954  0.42372852  1
  Mn3.34+  Mn116  1  0.41909021  0.33595601  0.75217536  1
  Mn3.34+  Mn117  1  0.41604692  0.82943432  0.08623892  1
  Mn3.34+  Mn118  1  0.41800775  0.82865407  0.42068272  1
  Mn3.34+  Mn119  1  0.42359357  0.84506200  0.74688390  1
  Mn3.34+  Mn120  1  0.74790347  0.32815249  0.08322773  1
  Mn3.34+  Mn121  1  0.74763647  0.32980211  0.42093043  1
  Mn3.34+  Mn122  1  0.74695030  0.33387181  0.75252108  1
  Mn3.34+  Mn123  1  0.75620826  0.83882727  0.08378042  1
  Mn3.34+  Mn124  1  0.75096192  0.83532148  0.42336488  1
  Mn3.34+  Mn125  1  0.74537662  0.83982301  0.75206803  1
  Mn3.34+  Mn126  1  0.24591472  0.33305440  0.24892203  1
  Mn3.34+  Mn127  1  0.25158261  0.33164850  0.58313178  1
  Mn3.34+  Mn128  1  0.25235975  0.33370701  0.91683442  1
  Mn3.34+  Mn129  1  0.25183006  0.82135263  0.24934972  1
  Mn3.34+  Mn130  1  0.25789780  0.83121484  0.58503310  1
  Mn3.34+  Mn131  1  0.24550603  0.82931778  0.91522887  1
  Mn3.34+  Mn132  1  0.58617915  0.32665077  0.24917872  1
  Mn3.34+  Mn133  1  0.58499581  0.33440970  0.58401485  1
  Mn3.34+  Mn134  1  0.58886817  0.33541288  0.91616555  1
  Mn3.34+  Mn135  1  0.58371354  0.83287709  0.25408411  1
  Mn3.34+  Mn136  1  0.57867260  0.83910855  0.58565444  1
  Mn3.34+  Mn137  1  0.58543903  0.83091672  0.90802983  1
  Mn3.34+  Mn138  1  0.91749677  0.33274955  0.24904748  1
  Mn3.34+  Mn139  1  0.91407547  0.33393565  0.58284336  1
  Mn3.34+  Mn140  1  0.91398048  0.33151801  0.91618989  1
  Mn3.34+  Mn141  1  0.91444701  0.82563587  0.24658466  1
  Mn3.34+  Mn142  1  0.91032761  0.83004828  0.58525041  1
  Mn3.34+  Mn143  1  0.92035757  0.84357919  0.92014773  1
  Mn3.34+  Mn144  1  0.57727031  0.67210114  0.91097016  1
  Mn3.34+  Mn145  1  0.41760873  0.16522353  0.08100924  1
  Mn3.34+  Mn146  1  0.42304169  0.65327854  0.74363185  1
  Mn3.34+  Mn147  1  0.08852087  0.16475263  0.08639544  1
  Mn3.34+  Mn148  1  0.41627877  0.16698768  0.75222809  1
  Mn3.34+  Mn149  1  0.75481649  0.16928429  0.08298716  1
  Mn3.34+  Mn150  1  0.42390847  0.17255870  0.08038304  1
  Mn3.34+  Mn151  1  0.41740592  0.16897439  0.42532656  1
  Mn3.34+  Mn152  1  0.74558889  0.16339820  0.08461467  1
  Mn3.34+  Mn153  1  0.07680742  0.15888752  0.08824921  1
  Mn3.34+  Mn154  1  0.91203766  0.16657004  0.90670375  1
  Mn3.34+  Mn155  1  0.74924198  0.16091567  0.74755595  1
  Mn3.34+  Mn156  1  0.91914612  0.66204087  0.58437994  1
  Mn3.34+  Mn157  1  0.75203884  0.66625064  0.42120980  1
  Mn3.34+  Mn158  1  0.74407023  0.65964072  0.42217782  1
  Mn3.34+  Mn159  1  0.25347814  0.16753690  0.24863142  1
  Mn3.34+  Mn160  1  0.91572575  0.67606192  0.24830357  1
  Mn3.34+  Mn161  1  0.58160301  0.16933812  0.25319729  1
  Mn3.34+  Mn162  1  0.75054560  0.67092151  0.08540595  1
  Mn3.34+  Mn163  1  0.09331115  0.66887464  0.08925942  1
  Mn3.34+  Mn164  1  0.58987770  0.17071495  0.91127666  1
  Mn3.34+  Mn165  1  0.75243454  0.16258362  0.42588437  1
  Mn3.34+  Mn166  1  0.07972964  0.66596182  0.74919755  1
  Mn3.34+  Mn167  1  0.42819042  0.16177980  0.75483081  1
  Mn3.34+  Mn168  1  0.91428681  0.16879594  0.58435356  1
  Mn3.34+  Mn169  1  0.25564399  0.66783175  0.57861176  1
  Mn3.34+  Mn170  1  0.75113283  0.66722510  0.74323914  1
  Mn3.34+  Mn171  1  0.58991126  0.17536016  0.25543409  1
  Mn3.34+  Mn172  1  0.58666036  0.66621767  0.90972855  1
  Mn3.34+  Mn173  1  0.24980961  0.17303068  0.91469758  1
  Mn3.34+  Mn174  1  0.24113814  0.17897122  0.91564518  1
  Mn3.34+  Mn175  1  0.25160628  0.17336858  0.58373193  1
  Mn3.34+  Mn176  1  0.24528328  0.66412521  0.57542101  1
  Mn3.34+  Mn177  1  0.08048312  0.16886266  0.74392589  1
  Mn3.34+  Mn178  1  0.57779711  0.66958437  0.24942416  1
  Mn3.34+  Mn179  1  0.92037065  0.67144994  0.91137034  1
  Mn3.34+  Mn180  1  0.42982654  0.00056081  0.42739445  1
  Mn3.34+  Mn181  1  0.92166606  0.49773929  0.25137706  1
  Mn3.34+  Mn182  1  0.57841248  0.50432462  0.24884367  1
  Mn3.34+  Mn183  1  0.25126983  0.49898700  0.58541908  1
  Mn3.34+  Mn184  1  0.41639135  0.50085176  0.07833568  1
  Mn3.34+  Mn185  1  0.93736681  0.50384467  0.91919428  1
  Mn3.34+  Mn186  1  0.26263299  -0.00218506  0.59086389  1
  Mn3.34+  Mn187  1  0.58899662  0.00058275  0.25314452  1
  Mn3.34+  Mn188  1  0.76076202  -0.00369016  0.07102305  1
  Mn3.34+  Mn189  1  0.26147586  0.50413582  0.58661684  1
  Mn3.34+  Mn190  1  0.25527737  0.50503436  0.23594672  1
  Mn3.34+  Mn191  1  0.41602211  -0.00485363  0.42778944  1
  Mn3.34+  Mn192  1  0.08382942  0.49882201  0.74824154  1
  Mn3.34+  Mn193  1  0.27852099  -0.00533664  0.59146144  1
  Mn3.34+  Mn194  1  0.59176030  0.49724198  0.24636155  1
  Mn3.34+  Mn195  1  0.92002298  -0.00614405  0.24459238  1
  Mn3.34+  Mn196  1  0.08357931  -0.00285786  0.74559211  1
  Mn3.34+  Mn197  1  0.26336040  0.00251043  0.91792083  1
  Mn3.34+  Mn198  1  0.73336976  0.50077398  0.08427927  1
  Mn3.34+  Mn199  1  0.92566899  0.49939864  0.91760794  1
  Mn3.34+  Mn200  1  0.58482917  -0.00336146  0.90752986  1
  Mn3.34+  Mn201  1  0.57415519  0.00166049  0.90913445  1
  Mn3.34+  Mn202  1  0.57873607  0.50210237  0.91828100  1
  Mn3.34+  Mn203  1  0.06777419  -0.00980371  0.07064266  1
  Mn3.34+  Mn204  1  0.24503765  0.50022231  0.23464875  1
  Mn3.34+  Mn205  1  0.10103685  0.50467715  0.42509168  1
  Mn3.34+  Mn206  1  0.24606268  -0.00094704  0.24964466  1
  Mn3.34+  Mn207  1  0.90524223  -0.00163431  0.24059126  1
  Mn3.34+  Mn208  1  0.08588833  0.50925395  0.42368847  1
  Mn3.34+  Mn209  1  0.25249114  -0.00262671  0.91592109  1
  Mn3.34+  Mn210  1  0.90107939  -0.00023879  0.58968440  1
  Mn3.34+  Mn211  1  0.23916700  0.49552485  0.94008104  1
  Mn3.34+  Mn212  1  0.40910021  0.50268608  0.41578559  1
  Mn3.34+  Mn213  1  0.74793676  0.49510045  0.08216667  1
  Mn3.34+  Mn214  1  0.91046135  0.00460763  0.59352627  1
  Mn3.34+  Mn215  1  0.90684664  0.50292950  0.25469038  1
  O2-  O216  1  -0.00137156  0.15276014  -0.00398138  1
  O2-  O217  1  -0.00188018  0.15746147  0.33641392  1
  O2-  O218  1  0.00241417  0.15754163  0.66282877  1
  O2-  O219  1  -0.00109514  0.65388686  -0.00269903  1
  O2-  O220  1  -0.00470228  0.67423248  0.32370513  1
  O2-  O221  1  -0.00527471  0.65810302  0.67246093  1
  O2-  O222  1  0.32492862  0.17108860  0.00568365  1
  O2-  O223  1  0.33162530  0.14691074  0.33617715  1
  O2-  O224  1  0.33700153  0.16196871  0.66375370  1
  O2-  O225  1  0.34780711  0.67516253  -0.00654377  1
  O2-  O226  1  0.31918233  0.68781192  0.31214059  1
  O2-  O227  1  0.32784801  0.65227207  0.66516857  1
  O2-  O228  1  0.66335187  0.16959690  0.00351441  1
  O2-  O229  1  0.66975000  0.16121242  0.33618618  1
  O2-  O230  1  0.66871639  0.16133539  0.67221907  1
  O2-  O231  1  0.66912744  0.65283982  -0.00049421  1
  O2-  O232  1  0.66653827  0.65426246  0.33290863  1
  O2-  O233  1  0.67293191  0.66475114  0.66805827  1
  O2-  O234  1  0.16068462  0.14579459  -0.00012679  1
  O2-  O235  1  0.16809629  0.15654624  0.32480112  1
  O2-  O236  1  0.17147384  0.16333130  0.66836869  1
  O2-  O237  1  0.16415142  0.66086294  0.00841038  1
  O2-  O238  1  0.17901636  0.68714699  0.32132240  1
  O2-  O239  1  0.17211919  0.65029421  0.66384853  1
  O2-  O240  1  0.50701999  0.18099980  -0.00269273  1
  O2-  O241  1  0.48938924  0.15482178  0.32733475  1
  O2-  O242  1  0.50632519  0.16052096  0.67294849  1
  O2-  O243  1  0.50136652  0.66123550  -0.00456969  1
  O2-  O244  1  0.50080599  0.65609063  0.32460016  1
  O2-  O245  1  0.48931151  0.68646009  0.67276756  1
  O2-  O246  1  0.83164619  0.15886818  -0.00299489  1
  O2-  O247  1  0.83198332  0.16107293  0.34071027  1
  O2-  O248  1  0.83011752  0.16038645  0.66369596  1
  O2-  O249  1  0.83403764  0.65157674  0.00206195  1
  O2-  O250  1  0.83204071  0.66262807  0.33414992  1
  O2-  O251  1  0.83406719  0.65939257  0.66793779  1
  O2-  O252  1  0.00376923  0.34288671  -0.00388313  1
  O2-  O253  1  -0.00352147  0.35830150  0.33705837  1
  O2-  O254  1  -0.00962674  0.35273646  0.67066765  1
  O2-  O255  1  0.00340151  0.83846222  0.00064052  1
  O2-  O256  1  -0.00350286  0.83526076  0.33654908  1
  O2-  O257  1  0.00057364  0.84727939  0.66265875  1
  O2-  O258  1  0.33374345  0.30656018  -0.00080520  1
  O2-  O259  1  0.33772933  0.34791657  0.33076652  1
  O2-  O260  1  0.33777826  0.32829754  0.66059167  1
  O2-  O261  1  0.33551545  0.83805700  -0.00055438  1
  O2-  O262  1  0.33407134  0.83184477  0.33013980  1
  O2-  O263  1  0.33191709  0.83261185  0.67494054  1
  O2-  O264  1  0.67164742  0.30617452  -0.00506461  1
  O2-  O265  1  0.66310902  0.34793021  0.33807063  1
  O2-  O266  1  0.66658068  0.35126424  0.66576103  1
  O2-  O267  1  0.66152515  0.84126511  0.00812753  1
  O2-  O268  1  0.66727370  0.84538511  0.33268196  1
  O2-  O269  1  0.66806983  0.83325030  0.66279881  1
  O2-  O270  1  0.16852747  0.32822181  -0.00213863  1
  O2-  O271  1  0.16566445  0.34925609  0.33545293  1
  O2-  O272  1  0.16074815  0.32874680  0.65987734  1
  O2-  O273  1  0.17366277  0.84768852  0.00571013  1
  O2-  O274  1  0.16614652  0.83639757  0.33067097  1
  O2-  O275  1  0.16687988  0.84950640  0.66273162  1
  O2-  O276  1  0.50135976  0.31977999  -0.00330536  1
  O2-  O277  1  0.50024179  0.34806300  0.33392879  1
  O2-  O278  1  0.50643000  0.34832059  0.66841114  1
  O2-  O279  1  0.50040506  0.83571274  0.00561588  1
  O2-  O280  1  0.50032858  0.84622015  0.33181042  1
  O2-  O281  1  0.49782624  0.82432788  0.66820125  1
  O2-  O282  1  0.83939641  0.32781126  0.00913579  1
  O2-  O283  1  0.83177419  0.34739666  0.33594834  1
  O2-  O284  1  0.82632921  0.35024528  0.66019992  1
  O2-  O285  1  0.83119470  0.82310800  0.00059327  1
  O2-  O286  1  0.83040744  0.83187002  0.32980706  1
  O2-  O287  1  0.83309574  0.84339764  0.66501156  1
  O2-  O288  1  0.00500117  0.17403473  0.17036097  1
  O2-  O289  1  -0.00521090  0.17583397  0.50570330  1
  O2-  O290  1  0.00842855  0.17086151  0.83903442  1
  O2-  O291  1  -0.00839612  0.68386549  0.15992389  1
  O2-  O292  1  -0.00847893  0.67563362  0.50413107  1
  O2-  O293  1  0.00586521  0.67263782  0.83728653  1
  O2-  O294  1  0.34061538  0.18473417  0.17201407  1
  O2-  O295  1  0.32247692  0.18058430  0.49132340  1
  O2-  O296  1  0.33246222  0.18513400  0.83014183  1
  O2-  O297  1  0.34152438  0.69779717  0.17958660  1
  O2-  O298  1  0.33371486  0.68285650  0.50267234  1
  O2-  O299  1  0.33513813  0.67669782  0.81632745  1
  O2-  O300  1  0.66586837  0.18697968  0.16437334  1
  O2-  O301  1  0.67465716  0.17102616  0.50607442  1
  O2-  O302  1  0.66967624  0.18803139  0.83605215  1
  O2-  O303  1  0.66796683  0.68588474  0.16400849  1
  O2-  O304  1  0.66164145  0.66712581  0.49857571  1
  O2-  O305  1  0.67251350  0.67633584  0.83674998  1
  O2-  O306  1  0.17661962  0.17637344  0.16145737  1
  O2-  O307  1  0.16986138  0.17843336  0.50431178  1
  O2-  O308  1  0.16383608  0.18542552  0.82954694  1
  O2-  O309  1  0.16067067  0.68593422  0.16892166  1
  O2-  O310  1  0.16765951  0.68040201  0.50207564  1
  O2-  O311  1  0.16888468  0.66991660  0.82236349  1
  O2-  O312  1  0.50221833  0.19374389  0.16913671  1
  O2-  O313  1  0.49061552  0.17785180  0.50570878  1
  O2-  O314  1  0.50391870  0.18791146  0.83653170  1
  O2-  O315  1  0.50229237  0.68065214  0.16782494  1
  O2-  O316  1  0.50304667  0.67842579  0.50290817  1
  O2-  O317  1  0.49254023  0.67829149  0.83254282  1
  O2-  O318  1  0.83517883  0.18399488  0.15935615  1
  O2-  O319  1  0.83685370  0.18250287  0.50137096  1
  O2-  O320  1  0.83043042  0.17786547  0.83320388  1
  O2-  O321  1  0.83284007  0.68403793  0.16481180  1
  O2-  O322  1  0.83260484  0.68067299  0.50126582  1
  O2-  O323  1  0.82725235  0.67665530  0.84279600  1
  O2-  O324  1  -0.00005728  0.32402584  0.16645136  1
  O2-  O325  1  -0.00233714  0.33061034  0.49969500  1
  O2-  O326  1  -0.00184184  0.33017179  0.83311586  1
  O2-  O327  1  0.00673362  0.81884185  0.17391810  1
  O2-  O328  1  0.00338301  0.82706350  0.50362459  1
  O2-  O329  1  -0.00488080  0.82329931  0.82720086  1
  O2-  O330  1  0.33843160  0.32116251  0.17005330  1
  O2-  O331  1  0.32735847  0.31577157  0.49529535  1
  O2-  O332  1  0.33573161  0.32022846  0.83590112  1
  O2-  O333  1  0.33194928  0.81705869  0.16306306  1
  O2-  O334  1  0.32554787  0.82162552  0.49328144  1
  O2-  O335  1  0.33253818  0.81952729  0.83253273  1
  O2-  O336  1  0.67172499  0.30625510  0.17376158  1
  O2-  O337  1  0.66363309  0.32379678  0.49859423  1
  O2-  O338  1  0.66269549  0.31966684  0.82796296  1
  O2-  O339  1  0.66326909  0.82303333  0.16506697  1
  O2-  O340  1  0.66816643  0.82639917  0.49966366  1
  O2-  O341  1  0.66483643  0.81869621  0.83067875  1
  O2-  O342  1  0.15831011  0.32173432  0.17355122  1
  O2-  O343  1  0.16630040  0.31949281  0.50051767  1
  O2-  O344  1  0.16623529  0.31583913  0.83774346  1
  O2-  O345  1  0.17115522  0.81952597  0.16702695  1
  O2-  O346  1  0.16249648  0.82756907  0.50555896  1
  O2-  O347  1  0.16804742  0.82518796  0.82858754  1
  O2-  O348  1  0.49396775  0.31235325  0.17479870  1
  O2-  O349  1  0.50579474  0.32639617  0.49843320  1
  O2-  O350  1  0.50463499  0.31821490  0.83375038  1
  O2-  O351  1  0.50261648  0.82077375  0.16567560  1
  O2-  O352  1  0.50493679  0.83022589  0.49431102  1
  O2-  O353  1  0.49355375  0.81723579  0.83788145  1
  O2-  O354  1  0.83196681  0.31827301  0.16960245  1
  O2-  O355  1  0.83712962  0.32704918  0.49535447  1
  O2-  O356  1  0.84031224  0.32603904  0.82173726  1
  O2-  O357  1  0.83079870  0.80882010  0.16665590  1
  O2-  O358  1  0.84085574  0.82022784  0.49404637  1
  O2-  O359  1  0.83749041  0.82792753  0.82800719  1
  O2-  O360  1  0.09387869  0.07369917  0.12889006  1
  O2-  O361  1  0.09604198  0.07595254  0.43700726  1
  O2-  O362  1  0.09806584  0.07891031  0.77691092  1
  O2-  O363  1  0.06926822  0.58839850  0.12307274  1
  O2-  O364  1  0.07726015  0.58884197  0.41484697  1
  O2-  O365  1  0.09587856  0.57868740  0.77668514  1
  O2-  O366  1  0.42269947  0.08061317  0.11793638  1
  O2-  O367  1  0.41431242  0.08220760  0.45067589  1
  O2-  O368  1  0.41626661  0.08311949  0.77585781  1
  O2-  O369  1  0.41819872  0.57576192  0.11665741  1
  O2-  O370  1  0.41595043  0.57905822  0.42366311  1
  O2-  O371  1  0.39302752  0.57564001  0.79494626  1
  O2-  O372  1  0.74031474  0.07742121  0.12330491  1
  O2-  O373  1  0.76480143  0.08308466  0.43900719  1
  O2-  O374  1  0.73351301  0.08306119  0.77243498  1
  O2-  O375  1  0.75628789  0.57991714  0.11878189  1
  O2-  O376  1  0.75977726  0.58014632  0.43364597  1
  O2-  O377  1  0.76218617  0.58251762  0.76869297  1
  O2-  O378  1  0.27322776  0.07927268  0.21202482  1
  O2-  O379  1  0.25081460  0.07826535  0.55592182  1
  O2-  O380  1  0.25162125  0.08423629  0.88294123  1
  O2-  O381  1  0.24862764  0.58613468  0.22897336  1
  O2-  O382  1  0.25034968  0.58255205  0.54900876  1
  O2-  O383  1  0.25271380  0.57358657  0.89463888  1
  O2-  O384  1  0.56567220  0.08177720  0.21411289  1
  O2-  O385  1  0.58225893  0.06550413  0.57338148  1
  O2-  O386  1  0.58657032  0.08419536  0.89187996  1
  O2-  O387  1  0.59949775  0.58371890  0.21943926  1
  O2-  O388  1  0.59317610  0.55976456  0.56318270  1
  O2-  O389  1  0.60008489  0.58285141  0.88228458  1
  O2-  O390  1  0.91551155  0.07707956  0.21385096  1
  O2-  O391  1  0.92078773  0.08314087  0.55515139  1
  O2-  O392  1  0.91634911  0.08381778  0.88519732  1
  O2-  O393  1  0.90518492  0.58387040  0.22150644  1
  O2-  O394  1  0.90745881  0.58264467  0.56666151  1
  O2-  O395  1  0.90340702  0.58318923  0.88738697  1
  O2-  O396  1  0.07485353  0.41687995  0.10244378  1
  O2-  O397  1  0.09175252  0.42326316  0.45446009  1
  O2-  O398  1  0.08153669  0.41953618  0.78018802  1
  O2-  O399  1  0.11292733  0.92069139  0.12076872  1
  O2-  O400  1  0.08715029  0.91712641  0.43851004  1
  O2-  O401  1  0.08667019  0.91748707  0.76300662  1
  O2-  O402  1  0.41744190  0.42030021  0.10890478  1
  O2-  O403  1  0.42453779  0.42284405  0.45380234  1
  O2-  O404  1  0.43864677  0.41651636  0.77202486  1
  O2-  O405  1  0.41307387  0.91493540  0.11359623  1
  O2-  O406  1  0.40748288  0.91475263  0.42690465  1
  O2-  O407  1  0.40135456  0.92003630  0.77877438  1
  O2-  O408  1  0.74808583  0.41550298  0.11276955  1
  O2-  O409  1  0.74179325  0.41879006  0.45480713  1
  O2-  O410  1  0.74694548  0.41611512  0.76904629  1
  O2-  O411  1  0.72090699  0.92679831  0.12190940  1
  O2-  O412  1  0.75544996  0.91508654  0.43609930  1
  O2-  O413  1  0.75411054  0.91819261  0.75643043  1
  O2-  O414  1  0.25759569  0.41772273  0.21833512  1
  O2-  O415  1  0.25242689  0.41869892  0.55229697  1
  O2-  O416  1  0.25468799  0.41970560  0.89949425  1
  O2-  O417  1  0.25919392  0.91705266  0.22627623  1
  O2-  O418  1  0.24017035  0.91938649  0.55285176  1
  O2-  O419  1  0.26233539  0.91591088  0.89353522  1
  O2-  O420  1  0.56433270  0.41781966  0.21643868  1
  O2-  O421  1  0.59264673  0.41882836  0.55661185  1
  O2-  O422  1  0.56973715  0.42205994  0.88618905  1
  O2-  O423  1  0.57571968  0.92014396  0.21965928  1
  O2-  O424  1  0.58996944  0.91896076  0.56127547  1
  O2-  O425  1  0.56971459  0.91403729  0.90223640  1
  O2-  O426  1  0.91227031  0.41841165  0.21395610  1
  O2-  O427  1  0.91368388  0.42021193  0.55676147  1
  O2-  O428  1  0.91570748  0.41789566  0.89655270  1
  O2-  O429  1  0.91524023  0.91362590  0.23793610  1
  O2-  O430  1  0.92542896  0.91999653  0.55343082  1
  O2-  O431  1  0.91637889  0.92038647  0.90063842  1
  O2-  O432  1  -0.00345568  0.02674175  0.00110340  1
  O2-  O433  1  0.01071745  -0.00321793  0.30835600  1
  O2-  O434  1  0.01239142  -0.00160328  0.64971071  1
  O2-  O435  1  -0.01942966  0.51170389  0.02523832  1
  O2-  O436  1  0.00048674  0.49270531  0.34120743  1
  O2-  O437  1  -0.01837375  0.49392413  0.70346910  1
  O2-  O438  1  0.31593039  -0.00632190  0.02295400  1
  O2-  O439  1  0.33310096  0.01000291  0.33812107  1
  O2-  O440  1  0.33975351  0.01599034  0.67664634  1
  O2-  O441  1  0.34906654  0.50167892  -0.02092465  1
  O2-  O442  1  0.33906250  0.48578884  0.32014055  1
  O2-  O443  1  0.34362231  0.49732101  0.66308935  1
  O2-  O444  1  0.67054205  0.00594039  -0.00562817  1
  O2-  O445  1  0.68266486  -0.00276441  0.30673664  1
  O2-  O446  1  0.65435724  0.00775322  0.65371779  1
  O2-  O447  1  0.67482288  0.51494047  -0.01447750  1
  O2-  O448  1  0.66631207  0.48253932  0.33266715  1
  O2-  O449  1  0.66511934  0.49005591  0.66399206  1
  O2-  O450  1  0.15720276  0.01280917  -0.01013600  1
  O2-  O451  1  0.16782016  0.02568174  0.32179699  1
  O2-  O452  1  0.17556019  0.00238953  0.66944272  1
  O2-  O453  1  0.12912888  0.50077674  -0.04243585  1
  O2-  O454  1  0.16471268  0.49606205  0.32292452  1
  O2-  O455  1  0.16617227  0.49784830  0.66633477  1
  O2-  O456  1  0.51392273  -0.00526471  0.01244655  1
  O2-  O457  1  0.49071101  0.00392869  0.32189599  1
  O2-  O458  1  0.51342350  0.01504891  0.65992187  1
  O2-  O459  1  0.49864734  0.52071123  -0.00283594  1
  O2-  O460  1  0.50381552  0.48841643  0.34120936  1
  O2-  O461  1  0.51302617  0.48686049  0.66525301  1
  O2-  O462  1  0.83480573  0.02305242  0.00282562  1
  O2-  O463  1  0.83912699  0.00362960  0.33130551  1
  O2-  O464  1  0.80461778  -0.00001146  0.64827435  1
  O2-  O465  1  0.82939997  0.50706880  -0.00458663  1
  O2-  O466  1  0.84154738  0.48024823  0.34439780  1
  O2-  O467  1  0.82866578  0.48341178  0.66671036  1
  O2-  O468  1  0.73902583  0.74685967  0.40163329  1
  O2-  O469  1  0.06613143  0.25114936  0.73420267  1
  O2-  O470  1  0.92008132  0.25288029  0.60616479  1
  O2-  O471  1  0.74616714  0.25067892  0.40114778  1
  O2-  O472  1  0.42681090  0.75090184  0.40924100  1
  O2-  O473  1  0.24089662  0.75220718  0.92798067  1
  O2-  O474  1  0.75456294  0.25194407  0.72997862  1
  O2-  O475  1  0.42233468  0.24909903  0.73148425  1
  O2-  O476  1  0.92152736  0.75015313  0.92839835  1
  O2-  O477  1  0.92125738  0.24863004  0.92843628  1
  O2-  O478  1  0.07921744  0.75153776  0.05752787  1
  O2-  O479  1  0.58475815  0.25504387  0.59790000  1
  O2-  O480  1  0.58768623  0.75482577  0.58151749  1
  O2-  O481  1  0.91947096  0.75051520  0.60361698  1
  O2-  O482  1  0.08415236  0.75191049  0.40935566  1
  O2-  O483  1  0.08664910  0.74935098  0.72826681  1
  O2-  O484  1  0.25218695  0.25138335  0.27548515  1
  O2-  O485  1  0.07902436  0.25641344  0.40023492  1
  O2-  O486  1  0.75611663  0.75071736  0.73832223  1
  O2-  O487  1  0.59401350  0.75076286  0.94232181  1
  O2-  O488  1  0.58680202  0.75154715  0.27621753  1
  O2-  O489  1  0.24079534  0.74741780  0.61148003  1
  O2-  O490  1  0.42007785  0.24945396  0.39540644  1
  O2-  O491  1  0.92478274  0.25629671  0.27276222  1
  O2-  O492  1  0.07839244  0.24819839  0.06383532  1
