# generated using pymatgen
data_Ca108Mn108O277
_symmetry_space_group_name_H-M   'P 1'
_cell_length_a   16.02813037
_cell_length_b   22.30691046
_cell_length_c   16.38988060
_cell_angle_alpha   90.00022141
_cell_angle_beta   90.00156842
_cell_angle_gamma   90.00098072
_symmetry_Int_Tables_number   1
_chemical_formula_structural   Ca108Mn108O277
_chemical_formula_sum   'Ca108 Mn108 O277'
_cell_volume   5860.00625777
_cell_formula_units_Z   1
loop_
 _symmetry_equiv_pos_site_id
 _symmetry_equiv_pos_as_xyz
  1  'x, y, z'
loop_
 _atom_type_symbol
 _atom_type_oxidation_number
  Ca2+  2.0
  Mn3.34+  3.34
  O2-  -2.0
loop_
 _atom_site_type_symbol
 _atom_site_label
 _atom_site_symmetry_multiplicity
 _atom_site_fract_x
 _atom_site_fract_y
 _atom_site_fract_z
 _atom_site_occupancy
  Ca2+  Ca0  1  0.06424145  0.25126189  0.25169123  1
  Ca2+  Ca1  1  0.08769923  0.25757723  0.57604130  1
  Ca2+  Ca2  1  0.07045747  0.24290198  0.92622563  1
  Ca2+  Ca3  1  0.07951875  0.75117770  0.26307560  1
  Ca2+  Ca4  1  0.07601236  0.74768851  0.55496113  1
  Ca2+  Ca5  1  0.08908172  0.75132340  0.91836591  1
  Ca2+  Ca6  1  0.42803438  0.24365390  0.25686064  1
  Ca2+  Ca7  1  0.41916783  0.25178161  0.58597446  1
  Ca2+  Ca8  1  0.42034832  0.25979963  0.91288865  1
  Ca2+  Ca9  1  0.41293330  0.77085001  0.25224402  1
  Ca2+  Ca10  1  0.41719759  0.75937296  0.58216113  1
  Ca2+  Ca11  1  0.40013244  0.74547256  0.90911848  1
  Ca2+  Ca12  1  0.76265930  0.24795806  0.25020087  1
  Ca2+  Ca13  1  0.74496166  0.24698571  0.59461261  1
  Ca2+  Ca14  1  0.74563224  0.24563112  0.91523326  1
  Ca2+  Ca15  1  0.76517408  0.76284514  0.26402196  1
  Ca2+  Ca16  1  0.75814796  0.75448257  0.56806494  1
  Ca2+  Ca17  1  0.75850512  0.75488501  0.90145886  1
  Ca2+  Ca18  1  0.24917807  0.26566006  0.08346642  1
  Ca2+  Ca19  1  0.25795448  0.25484008  0.41270642  1
  Ca2+  Ca20  1  0.26847750  0.25493573  0.75397955  1
  Ca2+  Ca21  1  0.25017848  0.74922109  0.07865883  1
  Ca2+  Ca22  1  0.22663661  0.75183772  0.41260938  1
  Ca2+  Ca23  1  0.25345077  0.74335479  0.75438354  1
  Ca2+  Ca24  1  0.58339366  0.25886138  0.08643462  1
  Ca2+  Ca25  1  0.57477677  0.23867153  0.41065129  1
  Ca2+  Ca26  1  0.57255528  0.24548425  0.75685613  1
  Ca2+  Ca27  1  0.57096305  0.75130797  0.08088145  1
  Ca2+  Ca28  1  0.59671193  0.75964132  0.41503076  1
  Ca2+  Ca29  1  0.57434638  0.74612804  0.74193784  1
  Ca2+  Ca30  1  0.91813350  0.23811099  0.10284609  1
  Ca2+  Ca31  1  0.91617287  0.23736317  0.39382491  1
  Ca2+  Ca32  1  0.90693762  0.22504916  0.74921480  1
  Ca2+  Ca33  1  0.93188198  0.75331579  0.08726033  1
  Ca2+  Ca34  1  0.93234718  0.74534221  0.41106335  1
  Ca2+  Ca35  1  0.91325800  0.75122457  0.74975250  1
  Ca2+  Ca36  1  0.05297365  0.58187781  0.28147963  1
  Ca2+  Ca37  1  0.39349004  0.60103595  0.61534521  1
  Ca2+  Ca38  1  0.55082937  0.56066259  0.04955662  1
  Ca2+  Ca39  1  0.61782498  0.58572548  0.41601983  1
  Ca2+  Ca40  1  0.41475461  0.09854275  0.90595980  1
  Ca2+  Ca41  1  0.40769513  0.58581730  0.23144903  1
  Ca2+  Ca42  1  0.06199096  0.57956878  0.28578042  1
  Ca2+  Ca43  1  0.75252465  0.10490784  0.59305598  1
  Ca2+  Ca44  1  0.24774120  0.59463988  0.75875418  1
  Ca2+  Ca45  1  0.73093858  0.57458216  0.93897238  1
  Ca2+  Ca46  1  0.75164146  0.59898080  0.57073719  1
  Ca2+  Ca47  1  0.43935434  0.10775923  0.57056723  1
  Ca2+  Ca48  1  0.10489050  0.59017675  0.91388305  1
  Ca2+  Ca49  1  0.10408610  0.58948070  0.58206095  1
  Ca2+  Ca50  1  0.58810452  0.10067307  0.09119743  1
  Ca2+  Ca51  1  0.93637207  0.09006551  0.04906486  1
  Ca2+  Ca52  1  0.05742735  0.10352191  0.58794004  1
  Ca2+  Ca53  1  0.06832646  0.10346928  0.58813375  1
  Ca2+  Ca54  1  0.20352500  0.06939010  0.07123478  1
  Ca2+  Ca55  1  0.57742242  0.10308723  0.09179076  1
  Ca2+  Ca56  1  0.24185174  0.10094463  0.74773599  1
  Ca2+  Ca57  1  0.05252064  0.08951148  0.25137314  1
  Ca2+  Ca58  1  0.94495202  0.58561563  0.74308341  1
  Ca2+  Ca59  1  0.42247974  0.10441890  0.90571252  1
  Ca2+  Ca60  1  0.24976542  0.08083880  0.41184970  1
  Ca2+  Ca61  1  0.10288505  0.59491918  0.57546221  1
  Ca2+  Ca62  1  0.42042324  0.58431256  0.23217519  1
  Ca2+  Ca63  1  0.40490319  0.60523403  0.61694890  1
  Ca2+  Ca64  1  0.74159735  0.10426194  0.59217727  1
  Ca2+  Ca65  1  0.59162378  0.11207680  0.75005972  1
  Ca2+  Ca66  1  0.77943293  0.11180138  0.88914522  1
  Ca2+  Ca67  1  0.21628173  0.59196911  0.41987884  1
  Ca2+  Ca68  1  0.77517679  0.10047087  0.25488793  1
  Ca2+  Ca69  1  0.91059144  0.59385409  0.41332964  1
  Ca2+  Ca70  1  0.91996716  0.59378389  0.08899534  1
  Ca2+  Ca71  1  0.27773492  0.57549916  0.03562116  1
  Ca2+  Ca72  1  0.58628308  0.90220111  0.08980557  1
  Ca2+  Ca73  1  0.40065015  0.40260475  0.58611317  1
  Ca2+  Ca74  1  0.75023269  0.91350939  0.91921056  1
  Ca2+  Ca75  1  0.10850151  0.42335847  0.58477975  1
  Ca2+  Ca76  1  0.93892025  0.91824218  0.40812382  1
  Ca2+  Ca77  1  0.10700403  0.40903008  0.91373942  1
  Ca2+  Ca78  1  0.92983304  0.39237970  0.74942213  1
  Ca2+  Ca79  1  0.56686684  0.41224772  0.07973019  1
  Ca2+  Ca80  1  0.74175456  0.90758112  0.58076745  1
  Ca2+  Ca81  1  0.23193782  0.91567347  0.40708109  1
  Ca2+  Ca82  1  0.94182594  0.91632294  0.08221947  1
  Ca2+  Ca83  1  0.58378476  0.91106090  0.41209875  1
  Ca2+  Ca84  1  0.24381043  0.90015985  0.74715308  1
  Ca2+  Ca85  1  0.41884561  0.39727435  0.23956944  1
  Ca2+  Ca86  1  0.11026426  0.93476939  0.95334127  1
  Ca2+  Ca87  1  0.75681580  0.39353854  0.57086605  1
  Ca2+  Ca88  1  0.57337629  0.90129966  0.08952780  1
  Ca2+  Ca89  1  0.91858780  0.91127928  0.74768255  1
  Ca2+  Ca90  1  0.08698830  0.90618220  0.57250863  1
  Ca2+  Ca91  1  0.76304014  0.91390848  0.91943085  1
  Ca2+  Ca92  1  0.93080925  0.91326794  0.07984859  1
  Ca2+  Ca93  1  0.58367797  0.89999099  0.74294381  1
  Ca2+  Ca94  1  0.94073979  0.39704257  0.75203208  1
  Ca2+  Ca95  1  0.59830248  0.40225292  0.40979768  1
  Ca2+  Ca96  1  0.25652993  0.90007430  0.74743402  1
  Ca2+  Ca97  1  0.40580402  0.42025814  0.94298140  1
  Ca2+  Ca98  1  0.40030722  0.90436823  0.92199236  1
  Ca2+  Ca99  1  0.23215067  0.40532801  0.42368859  1
  Ca2+  Ca100  1  0.73497373  0.41014509  0.93410513  1
  Ca2+  Ca101  1  0.10049776  0.93566185  0.95615402  1
  Ca2+  Ca102  1  0.23769753  0.41457512  0.74367621  1
  Ca2+  Ca103  1  0.91504071  0.39544560  0.09953850  1
  Ca2+  Ca104  1  0.90762347  0.91212222  0.74639590  1
  Ca2+  Ca105  1  0.93677307  0.42435643  0.37139372  1
  Ca2+  Ca106  1  0.74403277  0.39354463  0.57148256  1
  Ca2+  Ca107  1  0.72335939  0.40884864  0.93182163  1
  Mn3.34+  Mn108  1  0.08501801  0.32881748  0.08569253  1
  Mn3.34+  Mn109  1  0.08029975  0.33330175  0.41479115  1
  Mn3.34+  Mn110  1  0.08985833  0.32465867  0.75426546  1
  Mn3.34+  Mn111  1  0.09616072  0.83927831  0.09927670  1
  Mn3.34+  Mn112  1  0.08335603  0.83683700  0.41183552  1
  Mn3.34+  Mn113  1  0.08113225  0.82796700  0.74632313  1
  Mn3.34+  Mn114  1  0.41199584  0.33493547  0.08573671  1
  Mn3.34+  Mn115  1  0.41802325  0.33033099  0.41491256  1
  Mn3.34+  Mn116  1  0.41825552  0.33299967  0.75233796  1
  Mn3.34+  Mn117  1  0.40813733  0.83278848  0.08667448  1
  Mn3.34+  Mn118  1  0.41229909  0.83796019  0.41601032  1
  Mn3.34+  Mn119  1  0.41688097  0.82533126  0.74735529  1
  Mn3.34+  Mn120  1  0.74855182  0.33067679  0.08920838  1
  Mn3.34+  Mn121  1  0.75378741  0.33097535  0.40770343  1
  Mn3.34+  Mn122  1  0.74696255  0.32553897  0.75602104  1
  Mn3.34+  Mn123  1  0.75202564  0.82920094  0.08907471  1
  Mn3.34+  Mn124  1  0.75461412  0.83936216  0.41458952  1
  Mn3.34+  Mn125  1  0.74744331  0.83487456  0.74566482  1
  Mn3.34+  Mn126  1  0.24617524  0.33106700  0.25042766  1
  Mn3.34+  Mn127  1  0.25082214  0.33653715  0.58282690  1
  Mn3.34+  Mn128  1  0.25210704  0.33930963  0.91685627  1
  Mn3.34+  Mn129  1  0.24918118  0.83526557  0.24830084  1
  Mn3.34+  Mn130  1  0.25164471  0.83126471  0.57442442  1
  Mn3.34+  Mn131  1  0.24566781  0.83188704  0.91688469  1
  Mn3.34+  Mn132  1  0.58726079  0.33545693  0.24802799  1
  Mn3.34+  Mn133  1  0.57883687  0.32779518  0.58219999  1
  Mn3.34+  Mn134  1  0.57604104  0.33606682  0.91437244  1
  Mn3.34+  Mn135  1  0.58272633  0.83598430  0.25534837  1
  Mn3.34+  Mn136  1  0.57806791  0.83565280  0.57622676  1
  Mn3.34+  Mn137  1  0.58138228  0.83178426  0.91172606  1
  Mn3.34+  Mn138  1  0.91703702  0.33552973  0.24886517  1
  Mn3.34+  Mn139  1  0.92089883  0.32296216  0.57704893  1
  Mn3.34+  Mn140  1  0.91686495  0.32216842  0.91722560  1
  Mn3.34+  Mn141  1  0.91871677  0.83773683  0.25166381  1
  Mn3.34+  Mn142  1  0.91700715  0.83583628  0.57610125  1
  Mn3.34+  Mn143  1  0.92120037  0.83412236  0.91434327  1
  Mn3.34+  Mn144  1  0.25193271  0.66833492  0.91275143  1
  Mn3.34+  Mn145  1  0.24825036  0.16809717  0.91807795  1
  Mn3.34+  Mn146  1  0.92042139  0.67005581  0.58086293  1
  Mn3.34+  Mn147  1  0.24701289  0.66878114  0.24326426  1
  Mn3.34+  Mn148  1  0.41975815  0.66551108  0.41612487  1
  Mn3.34+  Mn149  1  0.59467395  0.66035753  0.24364884  1
  Mn3.34+  Mn150  1  0.24491265  0.16176484  0.24746816  1
  Mn3.34+  Mn151  1  0.23407900  0.16252977  0.91467830  1
  Mn3.34+  Mn152  1  0.74447962  0.65884763  0.74804938  1
  Mn3.34+  Mn153  1  0.57750095  0.66556290  0.91154970  1
  Mn3.34+  Mn154  1  0.74995000  0.16704519  0.41428417  1
  Mn3.34+  Mn155  1  0.58571417  0.17025608  0.91573175  1
  Mn3.34+  Mn156  1  0.91483778  0.17682836  0.57319430  1
  Mn3.34+  Mn157  1  0.25873817  0.15594128  0.24595439  1
  Mn3.34+  Mn158  1  0.07700572  0.16532883  0.08868613  1
  Mn3.34+  Mn159  1  0.41456822  0.17120316  0.08731635  1
  Mn3.34+  Mn160  1  0.08377591  0.66581112  0.75418244  1
  Mn3.34+  Mn161  1  0.24871046  0.67772388  0.58302685  1
  Mn3.34+  Mn162  1  0.58395713  0.66554703  0.24643073  1
  Mn3.34+  Mn163  1  0.08013077  0.16400320  0.41182239  1
  Mn3.34+  Mn164  1  0.75598973  0.67043953  0.08150825  1
  Mn3.34+  Mn165  1  0.75393945  0.16999035  0.08410795  1
  Mn3.34+  Mn166  1  0.74629927  0.66528388  0.08420572  1
  Mn3.34+  Mn167  1  0.92326557  0.67003084  0.91581251  1
  Mn3.34+  Mn168  1  0.41169607  0.66599432  0.08381495  1
  Mn3.34+  Mn169  1  0.26028940  0.16306848  0.57781269  1
  Mn3.34+  Mn170  1  0.75574165  0.66341252  0.74724446  1
  Mn3.34+  Mn171  1  0.75731304  0.66777855  0.41499923  1
  Mn3.34+  Mn172  1  0.24781437  0.17087792  0.57945080  1
  Mn3.34+  Mn173  1  0.58297179  0.67344729  0.57526875  1
  Mn3.34+  Mn174  1  0.08841719  0.66329057  0.08966644  1
  Mn3.34+  Mn175  1  0.40882163  0.67038079  0.41406475  1
  Mn3.34+  Mn176  1  0.58184173  0.17167815  0.57886260  1
  Mn3.34+  Mn177  1  0.58458290  0.16683390  0.25712636  1
  Mn3.34+  Mn178  1  0.91636047  0.66980053  0.24863693  1
  Mn3.34+  Mn179  1  0.56828733  0.66039183  0.90678406  1
  Mn3.34+  Mn180  1  0.57185739  0.49694841  0.57362598  1
  Mn3.34+  Mn181  1  0.24165072  -0.00554045  0.25837596  1
  Mn3.34+  Mn182  1  0.09829151  0.49099830  0.08493337  1
  Mn3.34+  Mn183  1  0.25632077  -0.00150235  0.57964525  1
  Mn3.34+  Mn184  1  0.08714323  0.49860990  0.08921381  1
  Mn3.34+  Mn185  1  0.07371886  0.00621924  0.76154556  1
  Mn3.34+  Mn186  1  0.74755334  0.00391216  0.41241748  1
  Mn3.34+  Mn187  1  0.58488564  0.50414408  0.57361244  1
  Mn3.34+  Mn188  1  0.91302546  0.49626074  0.57256217  1
  Mn3.34+  Mn189  1  0.23539273  0.49279725  0.24162290  1
  Mn3.34+  Mn190  1  0.42873524  -0.00384968  0.74761345  1
  Mn3.34+  Mn191  1  0.76104257  0.00244617  0.09583483  1
  Mn3.34+  Mn192  1  0.58003846  0.00104305  0.91838144  1
  Mn3.34+  Mn193  1  0.57930139  0.00279192  0.26498553  1
  Mn3.34+  Mn194  1  0.75134372  0.49791218  0.09345297  1
  Mn3.34+  Mn195  1  0.39297756  0.00588630  0.08699882  1
  Mn3.34+  Mn196  1  0.60251776  0.49784699  0.26288528  1
  Mn3.34+  Mn197  1  0.58441165  0.00178039  0.57471400  1
  Mn3.34+  Mn198  1  0.08823757  0.01167499  0.75996243  1
  Mn3.34+  Mn199  1  0.41568490  0.00292601  0.74550898  1
  Mn3.34+  Mn200  1  0.91651339  0.50509268  0.91292304  1
  Mn3.34+  Mn201  1  0.40958894  0.50489165  0.41673058  1
  Mn3.34+  Mn202  1  0.24536548  0.49886154  0.23930622  1
  Mn3.34+  Mn203  1  0.74760195  0.50166710  0.75073835  1
  Mn3.34+  Mn204  1  0.42406800  0.49950259  0.41345461  1
  Mn3.34+  Mn205  1  0.41300520  -0.00650452  0.40829599  1
  Mn3.34+  Mn206  1  0.92446266  0.50034635  0.57432018  1
  Mn3.34+  Mn207  1  0.91727770  -0.00156017  0.26434032  1
  Mn3.34+  Mn208  1  0.74597717  0.00457543  0.74280733  1
  Mn3.34+  Mn209  1  0.74860680  -0.00122563  0.09646549  1
  Mn3.34+  Mn210  1  0.40250973  -0.00053907  0.09074985  1
  Mn3.34+  Mn211  1  0.93094528  0.49916559  0.91559609  1
  Mn3.34+  Mn212  1  0.73326454  0.49554085  0.74958512  1
  Mn3.34+  Mn213  1  0.41684296  0.49801956  0.76379400  1
  Mn3.34+  Mn214  1  0.91307995  -0.00003900  0.58244079  1
  Mn3.34+  Mn215  1  0.42882772  0.50461322  0.76356792  1
  O2-  O216  1  -0.00023743  0.17448793  0.01010645  1
  O2-  O217  1  0.00420818  0.16075313  0.33541255  1
  O2-  O218  1  0.00165911  0.18722107  0.64873507  1
  O2-  O219  1  0.00176845  0.66288247  0.00633901  1
  O2-  O220  1  -0.00689791  0.66143123  0.33198483  1
  O2-  O221  1  0.00537545  0.65669681  0.66533177  1
  O2-  O222  1  0.33009714  0.14561040  -0.00174156  1
  O2-  O223  1  0.32779738  0.14840051  0.33130960  1
  O2-  O224  1  0.33204209  0.14758414  0.66143988  1
  O2-  O225  1  0.33185607  0.67285830  0.00221007  1
  O2-  O226  1  0.33010859  0.63718227  0.33136318  1
  O2-  O227  1  0.32767217  0.68008277  0.66671126  1
  O2-  O228  1  0.66588610  0.14740478  -0.00230180  1
  O2-  O229  1  0.67259185  0.15304364  0.32854515  1
  O2-  O230  1  0.66596304  0.17101875  0.65793861  1
  O2-  O231  1  0.66218949  0.65427777  -0.00223468  1
  O2-  O232  1  0.66888613  0.65715072  0.33489729  1
  O2-  O233  1  0.66261254  0.66810131  0.66303292  1
  O2-  O234  1  0.16399156  0.15240539  0.00067251  1
  O2-  O235  1  0.16586357  0.14081983  0.32988106  1
  O2-  O236  1  0.16570894  0.16204674  0.65619075  1
  O2-  O237  1  0.16469167  0.65906937  0.00056372  1
  O2-  O238  1  0.16352312  0.64760389  0.31544714  1
  O2-  O239  1  0.16467741  0.67581722  0.66836468  1
  O2-  O240  1  0.49707755  0.15048975  0.00201275  1
  O2-  O241  1  0.50273404  0.16560338  0.32607862  1
  O2-  O242  1  0.50998296  0.17328423  0.66409793  1
  O2-  O243  1  0.49849214  0.67299189  0.00761691  1
  O2-  O244  1  0.49948368  0.63236255  0.33313695  1
  O2-  O245  1  0.49321030  0.67958097  0.64636761  1
  O2-  O246  1  0.83121256  0.15906788  0.00753438  1
  O2-  O247  1  0.83230488  0.16059810  0.34155098  1
  O2-  O248  1  0.83473393  0.17060412  0.65329273  1
  O2-  O249  1  0.82949017  0.64884115  -0.00641390  1
  O2-  O250  1  0.83551482  0.66250857  0.33251674  1
  O2-  O251  1  0.83766933  0.64358648  0.66636553  1
  O2-  O252  1  -0.00331344  0.32790934  -0.00149426  1
  O2-  O253  1  0.00161572  0.33492497  0.33196105  1
  O2-  O254  1  0.00092515  0.32905679  0.66794623  1
  O2-  O255  1  0.00285086  0.83636677  0.00297008  1
  O2-  O256  1  0.00011318  0.84593037  0.33343842  1
  O2-  O257  1  -0.00166706  0.85112558  0.66694028  1
  O2-  O258  1  0.33277336  0.34223556  -0.00039264  1
  O2-  O259  1  0.33139748  0.35128796  0.34035095  1
  O2-  O260  1  0.32667144  0.35054159  0.67628250  1
  O2-  O261  1  0.33956071  0.83148297  -0.00662052  1
  O2-  O262  1  0.32887183  0.84923488  0.33571410  1
  O2-  O263  1  0.32683370  0.82260212  0.66908030  1
  O2-  O264  1  0.65781133  0.34642838  0.00771942  1
  O2-  O265  1  0.66849790  0.34194364  0.33080139  1
  O2-  O266  1  0.67108811  0.33347257  0.66227304  1
  O2-  O267  1  0.67193566  0.84396865  -0.00157154  1
  O2-  O268  1  0.66655210  0.84231910  0.33795557  1
  O2-  O269  1  0.66159092  0.83793257  0.66540458  1
  O2-  O270  1  0.16502696  0.34320408  -0.00262196  1
  O2-  O271  1  0.17150731  0.34286562  0.33870166  1
  O2-  O272  1  0.16412878  0.33975418  0.66485432  1
  O2-  O273  1  0.16256774  0.84077366  0.00040253  1
  O2-  O274  1  0.16974140  0.84098228  0.33512256  1
  O2-  O275  1  0.16754516  0.83550946  0.66639490  1
  O2-  O276  1  0.49452980  0.34467709  -0.00408599  1
  O2-  O277  1  0.50081817  0.34703182  0.33210148  1
  O2-  O278  1  0.49171319  0.33764567  0.65777247  1
  O2-  O279  1  0.50147774  0.83912493  0.00308489  1
  O2-  O280  1  0.50017724  0.84826633  0.33700493  1
  O2-  O281  1  0.50270122  0.81988727  0.66772900  1
  O2-  O282  1  0.82406799  0.33932349  -0.01230015  1
  O2-  O283  1  0.84237253  0.34053987  0.34083147  1
  O2-  O284  1  0.83623372  0.34261482  0.66857591  1
  O2-  O285  1  0.83453282  0.85108416  0.00293457  1
  O2-  O286  1  0.83865818  0.84919660  0.33800535  1
  O2-  O287  1  0.83311938  0.85272323  0.66509056  1
  O2-  O288  1  0.00542266  0.17480151  0.16958882  1
  O2-  O289  1  0.00567159  0.18159331  0.49841370  1
  O2-  O290  1  -0.01601444  0.18123246  0.84987082  1
  O2-  O291  1  0.00522044  0.68738598  0.16732813  1
  O2-  O292  1  -0.00074355  0.67416179  0.50540106  1
  O2-  O293  1  0.00255598  0.69225883  0.82736742  1
  O2-  O294  1  0.33081083  0.18472271  0.16327176  1
  O2-  O295  1  0.33651529  0.17492497  0.50042075  1
  O2-  O296  1  0.33246189  0.17684093  0.84150713  1
  O2-  O297  1  0.34137976  0.68087824  0.17313387  1
  O2-  O298  1  0.33779113  0.68949931  0.50619018  1
  O2-  O299  1  0.32498996  0.68202086  0.83298290  1
  O2-  O300  1  0.65942334  0.17595463  0.15895736  1
  O2-  O301  1  0.67048662  0.18243388  0.50466859  1
  O2-  O302  1  0.66276361  0.17717097  0.83818945  1
  O2-  O303  1  0.66534224  0.69626741  0.15687232  1
  O2-  O304  1  0.67352830  0.68008485  0.50259781  1
  O2-  O305  1  0.67012933  0.68060497  0.83613964  1
  O2-  O306  1  0.16911216  0.17341580  0.16714234  1
  O2-  O307  1  0.17068454  0.18510890  0.49941194  1
  O2-  O308  1  0.17038164  0.18614450  0.82904085  1
  O2-  O309  1  0.17185568  0.68805468  0.16185597  1
  O2-  O310  1  0.16774539  0.67505016  0.50472785  1
  O2-  O311  1  0.16266477  0.68297489  0.83343012  1
  O2-  O312  1  0.50709010  0.18000170  0.15764094  1
  O2-  O313  1  0.50104661  0.18729959  0.50839515  1
  O2-  O314  1  0.49652832  0.17946920  0.84615291  1
  O2-  O315  1  0.49382947  0.68217042  0.16980970  1
  O2-  O316  1  0.51028494  0.69022875  0.48649075  1
  O2-  O317  1  0.49621565  0.69058941  0.82933232  1
  O2-  O318  1  0.82479077  0.17610302  0.16710711  1
  O2-  O319  1  0.82428258  0.18139392  0.50306032  1
  O2-  O320  1  0.84733987  0.19234100  0.85736821  1
  O2-  O321  1  0.83886903  0.68802007  0.16019527  1
  O2-  O322  1  0.83575461  0.68092745  0.50300308  1
  O2-  O323  1  0.83848548  0.67619806  0.82974672  1
  O2-  O324  1  -0.00396755  0.31814114  0.16004822  1
  O2-  O325  1  -0.00162234  0.30936727  0.49606902  1
  O2-  O326  1  -0.00233014  0.30714111  0.82874845  1
  O2-  O327  1  0.00040313  0.82466602  0.16255978  1
  O2-  O328  1  -0.00129126  0.82271793  0.49844233  1
  O2-  O329  1  -0.00357007  0.81913463  0.82330118  1
  O2-  O330  1  0.33886577  0.31569031  0.17454215  1
  O2-  O331  1  0.33701786  0.32421666  0.50534500  1
  O2-  O332  1  0.33548895  0.32244657  0.83679392  1
  O2-  O333  1  0.32676516  0.81268083  0.16188065  1
  O2-  O334  1  0.32847324  0.81096211  0.49511450  1
  O2-  O335  1  0.32974922  0.82089148  0.82795865  1
  O2-  O336  1  0.66389392  0.32591633  0.16352804  1
  O2-  O337  1  0.66688068  0.31737110  0.50427588  1
  O2-  O338  1  0.67745703  0.32429474  0.84967585  1
  O2-  O339  1  0.65869458  0.81648191  0.15806260  1
  O2-  O340  1  0.66843356  0.82067119  0.50402491  1
  O2-  O341  1  0.67237579  0.82465375  0.83427734  1
  O2-  O342  1  0.16432067  0.31847850  0.17248404  1
  O2-  O343  1  0.17160026  0.32166251  0.50086747  1
  O2-  O344  1  0.17030174  0.31579875  0.83354028  1
  O2-  O345  1  0.16680323  0.80571480  0.17076090  1
  O2-  O346  1  0.16284641  0.81865235  0.50245268  1
  O2-  O347  1  0.16733288  0.81680690  0.82218259  1
  O2-  O348  1  0.49923182  0.32095684  0.16566063  1
  O2-  O349  1  0.50208467  0.31724905  0.49736817  1
  O2-  O350  1  0.50462641  0.31797913  0.82963655  1
  O2-  O351  1  0.50072019  0.81880849  0.15941814  1
  O2-  O352  1  0.50042057  0.81575193  0.49587808  1
  O2-  O353  1  0.49800018  0.82044780  0.82927851  1
  O2-  O354  1  0.83477830  0.31961785  0.16094615  1
  O2-  O355  1  0.82386573  0.31426054  0.51227947  1
  O2-  O356  1  0.84250371  0.32865591  0.82726778  1
  O2-  O357  1  0.83970681  0.81803600  0.16184036  1
  O2-  O358  1  0.83052842  0.82693888  0.50406927  1
  O2-  O359  1  0.83417464  0.82807009  0.82849704  1
  O2-  O360  1  0.07197949  0.08247546  0.10847161  1
  O2-  O361  1  0.09065524  0.08578658  0.45877603  1
  O2-  O362  1  0.08460038  0.09111353  0.73989502  1
  O2-  O363  1  0.08473474  0.57460107  0.13776842  1
  O2-  O364  1  0.08654751  0.56725788  0.45642492  1
  O2-  O365  1  0.08646161  0.58469881  0.77607200  1
  O2-  O366  1  0.42732616  0.08557432  0.11490846  1
  O2-  O367  1  0.38945582  0.05563171  0.46830924  1
  O2-  O368  1  0.42329173  0.08186560  0.77440948  1
  O2-  O369  1  0.41733419  0.58019144  0.09963627  1
  O2-  O370  1  0.41794102  0.57953272  0.47436386  1
  O2-  O371  1  0.40908556  0.58556689  0.75233110  1
  O2-  O372  1  0.73749326  0.08439553  0.11275712  1
  O2-  O373  1  0.75082754  0.08108431  0.45708147  1
  O2-  O374  1  0.73643735  0.08348213  0.75323325  1
  O2-  O375  1  0.75660999  0.58044408  0.11369738  1
  O2-  O376  1  0.75800362  0.58663675  0.44167272  1
  O2-  O377  1  0.74411352  0.57657140  0.80097107  1
  O2-  O378  1  0.25375738  0.07125989  0.20785918  1
  O2-  O379  1  0.23232905  0.08284635  0.55705099  1
  O2-  O380  1  0.25772239  0.08437019  0.88004354  1
  O2-  O381  1  0.26984275  0.57666011  0.19435712  1
  O2-  O382  1  0.26578695  0.58923365  0.56541067  1
  O2-  O383  1  0.24597262  0.58748874  0.89334640  1
  O2-  O384  1  0.58644359  0.08031594  0.22254351  1
  O2-  O385  1  0.59454530  0.08545039  0.56881617  1
  O2-  O386  1  0.56434315  0.08306537  0.88758918  1
  O2-  O387  1  0.57030434  0.57647920  0.19922964  1
  O2-  O388  1  0.57360465  0.58459735  0.55191918  1
  O2-  O389  1  0.58188253  0.57866042  0.90331792  1
  O2-  O390  1  0.90307066  0.05652493  0.19451890  1
  O2-  O391  1  0.92284125  0.08315738  0.57073711  1
  O2-  O392  1  0.91491434  0.07946567  0.90117049  1
  O2-  O393  1  0.93170882  0.58880059  0.22042097  1
  O2-  O394  1  0.91777575  0.58334532  0.55690519  1
  O2-  O395  1  0.93645650  0.58484695  0.88236853  1
  O2-  O396  1  0.06434895  0.41337495  0.09301763  1
  O2-  O397  1  0.07960857  0.41285395  0.44568792  1
  O2-  O398  1  0.07154301  0.41415027  0.78021823  1
  O2-  O399  1  0.07792476  0.92046846  0.09650046  1
  O2-  O400  1  0.08609615  0.91811566  0.44166124  1
  O2-  O401  1  0.08542404  0.92569658  0.79387702  1
  O2-  O402  1  0.41934332  0.41440860  0.10527182  1
  O2-  O403  1  0.42798100  0.42036205  0.45061992  1
  O2-  O404  1  0.42239467  0.41933167  0.78681507  1
  O2-  O405  1  0.43182636  0.91820581  0.10742255  1
  O2-  O406  1  0.41368882  0.92013100  0.45257299  1
  O2-  O407  1  0.39994213  0.91697928  0.77704667  1
  O2-  O408  1  0.76523023  0.41604658  0.08425115  1
  O2-  O409  1  0.74847018  0.41163289  0.44342598  1
  O2-  O410  1  0.75346150  0.41559422  0.77852266  1
  O2-  O411  1  0.72884440  0.91715270  0.11684062  1
  O2-  O412  1  0.74270774  0.92343193  0.44611361  1
  O2-  O413  1  0.74886465  0.92501314  0.78438957  1
  O2-  O414  1  0.26250761  0.41378308  0.22389666  1
  O2-  O415  1  0.25120717  0.41686776  0.56201778  1
  O2-  O416  1  0.24652498  0.41741507  0.88407952  1
  O2-  O417  1  0.24797859  0.91984426  0.22058966  1
  O2-  O418  1  0.23939650  0.91620928  0.55951101  1
  O2-  O419  1  0.24038676  0.91500336  0.88137149  1
  O2-  O420  1  0.57273290  0.42013764  0.22196070  1
  O2-  O421  1  0.60201399  0.41766897  0.55490010  1
  O2-  O422  1  0.59439010  0.41718808  0.89716754  1
  O2-  O423  1  0.58194701  0.92357391  0.21963957  1
  O2-  O424  1  0.58864466  0.92108080  0.55301860  1
  O2-  O425  1  0.59150569  0.91808775  0.88480551  1
  O2-  O426  1  0.91967566  0.41654020  0.23117036  1
  O2-  O427  1  0.90319528  0.41363825  0.56187804  1
  O2-  O428  1  0.92638437  0.41775939  0.88675036  1
  O2-  O429  1  0.91206627  0.92598798  0.21427319  1
  O2-  O430  1  0.92341969  0.92043108  0.54866733  1
  O2-  O431  1  0.89905564  0.91956113  0.87856621  1
  O2-  O432  1  -0.00741377  -0.02268612  -0.00232961  1
  O2-  O433  1  0.00119445  0.00144428  0.32441589  1
  O2-  O434  1  0.00177645  -0.00840756  0.66647783  1
  O2-  O435  1  -0.00531230  0.51504248  0.01358455  1
  O2-  O436  1  -0.01798917  0.51683998  0.35123929  1
  O2-  O437  1  -0.02117228  0.49098740  0.67758366  1
  O2-  O438  1  0.36198498  0.00621354  -0.02533101  1
  O2-  O439  1  0.31842066  -0.00474188  0.34667477  1
  O2-  O440  1  0.31854883  -0.00380553  0.68379638  1
  O2-  O441  1  0.35638839  0.50458380  -0.00993893  1
  O2-  O442  1  0.32577814  0.50854723  0.33228320  1
  O2-  O443  1  0.33713006  0.50065887  0.67618332  1
  O2-  O444  1  0.67548103  -0.00781606  -0.00289858  1
  O2-  O445  1  0.67287038  0.00092810  0.32923558  1
  O2-  O446  1  0.67890378  -0.00577417  0.64826218  1
  O2-  O447  1  0.66858962  0.49670831  0.00966790  1
  O2-  O448  1  0.63380887  0.49578025  0.37396625  1
  O2-  O449  1  0.67115843  0.50791813  0.65254687  1
  O2-  O450  1  0.17809462  0.00380475  -0.01221878  1
  O2-  O451  1  0.16585651  0.00873477  0.32936714  1
  O2-  O452  1  0.16625132  -0.01108350  0.67431452  1
  O2-  O453  1  0.16415873  0.51247341  -0.00433878  1
  O2-  O454  1  0.15881458  0.51790135  0.32211355  1
  O2-  O455  1  0.14185031  0.51293308  0.63353003  1
  O2-  O456  1  0.51674338  0.00147018  0.03239765  1
  O2-  O457  1  0.50908773  -0.00987467  0.35487318  1
  O2-  O458  1  0.50624133  0.00020396  0.66282297  1
  O2-  O459  1  0.49224050  0.48268594  0.00492187  1
  O2-  O460  1  0.47962264  0.51261903  0.31153883  1
  O2-  O461  1  0.50258004  0.50035839  0.66737337  1
  O2-  O462  1  0.83302878  -0.02368765  0.01004732  1
  O2-  O463  1  0.83981539  0.00252939  0.33991498  1
  O2-  O464  1  0.84100336  -0.01631241  0.67599012  1
  O2-  O465  1  0.83217196  0.50712148  -0.00424702  1
  O2-  O466  1  0.85358594  0.50757181  0.36522967  1
  O2-  O467  1  0.82363877  0.50641636  0.65841758  1
  O2-  O468  1  0.25480505  0.24778349  0.94489010  1
  O2-  O469  1  0.91617482  0.75387642  0.27304098  1
  O2-  O470  1  0.23939628  0.75155775  0.93655640  1
  O2-  O471  1  0.09872824  0.24691087  0.39160867  1
  O2-  O472  1  0.58433240  0.25054734  0.94456769  1
  O2-  O473  1  0.58568742  0.25176450  0.26795563  1
  O2-  O474  1  0.41047521  0.25560233  0.73280963  1
  O2-  O475  1  0.74540457  0.24863066  0.38873236  1
  O2-  O476  1  0.75273356  0.75368174  0.39979964  1
  O2-  O477  1  0.90193113  0.75121109  0.94054580  1
  O2-  O478  1  0.91351803  0.25350023  0.25881933  1
  O2-  O479  1  0.25780063  0.74707694  0.28034005  1
  O2-  O480  1  0.25079538  0.24555467  0.27580122  1
  O2-  O481  1  0.10228528  0.24932301  0.06657835  1
  O2-  O482  1  0.41621214  0.24871531  0.05347747  1
  O2-  O483  1  0.59487543  0.74700930  0.93583680  1
  O2-  O484  1  0.76117646  0.74946481  0.73054764  1
  O2-  O485  1  0.75426372  0.24947211  0.74303104  1
  O2-  O486  1  0.91308140  0.75222588  0.61021220  1
  O2-  O487  1  0.26355523  0.25001232  0.60956605  1
  O2-  O488  1  0.41763219  0.75233681  0.38288010  1
  O2-  O489  1  0.41005062  0.25409622  0.39328272  1
  O2-  O490  1  0.57488272  0.74812142  0.27928105  1
  O2-  O491  1  0.73914224  0.25083523  0.05932719  1
  O2-  O492  1  0.08107699  0.75450900  0.40107751  1
