# generated using pymatgen
data_Ca108Mn108O277
_symmetry_space_group_name_H-M   'P 1'
_cell_length_a   16.03099256
_cell_length_b   22.31016913
_cell_length_c   16.39285374
_cell_angle_alpha   89.99649480
_cell_angle_beta   90.00496089
_cell_angle_gamma   89.99715038
_symmetry_Int_Tables_number   1
_chemical_formula_structural   Ca108Mn108O277
_chemical_formula_sum   'Ca108 Mn108 O277'
_cell_volume   5862.97221574
_cell_formula_units_Z   1
loop_
 _symmetry_equiv_pos_site_id
 _symmetry_equiv_pos_as_xyz
  1  'x, y, z'
loop_
 _atom_type_symbol
 _atom_type_oxidation_number
  Ca2+  2.0
  Mn3.34+  3.34
  O2-  -2.0
loop_
 _atom_site_type_symbol
 _atom_site_label
 _atom_site_symmetry_multiplicity
 _atom_site_fract_x
 _atom_site_fract_y
 _atom_site_fract_z
 _atom_site_occupancy
  Ca2+  Ca0  1  0.09017473  0.26274203  0.25396319  1
  Ca2+  Ca1  1  0.09314084  0.25934246  0.57745541  1
  Ca2+  Ca2  1  0.07424509  0.25699465  0.91030715  1
  Ca2+  Ca3  1  0.07818288  0.75453834  0.24097473  1
  Ca2+  Ca4  1  0.04949390  0.73182161  0.60465197  1
  Ca2+  Ca5  1  0.06657527  0.74364333  0.89203084  1
  Ca2+  Ca6  1  0.40752217  0.24115495  0.26109849  1
  Ca2+  Ca7  1  0.40854198  0.25163311  0.56219703  1
  Ca2+  Ca8  1  0.43042451  0.26146404  0.92880360  1
  Ca2+  Ca9  1  0.44638926  0.74657496  0.26788327  1
  Ca2+  Ca10  1  0.43664770  0.74882455  0.55559979  1
  Ca2+  Ca11  1  0.44356857  0.75323453  0.92275079  1
  Ca2+  Ca12  1  0.75151188  0.26118084  0.24096244  1
  Ca2+  Ca13  1  0.74326458  0.25100756  0.58627373  1
  Ca2+  Ca14  1  0.74492852  0.24622992  0.92753566  1
  Ca2+  Ca15  1  0.74240236  0.75173618  0.24677425  1
  Ca2+  Ca16  1  0.76139066  0.74433163  0.58135847  1
  Ca2+  Ca17  1  0.74262295  0.74318133  0.92657051  1
  Ca2+  Ca18  1  0.26435403  0.25817010  0.09078447  1
  Ca2+  Ca19  1  0.26618815  0.24447516  0.41852376  1
  Ca2+  Ca20  1  0.22975654  0.24945024  0.74184640  1
  Ca2+  Ca21  1  0.24029075  0.76897280  0.08134483  1
  Ca2+  Ca22  1  0.28500389  0.74543901  0.40272906  1
  Ca2+  Ca23  1  0.22953113  0.75244864  0.76234692  1
  Ca2+  Ca24  1  0.60558322  0.23568646  0.08044420  1
  Ca2+  Ca25  1  0.56595347  0.24243538  0.42116391  1
  Ca2+  Ca26  1  0.59160274  0.25011513  0.75507608  1
  Ca2+  Ca27  1  0.60536678  0.73592154  0.08484054  1
  Ca2+  Ca28  1  0.58982062  0.74738886  0.40670995  1
  Ca2+  Ca29  1  0.59330378  0.75221922  0.75829327  1
  Ca2+  Ca30  1  0.88848130  0.24762884  0.07524200  1
  Ca2+  Ca31  1  0.92435933  0.26244369  0.41794153  1
  Ca2+  Ca32  1  0.92638391  0.25196295  0.75376471  1
  Ca2+  Ca33  1  0.88896436  0.74402372  0.08013480  1
  Ca2+  Ca34  1  0.89422366  0.75049723  0.42028832  1
  Ca2+  Ca35  1  0.91880564  0.73689912  0.74648384  1
  Ca2+  Ca36  1  0.62384462  0.08165586  0.70769841  1
  Ca2+  Ca37  1  0.75112963  0.09062517  0.92508607  1
  Ca2+  Ca38  1  0.09252916  0.08295104  0.25973473  1
  Ca2+  Ca39  1  0.92942298  0.58945191  0.73191445  1
  Ca2+  Ca40  1  0.42355309  0.58715027  0.56808361  1
  Ca2+  Ca41  1  0.08097481  0.09740015  0.89231551  1
  Ca2+  Ca42  1  0.22911298  0.09793163  0.73193388  1
  Ca2+  Ca43  1  0.73585266  0.60872674  0.23837629  1
  Ca2+  Ca44  1  0.56426665  0.60150467  0.41159812  1
  Ca2+  Ca45  1  0.74878707  0.09916572  0.24309397  1
  Ca2+  Ca46  1  0.72315512  0.60106848  0.92026458  1
  Ca2+  Ca47  1  0.73975487  0.10333076  0.23962486  1
  Ca2+  Ca48  1  0.06871465  0.09904487  0.89074167  1
  Ca2+  Ca49  1  0.89923330  0.07853829  0.39616328  1
  Ca2+  Ca50  1  0.57473412  0.60130555  0.41066685  1
  Ca2+  Ca51  1  0.09662682  0.09601917  0.60033909  1
  Ca2+  Ca52  1  0.43542114  0.60065022  0.26596855  1
  Ca2+  Ca53  1  0.25178467  0.09333889  0.08471699  1
  Ca2+  Ca54  1  0.21413391  0.58513050  0.73868563  1
  Ca2+  Ca55  1  0.47611958  0.59975791  0.92429788  1
  Ca2+  Ca56  1  0.05856139  0.57549519  0.26299962  1
  Ca2+  Ca57  1  0.04631120  0.57314411  0.25995434  1
  Ca2+  Ca58  1  0.44967638  0.11368553  0.56482061  1
  Ca2+  Ca59  1  0.25430289  0.57533928  0.07766455  1
  Ca2+  Ca60  1  0.77656586  0.59622853  0.58961969  1
  Ca2+  Ca61  1  0.89994356  0.09291924  0.75532698  1
  Ca2+  Ca62  1  0.90793327  0.59350701  0.44023191  1
  Ca2+  Ca63  1  0.29293524  0.58455994  0.40845868  1
  Ca2+  Ca64  1  0.27033271  0.10338753  0.42966476  1
  Ca2+  Ca65  1  0.26459419  0.09362506  0.08598676  1
  Ca2+  Ca66  1  0.41483544  0.58527543  0.56291774  1
  Ca2+  Ca67  1  0.89639478  0.08245206  0.06429933  1
  Ca2+  Ca68  1  0.42641594  0.09306983  0.92821274  1
  Ca2+  Ca69  1  0.20293628  0.58259152  0.74000059  1
  Ca2+  Ca70  1  0.61447117  0.08409824  0.70445852  1
  Ca2+  Ca71  1  0.87384165  0.59576946  0.08304109  1
  Ca2+  Ca72  1  0.77232154  0.91280942  0.25375038  1
  Ca2+  Ca73  1  0.91139998  0.41459654  0.41724185  1
  Ca2+  Ca74  1  0.74855794  0.40631762  0.91275665  1
  Ca2+  Ca75  1  0.09490406  0.90916636  0.58423551  1
  Ca2+  Ca76  1  0.24177947  0.90477846  0.41206559  1
  Ca2+  Ca77  1  0.90944993  0.91304374  0.07818710  1
  Ca2+  Ca78  1  0.58555718  0.39848142  0.42289047  1
  Ca2+  Ca79  1  0.91236507  0.40981572  0.08800129  1
  Ca2+  Ca80  1  0.06610715  0.41392763  0.25910005  1
  Ca2+  Ca81  1  0.42872194  0.91449474  0.59065693  1
  Ca2+  Ca82  1  0.07837206  0.90942047  0.24274218  1
  Ca2+  Ca83  1  0.90702110  0.91055638  0.76266777  1
  Ca2+  Ca84  1  0.06589724  0.90789353  0.24329527  1
  Ca2+  Ca85  1  0.42300228  0.39978753  0.25354461  1
  Ca2+  Ca86  1  0.74981285  0.91441460  0.91979412  1
  Ca2+  Ca87  1  0.91109972  0.41528774  0.72924198  1
  Ca2+  Ca88  1  0.90297506  0.41383311  0.09039230  1
  Ca2+  Ca89  1  0.58430440  0.89341086  0.07883641  1
  Ca2+  Ca90  1  0.44069045  0.91217659  0.58791976  1
  Ca2+  Ca91  1  0.76042664  0.41313312  0.58587856  1
  Ca2+  Ca92  1  0.42819296  0.89913399  0.92661458  1
  Ca2+  Ca93  1  0.24463022  0.41186280  0.72912792  1
  Ca2+  Ca94  1  0.59250780  0.39521139  0.74751395  1
  Ca2+  Ca95  1  0.25278079  0.90845770  0.74976343  1
  Ca2+  Ca96  1  0.24127547  0.90855188  0.75065789  1
  Ca2+  Ca97  1  0.25491943  0.41038502  0.43342319  1
  Ca2+  Ca98  1  0.26663691  0.40965981  0.43301227  1
  Ca2+  Ca99  1  0.25430357  0.90603672  0.41289926  1
  Ca2+  Ca100  1  0.25896059  0.40547846  0.07235396  1
  Ca2+  Ca101  1  0.41998589  0.40171539  0.58079287  1
  Ca2+  Ca102  1  0.59523935  0.90445274  0.42160428  1
  Ca2+  Ca103  1  0.08718572  0.41317037  0.92178578  1
  Ca2+  Ca104  1  0.08200381  0.90863352  0.58367659  1
  Ca2+  Ca105  1  0.71122568  0.92471334  0.60382491  1
  Ca2+  Ca106  1  0.06719143  0.91205392  0.92337003  1
  Ca2+  Ca107  1  0.89642270  0.90808857  0.76425675  1
  Mn3.34+  Mn108  1  0.08319417  0.33643020  0.08373735  1
  Mn3.34+  Mn109  1  0.08589137  0.33659276  0.41856884  1
  Mn3.34+  Mn110  1  0.08142024  0.33861351  0.75038701  1
  Mn3.34+  Mn111  1  0.08008825  0.83463484  0.07711510  1
  Mn3.34+  Mn112  1  0.07963666  0.82500165  0.42003977  1
  Mn3.34+  Mn113  1  0.07701483  0.83358172  0.75405694  1
  Mn3.34+  Mn114  1  0.42647455  0.33381942  0.08699676  1
  Mn3.34+  Mn115  1  0.41898659  0.33400218  0.41714768  1
  Mn3.34+  Mn116  1  0.41563496  0.32771643  0.75441416  1
  Mn3.34+  Mn117  1  0.42011713  0.82928841  0.09172466  1
  Mn3.34+  Mn118  1  0.42427002  0.83411610  0.41237038  1
  Mn3.34+  Mn119  1  0.42204651  0.83221117  0.75369128  1
  Mn3.34+  Mn120  1  0.73962083  0.33494846  0.08453604  1
  Mn3.34+  Mn121  1  0.74691109  0.33243497  0.41692215  1
  Mn3.34+  Mn122  1  0.75383781  0.33194966  0.75364586  1
  Mn3.34+  Mn123  1  0.75012238  0.83355387  0.08479597  1
  Mn3.34+  Mn124  1  0.75190926  0.83746000  0.41836955  1
  Mn3.34+  Mn125  1  0.74396338  0.84148313  0.75207611  1
  Mn3.34+  Mn126  1  0.24940345  0.33372438  0.24776340  1
  Mn3.34+  Mn127  1  0.25055331  0.33424156  0.58608174  1
  Mn3.34+  Mn128  1  0.25301399  0.33500631  0.90831294  1
  Mn3.34+  Mn129  1  0.25421561  0.83196773  0.24302877  1
  Mn3.34+  Mn130  1  0.25195741  0.83061984  0.57869695  1
  Mn3.34+  Mn131  1  0.25033392  0.83567598  0.92206147  1
  Mn3.34+  Mn132  1  0.58418448  0.32743350  0.24845393  1
  Mn3.34+  Mn133  1  0.58328112  0.32632984  0.58266286  1
  Mn3.34+  Mn134  1  0.58201435  0.33457355  0.92032590  1
  Mn3.34+  Mn135  1  0.58669334  0.83247105  0.24803411  1
  Mn3.34+  Mn136  1  0.58808638  0.83024812  0.58361066  1
  Mn3.34+  Mn137  1  0.59067437  0.83091151  0.91606484  1
  Mn3.34+  Mn138  1  0.91372321  0.33891838  0.25108720  1
  Mn3.34+  Mn139  1  0.91799813  0.33729496  0.57980643  1
  Mn3.34+  Mn140  1  0.91507686  0.33653131  0.91218762  1
  Mn3.34+  Mn141  1  0.91413895  0.83158416  0.25046630  1
  Mn3.34+  Mn142  1  0.91121623  0.83537221  0.57959951  1
  Mn3.34+  Mn143  1  0.91174188  0.83108251  0.91974672  1
  Mn3.34+  Mn144  1  0.91439756  0.17014905  0.91290160  1
  Mn3.34+  Mn145  1  0.74811424  0.65959939  0.75514498  1
  Mn3.34+  Mn146  1  0.25030721  0.16926071  0.91174512  1
  Mn3.34+  Mn147  1  0.07617329  0.16546682  0.08429226  1
  Mn3.34+  Mn148  1  0.08656781  0.17096097  0.08167306  1
  Mn3.34+  Mn149  1  0.08320986  0.66496697  0.07987825  1
  Mn3.34+  Mn150  1  0.24817467  0.16794610  0.58249696  1
  Mn3.34+  Mn151  1  0.74989130  0.66531971  0.41845433  1
  Mn3.34+  Mn152  1  0.90736204  0.66672550  0.24991862  1
  Mn3.34+  Mn153  1  0.07298467  0.65958292  0.08221483  1
  Mn3.34+  Mn154  1  0.58983124  0.66567637  0.58599497  1
  Mn3.34+  Mn155  1  0.57752218  0.16510510  0.25045895  1
  Mn3.34+  Mn156  1  0.90568485  0.16438574  0.57729717  1
  Mn3.34+  Mn157  1  0.58638397  0.16548152  0.91838865  1
  Mn3.34+  Mn158  1  0.24083841  0.66177997  0.91459944  1
  Mn3.34+  Mn159  1  0.08733814  0.16893293  0.41816262  1
  Mn3.34+  Mn160  1  0.75084581  0.16867485  0.75862087  1
  Mn3.34+  Mn161  1  0.41263623  0.17820544  0.75316023  1
  Mn3.34+  Mn162  1  0.25613048  0.65679240  0.91529541  1
  Mn3.34+  Mn163  1  0.24424659  0.66696951  0.57717542  1
  Mn3.34+  Mn164  1  0.25320718  0.16599410  0.25382386  1
  Mn3.34+  Mn165  1  0.91664518  0.16883668  0.57820925  1
  Mn3.34+  Mn166  1  0.24864472  0.66915352  0.24657690  1
  Mn3.34+  Mn167  1  0.42617864  0.17118361  0.08956998  1
  Mn3.34+  Mn168  1  0.91001985  0.66326714  0.90895079  1
  Mn3.34+  Mn169  1  0.41313574  0.66121134  0.09080310  1
  Mn3.34+  Mn170  1  0.42145630  0.67099892  0.08901080  1
  Mn3.34+  Mn171  1  0.41726545  0.66776231  0.74944395  1
  Mn3.34+  Mn172  1  0.07944236  0.66670914  0.42078054  1
  Mn3.34+  Mn173  1  0.25447385  0.67285855  0.57968094  1
  Mn3.34+  Mn174  1  0.08832033  0.67236377  0.41795203  1
  Mn3.34+  Mn175  1  0.92303016  0.16477254  0.25313435  1
  Mn3.34+  Mn176  1  0.43244521  0.66353182  0.75343121  1
  Mn3.34+  Mn177  1  0.42104292  0.17181717  0.75567406  1
  Mn3.34+  Mn178  1  0.73244255  0.15760672  0.43236848  1
  Mn3.34+  Mn179  1  0.91354436  0.17060504  0.25371068  1
  Mn3.34+  Mn180  1  0.41929666  0.50390600  0.75794185  1
  Mn3.34+  Mn181  1  0.07282977  0.49183357  0.73049955  1
  Mn3.34+  Mn182  1  0.07830077  -0.00226139  0.74208811  1
  Mn3.34+  Mn183  1  0.59468255  0.49513214  0.23599802  1
  Mn3.34+  Mn184  1  0.42981353  0.49534135  0.07822805  1
  Mn3.34+  Mn185  1  0.88909688  -0.00119870  0.58347273  1
  Mn3.34+  Mn186  1  0.91332257  0.50222539  0.91871991  1
  Mn3.34+  Mn187  1  0.73658756  0.49473858  0.07262967  1
  Mn3.34+  Mn188  1  0.58198291  0.50178751  0.23515056  1
  Mn3.34+  Mn189  1  0.58782176  0.49772361  0.58568157  1
  Mn3.34+  Mn190  1  0.58599482  -0.00577321  0.23972520  1
  Mn3.34+  Mn191  1  0.57378369  0.00122946  0.24138038  1
  Mn3.34+  Mn192  1  0.75365414  -0.00209881  0.40511007  1
  Mn3.34+  Mn193  1  0.74382229  -0.00251395  0.06832000  1
  Mn3.34+  Mn194  1  0.58301347  0.00053926  0.90669944  1
  Mn3.34+  Mn195  1  0.08310182  0.00281473  0.06679907  1
  Mn3.34+  Mn196  1  0.24976102  0.49778850  0.24882920  1
  Mn3.34+  Mn197  1  0.42021596  -0.00196303  0.08885885  1
  Mn3.34+  Mn198  1  0.43270044  0.49824667  0.75408371  1
  Mn3.34+  Mn199  1  0.58680336  0.49371560  0.92279694  1
  Mn3.34+  Mn200  1  0.43296030  0.00471840  0.08818064  1
  Mn3.34+  Mn201  1  0.25248848  0.00596109  0.91800463  1
  Mn3.34+  Mn202  1  0.43044561  0.00366990  0.41625819  1
  Mn3.34+  Mn203  1  0.41243545  0.00658188  0.74902887  1
  Mn3.34+  Mn204  1  0.42057995  0.00833580  0.41315219  1
  Mn3.34+  Mn205  1  0.42762583  0.00173179  0.75038115  1
  Mn3.34+  Mn206  1  0.75223149  0.50175588  0.40753045  1
  Mn3.34+  Mn207  1  0.26796277  -0.00197880  0.25185119  1
  Mn3.34+  Mn208  1  0.08212881  0.49870700  0.07371337  1
  Mn3.34+  Mn209  1  0.26467555  0.50324162  0.24977969  1
  Mn3.34+  Mn210  1  0.07673615  0.00517185  0.41527058  1
  Mn3.34+  Mn211  1  0.74674841  0.50159037  0.74524366  1
  Mn3.34+  Mn212  1  0.26285724  0.49330669  0.92336917  1
  Mn3.34+  Mn213  1  0.07952277  0.50079341  0.42578486  1
  Mn3.34+  Mn214  1  0.06522198  0.00029330  0.41438468  1
  Mn3.34+  Mn215  1  0.90579101  -0.00178691  0.58141457  1
  O2-  O216  1  -0.00018826  0.14659829  -0.00192671  1
  O2-  O217  1  -0.00364163  0.14328651  0.33853212  1
  O2-  O218  1  -0.01165379  0.14752885  0.66166097  1
  O2-  O219  1  -0.00673863  0.64604936  0.00185817  1
  O2-  O220  1  0.00075687  0.65144815  0.33258189  1
  O2-  O221  1  -0.00711626  0.66192172  0.67464133  1
  O2-  O222  1  0.33080291  0.15435028  -0.00153708  1
  O2-  O223  1  0.32833325  0.16115980  0.33045425  1
  O2-  O224  1  0.33485573  0.16023196  0.67046299  1
  O2-  O225  1  0.34261082  0.64844862  -0.00161564  1
  O2-  O226  1  0.33060346  0.65902691  0.32194709  1
  O2-  O227  1  0.32842200  0.64623912  0.67176736  1
  O2-  O228  1  0.66508256  0.15399578  -0.00869251  1
  O2-  O229  1  0.66536565  0.15708972  0.33647413  1
  O2-  O230  1  0.67246697  0.17961620  0.68016253  1
  O2-  O231  1  0.66633874  0.66769807  0.00080323  1
  O2-  O232  1  0.66755573  0.65254182  0.34244949  1
  O2-  O233  1  0.67436992  0.66741325  0.66379800  1
  O2-  O234  1  0.16707132  0.14867728  -0.00340869  1
  O2-  O235  1  0.16647934  0.14795973  0.33384565  1
  O2-  O236  1  0.16375779  0.17307130  0.66404305  1
  O2-  O237  1  0.17064640  0.63751358  0.00831181  1
  O2-  O238  1  0.16170854  0.64763048  0.33421165  1
  O2-  O239  1  0.16567117  0.66124389  0.65971663  1
  O2-  O240  1  0.49832284  0.15702206  -0.00086283  1
  O2-  O241  1  0.50687923  0.18842249  0.32330606  1
  O2-  O242  1  0.50889554  0.16273657  0.68264028  1
  O2-  O243  1  0.49917740  0.67434862  0.00896561  1
  O2-  O244  1  0.50285676  0.66369985  0.33974526  1
  O2-  O245  1  0.49582153  0.64148239  0.65958945  1
  O2-  O246  1  0.83577472  0.15671938  -0.00782451  1
  O2-  O247  1  0.82554348  0.16041357  0.33656842  1
  O2-  O248  1  0.83246025  0.16785902  0.67212208  1
  O2-  O249  1  0.82747723  0.65830175  -0.01018761  1
  O2-  O250  1  0.83445411  0.64951364  0.33781325  1
  O2-  O251  1  0.82828452  0.66809063  0.67818596  1
  O2-  O252  1  -0.00386570  0.35730439  0.00298324  1
  O2-  O253  1  -0.00312883  0.34970521  0.33901049  1
  O2-  O254  1  -0.00389283  0.33556680  0.67354341  1
  O2-  O255  1  -0.00663724  0.84969045  0.00127411  1
  O2-  O256  1  0.00688619  0.83997524  0.32873209  1
  O2-  O257  1  -0.00499512  0.85931091  0.67159722  1
  O2-  O258  1  0.32777758  0.33338448  -0.00031366  1
  O2-  O259  1  0.32962611  0.34981618  0.33695993  1
  O2-  O260  1  0.33397358  0.33862854  0.66912894  1
  O2-  O261  1  0.34277450  0.82315158  -0.00023500  1
  O2-  O262  1  0.33080323  0.84380780  0.33892190  1
  O2-  O263  1  0.33383958  0.85262814  0.66445382  1
  O2-  O264  1  0.67101441  0.34655713  -0.00694973  1
  O2-  O265  1  0.66301627  0.31087205  0.33606475  1
  O2-  O266  1  0.66682345  0.32291502  0.66868487  1
  O2-  O267  1  0.67313461  0.84907346  -0.00243082  1
  O2-  O268  1  0.67273983  0.85564612  0.32802902  1
  O2-  O269  1  0.67164485  0.82657523  0.66458728  1
  O2-  O270  1  0.16522133  0.34286281  -0.00488089  1
  O2-  O271  1  0.16717976  0.35510250  0.32903158  1
  O2-  O272  1  0.16575734  0.33437932  0.66785580  1
  O2-  O273  1  0.16397475  0.85216454  -0.00197302  1
  O2-  O274  1  0.16045362  0.84456997  0.33707884  1
  O2-  O275  1  0.16520632  0.84376758  0.66618344  1
  O2-  O276  1  0.50116016  0.34048986  0.00050918  1
  O2-  O277  1  0.50338974  0.34218954  0.33867685  1
  O2-  O278  1  0.49951238  0.31607481  0.66606775  1
  O2-  O279  1  0.50235946  0.83353066  0.00094525  1
  O2-  O280  1  0.50801024  0.84615055  0.33629815  1
  O2-  O281  1  0.49886418  0.84652609  0.66536587  1
  O2-  O282  1  0.83528189  0.35185926  0.00035306  1
  O2-  O283  1  0.83348518  0.33109431  0.33801209  1
  O2-  O284  1  0.83056803  0.33859882  0.66649814  1
  O2-  O285  1  0.83053651  0.84747891  -0.00011007  1
  O2-  O286  1  0.83515125  0.84415799  0.33359870  1
  O2-  O287  1  0.82888687  0.85868252  0.66385004  1
  O2-  O288  1  0.01467831  0.18094144  0.18129211  1
  O2-  O289  1  0.00158589  0.18378972  0.49843727  1
  O2-  O290  1  0.00229364  0.18101651  0.83731627  1
  O2-  O291  1  -0.00276617  0.68226568  0.16819247  1
  O2-  O292  1  -0.00591702  0.69265275  0.48647743  1
  O2-  O293  1  -0.00980548  0.67345691  0.83197010  1
  O2-  O294  1  0.32819609  0.17809082  0.16031326  1
  O2-  O295  1  0.33222969  0.17411807  0.50817384  1
  O2-  O296  1  0.33085589  0.19112647  0.83241312  1
  O2-  O297  1  0.32011938  0.68506813  0.14832997  1
  O2-  O298  1  0.33868209  0.68060191  0.50342082  1
  O2-  O299  1  0.33909134  0.68748877  0.83417765  1
  O2-  O300  1  0.67235797  0.18351613  0.18876585  1
  O2-  O301  1  0.66724851  0.19798185  0.49761066  1
  O2-  O302  1  0.66925542  0.18614456  0.83658919  1
  O2-  O303  1  0.67771464  0.68265806  0.17102400  1
  O2-  O304  1  0.66021092  0.67903262  0.49586559  1
  O2-  O305  1  0.67541199  0.68714215  0.82568556  1
  O2-  O306  1  0.17428785  0.18022927  0.15858939  1
  O2-  O307  1  0.17002131  0.18371015  0.49596242  1
  O2-  O308  1  0.16314493  0.18666578  0.84553821  1
  O2-  O309  1  0.15804029  0.68128863  0.16664686  1
  O2-  O310  1  0.16818517  0.69524137  0.49727785  1
  O2-  O311  1  0.17506387  0.66759411  0.82036258  1
  O2-  O312  1  0.50558089  0.18918521  0.16517641  1
  O2-  O313  1  0.51051153  0.19385990  0.52315108  1
  O2-  O314  1  0.49584747  0.18861468  0.84026573  1
  O2-  O315  1  0.49178174  0.68246839  0.17202070  1
  O2-  O316  1  0.50164992  0.66397598  0.50933134  1
  O2-  O317  1  0.50189708  0.68509959  0.83610277  1
  O2-  O318  1  0.83353478  0.18060613  0.17186936  1
  O2-  O319  1  0.83137423  0.18594621  0.49527188  1
  O2-  O320  1  0.83705061  0.18623415  0.83090661  1
  O2-  O321  1  0.83033370  0.67707582  0.17333921  1
  O2-  O322  1  0.82785126  0.67378070  0.49863606  1
  O2-  O323  1  0.82805971  0.68686127  0.83268099  1
  O2-  O324  1  0.00021305  0.32471414  0.16711857  1
  O2-  O325  1  0.00305451  0.32470637  0.49931145  1
  O2-  O326  1  0.00131706  0.32129245  0.83426015  1
  O2-  O327  1  0.00230727  0.82028822  0.16789793  1
  O2-  O328  1  0.01386976  0.82048935  0.51610022  1
  O2-  O329  1  -0.00339949  0.82801605  0.83518623  1
  O2-  O330  1  0.33504043  0.32010271  0.17337414  1
  O2-  O331  1  0.33166536  0.32635812  0.49857085  1
  O2-  O332  1  0.33274899  0.30497682  0.83122550  1
  O2-  O333  1  0.33972084  0.80715768  0.17059229  1
  O2-  O334  1  0.33828888  0.82412553  0.49940161  1
  O2-  O335  1  0.32703293  0.82502567  0.82596496  1
  O2-  O336  1  0.66069476  0.31345752  0.16369862  1
  O2-  O337  1  0.66448135  0.31931823  0.50031882  1
  O2-  O338  1  0.66903940  0.31923848  0.83173773  1
  O2-  O339  1  0.66870458  0.82560832  0.16535540  1
  O2-  O340  1  0.66133974  0.82005364  0.49509886  1
  O2-  O341  1  0.67383293  0.81861067  0.83564077  1
  O2-  O342  1  0.16910144  0.31868348  0.16145588  1
  O2-  O343  1  0.17801373  0.32383030  0.49095993  1
  O2-  O344  1  0.16453023  0.31406023  0.83016302  1
  O2-  O345  1  0.15887521  0.82628118  0.16885821  1
  O2-  O346  1  0.17585461  0.81295753  0.48925213  1
  O2-  O347  1  0.16720605  0.82967425  0.82779016  1
  O2-  O348  1  0.49184206  0.31593285  0.18091527  1
  O2-  O349  1  0.49853254  0.32383549  0.50110774  1
  O2-  O350  1  0.50505243  0.31638879  0.82918748  1
  O2-  O351  1  0.50884268  0.80930900  0.16168390  1
  O2-  O352  1  0.49928198  0.83114844  0.50205755  1
  O2-  O353  1  0.50192353  0.81845184  0.83811231  1
  O2-  O354  1  0.83875985  0.32440266  0.16116552  1
  O2-  O355  1  0.83108033  0.31653764  0.49986325  1
  O2-  O356  1  0.83304832  0.31321877  0.83488034  1
  O2-  O357  1  0.83463980  0.82345380  0.16638698  1
  O2-  O358  1  0.83036349  0.81947051  0.50172897  1
  O2-  O359  1  0.84001555  0.81945666  0.82133493  1
  O2-  O360  1  0.09529999  0.07779223  0.12474035  1
  O2-  O361  1  0.08042460  0.08281991  0.45866146  1
  O2-  O362  1  0.09076298  0.07871341  0.76081774  1
  O2-  O363  1  0.09192361  0.57652012  0.12987747  1
  O2-  O364  1  0.07469432  0.58285942  0.45115548  1
  O2-  O365  1  0.07914040  0.55872412  0.78622056  1
  O2-  O366  1  0.40764120  0.08496991  0.11598749  1
  O2-  O367  1  0.41563954  0.08737840  0.43973910  1
  O2-  O368  1  0.40419652  0.08496115  0.79159825  1
  O2-  O369  1  0.41200976  0.57788661  0.12525119  1
  O2-  O370  1  0.43443076  0.56773241  0.43996397  1
  O2-  O371  1  0.42882365  0.58184503  0.79771885  1
  O2-  O372  1  0.75687482  0.06968953  0.11567533  1
  O2-  O373  1  0.76278419  0.07460878  0.44770247  1
  O2-  O374  1  0.74539220  0.08709097  0.77913221  1
  O2-  O375  1  0.74063537  0.56542388  0.11589885  1
  O2-  O376  1  0.74057025  0.57901235  0.45049933  1
  O2-  O377  1  0.75370977  0.57911640  0.78094447  1
  O2-  O378  1  0.24593860  0.08025834  0.21757924  1
  O2-  O379  1  0.23709217  0.08602739  0.57343466  1
  O2-  O380  1  0.23733720  0.08351703  0.86835804  1
  O2-  O381  1  0.25434540  0.58294151  0.21319500  1
  O2-  O382  1  0.27506806  0.58043626  0.54676415  1
  O2-  O383  1  0.25822137  0.57486810  0.87211632  1
  O2-  O384  1  0.59808547  0.08128542  0.22098165  1
  O2-  O385  1  0.58188297  0.08021266  0.57561350  1
  O2-  O386  1  0.57553337  0.08065954  0.86432736  1
  O2-  O387  1  0.58794862  0.58068332  0.22331727  1
  O2-  O388  1  0.58644802  0.57815545  0.55203304  1
  O2-  O389  1  0.59193396  0.56387891  0.87343720  1
  O2-  O390  1  0.90488281  0.08621316  0.21773081  1
  O2-  O391  1  0.91157554  0.08126874  0.53878853  1
  O2-  O392  1  0.92806605  0.08603076  0.88556762  1
  O2-  O393  1  0.92235022  0.58346301  0.21733459  1
  O2-  O394  1  0.90764807  0.57220593  0.57146475  1
  O2-  O395  1  0.89870653  0.57950375  0.88183234  1
  O2-  O396  1  0.08539567  0.41964599  0.11930016  1
  O2-  O397  1  0.10872506  0.42149659  0.44150491  1
  O2-  O398  1  0.07809916  0.42549909  0.78580915  1
  O2-  O399  1  0.06586453  0.92614295  0.10999403  1
  O2-  O400  1  0.09844546  0.91977627  0.44815820  1
  O2-  O401  1  0.07683972  0.91997567  0.78471868  1
  O2-  O402  1  0.40968717  0.41745150  0.11616784  1
  O2-  O403  1  0.40874224  0.41703409  0.44582634  1
  O2-  O404  1  0.42557348  0.41631677  0.75989685  1
  O2-  O405  1  0.43241358  0.91692141  0.09857422  1
  O2-  O406  1  0.40721624  0.92306179  0.45565562  1
  O2-  O407  1  0.42186856  0.92471612  0.79643111  1
  O2-  O408  1  0.75988488  0.41957043  0.11120783  1
  O2-  O409  1  0.73872735  0.42281817  0.44360602  1
  O2-  O410  1  0.74893052  0.42142444  0.77544599  1
  O2-  O411  1  0.74467631  0.92246857  0.11482878  1
  O2-  O412  1  0.74022218  0.92446511  0.45822013  1
  O2-  O413  1  0.76033770  0.92032536  0.78446436  1
  O2-  O414  1  0.25459012  0.41905640  0.21174250  1
  O2-  O415  1  0.26646528  0.41793949  0.56869391  1
  O2-  O416  1  0.24056298  0.42008734  0.86975383  1
  O2-  O417  1  0.22761911  0.91650162  0.23838998  1
  O2-  O418  1  0.22956243  0.91966731  0.54281968  1
  O2-  O419  1  0.25508699  0.92423558  0.88386294  1
  O2-  O420  1  0.58159913  0.41544902  0.23430427  1
  O2-  O421  1  0.57735897  0.41713667  0.56262190  1
  O2-  O422  1  0.58986928  0.41774930  0.88139570  1
  O2-  O423  1  0.57383180  0.91645081  0.20896010  1
  O2-  O424  1  0.57555963  0.91539366  0.56057495  1
  O2-  O425  1  0.57768794  0.91798904  0.90481562  1
  O2-  O426  1  0.92133940  0.41960936  0.22475981  1
  O2-  O427  1  0.90109522  0.41532075  0.55961272  1
  O2-  O428  1  0.90719500  0.42210594  0.87613713  1
  O2-  O429  1  0.92639188  0.91387180  0.22229152  1
  O2-  O430  1  0.93638450  0.92216456  0.54074101  1
  O2-  O431  1  0.91182227  0.91695161  0.89533377  1
  O2-  O432  1  0.01166012  0.00824758  -0.01255271  1
  O2-  O433  1  0.00282561  0.00457565  0.31665216  1
  O2-  O434  1  0.01736924  0.00207548  0.63425556  1
  O2-  O435  1  -0.00290069  0.48157737  -0.00193047  1
  O2-  O436  1  0.00919126  0.49667257  0.33215827  1
  O2-  O437  1  -0.01427180  0.49644413  0.67720113  1
  O2-  O438  1  0.32791405  0.01698062  0.01311766  1
  O2-  O439  1  0.31010827  -0.00410677  0.37195909  1
  O2-  O440  1  0.33562725  -0.02901632  0.67254447  1
  O2-  O441  1  0.32949237  0.50154706  0.02202103  1
  O2-  O442  1  0.31885532  0.49079583  0.35103683  1
  O2-  O443  1  0.31960835  0.52069230  0.70116095  1
  O2-  O444  1  0.68501696  0.00320753  -0.02975198  1
  O2-  O445  1  0.66610746  -0.00983088  0.32596569  1
  O2-  O446  1  0.67538110  0.00716891  0.65520465  1
  O2-  O447  1  0.69478804  0.49730693  -0.03506488  1
  O2-  O448  1  0.66251630  0.50560454  0.33162962  1
  O2-  O449  1  0.66464427  0.48512199  0.66869408  1
  O2-  O450  1  0.16741507  0.02960465  -0.00080264  1
  O2-  O451  1  0.15968141  0.00061443  0.32739119  1
  O2-  O452  1  0.17114164  -0.02326777  0.67915725  1
  O2-  O453  1  0.17593590  0.49426455  0.00585177  1
  O2-  O454  1  0.16189114  0.51661812  0.32720141  1
  O2-  O455  1  0.16848173  0.49563770  0.68168719  1
  O2-  O456  1  0.49010519  0.00567628  -0.01800210  1
  O2-  O457  1  0.50289860  -0.01418293  0.33152430  1
  O2-  O458  1  0.48592706  0.00627218  0.65050342  1
  O2-  O459  1  0.49381362  0.50895924  -0.01715394  1
  O2-  O460  1  0.49109387  0.50449805  0.30299066  1
  O2-  O461  1  0.47634820  0.50650805  0.64008584  1
  O2-  O462  1  0.84032583  -0.00399755  0.01801102  1
  O2-  O463  1  0.81682791  0.01870283  0.31478622  1
  O2-  O464  1  0.85877538  -0.00432537  0.69463662  1
  O2-  O465  1  0.84660802  0.49728705  0.02632043  1
  O2-  O466  1  0.85963685  0.50466094  0.38605791  1
  O2-  O467  1  0.82783927  0.50055076  0.67502650  1
  O2-  O468  1  0.74821102  0.74976502  0.39322719  1
  O2-  O469  1  0.24202042  0.25112901  0.27566702  1
  O2-  O470  1  0.90914801  0.75977157  0.61069887  1
  O2-  O471  1  0.09044959  0.74754839  0.05008107  1
  O2-  O472  1  0.41098494  0.24996784  0.06312350  1
  O2-  O473  1  0.74975082  0.75543769  0.06637555  1
  O2-  O474  1  0.57002233  0.74732459  0.60452330  1
  O2-  O475  1  0.59328395  0.75391821  0.93830201  1
  O2-  O476  1  0.40939682  0.25452975  0.40473816  1
  O2-  O477  1  0.07022391  0.25342545  0.05236456  1
  O2-  O478  1  0.92472505  0.25095594  0.60435265  1
  O2-  O479  1  0.23288335  0.74454153  0.93440089  1
  O2-  O480  1  0.58659295  0.25046316  0.94261929  1
  O2-  O481  1  0.74986488  0.25631165  0.06300885  1
  O2-  O482  1  0.23303254  0.75077844  0.27426982  1
  O2-  O483  1  0.25426804  0.25247868  0.59965455  1
  O2-  O484  1  0.91985528  0.74823194  0.27905562  1
  O2-  O485  1  0.93049533  0.25088487  0.27558279  1
  O2-  O486  1  0.92490906  0.74881234  0.94238105  1
  O2-  O487  1  0.59619178  0.75584877  0.27199133  1
  O2-  O488  1  0.42692292  0.75557821  0.40442960  1
  O2-  O489  1  0.07942114  0.25169736  0.39000859  1
  O2-  O490  1  0.41526090  0.74716378  0.71213330  1
  O2-  O491  1  0.08027394  0.75533496  0.73943983  1
  O2-  O492  1  0.92334336  0.25316070  0.94370175  1
