# generated using pymatgen
data_Ca108Mn108O277
_symmetry_space_group_name_H-M   'P 1'
_cell_length_a   16.01338961
_cell_length_b   22.28671753
_cell_length_c   16.37818060
_cell_angle_alpha   89.99876700
_cell_angle_beta   89.99639264
_cell_angle_gamma   90.00289861
_symmetry_Int_Tables_number   1
_chemical_formula_structural   Ca108Mn108O277
_chemical_formula_sum   'Ca108 Mn108 O277'
_cell_volume   5845.14155328
_cell_formula_units_Z   1
loop_
 _symmetry_equiv_pos_site_id
 _symmetry_equiv_pos_as_xyz
  1  'x, y, z'
loop_
 _atom_type_symbol
 _atom_type_oxidation_number
  Ca2+  2.0
  Mn3.34+  3.34
  O2-  -2.0
loop_
 _atom_site_type_symbol
 _atom_site_label
 _atom_site_symmetry_multiplicity
 _atom_site_fract_x
 _atom_site_fract_y
 _atom_site_fract_z
 _atom_site_occupancy
  Ca2+  Ca0  1  0.05919227  0.24824663  0.25969816  1
  Ca2+  Ca1  1  0.10214067  0.24568362  0.56723447  1
  Ca2+  Ca2  1  0.06936546  0.25250259  0.91856054  1
  Ca2+  Ca3  1  0.08137695  0.76590383  0.25672731  1
  Ca2+  Ca4  1  0.06776104  0.76065256  0.58459553  1
  Ca2+  Ca5  1  0.08388789  0.76241591  0.91371799  1
  Ca2+  Ca6  1  0.43116679  0.25056357  0.26806095  1
  Ca2+  Ca7  1  0.41939683  0.24983777  0.56365250  1
  Ca2+  Ca8  1  0.43059711  0.24245870  0.92443641  1
  Ca2+  Ca9  1  0.42669585  0.75537160  0.23659590  1
  Ca2+  Ca10  1  0.43390467  0.75312397  0.60043409  1
  Ca2+  Ca11  1  0.39658829  0.74314591  0.91342357  1
  Ca2+  Ca12  1  0.75597974  0.24800543  0.25867777  1
  Ca2+  Ca13  1  0.73131907  0.23594176  0.57648773  1
  Ca2+  Ca14  1  0.75123246  0.24738039  0.91834854  1
  Ca2+  Ca15  1  0.74525295  0.75476544  0.25372420  1
  Ca2+  Ca16  1  0.75110647  0.75926617  0.58437443  1
  Ca2+  Ca17  1  0.75916750  0.75971014  0.91144014  1
  Ca2+  Ca18  1  0.25616041  0.24789184  0.08363784  1
  Ca2+  Ca19  1  0.26609521  0.24615189  0.43709868  1
  Ca2+  Ca20  1  0.25761424  0.24014477  0.72574020  1
  Ca2+  Ca21  1  0.25307314  0.74976719  0.06362071  1
  Ca2+  Ca22  1  0.24088592  0.76264093  0.41199923  1
  Ca2+  Ca23  1  0.24944445  0.74562396  0.77690865  1
  Ca2+  Ca24  1  0.58086422  0.25355296  0.09402604  1
  Ca2+  Ca25  1  0.56861360  0.23286044  0.42233905  1
  Ca2+  Ca26  1  0.57982146  0.24523769  0.73473599  1
  Ca2+  Ca27  1  0.57990258  0.74896841  0.08510565  1
  Ca2+  Ca28  1  0.59362305  0.75243813  0.41973110  1
  Ca2+  Ca29  1  0.58160517  0.75175010  0.74760338  1
  Ca2+  Ca30  1  0.91515019  0.24576805  0.09857147  1
  Ca2+  Ca31  1  0.91368640  0.24103970  0.40263387  1
  Ca2+  Ca32  1  0.91697927  0.25420063  0.76066927  1
  Ca2+  Ca33  1  0.91441873  0.75598109  0.07279966  1
  Ca2+  Ca34  1  0.91707867  0.75422815  0.42252721  1
  Ca2+  Ca35  1  0.91553089  0.75479712  0.75632181  1
  Ca2+  Ca36  1  0.74139429  0.59206591  0.59014726  1
  Ca2+  Ca37  1  0.09121875  0.59466407  0.91421641  1
  Ca2+  Ca38  1  0.04405780  0.09990693  0.24445268  1
  Ca2+  Ca39  1  0.42652147  0.10633069  0.25227491  1
  Ca2+  Ca40  1  0.25991568  0.09880729  0.43285473  1
  Ca2+  Ca41  1  0.07941925  0.59380878  0.91475119  1
  Ca2+  Ca42  1  0.27501223  0.59718082  0.77836302  1
  Ca2+  Ca43  1  0.41619695  0.10912839  0.57532246  1
  Ca2+  Ca44  1  0.90220370  0.09241557  0.73882384  1
  Ca2+  Ca45  1  0.90603316  0.08904821  0.74857443  1
  Ca2+  Ca46  1  0.06586126  0.08973022  0.93168316  1
  Ca2+  Ca47  1  0.56943665  0.58241484  0.41229198  1
  Ca2+  Ca48  1  0.56005643  0.11235768  0.06977836  1
  Ca2+  Ca49  1  0.75403585  0.59213414  0.23902637  1
  Ca2+  Ca50  1  0.58169975  0.58402345  0.41067170  1
  Ca2+  Ca51  1  0.92513974  0.59352747  0.40634167  1
  Ca2+  Ca52  1  0.56761995  0.10747715  0.07248176  1
  Ca2+  Ca53  1  0.25358970  0.10137748  0.44038014  1
  Ca2+  Ca54  1  0.90049244  0.10111223  0.41550436  1
  Ca2+  Ca55  1  0.75258770  0.59138601  0.58819835  1
  Ca2+  Ca56  1  0.25703551  0.58729811  0.06213517  1
  Ca2+  Ca57  1  0.55911573  0.58157018  0.75160330  1
  Ca2+  Ca58  1  0.06731251  0.59165004  0.57379750  1
  Ca2+  Ca59  1  0.07081541  0.57671301  0.26553520  1
  Ca2+  Ca60  1  0.24596045  0.58708725  0.05954349  1
  Ca2+  Ca61  1  0.60113090  0.58544973  0.08102561  1
  Ca2+  Ca62  1  0.75086155  0.57953026  0.93410357  1
  Ca2+  Ca63  1  0.43435330  0.11122454  0.91526601  1
  Ca2+  Ca64  1  0.58266920  0.11267884  0.76256450  1
  Ca2+  Ca65  1  0.09998329  0.09145930  0.57773948  1
  Ca2+  Ca66  1  0.40610444  0.10773920  0.57738093  1
  Ca2+  Ca67  1  0.23610467  0.57445413  0.40799765  1
  Ca2+  Ca68  1  0.07996857  0.59117649  0.57356333  1
  Ca2+  Ca69  1  0.77279824  0.10434111  0.27251688  1
  Ca2+  Ca70  1  0.25688262  0.10352119  0.07101148  1
  Ca2+  Ca71  1  0.90753553  0.59566032  0.75326175  1
  Ca2+  Ca72  1  0.41041504  0.90479266  0.25636718  1
  Ca2+  Ca73  1  0.76780730  0.91225282  0.58543856  1
  Ca2+  Ca74  1  0.89728399  0.40986397  0.08788178  1
  Ca2+  Ca75  1  0.60251673  0.90210074  0.07752534  1
  Ca2+  Ca76  1  0.57686062  0.90305650  0.75801054  1
  Ca2+  Ca77  1  0.24304315  0.90192096  0.08666324  1
  Ca2+  Ca78  1  0.92107357  0.91041398  0.41485069  1
  Ca2+  Ca79  1  0.74400201  0.39585178  0.58646996  1
  Ca2+  Ca80  1  0.24192720  0.40558885  0.08237661  1
  Ca2+  Ca81  1  0.40064018  0.91590569  0.59273142  1
  Ca2+  Ca82  1  0.92263123  0.40547263  0.41419287  1
  Ca2+  Ca83  1  0.91742298  0.90419344  0.75750865  1
  Ca2+  Ca84  1  0.90701971  0.39794292  0.75550888  1
  Ca2+  Ca85  1  0.26392231  0.40570781  0.41562758  1
  Ca2+  Ca86  1  0.56109514  0.40490001  0.42185837  1
  Ca2+  Ca87  1  0.93471060  0.40439760  0.41532410  1
  Ca2+  Ca88  1  0.59187021  0.90399440  0.07534466  1
  Ca2+  Ca89  1  0.41172752  0.91467571  0.59318124  1
  Ca2+  Ca90  1  0.25393274  0.89922480  0.74674552  1
  Ca2+  Ca91  1  0.44358012  0.41490705  0.91350588  1
  Ca2+  Ca92  1  0.23100847  0.40794230  0.08749573  1
  Ca2+  Ca93  1  0.60847850  0.41300925  0.08456290  1
  Ca2+  Ca94  1  0.07317828  0.40855806  0.93196649  1
  Ca2+  Ca95  1  0.74527615  0.41598988  0.93348378  1
  Ca2+  Ca96  1  0.08135912  0.39962630  0.57487137  1
  Ca2+  Ca97  1  0.07597648  0.91145931  0.58232122  1
  Ca2+  Ca98  1  0.42151656  0.41192302  0.27386636  1
  Ca2+  Ca99  1  0.43184885  0.41167794  0.91504423  1
  Ca2+  Ca100  1  0.58253107  0.40837546  0.74521075  1
  Ca2+  Ca101  1  0.59737279  0.90733321  0.42068738  1
  Ca2+  Ca102  1  0.27232873  0.40242075  0.75522846  1
  Ca2+  Ca103  1  0.24007457  0.91308137  0.41930514  1
  Ca2+  Ca104  1  0.25978726  0.40335667  0.75524316  1
  Ca2+  Ca105  1  0.07942132  0.41357070  0.25454713  1
  Ca2+  Ca106  1  0.23188605  0.90140281  0.08755679  1
  Ca2+  Ca107  1  0.58508059  0.90779069  0.42063368  1
  Mn3.34+  Mn108  1  0.07829225  0.33434798  0.08848829  1
  Mn3.34+  Mn109  1  0.08823006  0.33319275  0.41658000  1
  Mn3.34+  Mn110  1  0.08232630  0.33336809  0.75045806  1
  Mn3.34+  Mn111  1  0.07057753  0.83790495  0.08559000  1
  Mn3.34+  Mn112  1  0.08011152  0.83450135  0.41531881  1
  Mn3.34+  Mn113  1  0.08272711  0.83136833  0.75223588  1
  Mn3.34+  Mn114  1  0.41827617  0.32855518  0.08704307  1
  Mn3.34+  Mn115  1  0.41713542  0.33403178  0.41897579  1
  Mn3.34+  Mn116  1  0.42269484  0.32918575  0.74955222  1
  Mn3.34+  Mn117  1  0.41691940  0.83209269  0.08062390  1
  Mn3.34+  Mn118  1  0.41402013  0.83318183  0.41936790  1
  Mn3.34+  Mn119  1  0.41641532  0.83196876  0.75740056  1
  Mn3.34+  Mn120  1  0.74948318  0.33541448  0.08656506  1
  Mn3.34+  Mn121  1  0.74708258  0.32640273  0.41735192  1
  Mn3.34+  Mn122  1  0.74593978  0.32946669  0.75203496  1
  Mn3.34+  Mn123  1  0.76242876  0.83773361  0.08641820  1
  Mn3.34+  Mn124  1  0.75666937  0.83658627  0.41424293  1
  Mn3.34+  Mn125  1  0.75017236  0.83142144  0.75315428  1
  Mn3.34+  Mn126  1  0.24958304  0.33378517  0.25152710  1
  Mn3.34+  Mn127  1  0.25328616  0.33203340  0.58164539  1
  Mn3.34+  Mn128  1  0.25195024  0.32387908  0.91543090  1
  Mn3.34+  Mn129  1  0.24682420  0.83588322  0.25091251  1
  Mn3.34+  Mn130  1  0.24771518  0.83587725  0.58138245  1
  Mn3.34+  Mn131  1  0.24764881  0.83252679  0.91521442  1
  Mn3.34+  Mn132  1  0.58788878  0.33458662  0.25043964  1
  Mn3.34+  Mn133  1  0.58103815  0.32822693  0.58033430  1
  Mn3.34+  Mn134  1  0.58793081  0.33055532  0.91274740  1
  Mn3.34+  Mn135  1  0.58766533  0.83164969  0.24848582  1
  Mn3.34+  Mn136  1  0.58652968  0.83622321  0.58523660  1
  Mn3.34+  Mn137  1  0.58538818  0.83358419  0.91410052  1
  Mn3.34+  Mn138  1  0.91199215  0.33174262  0.24721290  1
  Mn3.34+  Mn139  1  0.91392054  0.32486771  0.58196315  1
  Mn3.34+  Mn140  1  0.91284749  0.33207663  0.91821126  1
  Mn3.34+  Mn141  1  0.91392333  0.83804085  0.24447671  1
  Mn3.34+  Mn142  1  0.91646863  0.84036314  0.58218807  1
  Mn3.34+  Mn143  1  0.91690393  0.84318771  0.91958614  1
  Mn3.34+  Mn144  1  0.06867574  0.66148482  0.08952384  1
  Mn3.34+  Mn145  1  0.08131404  0.66762575  0.41486998  1
  Mn3.34+  Mn146  1  0.08192978  0.66900296  0.75369812  1
  Mn3.34+  Mn147  1  0.75655835  0.66120953  0.08714899  1
  Mn3.34+  Mn148  1  0.24475442  0.67741076  0.58785998  1
  Mn3.34+  Mn149  1  0.58702362  0.66486166  0.91766824  1
  Mn3.34+  Mn150  1  0.25530378  0.67141320  0.58682239  1
  Mn3.34+  Mn151  1  0.74921016  0.66651367  0.75396526  1
  Mn3.34+  Mn152  1  0.58587280  0.17027235  0.25670639  1
  Mn3.34+  Mn153  1  0.25233303  0.16256683  0.24588085  1
  Mn3.34+  Mn154  1  0.41724193  0.66354722  0.75335995  1
  Mn3.34+  Mn155  1  0.74892298  0.66897211  0.41625657  1
  Mn3.34+  Mn156  1  0.91188375  0.66771805  0.24807946  1
  Mn3.34+  Mn157  1  0.07852750  0.66702230  0.08747072  1
  Mn3.34+  Mn158  1  0.25219708  0.17388547  0.91527078  1
  Mn3.34+  Mn159  1  0.42110081  0.66514645  0.41892741  1
  Mn3.34+  Mn160  1  0.57721118  0.65961468  0.91637295  1
  Mn3.34+  Mn161  1  0.91105669  0.16225235  0.57742168  1
  Mn3.34+  Mn162  1  0.90961010  0.66867550  0.91529491  1
  Mn3.34+  Mn163  1  0.24553578  0.66588584  0.25046309  1
  Mn3.34+  Mn164  1  0.41181928  0.65929305  0.42054864  1
  Mn3.34+  Mn165  1  0.74674365  0.17266304  0.75333257  1
  Mn3.34+  Mn166  1  0.58423104  0.66518308  0.24264206  1
  Mn3.34+  Mn167  1  0.08364743  0.16818975  0.74890246  1
  Mn3.34+  Mn168  1  0.07927310  0.16357063  0.08146561  1
  Mn3.34+  Mn169  1  0.76087172  0.15853423  0.08427804  1
  Mn3.34+  Mn170  1  0.41251117  0.16332513  0.75412356  1
  Mn3.34+  Mn171  1  0.91467456  0.67038899  0.58263815  1
  Mn3.34+  Mn172  1  0.58120680  0.66487989  0.58802318  1
  Mn3.34+  Mn173  1  0.07791949  0.16680617  0.41946615  1
  Mn3.34+  Mn174  1  0.41695222  0.66702092  0.08458998  1
  Mn3.34+  Mn175  1  0.91459570  0.16229840  0.91468815  1
  Mn3.34+  Mn176  1  0.25864855  0.65991334  0.24946007  1
  Mn3.34+  Mn177  1  0.24213368  0.16961185  0.24738603  1
  Mn3.34+  Mn178  1  0.75074201  0.16338206  0.08359922  1
  Mn3.34+  Mn179  1  0.09591680  0.16303778  0.75021122  1
  Mn3.34+  Mn180  1  0.73812841  0.00270258  0.75870646  1
  Mn3.34+  Mn181  1  0.75764159  0.49993033  0.41992502  1
  Mn3.34+  Mn182  1  0.25499582  0.49968922  0.26571617  1
  Mn3.34+  Mn183  1  0.57072635  0.49600198  0.59775369  1
  Mn3.34+  Mn184  1  0.41141699  0.00155524  0.74433535  1
  Mn3.34+  Mn185  1  0.91763970  0.49988781  0.24985251  1
  Mn3.34+  Mn186  1  0.76031001  -0.00047276  0.06169453  1
  Mn3.34+  Mn187  1  0.91214481  0.49874532  0.57871219  1
  Mn3.34+  Mn188  1  0.24116890  -0.00178621  0.91058381  1
  Mn3.34+  Mn189  1  0.07989839  0.00151647  0.40948464  1
  Mn3.34+  Mn190  1  0.42102445  0.00366567  0.08849971  1
  Mn3.34+  Mn191  1  0.42207724  0.50363857  0.09102348  1
  Mn3.34+  Mn192  1  0.75052006  -0.00390490  0.75910745  1
  Mn3.34+  Mn193  1  0.26847658  0.49894344  0.58399993  1
  Mn3.34+  Mn194  1  0.91748803  0.50063331  0.93103400  1
  Mn3.34+  Mn195  1  0.75293777  0.00746057  0.41966112  1
  Mn3.34+  Mn196  1  0.08385291  -0.00412958  0.74896338  1
  Mn3.34+  Mn197  1  0.74927216  0.50090594  0.74854234  1
  Mn3.34+  Mn198  1  0.09680439  0.00203446  0.74704303  1
  Mn3.34+  Mn199  1  0.74380571  0.49332853  0.41769432  1
  Mn3.34+  Mn200  1  0.25435234  0.00429280  0.90964204  1
  Mn3.34+  Mn201  1  0.58488866  0.00414935  0.25151680  1
  Mn3.34+  Mn202  1  0.27841208  0.50276150  0.59338284  1
  Mn3.34+  Mn203  1  0.06847895  -0.00009243  0.07119478  1
  Mn3.34+  Mn204  1  0.57644230  0.50054965  0.25436491  1
  Mn3.34+  Mn205  1  0.24064545  0.00134000  0.25575305  1
  Mn3.34+  Mn206  1  0.07412795  0.50206189  0.75168193  1
  Mn3.34+  Mn207  1  0.08956085  0.49696693  0.74983866  1
  Mn3.34+  Mn208  1  0.41451794  0.00201945  0.41178519  1
  Mn3.34+  Mn209  1  0.58411232  0.00895713  0.58758576  1
  Mn3.34+  Mn210  1  0.91191571  -0.00153065  0.25680959  1
  Mn3.34+  Mn211  1  0.43597440  0.50006011  0.08636974  1
  Mn3.34+  Mn212  1  0.58861907  0.00181631  0.91931121  1
  Mn3.34+  Mn213  1  0.40599506  -0.00138504  0.09052776  1
  Mn3.34+  Mn214  1  0.59951012  -0.00094951  0.24934420  1
  Mn3.34+  Mn215  1  0.24851851  0.49870515  0.91569293  1
  O2-  O216  1  0.00395027  0.16995831  -0.00651668  1
  O2-  O217  1  -0.00293327  0.16177509  0.34209833  1
  O2-  O218  1  -0.00252744  0.15965576  0.66916052  1
  O2-  O219  1  -0.00015046  0.65662258  -0.00841903  1
  O2-  O220  1  -0.00342168  0.66396688  0.33105360  1
  O2-  O221  1  0.00159157  0.65331576  0.66350736  1
  O2-  O222  1  0.32917349  0.17961628  -0.00368663  1
  O2-  O223  1  0.32826023  0.15601741  0.33227027  1
  O2-  O224  1  0.34410165  0.17474483  0.66699500  1
  O2-  O225  1  0.32829696  0.66313772  0.01254419  1
  O2-  O226  1  0.32754399  0.65700869  0.34145080  1
  O2-  O227  1  0.33282481  0.67049404  0.66988188  1
  O2-  O228  1  0.66693789  0.16398068  0.00702836  1
  O2-  O229  1  0.67246691  0.17414501  0.32675550  1
  O2-  O230  1  0.67123900  0.17565397  0.67512721  1
  O2-  O231  1  0.66717164  0.66554176  0.00588510  1
  O2-  O232  1  0.66208977  0.65194542  0.33615484  1
  O2-  O233  1  0.66931444  0.65302557  0.66708955  1
  O2-  O234  1  0.16673976  0.17722850  0.00089989  1
  O2-  O235  1  0.16218555  0.15233776  0.33002968  1
  O2-  O236  1  0.16403711  0.16239229  0.66141437  1
  O2-  O237  1  0.16089223  0.65565032  0.00368516  1
  O2-  O238  1  0.16872843  0.65004508  0.33523800  1
  O2-  O239  1  0.16198887  0.65552529  0.66597226  1
  O2-  O240  1  0.50244304  0.17720089  0.00169314  1
  O2-  O241  1  0.50138876  0.16754091  0.32616025  1
  O2-  O242  1  0.49308036  0.16294219  0.67586666  1
  O2-  O243  1  0.50196744  0.65814061  0.00600816  1
  O2-  O244  1  0.50373556  0.65449023  0.33263082  1
  O2-  O245  1  0.50539020  0.66489174  0.67229296  1
  O2-  O246  1  0.83333769  0.16603732  -0.00291135  1
  O2-  O247  1  0.83095117  0.17591621  0.34011322  1
  O2-  O248  1  0.84188739  0.17207394  0.67257980  1
  O2-  O249  1  0.82689734  0.67220846  -0.00326405  1
  O2-  O250  1  0.83201605  0.66580835  0.33340136  1
  O2-  O251  1  0.83111193  0.65411722  0.66564626  1
  O2-  O252  1  -0.00018746  0.33451306  0.00187780  1
  O2-  O253  1  0.00064987  0.34201914  0.33246795  1
  O2-  O254  1  -0.00352987  0.33545811  0.66443488  1
  O2-  O255  1  -0.00104108  0.82916980  -0.00160054  1
  O2-  O256  1  -0.00705257  0.82776359  0.33495241  1
  O2-  O257  1  0.00099969  0.84168437  0.66481391  1
  O2-  O258  1  0.33270462  0.32845967  0.00167742  1
  O2-  O259  1  0.33487706  0.33969586  0.32984879  1
  O2-  O260  1  0.32997100  0.33382714  0.67450152  1
  O2-  O261  1  0.32505339  0.84095509  0.00657656  1
  O2-  O262  1  0.33152834  0.84195017  0.33635640  1
  O2-  O263  1  0.33450439  0.83535783  0.66279300  1
  O2-  O264  1  0.66564233  0.33176695  -0.00185279  1
  O2-  O265  1  0.66527562  0.32655666  0.33740540  1
  O2-  O266  1  0.66485735  0.33427301  0.66795760  1
  O2-  O267  1  0.66819529  0.82995432  0.00517297  1
  O2-  O268  1  0.66305064  0.84087085  0.33937702  1
  O2-  O269  1  0.66723600  0.84204461  0.66718914  1
  O2-  O270  1  0.16676810  0.32794704  0.00198036  1
  O2-  O271  1  0.16651638  0.34964952  0.33266136  1
  O2-  O272  1  0.17066822  0.34671512  0.66904392  1
  O2-  O273  1  0.16788694  0.83871361  0.00388557  1
  O2-  O274  1  0.16873745  0.83914186  0.33867597  1
  O2-  O275  1  0.16692802  0.83238527  0.66461490  1
  O2-  O276  1  0.49831915  0.32896717  -0.00375261  1
  O2-  O277  1  0.49966728  0.33822195  0.33108263  1
  O2-  O278  1  0.50487381  0.32925057  0.67118100  1
  O2-  O279  1  0.50935666  0.83974480  0.00698650  1
  O2-  O280  1  0.50226693  0.84673978  0.33655761  1
  O2-  O281  1  0.49539170  0.84519333  0.66256194  1
  O2-  O282  1  0.83130927  0.33965002  -0.00151767  1
  O2-  O283  1  0.84114599  0.33618485  0.34175607  1
  O2-  O284  1  0.83185970  0.32243989  0.66894575  1
  O2-  O285  1  0.83324963  0.82238793  -0.00037493  1
  O2-  O286  1  0.83807902  0.82512565  0.33297243  1
  O2-  O287  1  0.83338736  0.84066010  0.66607280  1
  O2-  O288  1  0.01013623  0.18472546  0.16166863  1
  O2-  O289  1  0.00153925  0.18012923  0.50805962  1
  O2-  O290  1  0.00303652  0.17385422  0.82848069  1
  O2-  O291  1  0.00120086  0.68224080  0.17623200  1
  O2-  O292  1  -0.00016590  0.67381150  0.50187016  1
  O2-  O293  1  -0.00144562  0.66556400  0.83323437  1
  O2-  O294  1  0.33375678  0.17871661  0.16814659  1
  O2-  O295  1  0.33337324  0.17162677  0.49981824  1
  O2-  O296  1  0.33343690  0.19021035  0.83384052  1
  O2-  O297  1  0.33367192  0.67627722  0.16635443  1
  O2-  O298  1  0.32865264  0.68181068  0.49960429  1
  O2-  O299  1  0.33605819  0.67664245  0.82871772  1
  O2-  O300  1  0.66447489  0.16977203  0.16221770  1
  O2-  O301  1  0.66046052  0.17495096  0.49206306  1
  O2-  O302  1  0.67106441  0.19145109  0.82856697  1
  O2-  O303  1  0.67150631  0.68082636  0.16593404  1
  O2-  O304  1  0.66595887  0.66500112  0.50220229  1
  O2-  O305  1  0.66644169  0.67707102  0.83280982  1
  O2-  O306  1  0.16939358  0.17939362  0.15917903  1
  O2-  O307  1  0.16680443  0.16872725  0.49343247  1
  O2-  O308  1  0.16416419  0.18307188  0.83905335  1
  O2-  O309  1  0.17108410  0.67303895  0.16317034  1
  O2-  O310  1  0.16237325  0.67848391  0.50609667  1
  O2-  O311  1  0.15844816  0.67101715  0.83387482  1
  O2-  O312  1  0.50761066  0.17209112  0.16549188  1
  O2-  O313  1  0.49669118  0.17390009  0.50796828  1
  O2-  O314  1  0.49473753  0.18560751  0.82657529  1
  O2-  O315  1  0.50365463  0.67743624  0.16303567  1
  O2-  O316  1  0.50569115  0.67167851  0.49851142  1
  O2-  O317  1  0.50305353  0.67416669  0.83031031  1
  O2-  O318  1  0.82964902  0.17226920  0.16952773  1
  O2-  O319  1  0.83931577  0.18722876  0.50624181  1
  O2-  O320  1  0.84189074  0.17584585  0.82438905  1
  O2-  O321  1  0.83112694  0.68604087  0.16838939  1
  O2-  O322  1  0.82830741  0.66791560  0.50441474  1
  O2-  O323  1  0.83421016  0.67443090  0.82941954  1
  O2-  O324  1  0.00075933  0.32260479  0.16931756  1
  O2-  O325  1  -0.00137527  0.32224292  0.49700846  1
  O2-  O326  1  -0.00056307  0.33104181  0.83496639  1
  O2-  O327  1  -0.00473663  0.81465551  0.16897349  1
  O2-  O328  1  -0.00149937  0.82683658  0.49967723  1
  O2-  O329  1  -0.00216051  0.82590365  0.82846053  1
  O2-  O330  1  0.32520203  0.32505497  0.15910156  1
  O2-  O331  1  0.32961408  0.32830291  0.49601851  1
  O2-  O332  1  0.33437383  0.31771038  0.83183463  1
  O2-  O333  1  0.33223693  0.82980173  0.16657194  1
  O2-  O334  1  0.33320575  0.81579118  0.50532962  1
  O2-  O335  1  0.32988424  0.82403838  0.83056644  1
  O2-  O336  1  0.66202458  0.32887829  0.16083307  1
  O2-  O337  1  0.67099303  0.32410674  0.50501920  1
  O2-  O338  1  0.66584842  0.31454972  0.83213744  1
  O2-  O339  1  0.66450994  0.82191779  0.15797240  1
  O2-  O340  1  0.66471283  0.83241627  0.49851727  1
  O2-  O341  1  0.66388646  0.82130523  0.82876823  1
  O2-  O342  1  0.16901587  0.32386902  0.16223780  1
  O2-  O343  1  0.16560871  0.33019963  0.50103681  1
  O2-  O344  1  0.17240770  0.32914930  0.83335138  1
  O2-  O345  1  0.16935593  0.82607174  0.16260884  1
  O2-  O346  1  0.16530787  0.82310582  0.50295036  1
  O2-  O347  1  0.16905595  0.82417195  0.82810768  1
  O2-  O348  1  0.49624747  0.32159518  0.16702107  1
  O2-  O349  1  0.50303724  0.32815423  0.49647362  1
  O2-  O350  1  0.49735133  0.31750512  0.83786778  1
  O2-  O351  1  0.50120072  0.83099040  0.16601068  1
  O2-  O352  1  0.50180294  0.83262930  0.49976530  1
  O2-  O353  1  0.50509350  0.82669190  0.82838674  1
  O2-  O354  1  0.83743436  0.32777540  0.16072416  1
  O2-  O355  1  0.83479196  0.31586461  0.49773506  1
  O2-  O356  1  0.83241788  0.32285677  0.83056435  1
  O2-  O357  1  0.83308320  0.80837492  0.16881347  1
  O2-  O358  1  0.83384991  0.82828600  0.50059956  1
  O2-  O359  1  0.83633448  0.82480567  0.82821789  1
  O2-  O360  1  0.09161048  0.07678084  0.10887180  1
  O2-  O361  1  0.08587179  0.08086934  0.44289221  1
  O2-  O362  1  0.08438209  0.07964606  0.78782966  1
  O2-  O363  1  0.09337680  0.58020638  0.10865647  1
  O2-  O364  1  0.08193625  0.58191392  0.44109457  1
  O2-  O365  1  0.08274855  0.58322012  0.77262440  1
  O2-  O366  1  0.41774703  0.08484085  0.10378472  1
  O2-  O367  1  0.40207647  0.07856047  0.43878289  1
  O2-  O368  1  0.42166321  0.08053317  0.77879469  1
  O2-  O369  1  0.40738759  0.58342643  0.10540024  1
  O2-  O370  1  0.42859516  0.57921045  0.44067281  1
  O2-  O371  1  0.41587664  0.58427483  0.76647790  1
  O2-  O372  1  0.74424791  0.07494350  0.11188799  1
  O2-  O373  1  0.76138058  0.08371110  0.42785427  1
  O2-  O374  1  0.75348968  0.08444561  0.77037809  1
  O2-  O375  1  0.74217397  0.58170245  0.10346771  1
  O2-  O376  1  0.74694052  0.58092383  0.44452061  1
  O2-  O377  1  0.75208761  0.58178881  0.77673279  1
  O2-  O378  1  0.25116967  0.08189091  0.21279239  1
  O2-  O379  1  0.27572437  0.06820272  0.55480030  1
  O2-  O380  1  0.24798169  0.08597545  0.90591936  1
  O2-  O381  1  0.24494698  0.57473095  0.21193799  1
  O2-  O382  1  0.23578353  0.58202462  0.54808861  1
  O2-  O383  1  0.23058027  0.57988482  0.90719732  1
  O2-  O384  1  0.58121460  0.08370818  0.22372322  1
  O2-  O385  1  0.55320171  0.08154899  0.56872577  1
  O2-  O386  1  0.57066467  0.07942727  0.89697891  1
  O2-  O387  1  0.59309999  0.58054716  0.22118091  1
  O2-  O388  1  0.59277858  0.57191172  0.54795025  1
  O2-  O389  1  0.59651463  0.57954384  0.89662073  1
  O2-  O390  1  0.91071484  0.07386291  0.23015484  1
  O2-  O391  1  0.92140558  0.08541445  0.56650273  1
  O2-  O392  1  0.92951394  0.08180998  0.87868236  1
  O2-  O393  1  0.91567604  0.58039231  0.23183419  1
  O2-  O394  1  0.92679448  0.58171798  0.55427332  1
  O2-  O395  1  0.91505372  0.57964732  0.89275204  1
  O2-  O396  1  0.09750071  0.42028465  0.10442387  1
  O2-  O397  1  0.06817090  0.41703535  0.43937145  1
  O2-  O398  1  0.08366880  0.41631010  0.76969473  1
  O2-  O399  1  0.09734139  0.92337463  0.10490695  1
  O2-  O400  1  0.08263776  0.92059240  0.44179907  1
  O2-  O401  1  0.08730762  0.91508775  0.76240883  1
  O2-  O402  1  0.40621773  0.41739688  0.10051258  1
  O2-  O403  1  0.41560976  0.41610995  0.41945859  1
  O2-  O404  1  0.40357684  0.41840118  0.78579684  1
  O2-  O405  1  0.41435064  0.91708403  0.10299304  1
  O2-  O406  1  0.41730178  0.92271403  0.44907532  1
  O2-  O407  1  0.40940607  0.91778735  0.75680805  1
  O2-  O408  1  0.74938149  0.41621682  0.08553903  1
  O2-  O409  1  0.76183448  0.41417568  0.44187759  1
  O2-  O410  1  0.75002653  0.41928498  0.76956423  1
  O2-  O411  1  0.73502470  0.92566504  0.10489511  1
  O2-  O412  1  0.73847391  0.92481492  0.44795855  1
  O2-  O413  1  0.74639184  0.91559208  0.76550569  1
  O2-  O414  1  0.25199251  0.42245138  0.22082727  1
  O2-  O415  1  0.24595801  0.41989792  0.56363814  1
  O2-  O416  1  0.26537693  0.41679685  0.89709543  1
  O2-  O417  1  0.25732656  0.92024938  0.22119413  1
  O2-  O418  1  0.26634493  0.91713854  0.55702355  1
  O2-  O419  1  0.25048738  0.91749393  0.89434457  1
  O2-  O420  1  0.57005366  0.41974937  0.22730373  1
  O2-  O421  1  0.59412581  0.41883247  0.56494675  1
  O2-  O422  1  0.57162204  0.41891633  0.88381961  1
  O2-  O423  1  0.58383565  0.91853100  0.21991007  1
  O2-  O424  1  0.57957231  0.92784397  0.55226739  1
  O2-  O425  1  0.58910730  0.91908669  0.90338290  1
  O2-  O426  1  0.92538250  0.41859456  0.22805342  1
  O2-  O427  1  0.91334488  0.41625869  0.55411416  1
  O2-  O428  1  0.91640232  0.41981844  0.89814082  1
  O2-  O429  1  0.91693781  0.91920438  0.23878352  1
  O2-  O430  1  0.91736499  0.92010507  0.56025397  1
  O2-  O431  1  0.91510548  0.91880795  0.89443546  1
  O2-  O432  1  0.00413880  0.01113596  -0.00842781  1
  O2-  O433  1  -0.00448517  0.00640446  0.33744845  1
  O2-  O434  1  -0.00635584  0.01107329  0.68152544  1
  O2-  O435  1  0.02649244  0.50508461  -0.03763543  1
  O2-  O436  1  -0.00431524  0.49752064  0.32959519  1
  O2-  O437  1  0.00305186  0.50527683  0.65841215  1
  O2-  O438  1  0.33150546  0.00249000  0.00119206  1
  O2-  O439  1  0.33746790  -0.00191867  0.32891399  1
  O2-  O440  1  0.34301064  -0.00550366  0.66163539  1
  O2-  O441  1  0.33323835  0.50347630  0.00516837  1
  O2-  O442  1  0.32494367  0.49909555  0.34369593  1
  O2-  O443  1  0.31515511  0.49171391  0.69529922  1
  O2-  O444  1  0.65327025  0.00237540  0.02268598  1
  O2-  O445  1  0.66114017  -0.00495597  0.34746393  1
  O2-  O446  1  0.66701860  -0.00251987  0.66747318  1
  O2-  O447  1  0.66651663  0.50242782  0.00527660  1
  O2-  O448  1  0.66892224  0.51247156  0.33215591  1
  O2-  O449  1  0.67237811  0.50969095  0.65605989  1
  O2-  O450  1  0.17309781  0.00254297  0.00985514  1
  O2-  O451  1  0.18141184  0.00435580  0.35987845  1
  O2-  O452  1  0.15924229  -0.00466904  0.65357870  1
  O2-  O453  1  0.18210283  0.49945011  0.01155419  1
  O2-  O454  1  0.16262246  0.50589900  0.32455280  1
  O2-  O455  1  0.15971869  0.50720188  0.64924862  1
  O2-  O456  1  0.50075489  0.00277048  0.00414711  1
  O2-  O457  1  0.50067707  -0.00828393  0.33258490  1
  O2-  O458  1  0.49898928  -0.01140444  0.66482786  1
  O2-  O459  1  0.50320568  0.48989786  -0.00136235  1
  O2-  O460  1  0.51400745  0.50386427  0.34806122  1
  O2-  O461  1  0.51461444  0.49619146  0.68738838  1
  O2-  O462  1  0.83830629  0.00174283  -0.00240825  1
  O2-  O463  1  0.83732078  0.00109802  0.34400318  1
  O2-  O464  1  0.84077156  0.00211205  0.68845487  1
  O2-  O465  1  0.82159838  0.49793219  -0.01719958  1
  O2-  O466  1  0.83539591  0.50433824  0.33364297  1
  O2-  O467  1  0.83135522  0.51296392  0.66307132  1
  O2-  O468  1  0.58086845  0.24887067  0.58319131  1
  O2-  O469  1  0.75288889  0.24894837  0.07645575  1
  O2-  O470  1  0.57974323  0.74862045  0.26796150  1
  O2-  O471  1  0.91943339  0.24965802  0.91847704  1
  O2-  O472  1  0.58242234  0.25233447  0.24830554  1
  O2-  O473  1  0.24634586  0.25022606  0.26711198  1
  O2-  O474  1  0.41538966  0.25297600  0.41036303  1
  O2-  O475  1  0.08314937  0.25301578  0.74100229  1
  O2-  O476  1  0.07600387  0.74893278  0.73533941  1
  O2-  O477  1  0.57785530  0.74679235  0.92837031  1
  O2-  O478  1  0.08739716  0.74999493  0.40386951  1
  O2-  O479  1  0.08847211  0.24990089  0.40249015  1
  O2-  O480  1  0.75065396  0.74873132  0.73213980  1
  O2-  O481  1  0.41684333  0.75033882  0.07567666  1
  O2-  O482  1  0.92194135  0.74903342  0.91714009  1
  O2-  O483  1  0.74101477  0.75024484  0.41319656  1
  O2-  O484  1  0.58526857  0.75127403  0.58980238  1
  O2-  O485  1  0.24512199  0.25395426  0.58783953  1
  O2-  O486  1  0.08552078  0.74832112  0.06954034  1
  O2-  O487  1  0.25146411  0.75073834  0.26531166  1
  O2-  O488  1  0.42459815  0.75159591  0.73902517  1
  O2-  O489  1  0.42211094  0.74590302  0.40144939  1
  O2-  O490  1  0.91482249  0.75187820  0.59432772  1
  O2-  O491  1  0.24816681  0.75309813  0.92559793  1
  O2-  O492  1  0.91373720  0.25324231  0.25770027  1
