# generated using pymatgen
data_Ca108Mn108O277
_symmetry_space_group_name_H-M   'P 1'
_cell_length_a   16.03136416
_cell_length_b   22.31142604
_cell_length_c   16.39060200
_cell_angle_alpha   90.00689590
_cell_angle_beta   89.99666695
_cell_angle_gamma   89.99514853
_symmetry_Int_Tables_number   1
_chemical_formula_structural   Ca108Mn108O277
_chemical_formula_sum   'Ca108 Mn108 O277'
_cell_volume   5862.63299689
_cell_formula_units_Z   1
loop_
 _symmetry_equiv_pos_site_id
 _symmetry_equiv_pos_as_xyz
  1  'x, y, z'
loop_
 _atom_type_symbol
 _atom_type_oxidation_number
  Ca2+  2.0
  Mn3.34+  3.34
  O2-  -2.0
loop_
 _atom_site_type_symbol
 _atom_site_label
 _atom_site_symmetry_multiplicity
 _atom_site_fract_x
 _atom_site_fract_y
 _atom_site_fract_z
 _atom_site_occupancy
  Ca2+  Ca0  1  0.07269632  0.25078148  0.23371762  1
  Ca2+  Ca1  1  0.07402317  0.26295337  0.58356329  1
  Ca2+  Ca2  1  0.06951515  0.23286071  0.91904837  1
  Ca2+  Ca3  1  0.07890166  0.75466326  0.24418931  1
  Ca2+  Ca4  1  0.09694021  0.74630172  0.58565903  1
  Ca2+  Ca5  1  0.09322435  0.75429190  0.91992466  1
  Ca2+  Ca6  1  0.41815570  0.25168280  0.27254925  1
  Ca2+  Ca7  1  0.43235537  0.25699879  0.58384806  1
  Ca2+  Ca8  1  0.40949584  0.25499940  0.91192559  1
  Ca2+  Ca9  1  0.44945218  0.74290779  0.25674852  1
  Ca2+  Ca10  1  0.40738962  0.74092972  0.57588877  1
  Ca2+  Ca11  1  0.40146268  0.75168367  0.91375912  1
  Ca2+  Ca12  1  0.76419880  0.25062450  0.26430999  1
  Ca2+  Ca13  1  0.74002809  0.25546766  0.58445755  1
  Ca2+  Ca14  1  0.76778269  0.24815126  0.91493127  1
  Ca2+  Ca15  1  0.73370507  0.74018384  0.24376540  1
  Ca2+  Ca16  1  0.74906162  0.73809358  0.57164196  1
  Ca2+  Ca17  1  0.75124795  0.74814786  0.93367355  1
  Ca2+  Ca18  1  0.23036313  0.24952143  0.06774940  1
  Ca2+  Ca19  1  0.27679458  0.25292339  0.42055067  1
  Ca2+  Ca20  1  0.25338286  0.26089386  0.75456383  1
  Ca2+  Ca21  1  0.23625069  0.74776647  0.06887864  1
  Ca2+  Ca22  1  0.26021964  0.74860277  0.44003775  1
  Ca2+  Ca23  1  0.24879827  0.75425248  0.74989217  1
  Ca2+  Ca24  1  0.59521991  0.26301283  0.08086033  1
  Ca2+  Ca25  1  0.58808807  0.25648577  0.44196595  1
  Ca2+  Ca26  1  0.58415564  0.25703133  0.73974587  1
  Ca2+  Ca27  1  0.60504414  0.73963877  0.09968390  1
  Ca2+  Ca28  1  0.58469145  0.73969544  0.41210229  1
  Ca2+  Ca29  1  0.58205973  0.74984162  0.73925311  1
  Ca2+  Ca30  1  0.91817280  0.23424621  0.06518728  1
  Ca2+  Ca31  1  0.88799181  0.24875904  0.42147843  1
  Ca2+  Ca32  1  0.91329702  0.26442624  0.75585528  1
  Ca2+  Ca33  1  0.90492840  0.74712738  0.08927262  1
  Ca2+  Ca34  1  0.90426237  0.75344407  0.41998867  1
  Ca2+  Ca35  1  0.92321269  0.76194134  0.74420154  1
  Ca2+  Ca36  1  0.25318457  0.58458455  0.74581522  1
  Ca2+  Ca37  1  0.76774454  0.09452328  0.23806799  1
  Ca2+  Ca38  1  0.07492434  0.59725824  0.25343072  1
  Ca2+  Ca39  1  0.55080761  0.10536360  0.43761997  1
  Ca2+  Ca40  1  0.59805526  0.08431108  0.05314267  1
  Ca2+  Ca41  1  0.41485317  0.58319612  0.93301661  1
  Ca2+  Ca42  1  0.79058256  0.08064891  0.92900489  1
  Ca2+  Ca43  1  0.25790846  0.11466830  0.80108481  1
  Ca2+  Ca44  1  0.53870965  0.10423496  0.44069666  1
  Ca2+  Ca45  1  0.26922028  0.60465113  0.43155940  1
  Ca2+  Ca46  1  0.07113985  0.60434979  0.57285403  1
  Ca2+  Ca47  1  0.91647704  0.10956386  0.77102949  1
  Ca2+  Ca48  1  0.74216032  0.58627687  0.93385347  1
  Ca2+  Ca49  1  0.40628925  0.08929152  0.26078089  1
  Ca2+  Ca50  1  0.58269497  0.60117908  0.43115119  1
  Ca2+  Ca51  1  0.74140069  0.10343879  0.57849970  1
  Ca2+  Ca52  1  0.28102255  0.08372474  0.40157709  1
  Ca2+  Ca53  1  0.60977416  0.08124200  0.05579491  1
  Ca2+  Ca54  1  0.07144283  0.08639231  0.58605404  1
  Ca2+  Ca55  1  0.91047637  0.60648018  0.42887863  1
  Ca2+  Ca56  1  0.42769897  0.58235596  0.93222870  1
  Ca2+  Ca57  1  0.74003939  0.60633612  0.24464860  1
  Ca2+  Ca58  1  0.24064981  0.58346619  0.74828165  1
  Ca2+  Ca59  1  0.90323657  0.09852188  0.41144521  1
  Ca2+  Ca60  1  0.90113513  0.60482728  0.43325980  1
  Ca2+  Ca61  1  0.29274150  0.08578461  0.40492553  1
  Ca2+  Ca62  1  0.92510512  0.10834765  0.76550876  1
  Ca2+  Ca63  1  0.78138719  0.08398026  0.93088684  1
  Ca2+  Ca64  1  0.43237359  0.59254584  0.26202075  1
  Ca2+  Ca65  1  0.91163624  0.09421505  0.41465967  1
  Ca2+  Ca66  1  0.89920060  0.59408746  0.09386610  1
  Ca2+  Ca67  1  0.45122468  0.59006363  0.57192859  1
  Ca2+  Ca68  1  0.22778968  0.08935748  0.03103930  1
  Ca2+  Ca69  1  0.60187352  0.60713730  0.09047722  1
  Ca2+  Ca70  1  0.59936374  0.57416080  0.71273994  1
  Ca2+  Ca71  1  0.72888407  0.58529814  0.56851260  1
  Ca2+  Ca72  1  0.75502708  0.40505825  0.90059089  1
  Ca2+  Ca73  1  0.75802962  0.90120932  0.59445597  1
  Ca2+  Ca74  1  0.42892220  0.90028758  0.56781562  1
  Ca2+  Ca75  1  0.23122826  0.91158969  0.07035660  1
  Ca2+  Ca76  1  0.90604987  0.40689943  0.42371014  1
  Ca2+  Ca77  1  0.08863042  0.40415029  0.24569516  1
  Ca2+  Ca78  1  0.93552220  0.90801294  0.41627550  1
  Ca2+  Ca79  1  0.41011122  0.91928993  0.28536253  1
  Ca2+  Ca80  1  0.58273119  0.40816996  0.06557198  1
  Ca2+  Ca81  1  0.39888589  0.92015913  0.28569927  1
  Ca2+  Ca82  1  0.76472244  0.90126526  0.24383848  1
  Ca2+  Ca83  1  0.89560556  0.93011885  0.05492256  1
  Ca2+  Ca84  1  0.08426777  0.39797705  0.91212842  1
  Ca2+  Ca85  1  0.23651884  0.90446545  0.41109770  1
  Ca2+  Ca86  1  0.73101627  0.42451048  0.61092535  1
  Ca2+  Ca87  1  0.07781492  0.89626388  0.57348384  1
  Ca2+  Ca88  1  0.25190860  0.90495373  0.76595227  1
  Ca2+  Ca89  1  0.24634751  0.40579028  0.07338596  1
  Ca2+  Ca90  1  0.74518025  0.90148283  0.59493800  1
  Ca2+  Ca91  1  0.60838220  0.90230988  0.07333435  1
  Ca2+  Ca92  1  0.75377730  0.41085663  0.25723088  1
  Ca2+  Ca93  1  0.91959590  0.41040071  0.07470546  1
  Ca2+  Ca94  1  0.59766761  0.90036044  0.07666396  1
  Ca2+  Ca95  1  0.24232277  0.91269127  0.07113714  1
  Ca2+  Ca96  1  0.07649642  0.40683603  0.59329998  1
  Ca2+  Ca97  1  0.07108937  0.91457816  0.92486622  1
  Ca2+  Ca98  1  0.76297054  0.91204256  0.90657992  1
  Ca2+  Ca99  1  0.08296154  0.91843373  0.27691201  1
  Ca2+  Ca100  1  0.40762900  0.90513443  0.92316536  1
  Ca2+  Ca101  1  0.39571625  0.41038467  0.26534682  1
  Ca2+  Ca102  1  0.76494796  0.41076183  0.25589680  1
  Ca2+  Ca103  1  0.58548155  0.90064109  0.74907839  1
  Ca2+  Ca104  1  0.25438531  0.39590523  0.41684484  1
  Ca2+  Ca105  1  0.88788781  0.93513556  0.05332155  1
  Ca2+  Ca106  1  0.89690329  0.40854017  0.42839540  1
  Ca2+  Ca107  1  0.40694881  0.41054543  0.26467437  1
  Mn3.34+  Mn108  1  0.08064983  0.33336833  0.07984851  1
  Mn3.34+  Mn109  1  0.08527494  0.33183486  0.41746558  1
  Mn3.34+  Mn110  1  0.08526005  0.33351467  0.75256172  1
  Mn3.34+  Mn111  1  0.07411908  0.83375090  0.08902900  1
  Mn3.34+  Mn112  1  0.08431831  0.82747426  0.41855459  1
  Mn3.34+  Mn113  1  0.08278495  0.83565271  0.75103958  1
  Mn3.34+  Mn114  1  0.41566580  0.33512340  0.08165959  1
  Mn3.34+  Mn115  1  0.42646169  0.33827976  0.42926073  1
  Mn3.34+  Mn116  1  0.41691986  0.33801901  0.75225092  1
  Mn3.34+  Mn117  1  0.41806513  0.82717104  0.09150577  1
  Mn3.34+  Mn118  1  0.41784647  0.83053219  0.42026356  1
  Mn3.34+  Mn119  1  0.41673412  0.83484507  0.74845938  1
  Mn3.34+  Mn120  1  0.75223439  0.33351531  0.08240348  1
  Mn3.34+  Mn121  1  0.73909061  0.33708773  0.42511515  1
  Mn3.34+  Mn122  1  0.74564126  0.33793715  0.75097311  1
  Mn3.34+  Mn123  1  0.75672223  0.82872823  0.08652549  1
  Mn3.34+  Mn124  1  0.74568374  0.83066056  0.41449383  1
  Mn3.34+  Mn125  1  0.75244921  0.82708755  0.75745395  1
  Mn3.34+  Mn126  1  0.24607211  0.32736906  0.24244637  1
  Mn3.34+  Mn127  1  0.25468974  0.33463886  0.58950245  1
  Mn3.34+  Mn128  1  0.25221128  0.33754740  0.91038146  1
  Mn3.34+  Mn129  1  0.25018399  0.82890515  0.24527554  1
  Mn3.34+  Mn130  1  0.25258361  0.83266838  0.58821550  1
  Mn3.34+  Mn131  1  0.24673761  0.83401781  0.91376913  1
  Mn3.34+  Mn132  1  0.58265339  0.33782632  0.25019481  1
  Mn3.34+  Mn133  1  0.57847554  0.34974664  0.59179180  1
  Mn3.34+  Mn134  1  0.58007658  0.33851431  0.90583345  1
  Mn3.34+  Mn135  1  0.58610149  0.83278573  0.25382339  1
  Mn3.34+  Mn136  1  0.58326213  0.82746000  0.57787672  1
  Mn3.34+  Mn137  1  0.58231493  0.82800718  0.91058545  1
  Mn3.34+  Mn138  1  0.92051896  0.33302667  0.24798341  1
  Mn3.34+  Mn139  1  0.91145798  0.33632362  0.59197286  1
  Mn3.34+  Mn140  1  0.91774999  0.33423491  0.91399650  1
  Mn3.34+  Mn141  1  0.91784688  0.83633203  0.24981021  1
  Mn3.34+  Mn142  1  0.91764743  0.82700817  0.58172591  1
  Mn3.34+  Mn143  1  0.91856510  0.83378819  0.91432014  1
  Mn3.34+  Mn144  1  0.91330542  0.16869841  0.58540059  1
  Mn3.34+  Mn145  1  0.58426869  0.16438890  0.90292614  1
  Mn3.34+  Mn146  1  0.25789925  0.67508315  0.24437584  1
  Mn3.34+  Mn147  1  0.59202860  0.16857252  0.25094498  1
  Mn3.34+  Mn148  1  0.74475772  0.66719279  0.41723197  1
  Mn3.34+  Mn149  1  0.91639795  0.67026597  0.24771144  1
  Mn3.34+  Mn150  1  0.41680777  0.66468374  0.74862427  1
  Mn3.34+  Mn151  1  0.08325802  0.67878151  0.41670057  1
  Mn3.34+  Mn152  1  0.08768217  0.17345849  0.75280432  1
  Mn3.34+  Mn153  1  0.24851487  0.66948354  0.24295987  1
  Mn3.34+  Mn154  1  0.24706067  0.16603667  0.59259153  1
  Mn3.34+  Mn155  1  0.42244976  0.66598653  0.42165280  1
  Mn3.34+  Mn156  1  0.26029113  0.16007869  0.58962967  1
  Mn3.34+  Mn157  1  0.75601663  0.17022147  0.08421158  1
  Mn3.34+  Mn158  1  0.58609859  0.66816113  0.90864209  1
  Mn3.34+  Mn159  1  0.58154758  0.16420327  0.24771039  1
  Mn3.34+  Mn160  1  0.08054598  0.66498714  0.08402260  1
  Mn3.34+  Mn161  1  0.24556736  0.16609767  0.24060953  1
  Mn3.34+  Mn162  1  0.24261675  0.66152200  0.92363414  1
  Mn3.34+  Mn163  1  0.41848860  0.17139721  0.07831752  1
  Mn3.34+  Mn164  1  0.08257935  0.66440967  0.75073025  1
  Mn3.34+  Mn165  1  0.76220714  0.65347155  0.74808906  1
  Mn3.34+  Mn166  1  0.42726648  0.66011769  0.75090611  1
  Mn3.34+  Mn167  1  0.07788711  0.16399483  0.08063038  1
  Mn3.34+  Mn168  1  0.57814884  0.16913798  0.59303004  1
  Mn3.34+  Mn169  1  0.07198239  0.65917844  0.75109432  1
  Mn3.34+  Mn170  1  0.41802899  0.66822363  0.08477582  1
  Mn3.34+  Mn171  1  0.91525269  0.66424363  0.91644743  1
  Mn3.34+  Mn172  1  0.42058046  0.17356753  0.75782331  1
  Mn3.34+  Mn173  1  0.91994573  0.16664064  0.24339927  1
  Mn3.34+  Mn174  1  0.09214609  0.16051521  0.41674453  1
  Mn3.34+  Mn175  1  0.07982580  0.16733544  0.41398046  1
  Mn3.34+  Mn176  1  0.74413470  0.16900239  0.75309087  1
  Mn3.34+  Mn177  1  0.75576034  0.66397687  0.75217624  1
  Mn3.34+  Mn178  1  0.40751840  0.16669097  0.07998316  1
  Mn3.34+  Mn179  1  0.92525580  0.65859307  0.91609828  1
  Mn3.34+  Mn180  1  0.26076572  0.00046017  0.58926258  1
  Mn3.34+  Mn181  1  0.24751215  -0.00633638  0.58892599  1
  Mn3.34+  Mn182  1  0.92516075  0.00211782  0.25235344  1
  Mn3.34+  Mn183  1  0.58469034  0.50560855  0.26246347  1
  Mn3.34+  Mn184  1  0.58399784  0.50043096  0.91281872  1
  Mn3.34+  Mn185  1  0.08360870  0.49856123  0.42028532  1
  Mn3.34+  Mn186  1  0.43313897  0.00741887  0.75273763  1
  Mn3.34+  Mn187  1  0.92184862  0.50056648  0.91878152  1
  Mn3.34+  Mn188  1  0.09806393  0.50487744  0.41900252  1
  Mn3.34+  Mn189  1  0.41548537  0.50126259  0.08351099  1
  Mn3.34+  Mn190  1  0.24694286  0.50294044  0.24097223  1
  Mn3.34+  Mn191  1  0.58407763  -0.00393884  0.58287542  1
  Mn3.34+  Mn192  1  0.91487713  0.50181799  0.61356842  1
  Mn3.34+  Mn193  1  0.58679276  -0.00199191  0.90979594  1
  Mn3.34+  Mn194  1  0.25021058  0.49842741  0.58917444  1
  Mn3.34+  Mn195  1  0.08260069  0.50399838  0.07693203  1
  Mn3.34+  Mn196  1  0.24500604  0.49908631  0.92654112  1
  Mn3.34+  Mn197  1  0.73949164  -0.00955863  0.41555929  1
  Mn3.34+  Mn198  1  0.07869050  0.00544203  0.08479323  1
  Mn3.34+  Mn199  1  0.08910538  0.00787070  0.76098720  1
  Mn3.34+  Mn200  1  0.07170245  0.49522740  0.74838584  1
  Mn3.34+  Mn201  1  0.91694601  0.50067291  0.25139830  1
  Mn3.34+  Mn202  1  0.23456042  0.00457088  0.24934654  1
  Mn3.34+  Mn203  1  0.26075212  0.49298271  0.58964425  1
  Mn3.34+  Mn204  1  0.74862042  0.00179332  0.74356653  1
  Mn3.34+  Mn205  1  0.42952652  0.48852365  0.73691792  1
  Mn3.34+  Mn206  1  0.07719613  0.00127543  0.76026470  1
  Mn3.34+  Mn207  1  0.75372977  -0.00409410  0.41265774  1
  Mn3.34+  Mn208  1  0.59566265  -0.00251539  0.24839734  1
  Mn3.34+  Mn209  1  0.91755419  -0.00191436  0.58462771  1
  Mn3.34+  Mn210  1  0.74642731  0.49880446  0.07250606  1
  Mn3.34+  Mn211  1  0.42388986  -0.00241035  0.08676873  1
  Mn3.34+  Mn212  1  0.59294335  0.49803845  0.26881326  1
  Mn3.34+  Mn213  1  0.58176619  0.00398137  0.24668619  1
  Mn3.34+  Mn214  1  0.40894068  0.00327326  0.08721745  1
  Mn3.34+  Mn215  1  0.42316099  0.01172346  0.75054854  1
  O2-  O216  1  0.00112574  0.15770582  0.00480376  1
  O2-  O217  1  0.00071401  0.14589909  0.32943708  1
  O2-  O218  1  0.00241580  0.14978940  0.66355164  1
  O2-  O219  1  -0.00819046  0.64733467  0.01161513  1
  O2-  O220  1  -0.00114384  0.67653997  0.33299316  1
  O2-  O221  1  -0.00164017  0.66908361  0.66604305  1
  O2-  O222  1  0.32579224  0.17546841  0.00145188  1
  O2-  O223  1  0.32964603  0.16238304  0.32400492  1
  O2-  O224  1  0.33497271  0.14698298  0.67361264  1
  O2-  O225  1  0.34081846  0.66102655  -0.00590240  1
  O2-  O226  1  0.33669152  0.65950032  0.32707308  1
  O2-  O227  1  0.34103928  0.63696358  0.66961997  1
  O2-  O228  1  0.66203791  0.16960942  0.00585133  1
  O2-  O229  1  0.66060622  0.13451070  0.32963760  1
  O2-  O230  1  0.67083873  0.16112091  0.66495459  1
  O2-  O231  1  0.66261951  0.66595748  -0.01139649  1
  O2-  O232  1  0.66658531  0.65298378  0.34170028  1
  O2-  O233  1  0.67455817  0.66929806  0.66940696  1
  O2-  O234  1  0.16138560  0.17257384  0.00516168  1
  O2-  O235  1  0.17751716  0.15665870  0.33968834  1
  O2-  O236  1  0.17117137  0.13975271  0.67115788  1
  O2-  O237  1  0.16184990  0.66200743  0.00232110  1
  O2-  O238  1  0.16719946  0.67675152  0.32915503  1
  O2-  O239  1  0.16462471  0.64618193  0.67013593  1
  O2-  O240  1  0.50274244  0.14831494  -0.00132836  1
  O2-  O241  1  0.49720805  0.15223281  0.32611566  1
  O2-  O242  1  0.50195344  0.16542434  0.67689682  1
  O2-  O243  1  0.49748456  0.66668025  -0.00785668  1
  O2-  O244  1  0.50075808  0.65790333  0.34040221  1
  O2-  O245  1  0.50847019  0.66236537  0.67078185  1
  O2-  O246  1  0.83063759  0.15938522  0.00392435  1
  O2-  O247  1  0.83818402  0.15783102  0.32987482  1
  O2-  O248  1  0.83485466  0.14686032  0.66943357  1
  O2-  O249  1  0.83159613  0.65183920  -0.00684885  1
  O2-  O250  1  0.83635389  0.66265956  0.33364810  1
  O2-  O251  1  0.82931479  0.70012617  0.67652714  1
  O2-  O252  1  -0.00051751  0.34966944  0.00091162  1
  O2-  O253  1  -0.00464765  0.36090673  0.33753321  1
  O2-  O254  1  -0.00070602  0.34289453  0.66781173  1
  O2-  O255  1  -0.01005314  0.85626397  0.01247268  1
  O2-  O256  1  0.00193530  0.82639307  0.33334770  1
  O2-  O257  1  0.00384823  0.82915365  0.65925247  1
  O2-  O258  1  0.32577047  0.32597632  0.00509628  1
  O2-  O259  1  0.32634540  0.32792537  0.32661223  1
  O2-  O260  1  0.33069405  0.34281474  0.67156459  1
  O2-  O261  1  0.32867080  0.83800112  0.00917503  1
  O2-  O262  1  0.32562243  0.84171120  0.33492432  1
  O2-  O263  1  0.33617260  0.86049844  0.66596532  1
  O2-  O264  1  0.66658661  0.33419389  0.00230479  1
  O2-  O265  1  0.67030694  0.35022973  0.32741573  1
  O2-  O266  1  0.66532692  0.33543085  0.66731436  1
  O2-  O267  1  0.67196854  0.83989749  -0.00795361  1
  O2-  O268  1  0.67259907  0.85525685  0.32715067  1
  O2-  O269  1  0.66825813  0.82561469  0.66738548  1
  O2-  O270  1  0.16658152  0.33627886  -0.00030482  1
  O2-  O271  1  0.16365993  0.33931003  0.32761048  1
  O2-  O272  1  0.16168637  0.34433019  0.66143074  1
  O2-  O273  1  0.15729464  0.84649585  -0.00259178  1
  O2-  O274  1  0.16305696  0.82857916  0.32790651  1
  O2-  O275  1  0.16779116  0.85515528  0.66693370  1
  O2-  O276  1  0.50511347  0.33931043  0.00044698  1
  O2-  O277  1  0.49567477  0.34761162  0.32792005  1
  O2-  O278  1  0.49916492  0.33730708  0.66927103  1
  O2-  O279  1  0.50155744  0.83575083  0.00178098  1
  O2-  O280  1  0.49365891  0.84628408  0.32639935  1
  O2-  O281  1  0.50504105  0.83789574  0.66694400  1
  O2-  O282  1  0.83252111  0.35100502  0.00098717  1
  O2-  O283  1  0.83486744  0.34425931  0.33436291  1
  O2-  O284  1  0.82367130  0.34192163  0.66063107  1
  O2-  O285  1  0.83432158  0.84517475  0.00231758  1
  O2-  O286  1  0.84321158  0.84917430  0.34113122  1
  O2-  O287  1  0.83082558  0.83003130  0.66572440  1
  O2-  O288  1  -0.00312242  0.18226498  0.16522474  1
  O2-  O289  1  -0.00542149  0.17541258  0.49491820  1
  O2-  O290  1  -0.00453779  0.18576960  0.81681890  1
  O2-  O291  1  0.00201380  0.68448404  0.17036358  1
  O2-  O292  1  -0.00400196  0.68089408  0.49094931  1
  O2-  O293  1  0.00138360  0.68672543  0.83682197  1
  O2-  O294  1  0.33759813  0.18852265  0.16896671  1
  O2-  O295  1  0.31724228  0.17086838  0.49269233  1
  O2-  O296  1  0.33600502  0.19174775  0.82945532  1
  O2-  O297  1  0.33217958  0.69359655  0.15979673  1
  O2-  O298  1  0.33547989  0.67719842  0.49672648  1
  O2-  O299  1  0.33375299  0.67319605  0.82959934  1
  O2-  O300  1  0.66832846  0.18223978  0.16710010  1
  O2-  O301  1  0.65078171  0.16621073  0.50084684  1
  O2-  O302  1  0.67041145  0.18918240  0.83759227  1
  O2-  O303  1  0.67095979  0.67200065  0.16712900  1
  O2-  O304  1  0.66810651  0.67511206  0.49646687  1
  O2-  O305  1  0.66954153  0.69153299  0.82856751  1
  O2-  O306  1  0.16654904  0.19099419  0.16858857  1
  O2-  O307  1  0.15726553  0.17836579  0.51548172  1
  O2-  O308  1  0.16643222  0.18840534  0.82665714  1
  O2-  O309  1  0.16451332  0.68962417  0.16771112  1
  O2-  O310  1  0.16120596  0.68602219  0.49357746  1
  O2-  O311  1  0.17092434  0.67207433  0.82498847  1
  O2-  O312  1  0.50006440  0.17569350  0.16514495  1
  O2-  O313  1  0.49738504  0.17797784  0.50976004  1
  O2-  O314  1  0.50262682  0.19452722  0.83700690  1
  O2-  O315  1  0.49890013  0.68529779  0.15476942  1
  O2-  O316  1  0.49972584  0.67831074  0.49978747  1
  O2-  O317  1  0.49791691  0.69059129  0.83253007  1
  O2-  O318  1  0.82813623  0.18020373  0.17406809  1
  O2-  O319  1  0.83669591  0.17350952  0.50460225  1
  O2-  O320  1  0.82942608  0.16890369  0.83397078  1
  O2-  O321  1  0.83789220  0.68015570  0.17335537  1
  O2-  O322  1  0.83505265  0.68011658  0.49430667  1
  O2-  O323  1  0.83342023  0.68859738  0.83232342  1
  O2-  O324  1  0.00278467  0.33030854  0.16917225  1
  O2-  O325  1  -0.00403894  0.33123513  0.49693506  1
  O2-  O326  1  0.00627843  0.31965172  0.83824646  1
  O2-  O327  1  -0.00412936  0.81349802  0.17070164  1
  O2-  O328  1  0.00051811  0.81064711  0.49830830  1
  O2-  O329  1  0.00682855  0.81892460  0.84179351  1
  O2-  O330  1  0.33916492  0.31610919  0.17259940  1
  O2-  O331  1  0.33507353  0.32367261  0.50137286  1
  O2-  O332  1  0.33393512  0.31873737  0.83612199  1
  O2-  O333  1  0.33906727  0.81041656  0.17410196  1
  O2-  O334  1  0.33708744  0.82080727  0.50625422  1
  O2-  O335  1  0.33402297  0.82519738  0.83508979  1
  O2-  O336  1  0.66638007  0.32663052  0.16761736  1
  O2-  O337  1  0.66681573  0.32752579  0.50795345  1
  O2-  O338  1  0.66959353  0.31558121  0.83807828  1
  O2-  O339  1  0.66397702  0.82678541  0.15947770  1
  O2-  O340  1  0.67012274  0.81116911  0.50543306  1
  O2-  O341  1  0.66370659  0.80994895  0.83118369  1
  O2-  O342  1  0.16503248  0.32097821  0.16130700  1
  O2-  O343  1  0.17008742  0.31433033  0.49462637  1
  O2-  O344  1  0.16413046  0.31645883  0.83829807  1
  O2-  O345  1  0.17343780  0.81944096  0.15744397  1
  O2-  O346  1  0.16664598  0.81772649  0.50058861  1
  O2-  O347  1  0.17123328  0.82194091  0.83018446  1
  O2-  O348  1  0.49940319  0.33903084  0.16886642  1
  O2-  O349  1  0.50514966  0.32961135  0.50555742  1
  O2-  O350  1  0.50031280  0.31390680  0.83248162  1
  O2-  O351  1  0.50917055  0.81683549  0.16193182  1
  O2-  O352  1  0.49729515  0.81430387  0.50318039  1
  O2-  O353  1  0.49788624  0.81187013  0.83299980  1
  O2-  O354  1  0.82529334  0.32623887  0.17853835  1
  O2-  O355  1  0.83645039  0.32638892  0.49572919  1
  O2-  O356  1  0.83066209  0.32581103  0.83698534  1
  O2-  O357  1  0.82911174  0.81777780  0.17817848  1
  O2-  O358  1  0.82975541  0.81559735  0.50623036  1
  O2-  O359  1  0.83230631  0.81246456  0.83939766  1
  O2-  O360  1  0.09848013  0.08193977  0.10972330  1
  O2-  O361  1  0.07787916  0.08158347  0.44719778  1
  O2-  O362  1  0.06913792  0.08799976  0.78610222  1
  O2-  O363  1  0.07353863  0.58112320  0.12044444  1
  O2-  O364  1  0.07744793  0.58703011  0.42884543  1
  O2-  O365  1  0.09461614  0.57622548  0.78565815  1
  O2-  O366  1  0.41941988  0.08397447  0.12234080  1
  O2-  O367  1  0.41657576  0.07157077  0.43570101  1
  O2-  O368  1  0.41415532  0.08874328  0.79541457  1
  O2-  O369  1  0.42458140  0.58138309  0.11412402  1
  O2-  O370  1  0.41404497  0.58342952  0.43857318  1
  O2-  O371  1  0.41074347  0.57090399  0.79704663  1
  O2-  O372  1  0.73813961  0.08530980  0.09847491  1
  O2-  O373  1  0.77419782  0.07189772  0.45122603  1
  O2-  O374  1  0.75144120  0.08069652  0.78277945  1
  O2-  O375  1  0.75671269  0.57042073  0.11557406  1
  O2-  O376  1  0.76859809  0.58387856  0.43626164  1
  O2-  O377  1  0.72872176  0.58094737  0.79332370  1
  O2-  O378  1  0.26165938  0.08052115  0.21379300  1
  O2-  O379  1  0.24135725  0.07481368  0.53601265  1
  O2-  O380  1  0.23902334  0.06151753  0.90505403  1
  O2-  O381  1  0.23421358  0.58514193  0.22591421  1
  O2-  O382  1  0.22088577  0.57209187  0.54654337  1
  O2-  O383  1  0.26275790  0.57644958  0.88077091  1
  O2-  O384  1  0.58788709  0.07810179  0.19193211  1
  O2-  O385  1  0.57924559  0.07823000  0.56571827  1
  O2-  O386  1  0.62915809  0.07943311  0.91629067  1
  O2-  O387  1  0.57764184  0.57916827  0.22278075  1
  O2-  O388  1  0.59053270  0.57170380  0.55970748  1
  O2-  O389  1  0.56067783  0.58025547  0.87868265  1
  O2-  O390  1  0.90692821  0.08152990  0.23123855  1
  O2-  O391  1  0.92386176  0.07853344  0.54911311  1
  O2-  O392  1  0.89826025  0.05306614  0.87020408  1
  O2-  O393  1  0.92596238  0.58187700  0.23204903  1
  O2-  O394  1  0.93623793  0.56763392  0.54786098  1
  O2-  O395  1  0.90630683  0.58041850  0.87677549  1
  O2-  O396  1  0.08923445  0.42221655  0.10885550  1
  O2-  O397  1  0.09987514  0.41962654  0.45132513  1
  O2-  O398  1  0.08270586  0.41620064  0.77686983  1
  O2-  O399  1  0.09783198  0.92619894  0.13166865  1
  O2-  O400  1  0.08069667  0.90943043  0.43484745  1
  O2-  O401  1  0.09326853  0.92119539  0.78731561  1
  O2-  O402  1  0.39913178  0.42092873  0.11393564  1
  O2-  O403  1  0.39007563  0.41579991  0.40403451  1
  O2-  O404  1  0.41797602  0.41879705  0.78687334  1
  O2-  O405  1  0.41897290  0.91815210  0.12934658  1
  O2-  O406  1  0.40220330  0.91468743  0.42820912  1
  O2-  O407  1  0.42381220  0.92502011  0.79188217  1
  O2-  O408  1  0.74808064  0.42197810  0.11525634  1
  O2-  O409  1  0.76429496  0.41981523  0.43637979  1
  O2-  O410  1  0.74161013  0.41664537  0.76442243  1
  O2-  O411  1  0.75092388  0.91612578  0.10818591  1
  O2-  O412  1  0.75171434  0.91353457  0.45917240  1
  O2-  O413  1  0.73260244  0.91889278  0.76964576  1
  O2-  O414  1  0.25927876  0.42026947  0.21827600  1
  O2-  O415  1  0.23983648  0.41597548  0.55104856  1
  O2-  O416  1  0.23157518  0.42172673  0.90169278  1
  O2-  O417  1  0.26063522  0.92181116  0.21304876  1
  O2-  O418  1  0.24428518  0.91840032  0.54367696  1
  O2-  O419  1  0.25061722  0.91439471  0.90368511  1
  O2-  O420  1  0.59532153  0.42403830  0.21723410  1
  O2-  O421  1  0.58912907  0.42321856  0.57391227  1
  O2-  O422  1  0.60957912  0.42161705  0.91610980  1
  O2-  O423  1  0.58127636  0.91877578  0.21029596  1
  O2-  O424  1  0.60475722  0.91516206  0.55993515  1
  O2-  O425  1  0.57613885  0.91544195  0.88882601  1
  O2-  O426  1  0.90565284  0.42112431  0.21375089  1
  O2-  O427  1  0.91716482  0.42396350  0.56205134  1
  O2-  O428  1  0.92116132  0.42121106  0.89479785  1
  O2-  O429  1  0.92427539  0.92489103  0.20396930  1
  O2-  O430  1  0.90765298  0.91681538  0.55369294  1
  O2-  O431  1  0.91081779  0.91349954  0.90273461  1
  O2-  O432  1  0.00067027  -0.01547214  0.01150706  1
  O2-  O433  1  -0.02707473  -0.00252803  0.35528545  1
  O2-  O434  1  0.00630932  0.00612118  0.66378316  1
  O2-  O435  1  -0.01955661  0.50065267  0.02430578  1
  O2-  O436  1  0.00809959  0.49889539  0.32998899  1
  O2-  O437  1  0.02991443  0.49982356  0.63835607  1
  O2-  O438  1  0.32908509  -0.02265863  0.01382196  1
  O2-  O439  1  0.33702923  0.00752230  0.31484076  1
  O2-  O440  1  0.32624484  -0.00727724  0.68488214  1
  O2-  O441  1  0.34102699  0.50971256  -0.01040895  1
  O2-  O442  1  0.33594088  0.50377178  0.29990362  1
  O2-  O443  1  0.33602548  0.51479460  0.67469485  1
  O2-  O444  1  0.63981668  -0.01180798  0.02584931  1
  O2-  O445  1  0.65264388  0.01211450  0.34567950  1
  O2-  O446  1  0.67951592  -0.00702505  0.64728607  1
  O2-  O447  1  0.65981217  0.51962472  0.00403483  1
  O2-  O448  1  0.70441700  0.50575731  0.28709909  1
  O2-  O449  1  0.67146324  0.51161784  0.64197047  1
  O2-  O450  1  0.16734499  -0.00820122  0.02249927  1
  O2-  O451  1  0.17993646  -0.01137767  0.34588023  1
  O2-  O452  1  0.16453257  0.00625842  0.66819568  1
  O2-  O453  1  0.17855095  0.49539544  0.01849261  1
  O2-  O454  1  0.16674265  0.49163043  0.32475543  1
  O2-  O455  1  0.18285996  0.50454120  0.68937517  1
  O2-  O456  1  0.49146704  0.00943578  -0.00782711  1
  O2-  O457  1  0.49129687  -0.00199309  0.31498628  1
  O2-  O458  1  0.49716668  -0.02174413  0.66094562  1
  O2-  O459  1  0.49962359  0.50603354  -0.00159697  1
  O2-  O460  1  0.47934563  0.49671665  0.30246669  1
  O2-  O461  1  0.49586242  0.52026299  0.66599178  1
  O2-  O462  1  0.80919468  -0.00790773  -0.01629751  1
  O2-  O463  1  0.81052127  -0.01002620  0.30870728  1
  O2-  O464  1  0.82978866  -0.00517808  0.65763927  1
  O2-  O465  1  0.82196742  0.50319856  -0.01283006  1
  O2-  O466  1  0.84872896  0.48013471  0.33614260  1
  O2-  O467  1  0.80869245  0.51221308  0.63222902  1
  O2-  O468  1  0.25289891  0.75549475  0.61308703  1
  O2-  O469  1  0.92381689  0.74625260  0.94837956  1
  O2-  O470  1  0.59215942  0.75532806  0.27368688  1
  O2-  O471  1  0.42593953  0.25788982  0.40762565  1
  O2-  O472  1  0.75709542  0.25231413  0.06509452  1
  O2-  O473  1  0.25132396  0.24978631  0.60738249  1
  O2-  O474  1  0.39929831  0.74902885  0.72095293  1
  O2-  O475  1  0.76220768  0.24826457  0.72778721  1
  O2-  O476  1  0.44531039  0.25213232  0.06715204  1
  O2-  O477  1  0.08703923  0.25095436  0.71680590  1
  O2-  O478  1  0.58622438  0.25098440  0.59554537  1
  O2-  O479  1  0.07578147  0.24616536  0.38920305  1
  O2-  O480  1  0.91452802  0.25599716  0.93219510  1
  O2-  O481  1  0.41052489  0.25243017  0.72161007  1
  O2-  O482  1  0.75426330  0.75116931  0.06847672  1
  O2-  O483  1  0.57648424  0.25329907  0.26766051  1
  O2-  O484  1  0.24806834  0.74927792  0.93001855  1
  O2-  O485  1  0.92396979  0.25119179  0.27804491  1
  O2-  O486  1  0.09785849  0.74881227  0.73082504  1
  O2-  O487  1  0.92227739  0.25058838  0.60478446  1
  O2-  O488  1  0.07797847  0.75037542  0.05619732  1
  O2-  O489  1  0.06835992  0.25268577  0.06576980  1
  O2-  O490  1  0.74638999  0.75150176  0.38595254  1
  O2-  O491  1  0.74014237  0.25654727  0.40153389  1
  O2-  O492  1  0.41502656  0.75047703  0.39287906  1
