# generated using pymatgen
data_Ca108Mn108O277
_symmetry_space_group_name_H-M   'P 1'
_cell_length_a   16.02911119
_cell_length_b   22.30754470
_cell_length_c   16.38755070
_cell_angle_alpha   89.99692908
_cell_angle_beta   90.00040472
_cell_angle_gamma   89.99852059
_symmetry_Int_Tables_number   1
_chemical_formula_structural   Ca108Mn108O277
_chemical_formula_sum   'Ca108 Mn108 O277'
_cell_volume   5859.69837000
_cell_formula_units_Z   1
loop_
 _symmetry_equiv_pos_site_id
 _symmetry_equiv_pos_as_xyz
  1  'x, y, z'
loop_
 _atom_type_symbol
 _atom_type_oxidation_number
  Ca2+  2.0
  Mn3.34+  3.34
  O2-  -2.0
loop_
 _atom_site_type_symbol
 _atom_site_label
 _atom_site_symmetry_multiplicity
 _atom_site_fract_x
 _atom_site_fract_y
 _atom_site_fract_z
 _atom_site_occupancy
  Ca2+  Ca0  1  0.07953823  0.25024286  0.23888181  1
  Ca2+  Ca1  1  0.07165013  0.24602558  0.58792714  1
  Ca2+  Ca2  1  0.07320330  0.25252510  0.92699670  1
  Ca2+  Ca3  1  0.09055489  0.75738924  0.24401165  1
  Ca2+  Ca4  1  0.10218556  0.75501679  0.60174644  1
  Ca2+  Ca5  1  0.09327202  0.73937031  0.90244898  1
  Ca2+  Ca6  1  0.43023678  0.24085192  0.24804647  1
  Ca2+  Ca7  1  0.41277489  0.24465867  0.57387222  1
  Ca2+  Ca8  1  0.41559195  0.25575053  0.92823067  1
  Ca2+  Ca9  1  0.39606889  0.74661183  0.22569956  1
  Ca2+  Ca10  1  0.40816065  0.75513941  0.58163991  1
  Ca2+  Ca11  1  0.39668395  0.73491559  0.93913051  1
  Ca2+  Ca12  1  0.74813889  0.26374495  0.24444836  1
  Ca2+  Ca13  1  0.77289416  0.24600112  0.58803348  1
  Ca2+  Ca14  1  0.76401382  0.25681628  0.92077620  1
  Ca2+  Ca15  1  0.75976716  0.74958957  0.24559126  1
  Ca2+  Ca16  1  0.73815662  0.74885384  0.57997946  1
  Ca2+  Ca17  1  0.76184681  0.75081641  0.92551943  1
  Ca2+  Ca18  1  0.24754359  0.25106760  0.09272107  1
  Ca2+  Ca19  1  0.25353379  0.25151013  0.41870111  1
  Ca2+  Ca20  1  0.24932983  0.25594325  0.74395178  1
  Ca2+  Ca21  1  0.25735339  0.74364355  0.08346616  1
  Ca2+  Ca22  1  0.25213572  0.74990238  0.40076302  1
  Ca2+  Ca23  1  0.23220704  0.74371366  0.76524317  1
  Ca2+  Ca24  1  0.58215357  0.23679501  0.11296088  1
  Ca2+  Ca25  1  0.57765549  0.24825688  0.40501587  1
  Ca2+  Ca26  1  0.58405849  0.25756068  0.74431614  1
  Ca2+  Ca27  1  0.56802284  0.75374789  0.08319207  1
  Ca2+  Ca28  1  0.58886576  0.74806707  0.41953059  1
  Ca2+  Ca29  1  0.57961718  0.75652766  0.75047928  1
  Ca2+  Ca30  1  0.92036219  0.24991244  0.08591099  1
  Ca2+  Ca31  1  0.92073733  0.25627404  0.42977883  1
  Ca2+  Ca32  1  0.91893500  0.25515822  0.73768438  1
  Ca2+  Ca33  1  0.91065528  0.75388983  0.08684746  1
  Ca2+  Ca34  1  0.90451418  0.74844053  0.39789835  1
  Ca2+  Ca35  1  0.93817013  0.74800954  0.76312041  1
  Ca2+  Ca36  1  0.92519978  0.58538737  0.76302566  1
  Ca2+  Ca37  1  0.73064781  0.10539674  0.23396819  1
  Ca2+  Ca38  1  0.93573350  0.58774126  0.76458615  1
  Ca2+  Ca39  1  0.78331005  0.07953160  0.92994698  1
  Ca2+  Ca40  1  0.40655847  0.61462985  0.23741730  1
  Ca2+  Ca41  1  0.39537900  0.07776590  0.95468413  1
  Ca2+  Ca42  1  0.27056411  0.59835417  0.08687076  1
  Ca2+  Ca43  1  0.21246838  0.60294021  0.75425690  1
  Ca2+  Ca44  1  0.55525458  0.61284921  0.08836716  1
  Ca2+  Ca45  1  0.74318117  0.10593340  0.23700236  1
  Ca2+  Ca46  1  0.25933920  0.60194565  0.39569537  1
  Ca2+  Ca47  1  0.25138441  0.09207575  0.08478563  1
  Ca2+  Ca48  1  0.09694657  0.09036891  0.24854627  1
  Ca2+  Ca49  1  0.75699178  0.58612077  0.92141895  1
  Ca2+  Ca50  1  0.06901585  0.09470673  0.58114035  1
  Ca2+  Ca51  1  0.61732559  0.60039061  0.41653240  1
  Ca2+  Ca52  1  0.39421265  0.59195848  0.57444406  1
  Ca2+  Ca53  1  0.22837142  0.09059944  0.72120413  1
  Ca2+  Ca54  1  0.25226165  0.10339359  0.44790596  1
  Ca2+  Ca55  1  0.60711295  0.60015260  0.41417444  1
  Ca2+  Ca56  1  0.61838236  0.58114038  0.74551400  1
  Ca2+  Ca57  1  0.09588484  0.58665088  0.92163292  1
  Ca2+  Ca58  1  0.58524310  0.08515490  0.72157158  1
  Ca2+  Ca59  1  0.10449172  0.58266507  0.59186533  1
  Ca2+  Ca60  1  0.75673957  0.58982496  0.56856860  1
  Ca2+  Ca61  1  0.92249939  0.58310661  0.07405143  1
  Ca2+  Ca62  1  0.07046990  0.08479718  0.92177039  1
  Ca2+  Ca63  1  0.23974802  0.09137765  0.72117208  1
  Ca2+  Ca64  1  0.92203765  0.08444788  0.07226082  1
  Ca2+  Ca65  1  0.92049404  0.09659552  0.71556660  1
  Ca2+  Ca66  1  0.57141583  0.10183662  0.41959063  1
  Ca2+  Ca67  1  0.76499530  0.59118401  0.29063797  1
  Ca2+  Ca68  1  0.59688209  0.08483909  0.72114675  1
  Ca2+  Ca69  1  0.43035011  0.09807847  0.24102766  1
  Ca2+  Ca70  1  0.91871726  0.09642749  0.72560575  1
  Ca2+  Ca71  1  0.60652857  0.58385245  0.74312543  1
  Ca2+  Ca72  1  0.40400754  0.40768404  0.24520610  1
  Ca2+  Ca73  1  0.26260781  0.90990238  0.08650502  1
  Ca2+  Ca74  1  0.77273233  0.42045299  0.91129075  1
  Ca2+  Ca75  1  0.21711599  0.90970289  0.41576272  1
  Ca2+  Ca76  1  0.58510702  0.88786011  0.41539592  1
  Ca2+  Ca77  1  0.25208791  0.90958208  0.08677472  1
  Ca2+  Ca78  1  0.23874565  0.41003594  0.42332933  1
  Ca2+  Ca79  1  0.41773492  0.90338924  0.58199530  1
  Ca2+  Ca80  1  0.90107967  0.41733098  0.41673923  1
  Ca2+  Ca81  1  0.07145417  0.41313231  0.24529976  1
  Ca2+  Ca82  1  0.92982164  0.90964160  0.73771776  1
  Ca2+  Ca83  1  0.93869511  0.42410693  0.04972716  1
  Ca2+  Ca84  1  0.59247552  0.41359010  0.74024486  1
  Ca2+  Ca85  1  0.41419332  0.89906845  0.24062045  1
  Ca2+  Ca86  1  0.94820176  0.42611864  0.05320007  1
  Ca2+  Ca87  1  0.57801711  0.90351403  0.74464101  1
  Ca2+  Ca88  1  0.22808891  0.90578831  0.41283802  1
  Ca2+  Ca89  1  0.22959059  0.41233525  0.07038861  1
  Ca2+  Ca90  1  0.07763109  0.90901864  0.91779249  1
  Ca2+  Ca91  1  0.41681063  0.40823346  0.24567926  1
  Ca2+  Ca92  1  0.41198194  0.90512759  0.92548146  1
  Ca2+  Ca93  1  0.75480098  0.89203711  0.58266886  1
  Ca2+  Ca94  1  0.61406744  0.41155043  0.41928420  1
  Ca2+  Ca95  1  0.08241908  0.41445253  0.24401099  1
  Ca2+  Ca96  1  0.58951686  0.40167033  0.08269802  1
  Ca2+  Ca97  1  0.91004204  0.90834710  0.07739621  1
  Ca2+  Ca98  1  0.09498165  0.40530827  0.59795176  1
  Ca2+  Ca99  1  0.76416252  0.41428661  0.59410344  1
  Ca2+  Ca100  1  0.60287481  0.41530688  0.74747966  1
  Ca2+  Ca101  1  0.40420277  0.40495214  0.91892550  1
  Ca2+  Ca102  1  0.91961468  0.90983373  0.74163077  1
  Ca2+  Ca103  1  0.39228733  0.40595581  0.59347204  1
  Ca2+  Ca104  1  0.24972714  0.90497561  0.74907080  1
  Ca2+  Ca105  1  0.60203807  0.41301218  0.41873148  1
  Ca2+  Ca106  1  0.75904589  0.90560163  0.93071889  1
  Ca2+  Ca107  1  0.57802903  0.40137723  0.08156884  1
  Mn3.34+  Mn108  1  0.08451132  0.33135051  0.08209342  1
  Mn3.34+  Mn109  1  0.08134128  0.33732583  0.42040058  1
  Mn3.34+  Mn110  1  0.08434261  0.33210387  0.75544112  1
  Mn3.34+  Mn111  1  0.08151913  0.83611863  0.08239616  1
  Mn3.34+  Mn112  1  0.06430069  0.83878110  0.42654095  1
  Mn3.34+  Mn113  1  0.08660644  0.83158273  0.74855982  1
  Mn3.34+  Mn114  1  0.41096208  0.33019403  0.08189568  1
  Mn3.34+  Mn115  1  0.41496689  0.33314252  0.42093106  1
  Mn3.34+  Mn116  1  0.41151350  0.33393760  0.75155579  1
  Mn3.34+  Mn117  1  0.42165522  0.83521435  0.08317754  1
  Mn3.34+  Mn118  1  0.41496694  0.82909919  0.41477440  1
  Mn3.34+  Mn119  1  0.41461266  0.83336144  0.75339062  1
  Mn3.34+  Mn120  1  0.75485087  0.33342723  0.08203128  1
  Mn3.34+  Mn121  1  0.75669432  0.33452185  0.41985733  1
  Mn3.34+  Mn122  1  0.75816956  0.34043807  0.75474463  1
  Mn3.34+  Mn123  1  0.74389088  0.83169201  0.08883090  1
  Mn3.34+  Mn124  1  0.75466906  0.82965497  0.41380575  1
  Mn3.34+  Mn125  1  0.75242732  0.82177178  0.75263724  1
  Mn3.34+  Mn126  1  0.24819019  0.33216347  0.25244741  1
  Mn3.34+  Mn127  1  0.24529068  0.33281805  0.58206863  1
  Mn3.34+  Mn128  1  0.24126903  0.33679171  0.90820423  1
  Mn3.34+  Mn129  1  0.24379893  0.83292162  0.24887713  1
  Mn3.34+  Mn130  1  0.24917043  0.83234324  0.58347015  1
  Mn3.34+  Mn131  1  0.24820757  0.83155696  0.91545319  1
  Mn3.34+  Mn132  1  0.58696835  0.33449857  0.25011607  1
  Mn3.34+  Mn133  1  0.58388675  0.33186328  0.58044014  1
  Mn3.34+  Mn134  1  0.58612290  0.33533634  0.91116670  1
  Mn3.34+  Mn135  1  0.58430876  0.82524315  0.24778735  1
  Mn3.34+  Mn136  1  0.58136536  0.83075746  0.58226977  1
  Mn3.34+  Mn137  1  0.58520919  0.83075806  0.91529003  1
  Mn3.34+  Mn138  1  0.91117400  0.33662418  0.25036431  1
  Mn3.34+  Mn139  1  0.92105159  0.33412594  0.58614107  1
  Mn3.34+  Mn140  1  0.92254371  0.33439718  0.90864273  1
  Mn3.34+  Mn141  1  0.91763600  0.83267518  0.24796752  1
  Mn3.34+  Mn142  1  0.92461103  0.83765704  0.57073080  1
  Mn3.34+  Mn143  1  0.91748790  0.83381513  0.91480410  1
  Mn3.34+  Mn144  1  0.41508850  0.16420176  0.08779816  1
  Mn3.34+  Mn145  1  0.08878533  0.65922599  0.08776955  1
  Mn3.34+  Mn146  1  0.08449299  0.66791566  0.41485470  1
  Mn3.34+  Mn147  1  0.08633618  0.17661523  0.75835543  1
  Mn3.34+  Mn148  1  0.91990120  0.16725471  0.24759203  1
  Mn3.34+  Mn149  1  0.24860183  0.66839951  0.57667701  1
  Mn3.34+  Mn150  1  0.58904763  0.67241409  0.24941571  1
  Mn3.34+  Mn151  1  0.42018234  0.67530752  0.41851665  1
  Mn3.34+  Mn152  1  0.41344774  0.16985333  0.41620196  1
  Mn3.34+  Mn153  1  0.07574438  0.66172525  0.41397010  1
  Mn3.34+  Mn154  1  0.90906658  0.67135772  0.57530609  1
  Mn3.34+  Mn155  1  0.40858231  0.16407464  0.75399184  1
  Mn3.34+  Mn156  1  0.91510656  0.66576744  0.91850301  1
  Mn3.34+  Mn157  1  0.08072695  0.66534297  0.08583317  1
  Mn3.34+  Mn158  1  0.25295263  0.16648368  0.25134470  1
  Mn3.34+  Mn159  1  0.76360641  0.16378232  0.42266486  1
  Mn3.34+  Mn160  1  0.08521299  0.16708803  0.41611366  1
  Mn3.34+  Mn161  1  0.74880413  0.66895327  0.08633039  1
  Mn3.34+  Mn162  1  0.41922632  0.16899446  0.75157740  1
  Mn3.34+  Mn163  1  0.74862409  0.17306166  0.75580866  1
  Mn3.34+  Mn164  1  0.24694528  0.16620810  0.91622602  1
  Mn3.34+  Mn165  1  0.08349992  0.16458526  0.08389111  1
  Mn3.34+  Mn166  1  0.41115297  0.66107466  0.75688940  1
  Mn3.34+  Mn167  1  0.58066736  0.16765459  0.92157567  1
  Mn3.34+  Mn168  1  0.75595428  0.16902170  0.08045864  1
  Mn3.34+  Mn169  1  0.42106682  0.66667297  0.75522828  1
  Mn3.34+  Mn170  1  0.75349139  0.16898254  0.42163839  1
  Mn3.34+  Mn171  1  0.91233340  0.66600716  0.24665733  1
  Mn3.34+  Mn172  1  0.58104615  0.17088825  0.57745124  1
  Mn3.34+  Mn173  1  0.58861388  0.66858428  0.91561110  1
  Mn3.34+  Mn174  1  0.07386935  0.16076034  0.41658661  1
  Mn3.34+  Mn175  1  0.92036242  0.67079987  0.58098101  1
  Mn3.34+  Mn176  1  0.91735951  0.16825389  0.91173020  1
  Mn3.34+  Mn177  1  0.58085468  0.66870548  0.58298522  1
  Mn3.34+  Mn178  1  0.75336856  0.67134213  0.75524128  1
  Mn3.34+  Mn179  1  0.59074951  0.16246391  0.91947191  1
  Mn3.34+  Mn180  1  0.41681744  0.50043963  0.07913309  1
  Mn3.34+  Mn181  1  0.38070532  0.50344845  0.74525421  1
  Mn3.34+  Mn182  1  0.40640158  0.49707589  0.42286698  1
  Mn3.34+  Mn183  1  0.57711699  -0.00160446  0.57775043  1
  Mn3.34+  Mn184  1  0.24886563  0.00132149  0.91663803  1
  Mn3.34+  Mn185  1  0.75264989  -0.00010131  0.76195805  1
  Mn3.34+  Mn186  1  0.91368515  0.50319221  0.58761673  1
  Mn3.34+  Mn187  1  0.08127023  0.49976266  0.41579788  1
  Mn3.34+  Mn188  1  0.42817160  0.00089943  0.41880333  1
  Mn3.34+  Mn189  1  0.74704112  0.00290779  0.42598682  1
  Mn3.34+  Mn190  1  0.91119533  0.50292631  0.26353737  1
  Mn3.34+  Mn191  1  0.59043245  0.50238903  0.25358485  1
  Mn3.34+  Mn192  1  0.58156396  -0.00190522  0.23983690  1
  Mn3.34+  Mn193  1  0.92323695  -0.00698656  0.27087169  1
  Mn3.34+  Mn194  1  0.42144902  0.50190481  0.41915583  1
  Mn3.34+  Mn195  1  0.41262746  0.00536093  0.41763521  1
  Mn3.34+  Mn196  1  0.58023464  0.50096938  0.58507891  1
  Mn3.34+  Mn197  1  0.39330121  0.50037715  0.74852483  1
  Mn3.34+  Mn198  1  0.24431827  0.50343608  0.24995372  1
  Mn3.34+  Mn199  1  0.75556542  -0.00223439  0.08128281  1
  Mn3.34+  Mn200  1  0.24722371  0.00231956  0.26259433  1
  Mn3.34+  Mn201  1  0.93293823  0.00020148  0.26380137  1
  Mn3.34+  Mn202  1  0.07966777  0.00028291  0.07506371  1
  Mn3.34+  Mn203  1  0.41496507  -0.00020782  0.75463232  1
  Mn3.34+  Mn204  1  0.57733307  -0.00478096  0.92786990  1
  Mn3.34+  Mn205  1  0.74278815  -0.00584093  0.76176473  1
  Mn3.34+  Mn206  1  0.75971224  -0.00348810  0.42463441  1
  Mn3.34+  Mn207  1  0.24666498  -0.00271231  0.58702190  1
  Mn3.34+  Mn208  1  0.24421147  0.49630431  0.93030695  1
  Mn3.34+  Mn209  1  0.58575036  0.00174993  0.93110947  1
  Mn3.34+  Mn210  1  0.08840497  0.49351517  0.74049084  1
  Mn3.34+  Mn211  1  0.59295598  -0.00937264  0.24250530  1
  Mn3.34+  Mn212  1  0.74026832  0.50056675  0.09506785  1
  Mn3.34+  Mn213  1  0.57340178  0.50430617  0.92570653  1
  Mn3.34+  Mn214  1  0.08621968  -0.00106233  0.75761852  1
  Mn3.34+  Mn215  1  0.75132614  0.50506138  0.09630502  1
  O2-  O216  1  0.00107949  0.15176288  -0.00415927  1
  O2-  O217  1  0.00487641  0.14725215  0.32663985  1
  O2-  O218  1  0.00758369  0.17114235  0.67706848  1
  O2-  O219  1  0.00539648  0.65111294  0.00009333  1
  O2-  O220  1  0.00134526  0.67229571  0.32987320  1
  O2-  O221  1  -0.00724302  0.65357022  0.66465949  1
  O2-  O222  1  0.32625128  0.16769999  0.00167312  1
  O2-  O223  1  0.33509730  0.14882125  0.33061819  1
  O2-  O224  1  0.32487688  0.16562430  0.67460934  1
  O2-  O225  1  0.32996446  0.66729683  0.01297319  1
  O2-  O226  1  0.34467154  0.67578028  0.33685012  1
  O2-  O227  1  0.33242127  0.64780255  0.66905403  1
  O2-  O228  1  0.67519856  0.14936004  -0.00351876  1
  O2-  O229  1  0.67244144  0.14816011  0.34375007  1
  O2-  O230  1  0.66058597  0.16745103  0.67453541  1
  O2-  O231  1  0.67116850  0.65662339  -0.00211583  1
  O2-  O232  1  0.67059066  0.67263665  0.33202819  1
  O2-  O233  1  0.66916444  0.65608245  0.66615826  1
  O2-  O234  1  0.16467063  0.15324491  -0.00105148  1
  O2-  O235  1  0.16981178  0.15039471  0.33790461  1
  O2-  O236  1  0.16676662  0.17604674  0.67673133  1
  O2-  O237  1  0.16744436  0.65100022  0.00748952  1
  O2-  O238  1  0.16806650  0.66836351  0.33954651  1
  O2-  O239  1  0.16492081  0.65921921  0.65081620  1
  O2-  O240  1  0.49448107  0.14661143  -0.00588065  1
  O2-  O241  1  0.49560366  0.15622984  0.33739491  1
  O2-  O242  1  0.49388691  0.14615479  0.66535156  1
  O2-  O243  1  0.51290269  0.68129169  -0.00560453  1
  O2-  O244  1  0.51369539  0.66612976  0.34542330  1
  O2-  O245  1  0.50270637  0.64069132  0.67699718  1
  O2-  O246  1  0.84101367  0.15206205  0.00126403  1
  O2-  O247  1  0.83079069  0.14817657  0.32622141  1
  O2-  O248  1  0.83200287  0.17408731  0.68094978  1
  O2-  O249  1  0.83263880  0.65143798  0.00343254  1
  O2-  O250  1  0.83616861  0.67106760  0.32593183  1
  O2-  O251  1  0.83162269  0.67560035  0.66511262  1
  O2-  O252  1  0.00162816  0.33826912  0.00167148  1
  O2-  O253  1  -0.00035474  0.35752470  0.33336342  1
  O2-  O254  1  0.00748709  0.33351947  0.66444224  1
  O2-  O255  1  -0.00061777  0.85237913  -0.00206147  1
  O2-  O256  1  0.00054606  0.81829551  0.33708615  1
  O2-  O257  1  -0.00292231  0.83485264  0.66802483  1
  O2-  O258  1  0.32762429  0.33869374  -0.00068284  1
  O2-  O259  1  0.33174523  0.35415998  0.33701079  1
  O2-  O260  1  0.33244503  0.32543656  0.66139296  1
  O2-  O261  1  0.32957811  0.84670268  0.00169364  1
  O2-  O262  1  0.32590581  0.85095008  0.33829177  1
  O2-  O263  1  0.33534587  0.85108588  0.66484404  1
  O2-  O264  1  0.67068590  0.35238617  -0.00641182  1
  O2-  O265  1  0.66840515  0.34735186  0.33368999  1
  O2-  O266  1  0.66651510  0.34321511  0.67106361  1
  O2-  O267  1  0.67033065  0.82777037  -0.00608332  1
  O2-  O268  1  0.66289861  0.81503080  0.33763288  1
  O2-  O269  1  0.66738909  0.83853120  0.66909331  1
  O2-  O270  1  0.17023366  0.32890026  0.00348215  1
  O2-  O271  1  0.16148489  0.35343563  0.33091456  1
  O2-  O272  1  0.16439153  0.31548128  0.66281784  1
  O2-  O273  1  0.16948289  0.85501401  -0.00032973  1
  O2-  O274  1  0.16371635  0.83610689  0.33665215  1
  O2-  O275  1  0.16856001  0.84516963  0.66842478  1
  O2-  O276  1  0.49677486  0.35271199  -0.00336501  1
  O2-  O277  1  0.50356393  0.35875079  0.33613036  1
  O2-  O278  1  0.50158044  0.35933168  0.66634160  1
  O2-  O279  1  0.49716029  0.83478745  -0.00551018  1
  O2-  O280  1  0.49694026  0.81484092  0.33369775  1
  O2-  O281  1  0.49782219  0.84734592  0.66526449  1
  O2-  O282  1  0.83568195  0.35000191  0.00193772  1
  O2-  O283  1  0.83734546  0.34703008  0.33927998  1
  O2-  O284  1  0.82975616  0.33233392  0.66566503  1
  O2-  O285  1  0.83663817  0.84122615  -0.00232953  1
  O2-  O286  1  0.83072092  0.82195971  0.33045246  1
  O2-  O287  1  0.83108442  0.80877775  0.66873562  1
  O2-  O288  1  0.00043160  0.17366651  0.16554026  1
  O2-  O289  1  0.00301121  0.17644356  0.49955948  1
  O2-  O290  1  -0.00250962  0.18576987  0.83336462  1
  O2-  O291  1  -0.00338478  0.67358759  0.15977967  1
  O2-  O292  1  -0.00084605  0.68244557  0.49616848  1
  O2-  O293  1  -0.00765498  0.66671757  0.83518810  1
  O2-  O294  1  0.33102608  0.18394769  0.16828618  1
  O2-  O295  1  0.33064893  0.18627702  0.49066680  1
  O2-  O296  1  0.33789002  0.18939364  0.84104825  1
  O2-  O297  1  0.33079877  0.67489315  0.15448329  1
  O2-  O298  1  0.33446862  0.68907958  0.49727565  1
  O2-  O299  1  0.32904194  0.67855896  0.82931389  1
  O2-  O300  1  0.68372018  0.18016165  0.17004972  1
  O2-  O301  1  0.66866309  0.18783059  0.49834590  1
  O2-  O302  1  0.66251898  0.18949027  0.83468985  1
  O2-  O303  1  0.66149548  0.68847311  0.15988299  1
  O2-  O304  1  0.65902250  0.67911122  0.50274021  1
  O2-  O305  1  0.66871462  0.69030942  0.82977381  1
  O2-  O306  1  0.16730571  0.17776516  0.16809374  1
  O2-  O307  1  0.16369785  0.18670757  0.49407160  1
  O2-  O308  1  0.17001508  0.18808698  0.83810343  1
  O2-  O309  1  0.16528738  0.67873042  0.16393547  1
  O2-  O310  1  0.16148392  0.69394193  0.49357126  1
  O2-  O311  1  0.15964055  0.66961422  0.83499687  1
  O2-  O312  1  0.49211866  0.17135842  0.16627541  1
  O2-  O313  1  0.50252757  0.18355667  0.49255089  1
  O2-  O314  1  0.50616981  0.17719558  0.82773133  1
  O2-  O315  1  0.50237451  0.68371469  0.17977539  1
  O2-  O316  1  0.49554212  0.68286216  0.50853308  1
  O2-  O317  1  0.50557781  0.68756746  0.83179861  1
  O2-  O318  1  0.83580945  0.17992364  0.16706993  1
  O2-  O319  1  0.83961880  0.18427800  0.49774618  1
  O2-  O320  1  0.82698454  0.18531473  0.84029766  1
  O2-  O321  1  0.83227511  0.67822478  0.16418759  1
  O2-  O322  1  0.83033991  0.69109851  0.50378985  1
  O2-  O323  1  0.83718152  0.68577783  0.83120155  1
  O2-  O324  1  0.00479452  0.32821091  0.17240534  1
  O2-  O325  1  -0.00099218  0.32719752  0.49852698  1
  O2-  O326  1  0.00036777  0.31159603  0.83022657  1
  O2-  O327  1  0.00043224  0.82329480  0.16026453  1
  O2-  O328  1  0.00050220  0.79420532  0.50338151  1
  O2-  O329  1  -0.00165171  0.82723708  0.83018088  1
  O2-  O330  1  0.33784151  0.32012897  0.17476767  1
  O2-  O331  1  0.33126998  0.31647884  0.50330799  1
  O2-  O332  1  0.33487720  0.31337622  0.83996383  1
  O2-  O333  1  0.32912832  0.83061594  0.16592748  1
  O2-  O334  1  0.33312089  0.81906753  0.49640794  1
  O2-  O335  1  0.33017250  0.82072960  0.83209927  1
  O2-  O336  1  0.65836838  0.32210540  0.15503306  1
  O2-  O337  1  0.66421990  0.31836866  0.49441442  1
  O2-  O338  1  0.67119802  0.31444605  0.82769107  1
  O2-  O339  1  0.66428036  0.81164918  0.16661886  1
  O2-  O340  1  0.66720311  0.81527205  0.49897380  1
  O2-  O341  1  0.66907770  0.81096725  0.83345914  1
  O2-  O342  1  0.16502096  0.32829691  0.16876947  1
  O2-  O343  1  0.16711873  0.31458211  0.49813911  1
  O2-  O344  1  0.16319330  0.30630768  0.83398377  1
  O2-  O345  1  0.17308697  0.82525568  0.15621027  1
  O2-  O346  1  0.17017490  0.82036624  0.49552186  1
  O2-  O347  1  0.16339579  0.82906546  0.83572264  1
  O2-  O348  1  0.49841078  0.32981447  0.16818570  1
  O2-  O349  1  0.50465008  0.32629031  0.49506037  1
  O2-  O350  1  0.50400188  0.32757635  0.82758090  1
  O2-  O351  1  0.49475927  0.81923055  0.17164398  1
  O2-  O352  1  0.49810220  0.81412383  0.49726642  1
  O2-  O353  1  0.50477166  0.82094947  0.82941863  1
  O2-  O354  1  0.83507469  0.32033577  0.16192395  1
  O2-  O355  1  0.83283438  0.32389387  0.50316072  1
  O2-  O356  1  0.83520939  0.31858217  0.83362714  1
  O2-  O357  1  0.83449633  0.82594192  0.16041723  1
  O2-  O358  1  0.83168278  0.81622468  0.50202570  1
  O2-  O359  1  0.83711385  0.81211559  0.83318156  1
  O2-  O360  1  0.08327086  0.07894127  0.11146850  1
  O2-  O361  1  0.09934149  0.08403168  0.44929574  1
  O2-  O362  1  0.10000561  0.08176614  0.77852963  1
  O2-  O363  1  0.08376056  0.58133260  0.10738429  1
  O2-  O364  1  0.09702451  0.58187332  0.45104209  1
  O2-  O365  1  0.06821082  0.56466967  0.79202312  1
  O2-  O366  1  0.39514459  0.08456898  0.10241792  1
  O2-  O367  1  0.40950771  0.08458948  0.45355853  1
  O2-  O368  1  0.41965304  0.08148823  0.79291804  1
  O2-  O369  1  0.42396171  0.57621462  0.11121841  1
  O2-  O370  1  0.41568357  0.58455117  0.43590698  1
  O2-  O371  1  0.42825169  0.57804747  0.79583433  1
  O2-  O372  1  0.75857108  0.08070481  0.10732742  1
  O2-  O373  1  0.75189849  0.08156647  0.46104100  1
  O2-  O374  1  0.72738180  0.08157609  0.78471946  1
  O2-  O375  1  0.74273902  0.58602576  0.12273463  1
  O2-  O376  1  0.73388368  0.57372541  0.44290826  1
  O2-  O377  1  0.75208741  0.58386377  0.78072374  1
  O2-  O378  1  0.24401847  0.08017471  0.22202754  1
  O2-  O379  1  0.22656619  0.07881252  0.58123934  1
  O2-  O380  1  0.25720120  0.07784970  0.86862326  1
  O2-  O381  1  0.27277076  0.57770045  0.22962741  1
  O2-  O382  1  0.25109199  0.59098335  0.53636735  1
  O2-  O383  1  0.24266707  0.55929126  0.87266571  1
  O2-  O384  1  0.60352393  0.07610812  0.21417709  1
  O2-  O385  1  0.58894856  0.08497415  0.56223794  1
  O2-  O386  1  0.58219277  0.07478471  0.86424579  1
  O2-  O387  1  0.59252730  0.58530408  0.23494709  1
  O2-  O388  1  0.57857713  0.58463321  0.55288438  1
  O2-  O389  1  0.59802402  0.58175672  0.87891899  1
  O2-  O390  1  0.89873371  0.07248188  0.20971123  1
  O2-  O391  1  0.94219759  0.07550309  0.59889910  1
  O2-  O392  1  0.91556206  0.08608434  0.86778449  1
  O2-  O393  1  0.90125386  0.57858318  0.22264521  1
  O2-  O394  1  0.90986621  0.58318294  0.54946154  1
  O2-  O395  1  0.90040428  0.58177923  0.89288113  1
  O2-  O396  1  0.08232523  0.41610545  0.10597310  1
  O2-  O397  1  0.09376175  0.42114308  0.46018128  1
  O2-  O398  1  0.09541001  0.41614155  0.75046872  1
  O2-  O399  1  0.09953073  0.92281899  0.10497719  1
  O2-  O400  1  0.08619637  0.91752338  0.44463382  1
  O2-  O401  1  0.07101998  0.91760795  0.77433309  1
  O2-  O402  1  0.41397873  0.41880702  0.11076779  1
  O2-  O403  1  0.40899672  0.41839846  0.45917049  1
  O2-  O404  1  0.40397871  0.42034247  0.78178977  1
  O2-  O405  1  0.39802234  0.91947642  0.10686236  1
  O2-  O406  1  0.43696186  0.91886322  0.44041008  1
  O2-  O407  1  0.42155458  0.91880127  0.78426050  1
  O2-  O408  1  0.73321563  0.41767839  0.11540560  1
  O2-  O409  1  0.74618108  0.41576295  0.45177254  1
  O2-  O410  1  0.73732413  0.42056290  0.77859275  1
  O2-  O411  1  0.75078084  0.91675322  0.08849213  1
  O2-  O412  1  0.73701208  0.91597188  0.44553092  1
  O2-  O413  1  0.76334935  0.91207053  0.77094944  1
  O2-  O414  1  0.26562872  0.42618521  0.20790977  1
  O2-  O415  1  0.24455436  0.41229449  0.56334818  1
  O2-  O416  1  0.25994079  0.42625134  0.88763116  1
  O2-  O417  1  0.24937067  0.92267399  0.22549005  1
  O2-  O418  1  0.26721171  0.91941908  0.54476757  1
  O2-  O419  1  0.25368964  0.92180937  0.88784517  1
  O2-  O420  1  0.57305971  0.42203842  0.21365155  1
  O2-  O421  1  0.59795822  0.41817634  0.55543143  1
  O2-  O422  1  0.58398498  0.42291963  0.87741172  1
  O2-  O423  1  0.56278765  0.91228691  0.25476761  1
  O2-  O424  1  0.58105889  0.91427003  0.55052217  1
  O2-  O425  1  0.60581987  0.92065851  0.88047150  1
  O2-  O426  1  0.93019947  0.43414803  0.19949993  1
  O2-  O427  1  0.91348125  0.42252435  0.56176113  1
  O2-  O428  1  0.91703440  0.41560462  0.90830724  1
  O2-  O429  1  0.91679406  0.91788486  0.22309256  1
  O2-  O430  1  0.88830682  0.91355877  0.60288192  1
  O2-  O431  1  0.90422530  0.91592166  0.87944328  1
  O2-  O432  1  -0.00017864  0.00242890  0.00369559  1
  O2-  O433  1  0.03095225  0.01670496  0.31223266  1
  O2-  O434  1  -0.01809241  0.00256858  0.72204776  1
  O2-  O435  1  -0.00785359  0.50959782  0.02598527  1
  O2-  O436  1  -0.00490957  0.48103356  0.33316480  1
  O2-  O437  1  -0.00463820  0.51629557  0.67159264  1
  O2-  O438  1  0.31122602  -0.00275815  0.00635261  1
  O2-  O439  1  0.35378427  -0.00840201  0.31744936  1
  O2-  O440  1  0.32287157  0.00635275  0.68349006  1
  O2-  O441  1  0.32861663  0.49435926  0.00370187  1
  O2-  O442  1  0.32162640  0.49044354  0.34130617  1
  O2-  O443  1  0.34870594  0.50541046  0.63676166  1
  O2-  O444  1  0.68729837  0.00723466  -0.01719795  1
  O2-  O445  1  0.66648977  0.00390168  0.33756032  1
  O2-  O446  1  0.66757104  -0.00157523  0.66937574  1
  O2-  O447  1  0.68081785  0.49949857  -0.00993247  1
  O2-  O448  1  0.63044932  0.50194174  0.36781602  1
  O2-  O449  1  0.65260745  0.49867258  0.68593202  1
  O2-  O450  1  0.15711828  0.00950729  -0.01116276  1
  O2-  O451  1  0.19881261  -0.00294781  0.36412002  1
  O2-  O452  1  0.17230273  -0.00423528  0.68361146  1
  O2-  O453  1  0.16848660  0.50039890  0.00073348  1
  O2-  O454  1  0.15897486  0.48193419  0.32191947  1
  O2-  O455  1  0.16593672  0.51372175  0.67136243  1
  O2-  O456  1  0.46939461  -0.00484303  -0.03474334  1
  O2-  O457  1  0.50663997  0.02038542  0.33136330  1
  O2-  O458  1  0.51409230  0.00210233  0.68980963  1
  O2-  O459  1  0.52138352  0.48751243  0.03270169  1
  O2-  O460  1  0.47850368  0.48596768  0.31594528  1
  O2-  O461  1  0.50247454  0.49524321  0.69008940  1
  O2-  O462  1  0.84481798  0.00279400  0.01732995  1
  O2-  O463  1  0.82914565  0.01106183  0.33375929  1
  O2-  O464  1  0.83993027  0.01064740  0.69332745  1
  O2-  O465  1  0.83653441  0.49444224  0.01718113  1
  O2-  O466  1  0.82732022  0.49669081  0.32622151  1
  O2-  O467  1  0.82111797  0.51036949  0.64216896  1
  O2-  O468  1  0.24161927  0.75417457  0.93655823  1
  O2-  O469  1  0.08678109  0.75219642  0.74146931  1
  O2-  O470  1  0.08296173  0.74598862  0.05917749  1
  O2-  O471  1  0.56584887  0.25238886  0.60823873  1
  O2-  O472  1  0.58238548  0.25563400  0.26606086  1
  O2-  O473  1  0.42015155  0.74817524  0.71884454  1
  O2-  O474  1  0.25478164  0.75203350  0.61583749  1
  O2-  O475  1  0.75230212  0.25117687  0.05649931  1
  O2-  O476  1  0.07814768  0.24787469  0.07143689  1
  O2-  O477  1  0.40722778  0.75607763  0.07505243  1
  O2-  O478  1  0.91552089  0.24934882  0.94549890  1
  O2-  O479  1  0.57031960  0.25175658  0.94608552  1
  O2-  O480  1  0.25006840  0.75549266  0.26125417  1
  O2-  O481  1  0.76321849  0.74912335  0.06330068  1
  O2-  O482  1  0.24188544  0.24784872  0.27796836  1
  O2-  O483  1  0.92044841  0.74939662  0.24616452  1
  O2-  O484  1  0.92105571  0.25530362  0.59268771  1
  O2-  O485  1  0.07033233  0.24889055  0.38477102  1
  O2-  O486  1  0.42086730  0.25348548  0.38604950  1
  O2-  O487  1  0.43564347  0.25034222  0.72370714  1
  O2-  O488  1  0.57859103  0.74815485  0.61359002  1
  O2-  O489  1  0.92208950  0.24861508  0.27477370  1
  O2-  O490  1  0.92693953  0.74941740  0.94161303  1
  O2-  O491  1  0.42885959  0.24986560  0.06463463  1
  O2-  O492  1  0.75415665  0.25081866  0.38496359  1
