# generated using pymatgen
data_Ca108Mn108O277
_symmetry_space_group_name_H-M   'P 1'
_cell_length_a   16.03152811
_cell_length_b   22.31262332
_cell_length_c   16.39342329
_cell_angle_alpha   90.00818168
_cell_angle_beta   89.99787983
_cell_angle_gamma   90.00179645
_symmetry_Int_Tables_number   1
_chemical_formula_structural   Ca108Mn108O277
_chemical_formula_sum   'Ca108 Mn108 O277'
_cell_volume   5864.01675413
_cell_formula_units_Z   1
loop_
 _symmetry_equiv_pos_site_id
 _symmetry_equiv_pos_as_xyz
  1  'x, y, z'
loop_
 _atom_type_symbol
 _atom_type_oxidation_number
  Ca2+  2.0
  Mn3.34+  3.34
  O2-  -2.0
loop_
 _atom_site_type_symbol
 _atom_site_label
 _atom_site_symmetry_multiplicity
 _atom_site_fract_x
 _atom_site_fract_y
 _atom_site_fract_z
 _atom_site_occupancy
  Ca2+  Ca0  1  0.06535883  0.24666713  0.25805723  1
  Ca2+  Ca1  1  0.06764100  0.25389107  0.58624999  1
  Ca2+  Ca2  1  0.07194406  0.24552856  0.89235285  1
  Ca2+  Ca3  1  0.06212191  0.75464872  0.24872483  1
  Ca2+  Ca4  1  0.07387947  0.75898634  0.58230283  1
  Ca2+  Ca5  1  0.05843348  0.74138041  0.91923776  1
  Ca2+  Ca6  1  0.42462895  0.23378787  0.24053902  1
  Ca2+  Ca7  1  0.40870073  0.24931954  0.58432695  1
  Ca2+  Ca8  1  0.43151420  0.24848635  0.92914884  1
  Ca2+  Ca9  1  0.41777309  0.76646081  0.26105714  1
  Ca2+  Ca10  1  0.42356394  0.75296538  0.56831592  1
  Ca2+  Ca11  1  0.41239643  0.76443943  0.91473476  1
  Ca2+  Ca12  1  0.75775322  0.24673107  0.24340785  1
  Ca2+  Ca13  1  0.77542273  0.24876849  0.58825407  1
  Ca2+  Ca14  1  0.74979712  0.24454901  0.91268309  1
  Ca2+  Ca15  1  0.77435294  0.74305812  0.23804403  1
  Ca2+  Ca16  1  0.74703587  0.75525638  0.59560630  1
  Ca2+  Ca17  1  0.77172896  0.74159062  0.91009405  1
  Ca2+  Ca18  1  0.27534003  0.24272271  0.09960292  1
  Ca2+  Ca19  1  0.23503274  0.23677632  0.40860677  1
  Ca2+  Ca20  1  0.22989379  0.25845789  0.74505332  1
  Ca2+  Ca21  1  0.24769343  0.75922295  0.06932848  1
  Ca2+  Ca22  1  0.27135725  0.76552147  0.41261981  1
  Ca2+  Ca23  1  0.25434160  0.76579134  0.76925671  1
  Ca2+  Ca24  1  0.56227332  0.23213585  0.09284492  1
  Ca2+  Ca25  1  0.57986170  0.24667854  0.39817714  1
  Ca2+  Ca26  1  0.59194966  0.25269525  0.75614037  1
  Ca2+  Ca27  1  0.59893753  0.76770218  0.08474345  1
  Ca2+  Ca28  1  0.56372257  0.75225257  0.41974895  1
  Ca2+  Ca29  1  0.61176171  0.74651043  0.74281379  1
  Ca2+  Ca30  1  0.91561307  0.24621479  0.09055634  1
  Ca2+  Ca31  1  0.92850302  0.23408188  0.41093395  1
  Ca2+  Ca32  1  0.93535534  0.23113544  0.73793481  1
  Ca2+  Ca33  1  0.90595693  0.75425469  0.08162486  1
  Ca2+  Ca34  1  0.91169945  0.75474688  0.39641229  1
  Ca2+  Ca35  1  0.89867350  0.75048125  0.76989369  1
  Ca2+  Ca36  1  0.45909557  0.61929182  0.55338487  1
  Ca2+  Ca37  1  0.24669397  0.10005245  0.73660868  1
  Ca2+  Ca38  1  0.05082395  0.60078143  0.24761774  1
  Ca2+  Ca39  1  0.71088179  0.60529561  0.58949825  1
  Ca2+  Ca40  1  0.56457455  0.08609724  0.39301492  1
  Ca2+  Ca41  1  0.03892750  0.60073743  0.24366221  1
  Ca2+  Ca42  1  0.55643833  0.08320872  0.39814482  1
  Ca2+  Ca43  1  0.23433524  0.10002207  0.73845064  1
  Ca2+  Ca44  1  0.05886477  0.11975346  0.56567220  1
  Ca2+  Ca45  1  0.72117123  0.60415631  0.59085808  1
  Ca2+  Ca46  1  0.91062894  0.60548062  0.77634722  1
  Ca2+  Ca47  1  0.05818604  0.09317464  0.91899182  1
  Ca2+  Ca48  1  0.43816183  0.07974335  0.98339214  1
  Ca2+  Ca49  1  0.77929716  0.09115331  0.59626374  1
  Ca2+  Ca50  1  0.41446791  0.58532830  0.26925788  1
  Ca2+  Ca51  1  0.06611084  0.11482476  0.56848141  1
  Ca2+  Ca52  1  0.59453548  0.59940055  0.74287268  1
  Ca2+  Ca53  1  0.07782675  0.10540762  0.26257607  1
  Ca2+  Ca54  1  0.59676676  0.56614723  0.05305587  1
  Ca2+  Ca55  1  0.59178026  0.10066046  0.74867179  1
  Ca2+  Ca56  1  0.92251962  0.09904342  0.75596318  1
  Ca2+  Ca57  1  0.76869612  0.08868142  0.59915229  1
  Ca2+  Ca58  1  0.25918543  0.59192377  0.41804429  1
  Ca2+  Ca59  1  0.27534989  0.08815574  0.09406687  1
  Ca2+  Ca60  1  0.90542399  0.59268874  0.06494027  1
  Ca2+  Ca61  1  0.24472083  0.57721179  0.74277662  1
  Ca2+  Ca62  1  0.91630377  0.59282103  0.06331415  1
  Ca2+  Ca63  1  0.76976435  0.59695667  0.91058731  1
  Ca2+  Ca64  1  0.91503628  0.09885847  0.10175313  1
  Ca2+  Ca65  1  0.07346020  0.59052825  0.92292171  1
  Ca2+  Ca66  1  0.42623408  0.09019406  0.23285454  1
  Ca2+  Ca67  1  0.93420761  0.09524809  0.40570627  1
  Ca2+  Ca68  1  0.07250901  0.10057715  0.25671148  1
  Ca2+  Ca69  1  0.09295945  0.57380316  0.60328599  1
  Ca2+  Ca70  1  0.41182081  0.09496574  0.58142377  1
  Ca2+  Ca71  1  0.92048120  0.60378925  0.78096395  1
  Ca2+  Ca72  1  0.58739154  0.39768558  0.42342871  1
  Ca2+  Ca73  1  0.92422345  0.40491784  0.75202097  1
  Ca2+  Ca74  1  0.57180749  0.92156266  0.07635776  1
  Ca2+  Ca75  1  0.57071430  0.40222359  0.75070450  1
  Ca2+  Ca76  1  0.41551740  0.39820373  0.24632615  1
  Ca2+  Ca77  1  0.90781417  0.39673495  0.41893910  1
  Ca2+  Ca78  1  0.39965078  0.40500860  0.58808585  1
  Ca2+  Ca79  1  0.41729418  0.90219857  0.57080075  1
  Ca2+  Ca80  1  0.76502089  0.91243653  0.24829861  1
  Ca2+  Ca81  1  0.76282955  0.91411426  0.92097196  1
  Ca2+  Ca82  1  0.58661496  0.89818377  0.74846070  1
  Ca2+  Ca83  1  0.25204892  0.41583654  0.73234890  1
  Ca2+  Ca84  1  0.08667371  0.90245323  0.57866041  1
  Ca2+  Ca85  1  0.77440367  0.91541549  0.24589349  1
  Ca2+  Ca86  1  0.40386487  0.39815527  0.24595045  1
  Ca2+  Ca87  1  0.42703923  0.41564705  0.92110704  1
  Ca2+  Ca88  1  0.58451875  0.40674779  0.07716025  1
  Ca2+  Ca89  1  0.91291133  0.90638142  0.75055934  1
  Ca2+  Ca90  1  0.74696312  0.90963724  0.59088312  1
  Ca2+  Ca91  1  0.06675004  0.41044899  0.91910793  1
  Ca2+  Ca92  1  0.40615092  0.90217019  0.57117810  1
  Ca2+  Ca93  1  0.73817191  0.41435821  0.92463645  1
  Ca2+  Ca94  1  0.07861065  0.90473228  0.91937812  1
  Ca2+  Ca95  1  0.07105427  0.91120550  0.25526880  1
  Ca2+  Ca96  1  0.07722094  0.41098429  0.91827079  1
  Ca2+  Ca97  1  0.07964503  0.39681704  0.24415512  1
  Ca2+  Ca98  1  0.91914977  0.39593657  0.41813909  1
  Ca2+  Ca99  1  0.06600410  0.90334238  0.91842031  1
  Ca2+  Ca100  1  0.42116683  0.91337617  0.93635006  1
  Ca2+  Ca101  1  0.91581179  0.41243746  0.08349577  1
  Ca2+  Ca102  1  0.10559916  0.41213514  0.58801132  1
  Ca2+  Ca103  1  0.91977331  0.91382711  0.40341977  1
  Ca2+  Ca104  1  0.74905539  0.41516296  0.92234675  1
  Ca2+  Ca105  1  0.25250199  0.40362704  0.08174706  1
  Ca2+  Ca106  1  0.27459175  0.91885739  0.08196491  1
  Ca2+  Ca107  1  0.74079245  0.40000326  0.58466566  1
  Mn3.34+  Mn108  1  0.08637209  0.33066010  0.08364892  1
  Mn3.34+  Mn109  1  0.08733389  0.33166044  0.42007534  1
  Mn3.34+  Mn110  1  0.08172695  0.33301784  0.74733609  1
  Mn3.34+  Mn111  1  0.08329836  0.83346840  0.08973073  1
  Mn3.34+  Mn112  1  0.08728766  0.83459564  0.41651058  1
  Mn3.34+  Mn113  1  0.08250444  0.82619024  0.75000835  1
  Mn3.34+  Mn114  1  0.41762666  0.33308108  0.07846252  1
  Mn3.34+  Mn115  1  0.41339913  0.32844412  0.42003206  1
  Mn3.34+  Mn116  1  0.41329502  0.32959759  0.75426474  1
  Mn3.34+  Mn117  1  0.41965642  0.83880055  0.09146689  1
  Mn3.34+  Mn118  1  0.41846694  0.84413254  0.40465855  1
  Mn3.34+  Mn119  1  0.41871250  0.83366553  0.75276701  1
  Mn3.34+  Mn120  1  0.74847591  0.33296398  0.08752420  1
  Mn3.34+  Mn121  1  0.74582191  0.33138802  0.41302594  1
  Mn3.34+  Mn122  1  0.75017819  0.33030894  0.74929348  1
  Mn3.34+  Mn123  1  0.75113668  0.83913429  0.08003093  1
  Mn3.34+  Mn124  1  0.74589358  0.83535977  0.41889227  1
  Mn3.34+  Mn125  1  0.75199795  0.83410769  0.75178261  1
  Mn3.34+  Mn126  1  0.24577417  0.32721741  0.24993912  1
  Mn3.34+  Mn127  1  0.24935586  0.33181569  0.57771398  1
  Mn3.34+  Mn128  1  0.25241546  0.33728254  0.91240120  1
  Mn3.34+  Mn129  1  0.24940987  0.83956169  0.24797516  1
  Mn3.34+  Mn130  1  0.24739542  0.83202938  0.58426746  1
  Mn3.34+  Mn131  1  0.24818839  0.83620718  0.91682687  1
  Mn3.34+  Mn132  1  0.58664710  0.32811586  0.24579589  1
  Mn3.34+  Mn133  1  0.57943892  0.32591399  0.58097126  1
  Mn3.34+  Mn134  1  0.58496105  0.33261332  0.91480033  1
  Mn3.34+  Mn135  1  0.58639993  0.84199697  0.25164022  1
  Mn3.34+  Mn136  1  0.58452747  0.83326833  0.57671605  1
  Mn3.34+  Mn137  1  0.58687051  0.83620812  0.91522799  1
  Mn3.34+  Mn138  1  0.91195142  0.33125841  0.24495832  1
  Mn3.34+  Mn139  1  0.91812521  0.33398617  0.58516340  1
  Mn3.34+  Mn140  1  0.91287221  0.33243807  0.91675351  1
  Mn3.34+  Mn141  1  0.91811784  0.83377381  0.24548182  1
  Mn3.34+  Mn142  1  0.91514699  0.83215109  0.57855000  1
  Mn3.34+  Mn143  1  0.91382757  0.83308932  0.91886860  1
  Mn3.34+  Mn144  1  0.24988746  0.66591331  0.57654056  1
  Mn3.34+  Mn145  1  0.24183869  0.67235392  0.57902401  1
  Mn3.34+  Mn146  1  0.74828650  0.16295442  0.08129999  1
  Mn3.34+  Mn147  1  0.75467499  0.66547952  0.40662870  1
  Mn3.34+  Mn148  1  0.74480070  0.66031655  0.40848372  1
  Mn3.34+  Mn149  1  0.24744411  0.16387694  0.91462876  1
  Mn3.34+  Mn150  1  0.91245663  0.16339641  0.91632536  1
  Mn3.34+  Mn151  1  0.57961936  0.67114595  0.24444986  1
  Mn3.34+  Mn152  1  0.41022888  0.65632356  0.08089577  1
  Mn3.34+  Mn153  1  0.08857479  0.67139998  0.75226444  1
  Mn3.34+  Mn154  1  0.40778684  0.66537638  0.75393656  1
  Mn3.34+  Mn155  1  0.75211051  0.66725878  0.08433479  1
  Mn3.34+  Mn156  1  0.58337536  0.66531153  0.91829238  1
  Mn3.34+  Mn157  1  0.24362808  0.66837326  0.91371276  1
  Mn3.34+  Mn158  1  0.59239314  0.65962654  0.91590536  1
  Mn3.34+  Mn159  1  0.25128003  0.16514622  0.24935558  1
  Mn3.34+  Mn160  1  0.08629927  0.17333174  0.08171895  1
  Mn3.34+  Mn161  1  0.41806189  0.66223923  0.07788666  1
  Mn3.34+  Mn162  1  0.58837099  0.66493003  0.24231100  1
  Mn3.34+  Mn163  1  0.75178205  0.16008761  0.41757644  1
  Mn3.34+  Mn164  1  0.42015081  0.17240104  0.75211648  1
  Mn3.34+  Mn165  1  0.58150190  0.16945597  0.57644359  1
  Mn3.34+  Mn166  1  0.91590813  0.66711374  0.57786268  1
  Mn3.34+  Mn167  1  0.58148483  0.16661818  0.91505408  1
  Mn3.34+  Mn168  1  0.08697627  0.66844699  0.08151889  1
  Mn3.34+  Mn169  1  0.25527660  0.66547635  0.24261128  1
  Mn3.34+  Mn170  1  0.25766507  0.17327188  0.91731286  1
  Mn3.34+  Mn171  1  0.24708381  0.17157910  0.57430062  1
  Mn3.34+  Mn172  1  0.08329818  0.66966672  0.41959382  1
  Mn3.34+  Mn173  1  0.75209435  0.16808598  0.75506715  1
  Mn3.34+  Mn174  1  0.41837860  0.66103784  0.75392676  1
  Mn3.34+  Mn175  1  0.93037340  0.66257094  0.57463460  1
  Mn3.34+  Mn176  1  0.74339211  0.16631506  0.41540247  1
  Mn3.34+  Mn177  1  0.40658537  0.15997235  0.41910737  1
  Mn3.34+  Mn178  1  0.24251345  0.67210051  0.24537658  1
  Mn3.34+  Mn179  1  0.73884869  0.15777068  0.08349122  1
  Mn3.34+  Mn180  1  0.41046301  0.49923270  0.41958974  1
  Mn3.34+  Mn181  1  0.75570493  0.49750142  0.41872960  1
  Mn3.34+  Mn182  1  0.74797660  0.00150877  0.74669699  1
  Mn3.34+  Mn183  1  0.08014066  0.50098017  0.75206593  1
  Mn3.34+  Mn184  1  0.09065168  0.50141413  0.41315832  1
  Mn3.34+  Mn185  1  0.58758833  0.00368539  0.92016088  1
  Mn3.34+  Mn186  1  0.75269862  0.49860031  0.08492019  1
  Mn3.34+  Mn187  1  0.74098001  0.50141168  0.74650186  1
  Mn3.34+  Mn188  1  0.92118242  -0.00508574  0.57686017  1
  Mn3.34+  Mn189  1  0.75539523  0.49517453  0.74763882  1
  Mn3.34+  Mn190  1  0.41889563  0.49893473  0.74319110  1
  Mn3.34+  Mn191  1  0.09265770  -0.00566758  0.74638552  1
  Mn3.34+  Mn192  1  0.24911994  0.00211055  0.92281574  1
  Mn3.34+  Mn193  1  0.42274294  0.49498574  0.41942818  1
  Mn3.34+  Mn194  1  0.06680966  0.00679382  0.08749811  1
  Mn3.34+  Mn195  1  0.42317723  0.00697182  0.75748254  1
  Mn3.34+  Mn196  1  0.08049850  0.00206624  0.74815013  1
  Mn3.34+  Mn197  1  0.09011436  0.50055994  0.08034129  1
  Mn3.34+  Mn198  1  0.89358591  0.49576541  0.25975411  1
  Mn3.34+  Mn199  1  0.25124500  0.00423729  0.57163337  1
  Mn3.34+  Mn200  1  0.57718755  -0.00322491  0.26436400  1
  Mn3.34+  Mn201  1  0.41012290  -0.00001222  0.75382013  1
  Mn3.34+  Mn202  1  0.91862052  0.50201333  0.57911796  1
  Mn3.34+  Mn203  1  0.75064962  -0.00217936  0.41163404  1
  Mn3.34+  Mn204  1  0.07776418  0.50861622  0.41263270  1
  Mn3.34+  Mn205  1  0.08573531  -0.00391518  0.40507075  1
  Mn3.34+  Mn206  1  0.57949903  0.00426784  0.57963799  1
  Mn3.34+  Mn207  1  0.60030395  0.50249949  0.25306310  1
  Mn3.34+  Mn208  1  0.57179116  0.49692837  0.58192204  1
  Mn3.34+  Mn209  1  0.41532209  0.50163809  0.07249054  1
  Mn3.34+  Mn210  1  0.25353490  0.00062831  0.26639452  1
  Mn3.34+  Mn211  1  0.24588397  0.50143488  0.24025112  1
  Mn3.34+  Mn212  1  0.75918672  0.00166464  0.06145964  1
  Mn3.34+  Mn213  1  0.25278240  0.50342176  0.91862092  1
  Mn3.34+  Mn214  1  0.61155912  0.50202022  0.25453636  1
  Mn3.34+  Mn215  1  0.08064554  0.00074329  0.09151974  1
  O2-  O216  1  -0.00405323  0.16575462  0.00421275  1
  O2-  O217  1  0.00353897  0.16378627  0.33339449  1
  O2-  O218  1  -0.00139063  0.14956451  0.67188696  1
  O2-  O219  1  0.00306480  0.65777312  0.00431995  1
  O2-  O220  1  0.01005964  0.67162780  0.33475530  1
  O2-  O221  1  0.00725814  0.65615937  0.66515895  1
  O2-  O222  1  0.33251941  0.15369281  -0.00323993  1
  O2-  O223  1  0.32900087  0.16841521  0.33826841  1
  O2-  O224  1  0.33540863  0.15845154  0.66763378  1
  O2-  O225  1  0.33389874  0.66806678  -0.00736825  1
  O2-  O226  1  0.32854184  0.65129251  0.32685595  1
  O2-  O227  1  0.33274477  0.65114825  0.65872510  1
  O2-  O228  1  0.66826664  0.15285800  -0.00500811  1
  O2-  O229  1  0.65507815  0.14960513  0.34729974  1
  O2-  O230  1  0.67095172  0.15603959  0.65560716  1
  O2-  O231  1  0.66900535  0.64455752  0.00135586  1
  O2-  O232  1  0.65960459  0.64105266  0.33170537  1
  O2-  O233  1  0.66348827  0.67096518  0.66365403  1
  O2-  O234  1  0.16184576  0.15230675  -0.00755108  1
  O2-  O235  1  0.16098985  0.16984828  0.32058012  1
  O2-  O236  1  0.16626334  0.15227696  0.65594917  1
  O2-  O237  1  0.15996124  0.67669675  -0.00767998  1
  O2-  O238  1  0.16435544  0.64776402  0.33677827  1
  O2-  O239  1  0.16777988  0.66293788  0.66612675  1
  O2-  O240  1  0.50269253  0.16673248  -0.00942664  1
  O2-  O241  1  0.48925971  0.16316045  0.34044411  1
  O2-  O242  1  0.50198279  0.17220445  0.66482987  1
  O2-  O243  1  0.50586652  0.64392215  -0.00004351  1
  O2-  O244  1  0.49570611  0.65865086  0.31678957  1
  O2-  O245  1  0.50069219  0.66172878  0.67795656  1
  O2-  O246  1  0.83052751  0.15089945  0.00390432  1
  O2-  O247  1  0.83241710  0.14737451  0.34105335  1
  O2-  O248  1  0.83321427  0.15685353  0.67514995  1
  O2-  O249  1  0.82617762  0.65767204  -0.00013283  1
  O2-  O250  1  0.83332093  0.65484381  0.33106552  1
  O2-  O251  1  0.84033050  0.63645431  0.65693118  1
  O2-  O252  1  0.00182124  0.34228924  0.00040559  1
  O2-  O253  1  0.00005651  0.33978719  0.33496559  1
  O2-  O254  1  0.00745311  0.35352424  0.65941025  1
  O2-  O255  1  0.00884219  0.83505448  -0.00627070  1
  O2-  O256  1  0.00085931  0.83785906  0.33272484  1
  O2-  O257  1  0.00623447  0.84169331  0.66119060  1
  O2-  O258  1  0.33785275  0.35091268  -0.00619166  1
  O2-  O259  1  0.33587082  0.33923477  0.33084476  1
  O2-  O260  1  0.33431740  0.33798246  0.66774564  1
  O2-  O261  1  0.33518617  0.83944346  0.00306207  1
  O2-  O262  1  0.33205721  0.84521404  0.32986815  1
  O2-  O263  1  0.33666666  0.83718142  0.66207600  1
  O2-  O264  1  0.67028297  0.34962740  -0.00269608  1
  O2-  O265  1  0.65923815  0.34048801  0.33664984  1
  O2-  O266  1  0.65894589  0.33956270  0.66997667  1
  O2-  O267  1  0.66309359  0.85485148  0.00299740  1
  O2-  O268  1  0.67783362  0.86026130  0.32712617  1
  O2-  O269  1  0.66753274  0.83755664  0.66400584  1
  O2-  O270  1  0.16432108  0.35480919  -0.00538571  1
  O2-  O271  1  0.15893239  0.32353653  0.32803897  1
  O2-  O272  1  0.17005289  0.34586521  0.67178241  1
  O2-  O273  1  0.16633244  0.83768172  0.00552614  1
  O2-  O274  1  0.15907568  0.83285776  0.32678791  1
  O2-  O275  1  0.16747660  0.80831900  0.66913401  1
  O2-  O276  1  0.50114875  0.34835689  -0.00283641  1
  O2-  O277  1  0.49640673  0.34429503  0.33337544  1
  O2-  O278  1  0.49532503  0.31948628  0.66624880  1
  O2-  O279  1  0.49688118  0.83347996  0.00072670  1
  O2-  O280  1  0.50607599  0.83986558  0.33295340  1
  O2-  O281  1  0.49968295  0.82987857  0.66234181  1
  O2-  O282  1  0.83160083  0.35592710  -0.00093691  1
  O2-  O283  1  0.83035497  0.35029140  0.33012786  1
  O2-  O284  1  0.83351230  0.35280483  0.66704843  1
  O2-  O285  1  0.83306876  0.84737649  -0.00146197  1
  O2-  O286  1  0.83584273  0.84711443  0.33564001  1
  O2-  O287  1  0.83340531  0.85166327  0.66543969  1
  O2-  O288  1  0.00933508  0.18297850  0.16264330  1
  O2-  O289  1  0.00180009  0.18298994  0.49880336  1
  O2-  O290  1  -0.00488012  0.17429910  0.84082787  1
  O2-  O291  1  0.00732446  0.67730165  0.16220364  1
  O2-  O292  1  -0.00194009  0.69569163  0.49354947  1
  O2-  O293  1  0.00205974  0.68111847  0.82188564  1
  O2-  O294  1  0.33620980  0.16396688  0.17307238  1
  O2-  O295  1  0.33433641  0.18548915  0.50136769  1
  O2-  O296  1  0.33012162  0.18999378  0.82695956  1
  O2-  O297  1  0.33387923  0.69314880  0.15683206  1
  O2-  O298  1  0.32990826  0.68468615  0.50048016  1
  O2-  O299  1  0.32359367  0.67021329  0.82587685  1
  O2-  O300  1  0.66800345  0.18060183  0.16319445  1
  O2-  O301  1  0.66845698  0.18976577  0.49877973  1
  O2-  O302  1  0.66189900  0.17900365  0.82577624  1
  O2-  O303  1  0.66664175  0.68258782  0.16347964  1
  O2-  O304  1  0.67725141  0.67832347  0.49606536  1
  O2-  O305  1  0.66864370  0.67787169  0.83633813  1
  O2-  O306  1  0.17352927  0.18292467  0.15993233  1
  O2-  O307  1  0.16187899  0.18382024  0.50599897  1
  O2-  O308  1  0.17494248  0.18096568  0.82920069  1
  O2-  O309  1  0.16403001  0.68854205  0.16740411  1
  O2-  O310  1  0.16565621  0.69773925  0.49730887  1
  O2-  O311  1  0.16612389  0.69307795  0.82966049  1
  O2-  O312  1  0.48922360  0.16629875  0.16436361  1
  O2-  O313  1  0.49888618  0.18765751  0.49777119  1
  O2-  O314  1  0.50220342  0.18972134  0.82835946  1
  O2-  O315  1  0.50133156  0.69472519  0.15631076  1
  O2-  O316  1  0.51322270  0.69823592  0.51400294  1
  O2-  O317  1  0.50118251  0.68318687  0.83801978  1
  O2-  O318  1  0.83187832  0.17405032  0.15860720  1
  O2-  O319  1  0.82419743  0.17218428  0.50437332  1
  O2-  O320  1  0.83398700  0.18106219  0.83176374  1
  O2-  O321  1  0.84024980  0.67488528  0.14885411  1
  O2-  O322  1  0.82898939  0.67881959  0.50088944  1
  O2-  O323  1  0.83953483  0.67053166  0.83230916  1
  O2-  O324  1  0.00463652  0.31593724  0.16616862  1
  O2-  O325  1  -0.00708008  0.31826296  0.49068389  1
  O2-  O326  1  -0.00495698  0.32289907  0.83101205  1
  O2-  O327  1  -0.00343823  0.81614606  0.16153152  1
  O2-  O328  1  -0.00068450  0.81542488  0.49437735  1
  O2-  O329  1  -0.00356239  0.81420374  0.82851018  1
  O2-  O330  1  0.33541639  0.32916352  0.16310988  1
  O2-  O331  1  0.33400419  0.31341717  0.50090102  1
  O2-  O332  1  0.32912840  0.31322948  0.83090211  1
  O2-  O333  1  0.33109815  0.82069238  0.16045394  1
  O2-  O334  1  0.33623202  0.82409348  0.50718756  1
  O2-  O335  1  0.33734538  0.83711728  0.83930723  1
  O2-  O336  1  0.65888300  0.31876411  0.15711702  1
  O2-  O337  1  0.66932126  0.31830081  0.50442940  1
  O2-  O338  1  0.67015452  0.31712585  0.83742483  1
  O2-  O339  1  0.67224276  0.83074355  0.16789861  1
  O2-  O340  1  0.66607882  0.81225329  0.50072675  1
  O2-  O341  1  0.66792957  0.82161872  0.83055204  1
  O2-  O342  1  0.17102251  0.31540534  0.15928563  1
  O2-  O343  1  0.15848380  0.31582424  0.50797477  1
  O2-  O344  1  0.15643785  0.32647974  0.84015320  1
  O2-  O345  1  0.16423015  0.81176567  0.16612721  1
  O2-  O346  1  0.16382918  0.81689653  0.50452390  1
  O2-  O347  1  0.15481625  0.82074907  0.84290726  1
  O2-  O348  1  0.49123300  0.32594367  0.17151944  1
  O2-  O349  1  0.50214871  0.30757342  0.49402746  1
  O2-  O350  1  0.50178222  0.31948330  0.83319603  1
  O2-  O351  1  0.50337712  0.82029816  0.16540547  1
  O2-  O352  1  0.49455175  0.82811641  0.50404639  1
  O2-  O353  1  0.50487369  0.81797096  0.83121319  1
  O2-  O354  1  0.83743180  0.32064768  0.15825916  1
  O2-  O355  1  0.83465319  0.32435414  0.49669786  1
  O2-  O356  1  0.82655838  0.33699579  0.84127114  1
  O2-  O357  1  0.82814443  0.82773892  0.17160798  1
  O2-  O358  1  0.82975666  0.81697457  0.50180201  1
  O2-  O359  1  0.83282367  0.83066353  0.83494822  1
  O2-  O360  1  0.08507331  0.08729528  0.10785830  1
  O2-  O361  1  0.08315572  0.06799144  0.44893062  1
  O2-  O362  1  0.11062172  0.07552665  0.79248044  1
  O2-  O363  1  0.08798330  0.57940976  0.11572440  1
  O2-  O364  1  0.09422809  0.58305520  0.46408694  1
  O2-  O365  1  0.07938227  0.58201112  0.77817621  1
  O2-  O366  1  0.40548252  0.06355291  0.10910480  1
  O2-  O367  1  0.43288103  0.08115105  0.45016302  1
  O2-  O368  1  0.39858953  0.08578249  0.78281335  1
  O2-  O369  1  0.42383650  0.57541069  0.12977652  1
  O2-  O370  1  0.39990618  0.57976821  0.44274991  1
  O2-  O371  1  0.41583810  0.57927647  0.77714205  1
  O2-  O372  1  0.76215114  0.07433887  0.11221576  1
  O2-  O373  1  0.74123133  0.07399842  0.46511088  1
  O2-  O374  1  0.74385009  0.08333249  0.76354925  1
  O2-  O375  1  0.74991709  0.57988527  0.10748009  1
  O2-  O376  1  0.75201623  0.57823090  0.45724952  1
  O2-  O377  1  0.75299710  0.58127848  0.77181259  1
  O2-  O378  1  0.22763151  0.07981511  0.22649637  1
  O2-  O379  1  0.25732039  0.08626451  0.55786103  1
  O2-  O380  1  0.25694627  0.08156297  0.87493898  1
  O2-  O381  1  0.24743745  0.58628407  0.21088351  1
  O2-  O382  1  0.23213165  0.58308857  0.55469118  1
  O2-  O383  1  0.22588680  0.58353765  0.88623379  1
  O2-  O384  1  0.57065287  0.06895555  0.23323456  1
  O2-  O385  1  0.58060768  0.08188770  0.53689400  1
  O2-  O386  1  0.56526129  0.08109022  0.88308427  1
  O2-  O387  1  0.57809466  0.58081308  0.20049054  1
  O2-  O388  1  0.58475865  0.57694967  0.55928633  1
  O2-  O389  1  0.59359088  0.58044382  0.88524821  1
  O2-  O390  1  0.98047037  0.04720352  0.19640707  1
  O2-  O391  1  0.91118406  0.07408939  0.54379456  1
  O2-  O392  1  0.92336759  0.08378539  0.89246347  1
  O2-  O393  1  0.92710168  0.56576731  0.19314537  1
  O2-  O394  1  0.94166647  0.58337713  0.54445331  1
  O2-  O395  1  0.92519176  0.56932354  0.89898295  1
  O2-  O396  1  0.09378988  0.42144548  0.11259843  1
  O2-  O397  1  0.06521943  0.42253616  0.44889558  1
  O2-  O398  1  0.07868517  0.42068417  0.78114267  1
  O2-  O399  1  0.07996395  0.92017093  0.11687364  1
  O2-  O400  1  0.08198170  0.92249389  0.44785685  1
  O2-  O401  1  0.07517290  0.91616584  0.78198085  1
  O2-  O402  1  0.41561593  0.42280803  0.11551237  1
  O2-  O403  1  0.43241757  0.41582645  0.45290417  1
  O2-  O404  1  0.42414531  0.42000445  0.77714358  1
  O2-  O405  1  0.42086981  0.91688080  0.09311346  1
  O2-  O406  1  0.41196045  0.92189445  0.44551952  1
  O2-  O407  1  0.43777808  0.91948992  0.76666523  1
  O2-  O408  1  0.74768596  0.41921760  0.11186410  1
  O2-  O409  1  0.75000831  0.41741668  0.45118684  1
  O2-  O410  1  0.73355537  0.41641887  0.77772563  1
  O2-  O411  1  0.75369868  0.92956490  0.11316056  1
  O2-  O412  1  0.75621646  0.92136635  0.45647483  1
  O2-  O413  1  0.74500409  0.92110465  0.77621913  1
  O2-  O414  1  0.25578380  0.41504383  0.22433580  1
  O2-  O415  1  0.25402064  0.41266816  0.56630941  1
  O2-  O416  1  0.25329602  0.42345866  0.87375470  1
  O2-  O417  1  0.23764626  0.92513623  0.21697605  1
  O2-  O418  1  0.25827513  0.92140064  0.56676947  1
  O2-  O419  1  0.21856845  0.92139100  0.90777223  1
  O2-  O420  1  0.56779936  0.42103537  0.21858811  1
  O2-  O421  1  0.57187846  0.41559668  0.56164327  1
  O2-  O422  1  0.59755267  0.41544235  0.88588408  1
  O2-  O423  1  0.60053260  0.93091357  0.21053462  1
  O2-  O424  1  0.56020801  0.92237948  0.58026354  1
  O2-  O425  1  0.57997107  0.92543783  0.87967991  1
  O2-  O426  1  0.93565711  0.41726866  0.22256520  1
  O2-  O427  1  0.91922719  0.41937695  0.54963257  1
  O2-  O428  1  0.93224519  0.41845391  0.89421085  1
  O2-  O429  1  0.91608754  0.91576460  0.23665915  1
  O2-  O430  1  0.93046953  0.91503692  0.55022304  1
  O2-  O431  1  0.93587212  0.91476802  0.88359655  1
  O2-  O432  1  0.02965532  -0.00913989  -0.02188137  1
  O2-  O433  1  -0.01153946  -0.00039628  0.36034184  1
  O2-  O434  1  -0.00298732  -0.00081487  0.66693267  1
  O2-  O435  1  -0.00518404  0.49991351  0.02929853  1
  O2-  O436  1  0.01377297  0.51483464  0.31373657  1
  O2-  O437  1  -0.00722936  0.50385632  0.67663632  1
  O2-  O438  1  0.33917259  -0.00562291  -0.01719570  1
  O2-  O439  1  0.34874462  0.01515883  0.30470876  1
  O2-  O440  1  0.33683663  0.01163104  0.65983559  1
  O2-  O441  1  0.32925347  0.48253364  0.00248803  1
  O2-  O442  1  0.34176589  0.49729168  0.31930911  1
  O2-  O443  1  0.32240454  0.49838748  0.69140446  1
  O2-  O444  1  0.66976890  -0.01469518  -0.00178361  1
  O2-  O445  1  0.65884081  0.01087284  0.34040857  1
  O2-  O446  1  0.67551163  0.00745984  0.64848175  1
  O2-  O447  1  0.67896707  0.49156455  -0.00120340  1
  O2-  O448  1  0.65308093  0.48809958  0.36368559  1
  O2-  O449  1  0.67384556  0.50362888  0.64810040  1
  O2-  O450  1  0.18325243  0.01095585  0.02776548  1
  O2-  O451  1  0.14203691  0.00086370  0.30680089  1
  O2-  O452  1  0.16802327  0.00786529  0.65801137  1
  O2-  O453  1  0.14412720  0.49130971  -0.02872815  1
  O2-  O454  1  0.17505514  0.51326241  0.33632367  1
  O2-  O455  1  0.16192350  0.50010633  0.67699065  1
  O2-  O456  1  0.50438520  -0.01039632  -0.01390638  1
  O2-  O457  1  0.50104733  0.00149141  0.33707521  1
  O2-  O458  1  0.50547843  0.02178421  0.67360917  1
  O2-  O459  1  0.51149393  0.49036054  0.02303373  1
  O2-  O460  1  0.49558248  0.50712439  0.31905846  1
  O2-  O461  1  0.51763121  0.49940277  0.68744185  1
  O2-  O462  1  0.83787519  -0.00649101  -0.00356834  1
  O2-  O463  1  0.82614355  -0.01550530  0.33362015  1
  O2-  O464  1  0.83208816  0.00153391  0.65757851  1
  O2-  O465  1  0.83976558  0.50105344  0.01944461  1
  O2-  O466  1  0.86470077  0.48795905  0.37967043  1
  O2-  O467  1  0.82905251  0.49713498  0.65833242  1
  O2-  O468  1  0.91257301  0.75376530  0.26218556  1
  O2-  O469  1  0.25158152  0.24958828  0.61121315  1
  O2-  O470  1  0.75265857  0.74949532  0.38212846  1
  O2-  O471  1  0.90887828  0.74633681  0.61723903  1
  O2-  O472  1  0.90683270  0.25444087  0.26976191  1
  O2-  O473  1  0.91701175  0.25723139  0.60846063  1
  O2-  O474  1  0.90329132  0.25188879  0.94198510  1
  O2-  O475  1  0.75418400  0.24910255  0.38460011  1
  O2-  O476  1  0.40073626  0.74786662  0.74130716  1
  O2-  O477  1  0.41523471  0.76000293  0.39865633  1
  O2-  O478  1  0.74615616  0.75184775  0.05972272  1
  O2-  O479  1  0.91086466  0.75425921  0.93640235  1
  O2-  O480  1  0.75569252  0.24852878  0.05496169  1
  O2-  O481  1  0.08154960  0.25504860  0.73067827  1
  O2-  O482  1  0.75990468  0.75622308  0.73404929  1
  O2-  O483  1  0.27007617  0.24815683  0.25664110  1
  O2-  O484  1  0.59910903  0.75131312  0.27421971  1
  O2-  O485  1  0.41572241  0.25423003  0.06641677  1
  O2-  O486  1  0.75259798  0.25001828  0.72672199  1
  O2-  O487  1  0.58888927  0.74403855  0.94696994  1
  O2-  O488  1  0.57790116  0.25042543  0.26102296  1
  O2-  O489  1  0.24115759  0.25337100  0.95151612  1
  O2-  O490  1  0.26698436  0.75335235  0.92349219  1
  O2-  O491  1  0.26126945  0.75053678  0.27674306  1
  O2-  O492  1  0.59068939  0.25096507  0.94282763  1
