# generated using pymatgen
data_Ca108Mn108O277
_symmetry_space_group_name_H-M   'P 1'
_cell_length_a   16.02858505
_cell_length_b   22.30652334
_cell_length_c   16.39031499
_cell_angle_alpha   89.99377868
_cell_angle_beta   89.99247569
_cell_angle_gamma   89.99973832
_symmetry_Int_Tables_number   1
_chemical_formula_structural   Ca108Mn108O277
_chemical_formula_sum   'Ca108 Mn108 O277'
_cell_volume   5860.22602721
_cell_formula_units_Z   1
loop_
 _symmetry_equiv_pos_site_id
 _symmetry_equiv_pos_as_xyz
  1  'x, y, z'
loop_
 _atom_type_symbol
 _atom_type_oxidation_number
  Ca2+  2.0
  Mn3.34+  3.34
  O2-  -2.0
loop_
 _atom_site_type_symbol
 _atom_site_label
 _atom_site_symmetry_multiplicity
 _atom_site_fract_x
 _atom_site_fract_y
 _atom_site_fract_z
 _atom_site_occupancy
  Ca2+  Ca0  1  0.06394636  0.25909700  0.25672402  1
  Ca2+  Ca1  1  0.06482947  0.25034489  0.59583442  1
  Ca2+  Ca2  1  0.09161808  0.25162847  0.89435393  1
  Ca2+  Ca3  1  0.08382407  0.74028780  0.24984764  1
  Ca2+  Ca4  1  0.07432539  0.74375968  0.56454079  1
  Ca2+  Ca5  1  0.10665383  0.74866791  0.92559020  1
  Ca2+  Ca6  1  0.44089230  0.25627338  0.23807666  1
  Ca2+  Ca7  1  0.42175566  0.26596370  0.58912211  1
  Ca2+  Ca8  1  0.41168974  0.25079609  0.91839401  1
  Ca2+  Ca9  1  0.42453550  0.73784058  0.26175483  1
  Ca2+  Ca10  1  0.41598933  0.73461001  0.58669071  1
  Ca2+  Ca11  1  0.39882681  0.73704295  0.91810385  1
  Ca2+  Ca12  1  0.73458107  0.22802742  0.24438104  1
  Ca2+  Ca13  1  0.75954058  0.25499108  0.57794383  1
  Ca2+  Ca14  1  0.74416284  0.24919718  0.93193439  1
  Ca2+  Ca15  1  0.73479922  0.74755051  0.24243570  1
  Ca2+  Ca16  1  0.75054552  0.74788401  0.57990104  1
  Ca2+  Ca17  1  0.74599921  0.75267012  0.92526733  1
  Ca2+  Ca18  1  0.26196561  0.25755275  0.07335636  1
  Ca2+  Ca19  1  0.23765287  0.26684875  0.41966279  1
  Ca2+  Ca20  1  0.24273530  0.25844768  0.76351215  1
  Ca2+  Ca21  1  0.25180211  0.74364883  0.07169325  1
  Ca2+  Ca22  1  0.26914037  0.74617330  0.41673942  1
  Ca2+  Ca23  1  0.27543005  0.74499155  0.76703605  1
  Ca2+  Ca24  1  0.59407057  0.24646099  0.09389551  1
  Ca2+  Ca25  1  0.59467545  0.26041903  0.40103451  1
  Ca2+  Ca26  1  0.57520241  0.26624822  0.75206932  1
  Ca2+  Ca27  1  0.59482040  0.74193830  0.09471297  1
  Ca2+  Ca28  1  0.56969542  0.73750077  0.40695336  1
  Ca2+  Ca29  1  0.56375082  0.74548695  0.74626186  1
  Ca2+  Ca30  1  0.89563986  0.25051339  0.09843364  1
  Ca2+  Ca31  1  0.91259621  0.24592542  0.42023483  1
  Ca2+  Ca32  1  0.93555397  0.24897409  0.73978655  1
  Ca2+  Ca33  1  0.90109504  0.75628967  0.08304670  1
  Ca2+  Ca34  1  0.91041188  0.74027075  0.42433778  1
  Ca2+  Ca35  1  0.89787011  0.74891173  0.74208411  1
  Ca2+  Ca36  1  0.91356391  0.61107611  0.08949933  1
  Ca2+  Ca37  1  0.22952260  0.08274384  0.41725876  1
  Ca2+  Ca38  1  0.42157015  0.07501812  0.61261971  1
  Ca2+  Ca39  1  0.60097913  0.09263856  0.39962540  1
  Ca2+  Ca40  1  0.24159230  0.07990209  0.41563906  1
  Ca2+  Ca41  1  0.59837891  0.10639470  0.09016463  1
  Ca2+  Ca42  1  0.27142190  0.08187549  0.07185772  1
  Ca2+  Ca43  1  0.61227406  0.08958582  0.40327637  1
  Ca2+  Ca44  1  0.06707652  0.07638150  0.27130486  1
  Ca2+  Ca45  1  0.07901731  0.58097937  0.58390337  1
  Ca2+  Ca46  1  0.72684017  0.08033690  0.94355418  1
  Ca2+  Ca47  1  0.04956060  0.10829051  0.58443682  1
  Ca2+  Ca48  1  0.26446557  0.60442270  0.42301358  1
  Ca2+  Ca49  1  0.26019850  0.09384870  0.75405568  1
  Ca2+  Ca50  1  0.09045314  0.08889130  0.91651917  1
  Ca2+  Ca51  1  0.10581222  0.59362725  0.92508865  1
  Ca2+  Ca52  1  0.77532865  0.09313329  0.58234542  1
  Ca2+  Ca53  1  0.72702485  0.59662520  0.25272669  1
  Ca2+  Ca54  1  0.91827389  0.58361843  0.73480274  1
  Ca2+  Ca55  1  0.26395756  0.59454666  0.06116861  1
  Ca2+  Ca56  1  0.43618381  0.10050673  0.23583621  1
  Ca2+  Ca57  1  0.73753410  0.59630408  0.25335767  1
  Ca2+  Ca58  1  0.57661072  0.59277056  0.09456839  1
  Ca2+  Ca59  1  0.07906684  0.08975696  0.91695326  1
  Ca2+  Ca60  1  0.44348490  0.10591652  0.24101233  1
  Ca2+  Ca61  1  0.91337955  0.09213815  0.41690907  1
  Ca2+  Ca62  1  0.75385031  0.59877235  0.92922745  1
  Ca2+  Ca63  1  0.40805909  0.07556474  0.61068542  1
  Ca2+  Ca64  1  0.27488959  0.60442497  0.42493917  1
  Ca2+  Ca65  1  0.73502568  0.07785941  0.94900717  1
  Ca2+  Ca66  1  0.90284474  0.61138056  0.08946575  1
  Ca2+  Ca67  1  0.78087844  0.09927630  0.58504932  1
  Ca2+  Ca68  1  0.24879095  0.09625091  0.75128938  1
  Ca2+  Ca69  1  0.85668256  0.08715125  0.10210647  1
  Ca2+  Ca70  1  0.92513317  0.10710120  0.73011373  1
  Ca2+  Ca71  1  0.29291378  0.60102979  0.76469869  1
  Ca2+  Ca72  1  0.73875364  0.40393571  0.57956260  1
  Ca2+  Ca73  1  0.07024288  0.90641924  0.24121409  1
  Ca2+  Ca74  1  0.91537850  0.91005892  0.07430322  1
  Ca2+  Ca75  1  0.42829585  0.40828956  0.91742171  1
  Ca2+  Ca76  1  0.09019041  0.40319165  0.26226439  1
  Ca2+  Ca77  1  0.41590976  0.41168852  0.58119900  1
  Ca2+  Ca78  1  0.27062764  0.90509417  0.74702490  1
  Ca2+  Ca79  1  0.91832244  0.40642833  0.42406938  1
  Ca2+  Ca80  1  0.08778575  0.90058323  0.58325884  1
  Ca2+  Ca81  1  0.42161011  0.90313247  0.91138296  1
  Ca2+  Ca82  1  0.73439464  0.41180051  0.25049941  1
  Ca2+  Ca83  1  0.57207417  0.90871546  0.08265274  1
  Ca2+  Ca84  1  0.91860890  0.40337612  0.08225214  1
  Ca2+  Ca85  1  0.75441897  0.91079692  0.92253472  1
  Ca2+  Ca86  1  0.45153605  0.41881738  0.25504217  1
  Ca2+  Ca87  1  0.73761756  0.40211600  0.91819400  1
  Ca2+  Ca88  1  0.26255319  0.89924021  0.08649971  1
  Ca2+  Ca89  1  0.90751810  0.89763299  0.75661909  1
  Ca2+  Ca90  1  0.73657904  0.90691607  0.58026801  1
  Ca2+  Ca91  1  0.93974927  0.41356188  0.73440934  1
  Ca2+  Ca92  1  0.24311634  0.89954340  0.42442105  1
  Ca2+  Ca93  1  0.89421921  0.91264590  0.41731412  1
  Ca2+  Ca94  1  0.08689576  0.41137817  0.91016151  1
  Ca2+  Ca95  1  0.07491137  0.90119058  0.58221753  1
  Ca2+  Ca96  1  0.42337301  0.90184705  0.59095454  1
  Ca2+  Ca97  1  0.08259333  0.90640198  0.24134875  1
  Ca2+  Ca98  1  0.57935640  0.40768469  0.08118246  1
  Ca2+  Ca99  1  0.58270164  0.90810636  0.08203536  1
  Ca2+  Ca100  1  0.57006047  0.90728018  0.74835442  1
  Ca2+  Ca101  1  0.75375438  0.90232431  0.24271053  1
  Ca2+  Ca102  1  0.90536481  0.90908586  0.41381767  1
  Ca2+  Ca103  1  0.25493081  0.40814392  0.08208498  1
  Ca2+  Ca104  1  0.24423132  0.41464001  0.73913446  1
  Ca2+  Ca105  1  0.09822717  0.41115409  0.90983760  1
  Ca2+  Ca106  1  0.72356329  0.40952979  0.25127060  1
  Ca2+  Ca107  1  0.25578092  0.89843889  0.42618042  1
  Mn3.34+  Mn108  1  0.08420703  0.33336601  0.08699197  1
  Mn3.34+  Mn109  1  0.08189604  0.33177294  0.42572030  1
  Mn3.34+  Mn110  1  0.08583067  0.33435830  0.74572955  1
  Mn3.34+  Mn111  1  0.08354811  0.83333839  0.07968437  1
  Mn3.34+  Mn112  1  0.08225409  0.83109727  0.41683267  1
  Mn3.34+  Mn113  1  0.08301884  0.82269897  0.75554564  1
  Mn3.34+  Mn114  1  0.41814146  0.33557816  0.08482516  1
  Mn3.34+  Mn115  1  0.41370760  0.33786998  0.41639481  1
  Mn3.34+  Mn116  1  0.41763749  0.33828080  0.75033037  1
  Mn3.34+  Mn117  1  0.41901408  0.83172142  0.08604893  1
  Mn3.34+  Mn118  1  0.42446657  0.83108067  0.41824122  1
  Mn3.34+  Mn119  1  0.41929906  0.83213161  0.75270639  1
  Mn3.34+  Mn120  1  0.74869880  0.33183090  0.08445518  1
  Mn3.34+  Mn121  1  0.74837892  0.33669007  0.41905079  1
  Mn3.34+  Mn122  1  0.75202121  0.33163288  0.75400403  1
  Mn3.34+  Mn123  1  0.74749079  0.83391674  0.08326591  1
  Mn3.34+  Mn124  1  0.73882840  0.83337628  0.41795306  1
  Mn3.34+  Mn125  1  0.74486048  0.83381583  0.75220859  1
  Mn3.34+  Mn126  1  0.25469037  0.33160949  0.25045295  1
  Mn3.34+  Mn127  1  0.24645684  0.34158664  0.57925659  1
  Mn3.34+  Mn128  1  0.25511908  0.33732760  0.91512475  1
  Mn3.34+  Mn129  1  0.25485314  0.82664097  0.24608736  1
  Mn3.34+  Mn130  1  0.25184582  0.82123282  0.58894568  1
  Mn3.34+  Mn131  1  0.24959905  0.83118254  0.91624545  1
  Mn3.34+  Mn132  1  0.58184403  0.33136774  0.24937972  1
  Mn3.34+  Mn133  1  0.58173280  0.33672614  0.57971481  1
  Mn3.34+  Mn134  1  0.58242930  0.33452277  0.91331208  1
  Mn3.34+  Mn135  1  0.57891138  0.83022678  0.25415644  1
  Mn3.34+  Mn136  1  0.58320305  0.83208986  0.58214916  1
  Mn3.34+  Mn137  1  0.58307983  0.83296815  0.91366988  1
  Mn3.34+  Mn138  1  0.91356504  0.33387570  0.25172562  1
  Mn3.34+  Mn139  1  0.91654628  0.33642758  0.58177742  1
  Mn3.34+  Mn140  1  0.91443657  0.33283642  0.91423897  1
  Mn3.34+  Mn141  1  0.91271288  0.82916431  0.24876868  1
  Mn3.34+  Mn142  1  0.91099400  0.82849421  0.58423362  1
  Mn3.34+  Mn143  1  0.92038643  0.83251780  0.91429918  1
  Mn3.34+  Mn144  1  0.91037810  0.16579423  0.25239749  1
  Mn3.34+  Mn145  1  0.25700515  0.18528422  0.25635595  1
  Mn3.34+  Mn146  1  0.42169056  0.17133131  0.75767399  1
  Mn3.34+  Mn147  1  0.58987708  0.65674417  0.58043837  1
  Mn3.34+  Mn148  1  0.08083846  0.66754794  0.75315018  1
  Mn3.34+  Mn149  1  0.57247576  0.66026786  0.25218202  1
  Mn3.34+  Mn150  1  0.42135046  0.16897578  0.07709903  1
  Mn3.34+  Mn151  1  0.09027186  0.65826336  0.75035928  1
  Mn3.34+  Mn152  1  0.58919316  0.17146095  0.58877078  1
  Mn3.34+  Mn153  1  0.57264522  0.66044564  0.91240245  1
  Mn3.34+  Mn154  1  0.90847161  0.66024751  0.57629671  1
  Mn3.34+  Mn155  1  0.57868431  0.16567755  0.90754138  1
  Mn3.34+  Mn156  1  0.74297930  0.16489143  0.75874842  1
  Mn3.34+  Mn157  1  0.75078610  0.66756118  0.75036984  1
  Mn3.34+  Mn158  1  0.07596015  0.16049170  0.09457293  1
  Mn3.34+  Mn159  1  0.08504557  0.66937375  0.08738684  1
  Mn3.34+  Mn160  1  0.74691804  0.66667267  0.41754931  1
  Mn3.34+  Mn161  1  0.41442309  0.66857693  0.08727122  1
  Mn3.34+  Mn162  1  0.24883566  0.17819255  0.57534523  1
  Mn3.34+  Mn163  1  0.08111187  0.66349639  0.41385561  1
  Mn3.34+  Mn164  1  0.91901403  0.67455535  0.91022173  1
  Mn3.34+  Mn165  1  0.24810733  0.18280675  0.58578870  1
  Mn3.34+  Mn166  1  0.75494659  0.17152466  0.41679628  1
  Mn3.34+  Mn167  1  0.08771261  0.16748567  0.09024393  1
  Mn3.34+  Mn168  1  0.41601196  0.17004172  0.42401304  1
  Mn3.34+  Mn169  1  0.57979395  0.66061178  0.58335383  1
  Mn3.34+  Mn170  1  0.91841842  0.16369639  0.91273240  1
  Mn3.34+  Mn171  1  0.90944559  0.16977358  0.91435793  1
  Mn3.34+  Mn172  1  0.25566814  0.16720602  0.91996748  1
  Mn3.34+  Mn173  1  0.25119054  0.66420839  0.24263622  1
  Mn3.34+  Mn174  1  0.24675420  0.66618279  0.58705558  1
  Mn3.34+  Mn175  1  0.57745920  0.16361323  0.58528261  1
  Mn3.34+  Mn176  1  0.91624361  0.67190701  0.25450911  1
  Mn3.34+  Mn177  1  0.58257196  0.66490353  0.91560966  1
  Mn3.34+  Mn178  1  0.07546546  0.16845755  0.41941610  1
  Mn3.34+  Mn179  1  0.24874658  0.17949536  0.25366993  1
  Mn3.34+  Mn180  1  0.25676174  0.49860763  0.24879878  1
  Mn3.34+  Mn181  1  0.25919545  0.50221793  0.91948111  1
  Mn3.34+  Mn182  1  0.91110947  0.00001926  0.25475922  1
  Mn3.34+  Mn183  1  0.74745995  0.50197025  0.07923535  1
  Mn3.34+  Mn184  1  0.24219898  0.00259521  0.58435301  1
  Mn3.34+  Mn185  1  0.92089980  0.49858138  0.26238749  1
  Mn3.34+  Mn186  1  0.42649125  -0.00161478  0.42286214  1
  Mn3.34+  Mn187  1  0.91369660  -0.00289950  0.58600701  1
  Mn3.34+  Mn188  1  0.73572168  0.50707422  0.74467135  1
  Mn3.34+  Mn189  1  0.25197229  -0.00818249  0.93482132  1
  Mn3.34+  Mn190  1  0.57931061  0.50087702  0.91826674  1
  Mn3.34+  Mn191  1  0.42436566  0.49942163  0.73820549  1
  Mn3.34+  Mn192  1  0.74663592  0.00436093  0.74778129  1
  Mn3.34+  Mn193  1  0.57126782  0.00016321  0.92414128  1
  Mn3.34+  Mn194  1  0.25733686  -0.00691083  0.92305444  1
  Mn3.34+  Mn195  1  0.92284222  0.50519492  0.90853400  1
  Mn3.34+  Mn196  1  0.93407684  0.50524893  0.26161036  1
  Mn3.34+  Mn197  1  0.09441205  0.49471870  0.42523839  1
  Mn3.34+  Mn198  1  0.57754601  0.49614904  0.57940971  1
  Mn3.34+  Mn199  1  0.73726933  0.50180042  0.41013032  1
  Mn3.34+  Mn200  1  0.59548919  -0.00100249  0.25269583  1
  Mn3.34+  Mn201  1  0.58530674  -0.00631296  0.25422553  1
  Mn3.34+  Mn202  1  0.72707161  0.50040295  0.74351235  1
  Mn3.34+  Mn203  1  0.08564633  0.50209376  0.08303921  1
  Mn3.34+  Mn204  1  0.07092026  -0.00252264  0.75606518  1
  Mn3.34+  Mn205  1  0.26196782  0.00035170  0.24156111  1
  Mn3.34+  Mn206  1  0.91698076  0.50044578  0.59327995  1
  Mn3.34+  Mn207  1  0.90756131  0.49994004  0.90892525  1
  Mn3.34+  Mn208  1  0.41625285  0.50260504  0.08199986  1
  Mn3.34+  Mn209  1  0.24629805  0.50274823  0.60091198  1
  Mn3.34+  Mn210  1  0.58796262  -0.00214017  0.58678717  1
  Mn3.34+  Mn211  1  0.08596361  -0.00801233  0.75735283  1
  Mn3.34+  Mn212  1  0.92399702  0.00105811  0.91975898  1
  Mn3.34+  Mn213  1  0.42920668  0.50083681  0.40185575  1
  Mn3.34+  Mn214  1  0.24457518  0.50540475  0.25021521  1
  Mn3.34+  Mn215  1  0.25150218  0.00575318  0.24005017  1
  O2-  O216  1  -0.00696558  0.14038646  0.00351840  1
  O2-  O217  1  0.00087882  0.15060594  0.33491190  1
  O2-  O218  1  -0.00916479  0.17613395  0.66114044  1
  O2-  O219  1  -0.00106078  0.66217794  -0.00342515  1
  O2-  O220  1  -0.00396513  0.67749751  0.33384725  1
  O2-  O221  1  0.00249061  0.65771185  0.67020801  1
  O2-  O222  1  0.32730619  0.16149381  0.00878678  1
  O2-  O223  1  0.33314188  0.14888840  0.33810767  1
  O2-  O224  1  0.33566101  0.16421722  0.66071518  1
  O2-  O225  1  0.33583509  0.66652540  0.01065991  1
  O2-  O226  1  0.32453012  0.66860419  0.33028456  1
  O2-  O227  1  0.31855503  0.67601472  0.66854810  1
  O2-  O228  1  0.66279892  0.16743736  -0.01652179  1
  O2-  O229  1  0.66974307  0.16458444  0.34127646  1
  O2-  O230  1  0.66872300  0.14495013  0.66537596  1
  O2-  O231  1  0.65824364  0.65042996  -0.00275817  1
  O2-  O232  1  0.66347791  0.66314982  0.33418140  1
  O2-  O233  1  0.66899429  0.65330202  0.66195753  1
  O2-  O234  1  0.16342012  0.14466845  0.00546884  1
  O2-  O235  1  0.16970823  0.15156309  0.33574889  1
  O2-  O236  1  0.17281638  0.15323041  0.66452779  1
  O2-  O237  1  0.16445059  0.65629678  0.01112142  1
  O2-  O238  1  0.17174098  0.66294226  0.33545314  1
  O2-  O239  1  0.15424177  0.68323631  0.66079587  1
  O2-  O240  1  0.50440404  0.17032293  -0.00114315  1
  O2-  O241  1  0.50074602  0.15150167  0.34343272  1
  O2-  O242  1  0.49755491  0.14927246  0.66784977  1
  O2-  O243  1  0.50013577  0.64888770  0.00094566  1
  O2-  O244  1  0.49751042  0.66317910  0.32844117  1
  O2-  O245  1  0.50412007  0.65917261  0.66185861  1
  O2-  O246  1  0.82735381  0.15111683  -0.01125441  1
  O2-  O247  1  0.83761212  0.15466747  0.34048228  1
  O2-  O248  1  0.82021589  0.16741392  0.67195322  1
  O2-  O249  1  0.84091394  0.66697404  -0.00514770  1
  O2-  O250  1  0.82383165  0.66430141  0.32606047  1
  O2-  O251  1  0.84124190  0.65574803  0.67490903  1
  O2-  O252  1  0.00442684  0.35644443  -0.00612037  1
  O2-  O253  1  -0.00260355  0.34430412  0.33234366  1
  O2-  O254  1  -0.00087066  0.33337358  0.66668587  1
  O2-  O255  1  -0.00934800  0.83259613  0.00798743  1
  O2-  O256  1  -0.00506572  0.85396197  0.33580573  1
  O2-  O257  1  -0.00202449  0.83810683  0.66522134  1
  O2-  O258  1  0.33615957  0.35023554  -0.00163078  1
  O2-  O259  1  0.33441781  0.29586458  0.32875007  1
  O2-  O260  1  0.33350865  0.34262880  0.66512309  1
  O2-  O261  1  0.33653505  0.84778055  -0.00327599  1
  O2-  O262  1  0.32268844  0.83614908  0.34256696  1
  O2-  O263  1  0.33358461  0.83917804  0.66726117  1
  O2-  O264  1  0.66314331  0.33564987  0.00250165  1
  O2-  O265  1  0.66227832  0.34536207  0.33463269  1
  O2-  O266  1  0.67498318  0.33144832  0.66582169  1
  O2-  O267  1  0.66408069  0.85252976  -0.00090291  1
  O2-  O268  1  0.67225676  0.84217796  0.32419442  1
  O2-  O269  1  0.66298896  0.84956378  0.67276973  1
  O2-  O270  1  0.16960954  0.35182984  -0.00031312  1
  O2-  O271  1  0.16894109  0.33252114  0.33055688  1
  O2-  O272  1  0.17617924  0.33445263  0.67293190  1
  O2-  O273  1  0.17191274  0.84467932  0.00443899  1
  O2-  O274  1  0.16405653  0.84580840  0.33120445  1
  O2-  O275  1  0.15978970  0.82887392  0.66180127  1
  O2-  O276  1  0.50047738  0.34211523  -0.00081049  1
  O2-  O277  1  0.49181637  0.33498152  0.32583530  1
  O2-  O278  1  0.49691853  0.34814658  0.66262855  1
  O2-  O279  1  0.50223372  0.84858787  -0.00239839  1
  O2-  O280  1  0.49770858  0.84086650  0.33181321  1
  O2-  O281  1  0.50285018  0.84145345  0.66968403  1
  O2-  O282  1  0.83114232  0.34837482  -0.00022496  1
  O2-  O283  1  0.82843778  0.35934249  0.33025013  1
  O2-  O284  1  0.83729650  0.31878214  0.66858599  1
  O2-  O285  1  0.83300361  0.84073373  -0.00108667  1
  O2-  O286  1  0.83609634  0.84355146  0.33473731  1
  O2-  O287  1  0.82956683  0.84810718  0.66355530  1
  O2-  O288  1  0.00089715  0.18465337  0.17427574  1
  O2-  O289  1  -0.00245160  0.17862302  0.49391055  1
  O2-  O290  1  0.00658204  0.17588866  0.84416720  1
  O2-  O291  1  -0.00936953  0.68632762  0.16111536  1
  O2-  O292  1  0.00122759  0.67305090  0.50117909  1
  O2-  O293  1  0.00419455  0.69435771  0.83187224  1
  O2-  O294  1  0.34591083  0.18730559  0.17801258  1
  O2-  O295  1  0.32972069  0.20234958  0.49886483  1
  O2-  O296  1  0.32771517  0.18145252  0.82323361  1
  O2-  O297  1  0.33468111  0.69010538  0.16832609  1
  O2-  O298  1  0.32438345  0.67836551  0.50460310  1
  O2-  O299  1  0.33837106  0.67465505  0.83561347  1
  O2-  O300  1  0.66657385  0.17652070  0.15479840  1
  O2-  O301  1  0.66717047  0.18055941  0.50223264  1
  O2-  O302  1  0.66338167  0.19427010  0.83001916  1
  O2-  O303  1  0.66699533  0.67027195  0.17600187  1
  O2-  O304  1  0.66545606  0.67931820  0.50094634  1
  O2-  O305  1  0.66607446  0.68127091  0.83736636  1
  O2-  O306  1  0.17086046  0.19603883  0.16940413  1
  O2-  O307  1  0.16396706  0.18553455  0.49781500  1
  O2-  O308  1  0.17095977  0.16280785  0.84398918  1
  O2-  O309  1  0.16670758  0.68648573  0.16730716  1
  O2-  O310  1  0.16975751  0.68109986  0.49654529  1
  O2-  O311  1  0.16805926  0.67871109  0.82713185  1
  O2-  O312  1  0.49928653  0.17549133  0.16056166  1
  O2-  O313  1  0.50154030  0.18575052  0.50252383  1
  O2-  O314  1  0.49763386  0.19223862  0.83437289  1
  O2-  O315  1  0.50565060  0.67509420  0.16206343  1
  O2-  O316  1  0.50501753  0.67804614  0.50418125  1
  O2-  O317  1  0.49751529  0.68186216  0.83829168  1
  O2-  O318  1  0.83791439  0.17432973  0.17048647  1
  O2-  O319  1  0.82838575  0.17804696  0.50433888  1
  O2-  O320  1  0.83988577  0.19041737  0.82489658  1
  O2-  O321  1  0.83940203  0.68180251  0.17145401  1
  O2-  O322  1  0.82778702  0.67863672  0.49953053  1
  O2-  O323  1  0.83101784  0.69097547  0.83849148  1
  O2-  O324  1  -0.00626466  0.31833446  0.16213306  1
  O2-  O325  1  -0.00722302  0.31256766  0.50063655  1
  O2-  O326  1  0.00398712  0.32686396  0.83633335  1
  O2-  O327  1  0.00180496  0.81699099  0.17745237  1
  O2-  O328  1  0.00256221  0.82613435  0.50347752  1
  O2-  O329  1  -0.00325393  0.80962226  0.83062157  1
  O2-  O330  1  0.33400879  0.31857918  0.16585386  1
  O2-  O331  1  0.33169613  0.32050846  0.50088578  1
  O2-  O332  1  0.33260103  0.32179975  0.83336544  1
  O2-  O333  1  0.32904351  0.81581151  0.15827858  1
  O2-  O334  1  0.32607883  0.81979456  0.50162273  1
  O2-  O335  1  0.33783585  0.82497360  0.83660704  1
  O2-  O336  1  0.67118153  0.32505740  0.17216451  1
  O2-  O337  1  0.67141801  0.31687890  0.50376539  1
  O2-  O338  1  0.66958683  0.31431641  0.84017209  1
  O2-  O339  1  0.66413132  0.82425733  0.16270689  1
  O2-  O340  1  0.67145464  0.82100741  0.50869910  1
  O2-  O341  1  0.67072741  0.82338368  0.83901174  1
  O2-  O342  1  0.16815530  0.31268694  0.16757308  1
  O2-  O343  1  0.16078592  0.31009995  0.51320181  1
  O2-  O344  1  0.16529110  0.33128624  0.83863277  1
  O2-  O345  1  0.16067850  0.82192325  0.17508054  1
  O2-  O346  1  0.16913503  0.81800247  0.50220949  1
  O2-  O347  1  0.17256192  0.81202048  0.82678532  1
  O2-  O348  1  0.50676703  0.32442390  0.15923861  1
  O2-  O349  1  0.49902179  0.31573364  0.49460970  1
  O2-  O350  1  0.49361464  0.32089747  0.84090808  1
  O2-  O351  1  0.51142033  0.82102049  0.15684322  1
  O2-  O352  1  0.49205645  0.82487133  0.51161971  1
  O2-  O353  1  0.50398390  0.82287712  0.83181537  1
  O2-  O354  1  0.83058671  0.33379368  0.16843055  1
  O2-  O355  1  0.83581697  0.31992300  0.49765716  1
  O2-  O356  1  0.83275048  0.31113995  0.83710676  1
  O2-  O357  1  0.82948896  0.81982686  0.16919266  1
  O2-  O358  1  0.83884260  0.82250347  0.49593109  1
  O2-  O359  1  0.83578726  0.82000654  0.83132781  1
  O2-  O360  1  0.10090810  0.08583960  0.13571259  1
  O2-  O361  1  0.09623318  0.08432549  0.44872933  1
  O2-  O362  1  0.07971187  0.07803475  0.78179455  1
  O2-  O363  1  0.05019482  0.58485329  0.10177661  1
  O2-  O364  1  0.11420438  0.57753667  0.44452009  1
  O2-  O365  1  0.06433394  0.58269112  0.78959766  1
  O2-  O366  1  0.41014623  0.08655955  0.10953492  1
  O2-  O367  1  0.39658657  0.07796627  0.47266125  1
  O2-  O368  1  0.39808660  0.08819291  0.75561208  1
  O2-  O369  1  0.41302481  0.58218985  0.10861440  1
  O2-  O370  1  0.39614533  0.56317703  0.45461549  1
  O2-  O371  1  0.41809061  0.56035614  0.79840371  1
  O2-  O372  1  0.72641051  0.07325929  0.07967654  1
  O2-  O373  1  0.74117505  0.08626897  0.45212189  1
  O2-  O374  1  0.75845306  0.08114357  0.80675724  1
  O2-  O375  1  0.77588803  0.57777070  0.12058076  1
  O2-  O376  1  0.74951452  0.58272765  0.41323907  1
  O2-  O377  1  0.76191738  0.58095583  0.79196694  1
  O2-  O378  1  0.26309871  0.08741432  0.21299890  1
  O2-  O379  1  0.25837738  0.08764984  0.54927708  1
  O2-  O380  1  0.26341841  0.07396606  0.88367912  1
  O2-  O381  1  0.24635159  0.57923113  0.20002570  1
  O2-  O382  1  0.24215493  0.57731120  0.55530172  1
  O2-  O383  1  0.24190223  0.57680254  0.89131193  1
  O2-  O384  1  0.57558134  0.07840899  0.21890894  1
  O2-  O385  1  0.56964559  0.07759395  0.53947989  1
  O2-  O386  1  0.59527846  0.07619160  0.89081793  1
  O2-  O387  1  0.59537171  0.58080668  0.22750519  1
  O2-  O388  1  0.58362447  0.57754986  0.55251192  1
  O2-  O389  1  0.59215983  0.58009633  0.88287299  1
  O2-  O390  1  0.92271220  0.08066693  0.22771631  1
  O2-  O391  1  0.91331607  0.07684080  0.55121019  1
  O2-  O392  1  0.92942454  0.07886734  0.86875223  1
  O2-  O393  1  0.91368100  0.58247411  0.22281757  1
  O2-  O394  1  0.93141502  0.57849112  0.56371944  1
  O2-  O395  1  0.91513940  0.58572242  0.88009732  1
  O2-  O396  1  0.09247474  0.42095657  0.12413538  1
  O2-  O397  1  0.06939328  0.41464649  0.44326053  1
  O2-  O398  1  0.08195754  0.41988303  0.77605711  1
  O2-  O399  1  0.07310887  0.91626999  0.10946478  1
  O2-  O400  1  0.10141302  0.91817558  0.45044153  1
  O2-  O401  1  0.07706435  0.91069503  0.75706380  1
  O2-  O402  1  0.41534111  0.42147819  0.11913234  1
  O2-  O403  1  0.41703033  0.42859546  0.44329338  1
  O2-  O404  1  0.40623265  0.42437978  0.78193329  1
  O2-  O405  1  0.43212196  0.91155683  0.10912173  1
  O2-  O406  1  0.38867877  0.91864732  0.45204798  1
  O2-  O407  1  0.41523518  0.91681538  0.76965203  1
  O2-  O408  1  0.74031844  0.42047468  0.10990700  1
  O2-  O409  1  0.74891864  0.42165039  0.44594204  1
  O2-  O410  1  0.75467510  0.42284038  0.78418897  1
  O2-  O411  1  0.74283634  0.91835832  0.10795778  1
  O2-  O412  1  0.76290839  0.91577153  0.44582598  1
  O2-  O413  1  0.75494621  0.91961212  0.77819744  1
  O2-  O414  1  0.24394396  0.41855276  0.21849866  1
  O2-  O415  1  0.26542172  0.42909265  0.56492925  1
  O2-  O416  1  0.24569802  0.42304364  0.88251058  1
  O2-  O417  1  0.23912710  0.91879832  0.22523483  1
  O2-  O418  1  0.22835584  0.91815077  0.56078511  1
  O2-  O419  1  0.24615984  0.91567554  0.87864180  1
  O2-  O420  1  0.58771940  0.41641129  0.22089783  1
  O2-  O421  1  0.58484190  0.41725052  0.54722100  1
  O2-  O422  1  0.58783128  0.42110339  0.89228934  1
  O2-  O423  1  0.59287640  0.91448158  0.22139980  1
  O2-  O424  1  0.59097627  0.91791676  0.56572570  1
  O2-  O425  1  0.56859745  0.92289485  0.88354705  1
  O2-  O426  1  0.93305566  0.42199304  0.21611220  1
  O2-  O427  1  0.89473985  0.42306534  0.56185226  1
  O2-  O428  1  0.90814918  0.42034497  0.87355982  1
  O2-  O429  1  0.91621257  0.92075139  0.21408117  1
  O2-  O430  1  0.93352911  0.91754595  0.55141088  1
  O2-  O431  1  0.91114627  0.92271409  0.89253033  1
  O2-  O432  1  0.00135210  0.01943915  -0.01225996  1
  O2-  O433  1  0.01836393  -0.01431341  0.30245898  1
  O2-  O434  1  0.01590981  -0.00120182  0.64970807  1
  O2-  O435  1  0.00020790  0.48242521  -0.00876553  1
  O2-  O436  1  0.00786029  0.49849864  0.34697434  1
  O2-  O437  1  -0.00432330  0.50231204  0.66595738  1
  O2-  O438  1  0.32132535  -0.01131429  0.02596180  1
  O2-  O439  1  0.32701921  0.01366154  0.34228340  1
  O2-  O440  1  0.32302115  0.01440338  0.67013010  1
  O2-  O441  1  0.31445484  0.49405301  0.02178680  1
  O2-  O442  1  0.34079768  0.50139325  0.33051074  1
  O2-  O443  1  0.31837858  0.50334586  0.68988714  1
  O2-  O444  1  0.67238608  -0.01307999  -0.03314489  1
  O2-  O445  1  0.66526391  0.01068436  0.34287363  1
  O2-  O446  1  0.69435430  0.01219594  0.62919866  1
  O2-  O447  1  0.67500024  0.50400391  -0.01131617  1
  O2-  O448  1  0.69726721  0.50067235  0.29523204  1
  O2-  O449  1  0.67758939  0.48768855  0.64146320  1
  O2-  O450  1  0.16033218  0.02279661  -0.01045149  1
  O2-  O451  1  0.17324248  0.01309118  0.32939513  1
  O2-  O452  1  0.17264450  0.01331687  0.68330534  1
  O2-  O453  1  0.15330690  0.49590652  -0.02394615  1
  O2-  O454  1  0.16891747  0.48893766  0.33460492  1
  O2-  O455  1  0.15933654  0.50927428  0.65918771  1
  O2-  O456  1  0.51524777  -0.01079111  0.01427508  1
  O2-  O457  1  0.49575486  0.02387764  0.32841866  1
  O2-  O458  1  0.48014048  -0.00897422  0.62569110  1
  O2-  O459  1  0.50680230  0.48864239  0.01115970  1
  O2-  O460  1  0.50469590  0.49463003  0.33356820  1
  O2-  O461  1  0.48211400  0.48901404  0.64687379  1
  O2-  O462  1  0.83341137  0.01111972  -0.01659694  1
  O2-  O463  1  0.86041926  -0.00561079  0.35787283  1
  O2-  O464  1  0.84666015  0.02133791  0.67657596  1
  O2-  O465  1  0.84102202  0.50941098  0.00420714  1
  O2-  O466  1  0.84364560  0.48840713  0.34646430  1
  O2-  O467  1  0.83983453  0.50183715  0.68408225  1
  O2-  O468  1  0.75124165  0.75057577  0.39739118  1
  O2-  O469  1  0.24344434  0.25449230  0.93489810  1
  O2-  O470  1  0.91573582  0.74643782  0.59908266  1
  O2-  O471  1  0.07718475  0.75180474  0.39898880  1
  O2-  O472  1  0.75422380  0.25392906  0.39123633  1
  O2-  O473  1  0.41095928  0.25327223  0.05929247  1
  O2-  O474  1  0.07641645  0.24305472  0.04717508  1
  O2-  O475  1  0.58841931  0.74816883  0.94532094  1
  O2-  O476  1  0.91121621  0.24998988  0.27632751  1
  O2-  O477  1  0.58275247  0.74961890  0.26520145  1
  O2-  O478  1  0.41946537  0.75286473  0.73489233  1
  O2-  O479  1  0.09159248  0.25438785  0.74540560  1
  O2-  O480  1  0.74438966  0.75512156  0.06309272  1
  O2-  O481  1  0.42012430  0.25253458  0.72567286  1
  O2-  O482  1  0.58500325  0.25167915  0.26067636  1
  O2-  O483  1  0.74772613  0.75196374  0.72048830  1
  O2-  O484  1  0.09053297  0.75078112  0.06136313  1
  O2-  O485  1  0.75468245  0.25307386  0.07203385  1
  O2-  O486  1  0.57228663  0.25176860  0.61438066  1
  O2-  O487  1  0.92670153  0.24861078  0.95464904  1
  O2-  O488  1  0.58907982  0.74500314  0.60438607  1
  O2-  O489  1  0.25288127  0.75328899  0.93384873  1
  O2-  O490  1  0.42071550  0.75303250  0.40453110  1
  O2-  O491  1  0.08082403  0.24887021  0.39074281  1
  O2-  O492  1  0.43187874  0.74951982  0.05727907  1
