# generated using pymatgen
data_Ca108Mn108O277
_symmetry_space_group_name_H-M   'P 1'
_cell_length_a   16.00833142
_cell_length_b   22.27936478
_cell_length_c   16.37429676
_cell_angle_alpha   89.99927795
_cell_angle_beta   89.99840843
_cell_angle_gamma   90.00001611
_symmetry_Int_Tables_number   1
_chemical_formula_structural   Ca108Mn108O277
_chemical_formula_sum   'Ca108 Mn108 O277'
_cell_volume   5839.98226053
_cell_formula_units_Z   1
loop_
 _symmetry_equiv_pos_site_id
 _symmetry_equiv_pos_as_xyz
  1  'x, y, z'
loop_
 _atom_type_symbol
 _atom_type_oxidation_number
  Ca2+  2.0
  Mn3.34+  3.34
  O2-  -2.0
loop_
 _atom_site_type_symbol
 _atom_site_label
 _atom_site_symmetry_multiplicity
 _atom_site_fract_x
 _atom_site_fract_y
 _atom_site_fract_z
 _atom_site_occupancy
  Ca2+  Ca0  1  0.09943662  0.25443233  0.25665568  1
  Ca2+  Ca1  1  0.09106353  0.25442446  0.58845492  1
  Ca2+  Ca2  1  0.08939622  0.24823577  0.90497135  1
  Ca2+  Ca3  1  0.09972662  0.75003081  0.23584735  1
  Ca2+  Ca4  1  0.08496357  0.75957486  0.58246202  1
  Ca2+  Ca5  1  0.07726017  0.74778964  0.93693618  1
  Ca2+  Ca6  1  0.40873296  0.25212024  0.23488254  1
  Ca2+  Ca7  1  0.42816232  0.24871581  0.59762781  1
  Ca2+  Ca8  1  0.43510194  0.24700862  0.91522088  1
  Ca2+  Ca9  1  0.41836417  0.74426745  0.25406136  1
  Ca2+  Ca10  1  0.43302594  0.74243801  0.57278099  1
  Ca2+  Ca11  1  0.41498343  0.75938796  0.91462954  1
  Ca2+  Ca12  1  0.74291137  0.26099453  0.23154693  1
  Ca2+  Ca13  1  0.73466193  0.24418349  0.60682573  1
  Ca2+  Ca14  1  0.73853982  0.23732981  0.91919206  1
  Ca2+  Ca15  1  0.72757077  0.74744504  0.24297740  1
  Ca2+  Ca16  1  0.72776176  0.75013467  0.58654637  1
  Ca2+  Ca17  1  0.75545371  0.75907149  0.91876695  1
  Ca2+  Ca18  1  0.26260315  0.25487724  0.08014266  1
  Ca2+  Ca19  1  0.24456979  0.25182585  0.41786013  1
  Ca2+  Ca20  1  0.25061270  0.25139026  0.75371098  1
  Ca2+  Ca21  1  0.24549261  0.74522395  0.10149665  1
  Ca2+  Ca22  1  0.27127641  0.74833924  0.39688330  1
  Ca2+  Ca23  1  0.26034100  0.76156644  0.74328659  1
  Ca2+  Ca24  1  0.59289906  0.24998802  0.06358369  1
  Ca2+  Ca25  1  0.58193088  0.25233619  0.43732933  1
  Ca2+  Ca26  1  0.59108211  0.23065747  0.75388196  1
  Ca2+  Ca27  1  0.57640245  0.74924648  0.10792208  1
  Ca2+  Ca28  1  0.56898332  0.73664708  0.40983934  1
  Ca2+  Ca29  1  0.57636637  0.74671710  0.72688127  1
  Ca2+  Ca30  1  0.89508680  0.24938407  0.07516736  1
  Ca2+  Ca31  1  0.92377059  0.25294515  0.42494742  1
  Ca2+  Ca32  1  0.90625740  0.25153700  0.75178925  1
  Ca2+  Ca33  1  0.93000946  0.75219620  0.08558484  1
  Ca2+  Ca34  1  0.91645045  0.76739509  0.41488213  1
  Ca2+  Ca35  1  0.90820118  0.75451663  0.74986604  1
  Ca2+  Ca36  1  0.74490897  0.59280973  0.92257182  1
  Ca2+  Ca37  1  0.24454424  0.08045911  0.40692530  1
  Ca2+  Ca38  1  0.43947765  0.10102867  0.91002455  1
  Ca2+  Ca39  1  0.07427464  0.09642491  0.91283844  1
  Ca2+  Ca40  1  0.90365539  0.09594144  0.06389488  1
  Ca2+  Ca41  1  0.58695697  0.09837337  0.05600919  1
  Ca2+  Ca42  1  0.41959688  0.58460785  0.92479912  1
  Ca2+  Ca43  1  0.11228704  0.59520190  0.23386568  1
  Ca2+  Ca44  1  0.92221069  0.58644458  0.41261571  1
  Ca2+  Ca45  1  0.89580491  0.09625557  0.76202848  1
  Ca2+  Ca46  1  0.09131130  0.58408709  0.58263714  1
  Ca2+  Ca47  1  0.90944441  0.58723727  0.41285010  1
  Ca2+  Ca48  1  0.26719122  0.09404245  0.09698020  1
  Ca2+  Ca49  1  0.07914467  0.09264637  0.58849457  1
  Ca2+  Ca50  1  0.92708423  0.59763058  0.75607286  1
  Ca2+  Ca51  1  0.08482350  0.58639880  0.59124091  1
  Ca2+  Ca52  1  0.25002975  0.09791855  0.74873114  1
  Ca2+  Ca53  1  0.92688187  0.08680866  0.42306742  1
  Ca2+  Ca54  1  0.93420382  0.59907620  0.07695413  1
  Ca2+  Ca55  1  0.41652839  0.60481235  0.23566740  1
  Ca2+  Ca56  1  0.25550432  0.07996578  0.40709198  1
  Ca2+  Ca57  1  0.74121324  0.09645944  0.61679082  1
  Ca2+  Ca58  1  0.71847657  0.60121865  0.57513948  1
  Ca2+  Ca59  1  0.42244044  0.09331568  0.59472373  1
  Ca2+  Ca60  1  0.40921728  0.58536092  0.92851176  1
  Ca2+  Ca61  1  0.25644000  0.58403018  0.74881566  1
  Ca2+  Ca62  1  0.74535541  0.08858676  0.24111619  1
  Ca2+  Ca63  1  0.09466503  0.08880410  0.25549178  1
  Ca2+  Ca64  1  0.56631806  0.59146641  0.72528664  1
  Ca2+  Ca65  1  0.43477974  0.09537250  0.59210598  1
  Ca2+  Ca66  1  0.25465908  0.09274967  0.09583834  1
  Ca2+  Ca67  1  0.75794775  0.59317726  0.92255963  1
  Ca2+  Ca68  1  0.75813401  0.08866093  0.24095424  1
  Ca2+  Ca69  1  0.56515884  0.60015433  0.09922656  1
  Ca2+  Ca70  1  0.72061386  0.59918428  0.24647735  1
  Ca2+  Ca71  1  0.88620627  0.09628151  0.75917317  1
  Ca2+  Ca72  1  0.58199317  0.40619837  0.75881340  1
  Ca2+  Ca73  1  0.58813241  0.40980937  0.41743026  1
  Ca2+  Ca74  1  0.91736788  0.91371793  0.75335403  1
  Ca2+  Ca75  1  0.92709396  0.40604262  0.41789712  1
  Ca2+  Ca76  1  0.42082524  0.41595741  0.60100621  1
  Ca2+  Ca77  1  0.09265498  0.41092223  0.24410686  1
  Ca2+  Ca78  1  0.91431750  0.40657858  0.41700992  1
  Ca2+  Ca79  1  0.59689412  0.40780515  0.41091597  1
  Ca2+  Ca80  1  0.56942718  0.40600345  0.75861962  1
  Ca2+  Ca81  1  0.75181666  0.90339702  0.25267364  1
  Ca2+  Ca82  1  0.73945961  0.90214253  0.25109864  1
  Ca2+  Ca83  1  0.59148988  0.90829938  0.75518223  1
  Ca2+  Ca84  1  0.75615532  0.90405945  0.58044423  1
  Ca2+  Ca85  1  0.91906754  0.90196789  0.07965615  1
  Ca2+  Ca86  1  0.07977155  0.40355491  0.91219060  1
  Ca2+  Ca87  1  0.40667533  0.41405701  0.23480168  1
  Ca2+  Ca88  1  0.75267564  0.91238745  0.91166088  1
  Ca2+  Ca89  1  0.39723162  0.91491241  0.25521701  1
  Ca2+  Ca90  1  0.08315066  0.90555351  0.57573623  1
  Ca2+  Ca91  1  0.07879427  0.90102288  0.91329485  1
  Ca2+  Ca92  1  0.39951056  0.90528027  0.57160869  1
  Ca2+  Ca93  1  0.41934713  0.41503843  0.23226985  1
  Ca2+  Ca94  1  0.57893383  0.90671302  0.75712159  1
  Ca2+  Ca95  1  0.24609789  0.41222944  0.41186847  1
  Ca2+  Ca96  1  0.40955956  0.41578664  0.60033537  1
  Ca2+  Ca97  1  0.90645492  0.40160505  0.09157300  1
  Ca2+  Ca98  1  0.10638316  0.90444540  0.25324551  1
  Ca2+  Ca99  1  0.90479408  0.91619355  0.75204624  1
  Ca2+  Ca100  1  0.25328105  0.40873079  0.75016715  1
  Ca2+  Ca101  1  0.57026932  0.90750691  0.40892964  1
  Ca2+  Ca102  1  0.09278418  0.40349636  0.91306444  1
  Ca2+  Ca103  1  0.25775474  0.41432006  0.08535228  1
  Ca2+  Ca104  1  0.41816892  0.41077057  0.92333899  1
  Ca2+  Ca105  1  0.23513365  0.41102084  0.40918298  1
  Ca2+  Ca106  1  0.75499252  0.40190705  0.58669780  1
  Ca2+  Ca107  1  0.41043249  0.90620213  0.57132919  1
  Mn3.34+  Mn108  1  0.08088315  0.33099838  0.08495625  1
  Mn3.34+  Mn109  1  0.08214912  0.33101533  0.41971719  1
  Mn3.34+  Mn110  1  0.07787147  0.33324075  0.74606847  1
  Mn3.34+  Mn111  1  0.08925256  0.82938216  0.08454482  1
  Mn3.34+  Mn112  1  0.08796439  0.83533766  0.41380677  1
  Mn3.34+  Mn113  1  0.08763088  0.83149760  0.75385847  1
  Mn3.34+  Mn114  1  0.42232081  0.33607616  0.07854062  1
  Mn3.34+  Mn115  1  0.41639190  0.33493997  0.41753073  1
  Mn3.34+  Mn116  1  0.41546936  0.33261365  0.75584903  1
  Mn3.34+  Mn117  1  0.41320919  0.83692720  0.08228545  1
  Mn3.34+  Mn118  1  0.41492296  0.83359606  0.41297109  1
  Mn3.34+  Mn119  1  0.41306508  0.83239049  0.75467340  1
  Mn3.34+  Mn120  1  0.74634985  0.33309334  0.07963918  1
  Mn3.34+  Mn121  1  0.75251393  0.33284570  0.41543086  1
  Mn3.34+  Mn122  1  0.75137471  0.32674223  0.75576849  1
  Mn3.34+  Mn123  1  0.74682290  0.82953279  0.08154446  1
  Mn3.34+  Mn124  1  0.74806308  0.83149358  0.41823660  1
  Mn3.34+  Mn125  1  0.74891317  0.83363969  0.75340655  1
  Mn3.34+  Mn126  1  0.24986820  0.33398002  0.24484505  1
  Mn3.34+  Mn127  1  0.24686774  0.33338913  0.58499675  1
  Mn3.34+  Mn128  1  0.25304066  0.33182583  0.91679860  1
  Mn3.34+  Mn129  1  0.25443845  0.83580286  0.24727110  1
  Mn3.34+  Mn130  1  0.24708945  0.83286037  0.57974568  1
  Mn3.34+  Mn131  1  0.25148556  0.83084376  0.91984849  1
  Mn3.34+  Mn132  1  0.58652449  0.33639902  0.24222401  1
  Mn3.34+  Mn133  1  0.58517802  0.33115738  0.58434772  1
  Mn3.34+  Mn134  1  0.58920222  0.33057680  0.91901023  1
  Mn3.34+  Mn135  1  0.57469413  0.83063239  0.24713081  1
  Mn3.34+  Mn136  1  0.58287416  0.82991823  0.57880087  1
  Mn3.34+  Mn137  1  0.57746772  0.83722178  0.92493821  1
  Mn3.34+  Mn138  1  0.91712213  0.33015647  0.24652366  1
  Mn3.34+  Mn139  1  0.91631552  0.33333461  0.58884841  1
  Mn3.34+  Mn140  1  0.91094312  0.32843511  0.91528393  1
  Mn3.34+  Mn141  1  0.92127560  0.83539041  0.25019399  1
  Mn3.34+  Mn142  1  0.91727468  0.83503377  0.57828467  1
  Mn3.34+  Mn143  1  0.91847704  0.83674242  0.91607352  1
  Mn3.34+  Mn144  1  0.58426509  0.67630868  0.91069234  1
  Mn3.34+  Mn145  1  0.57512030  0.16231185  0.24404568  1
  Mn3.34+  Mn146  1  0.25028373  0.16672321  0.24792435  1
  Mn3.34+  Mn147  1  0.26447483  0.66358725  0.57806241  1
  Mn3.34+  Mn148  1  0.41867296  0.16768273  0.07917902  1
  Mn3.34+  Mn149  1  0.91851129  0.67124252  0.58254989  1
  Mn3.34+  Mn150  1  0.08432348  0.16685468  0.42224835  1
  Mn3.34+  Mn151  1  0.91780078  0.67290440  0.91623988  1
  Mn3.34+  Mn152  1  0.24199512  0.66658377  0.91994115  1
  Mn3.34+  Mn153  1  0.42455371  0.15788008  0.41651812  1
  Mn3.34+  Mn154  1  0.92434395  0.17143291  0.24778481  1
  Mn3.34+  Mn155  1  0.74221829  0.66712317  0.41492531  1
  Mn3.34+  Mn156  1  0.58463680  0.16806312  0.24391912  1
  Mn3.34+  Mn157  1  0.09087973  0.67006141  0.41341838  1
  Mn3.34+  Mn158  1  0.08375855  0.17363561  0.08008842  1
  Mn3.34+  Mn159  1  0.73883152  0.16159610  0.42530990  1
  Mn3.34+  Mn160  1  0.41485447  0.16356946  0.41523926  1
  Mn3.34+  Mn161  1  0.90787050  0.66604706  0.58155743  1
  Mn3.34+  Mn162  1  0.57671204  0.67832674  0.92418711  1
  Mn3.34+  Mn163  1  0.75160777  0.16856514  0.42452057  1
  Mn3.34+  Mn164  1  0.92352931  0.66456861  0.24861850  1
  Mn3.34+  Mn165  1  0.25206398  0.16753250  0.91376808  1
  Mn3.34+  Mn166  1  0.91306021  0.16270853  0.91721635  1
  Mn3.34+  Mn167  1  0.25371404  0.66807928  0.57816260  1
  Mn3.34+  Mn168  1  0.91924285  0.16820561  0.58538826  1
  Mn3.34+  Mn169  1  0.08496743  0.67072159  0.75652055  1
  Mn3.34+  Mn170  1  0.42114501  0.16715512  0.75440015  1
  Mn3.34+  Mn171  1  0.91190280  0.67028633  0.24828711  1
  Mn3.34+  Mn172  1  0.74735639  0.66920565  0.75060275  1
  Mn3.34+  Mn173  1  0.24696923  0.16653099  0.58477735  1
  Mn3.34+  Mn174  1  0.74638341  0.66567660  0.08711859  1
  Mn3.34+  Mn175  1  0.41820104  0.66414053  0.74831940  1
  Mn3.34+  Mn176  1  0.08207042  0.16789516  0.75289353  1
  Mn3.34+  Mn177  1  0.91500690  0.17715543  0.24877678  1
  Mn3.34+  Mn178  1  0.25043902  0.67289912  0.91962318  1
  Mn3.34+  Mn179  1  0.25714878  0.66233308  0.24309232  1
  Mn3.34+  Mn180  1  0.57729381  0.00602414  0.91839362  1
  Mn3.34+  Mn181  1  0.91175486  0.49492071  0.91390610  1
  Mn3.34+  Mn182  1  0.25019368  0.00023047  0.91177183  1
  Mn3.34+  Mn183  1  0.74050136  -0.00227357  0.07604705  1
  Mn3.34+  Mn184  1  0.58447357  0.49840785  0.93048838  1
  Mn3.34+  Mn185  1  0.92282149  -0.00055647  0.25061387  1
  Mn3.34+  Mn186  1  0.24627158  -0.00119258  0.58698366  1
  Mn3.34+  Mn187  1  0.57235657  -0.00182359  0.26235032  1
  Mn3.34+  Mn188  1  0.08892940  -0.00438167  0.08407415  1
  Mn3.34+  Mn189  1  0.09055776  0.50113459  0.40946913  1
  Mn3.34+  Mn190  1  0.75695464  -0.00083467  0.07548817  1
  Mn3.34+  Mn191  1  0.75982691  0.49503600  0.75152987  1
  Mn3.34+  Mn192  1  0.41099121  -0.00134664  0.75167542  1
  Mn3.34+  Mn193  1  0.25430235  0.50013461  0.58912919  1
  Mn3.34+  Mn194  1  0.92201499  0.50094659  0.91309160  1
  Mn3.34+  Mn195  1  0.08837240  0.50346633  0.07839352  1
  Mn3.34+  Mn196  1  0.74897804  0.50009805  0.75239467  1
  Mn3.34+  Mn197  1  0.57549871  0.50608561  0.58567393  1
  Mn3.34+  Mn198  1  0.42097275  0.51045503  0.41701334  1
  Mn3.34+  Mn199  1  0.59517947  -0.00033462  0.58443419  1
  Mn3.34+  Mn200  1  0.42191167  -0.00171016  0.08111361  1
  Mn3.34+  Mn201  1  0.74360486  0.49623738  0.08356340  1
  Mn3.34+  Mn202  1  0.74738873  0.50227847  0.41497403  1
  Mn3.34+  Mn203  1  0.92020824  0.49781236  0.58607044  1
  Mn3.34+  Mn204  1  0.91257877  0.00010397  0.59007555  1
  Mn3.34+  Mn205  1  0.26303639  -0.00636544  0.91412118  1
  Mn3.34+  Mn206  1  0.25097480  0.49987982  0.92579501  1
  Mn3.34+  Mn207  1  0.40729728  0.51687958  0.41342879  1
  Mn3.34+  Mn208  1  0.58769747  0.50014298  0.25009228  1
  Mn3.34+  Mn209  1  0.07464299  0.00179010  0.08268520  1
  Mn3.34+  Mn210  1  0.58304034  0.00448352  0.57574535  1
  Mn3.34+  Mn211  1  0.74996474  -0.00079996  0.41239956  1
  Mn3.34+  Mn212  1  0.07991217  0.50079222  0.74805945  1
  Mn3.34+  Mn213  1  0.91569426  0.49776050  0.24779580  1
  Mn3.34+  Mn214  1  0.08653195  -0.00233963  0.40810289  1
  Mn3.34+  Mn215  1  0.08773792  0.00054902  0.74900226  1
  O2-  O216  1  0.00285885  0.17449812  -0.00404438  1
  O2-  O217  1  -0.00031466  0.16468431  0.33617837  1
  O2-  O218  1  -0.00123018  0.16273775  0.67133611  1
  O2-  O219  1  -0.01336535  0.67845775  0.00077200  1
  O2-  O220  1  -0.00430766  0.66144585  0.34374026  1
  O2-  O221  1  0.00746997  0.66240335  0.66515196  1
  O2-  O222  1  0.33026115  0.15880256  0.00241566  1
  O2-  O223  1  0.33097795  0.15980905  0.33862698  1
  O2-  O224  1  0.33156234  0.15729380  0.66386889  1
  O2-  O225  1  0.33997946  0.67077680  -0.01031379  1
  O2-  O226  1  0.33554565  0.66932236  0.32409639  1
  O2-  O227  1  0.32581254  0.65966611  0.67727403  1
  O2-  O228  1  0.66234211  0.17168487  0.00046035  1
  O2-  O229  1  0.67279044  0.15796625  0.32430674  1
  O2-  O230  1  0.67085326  0.16924267  0.67259484  1
  O2-  O231  1  0.66859890  0.66155501  -0.00328175  1
  O2-  O232  1  0.67512096  0.67513601  0.33170423  1
  O2-  O233  1  0.66887126  0.66281293  0.67347416  1
  O2-  O234  1  0.17093118  0.16107233  0.00289564  1
  O2-  O235  1  0.16931508  0.15695415  0.33686359  1
  O2-  O236  1  0.16379065  0.15988232  0.66613359  1
  O2-  O237  1  0.16604436  0.67855704  -0.00121985  1
  O2-  O238  1  0.16384106  0.67369407  0.33048004  1
  O2-  O239  1  0.16707217  0.66171592  0.66102667  1
  O2-  O240  1  0.49704805  0.16544391  0.00245035  1
  O2-  O241  1  0.50494162  0.16667523  0.33143331  1
  O2-  O242  1  0.48843649  0.16467117  0.66509042  1
  O2-  O243  1  0.49623753  0.66920055  -0.00121663  1
  O2-  O244  1  0.49417731  0.66961208  0.32919402  1
  O2-  O245  1  0.49750043  0.66624134  0.67357960  1
  O2-  O246  1  0.84252004  0.17242738  -0.00167183  1
  O2-  O247  1  0.83102614  0.16049274  0.33436985  1
  O2-  O248  1  0.84039085  0.16824606  0.66434212  1
  O2-  O249  1  0.82717320  0.66076338  -0.00482628  1
  O2-  O250  1  0.83561999  0.66218694  0.33555478  1
  O2-  O251  1  0.83598347  0.65689547  0.67550819  1
  O2-  O252  1  0.00208779  0.32461073  -0.00201618  1
  O2-  O253  1  -0.00152565  0.33292657  0.33422257  1
  O2-  O254  1  -0.00170854  0.31658861  0.66400413  1
  O2-  O255  1  -0.00097143  0.83278545  -0.00051827  1
  O2-  O256  1  0.00372739  0.82458563  0.33260697  1
  O2-  O257  1  -0.00031093  0.83380860  0.67222114  1
  O2-  O258  1  0.32944229  0.33964228  0.00244862  1
  O2-  O259  1  0.33099903  0.34457802  0.33380747  1
  O2-  O260  1  0.33810695  0.34229121  0.66439566  1
  O2-  O261  1  0.33126435  0.81062019  0.00221586  1
  O2-  O262  1  0.33811331  0.83247348  0.32949554  1
  O2-  O263  1  0.33870793  0.83794378  0.65980803  1
  O2-  O264  1  0.66723114  0.33091531  -0.00145628  1
  O2-  O265  1  0.66088339  0.33893758  0.33827806  1
  O2-  O266  1  0.66345734  0.34397225  0.66746582  1
  O2-  O267  1  0.67057272  0.82634614  -0.00717898  1
  O2-  O268  1  0.66866636  0.83508529  0.33046142  1
  O2-  O269  1  0.66441197  0.84121347  0.66832704  1
  O2-  O270  1  0.16306509  0.33561975  -0.00203362  1
  O2-  O271  1  0.16829248  0.34164160  0.33161643  1
  O2-  O272  1  0.17236418  0.33476793  0.67342044  1
  O2-  O273  1  0.16099143  0.82761781  -0.00670072  1
  O2-  O274  1  0.16452309  0.82694922  0.32954024  1
  O2-  O275  1  0.16220754  0.82691121  0.66381386  1
  O2-  O276  1  0.49577100  0.33322307  -0.00859245  1
  O2-  O277  1  0.50072461  0.34413038  0.33762549  1
  O2-  O278  1  0.49819976  0.34346120  0.66510770  1
  O2-  O279  1  0.49982613  0.80938449  0.00307635  1
  O2-  O280  1  0.50141102  0.84030409  0.33512916  1
  O2-  O281  1  0.50326043  0.84315519  0.66545512  1
  O2-  O282  1  0.83978495  0.32941535  0.00561472  1
  O2-  O283  1  0.84288800  0.33107482  0.33806609  1
  O2-  O284  1  0.82643309  0.32517777  0.66188336  1
  O2-  O285  1  0.83594995  0.83164948  -0.00151175  1
  O2-  O286  1  0.82689192  0.83011061  0.32912995  1
  O2-  O287  1  0.83490862  0.84293280  0.67206227  1
  O2-  O288  1  0.00155325  0.18152876  0.16235707  1
  O2-  O289  1  0.00087437  0.17806446  0.50342352  1
  O2-  O290  1  -0.00108170  0.17608328  0.83446614  1
  O2-  O291  1  0.00007119  0.67069869  0.16775875  1
  O2-  O292  1  0.00393557  0.67358624  0.49599858  1
  O2-  O293  1  -0.00655482  0.68679761  0.82783242  1
  O2-  O294  1  0.32819633  0.17420891  0.16070031  1
  O2-  O295  1  0.33100760  0.16829752  0.50321452  1
  O2-  O296  1  0.33103138  0.17170541  0.83174222  1
  O2-  O297  1  0.33486192  0.67580282  0.16775234  1
  O2-  O298  1  0.33900330  0.67589896  0.49899701  1
  O2-  O299  1  0.33085068  0.67480206  0.83624888  1
  O2-  O300  1  0.66868680  0.16714194  0.16828781  1
  O2-  O301  1  0.66851757  0.17226256  0.50959705  1
  O2-  O302  1  0.66992613  0.16712416  0.83130645  1
  O2-  O303  1  0.66598845  0.67090544  0.16126392  1
  O2-  O304  1  0.67399399  0.68139487  0.49624490  1
  O2-  O305  1  0.66912668  0.67377912  0.83817544  1
  O2-  O306  1  0.16454289  0.17675406  0.16354624  1
  O2-  O307  1  0.17118551  0.16783916  0.49896861  1
  O2-  O308  1  0.16559896  0.16921297  0.83423603  1
  O2-  O309  1  0.16833324  0.67382557  0.17417010  1
  O2-  O310  1  0.15911936  0.67250707  0.50649984  1
  O2-  O311  1  0.17249254  0.68229424  0.83057786  1
  O2-  O312  1  0.49685942  0.17053973  0.16146951  1
  O2-  O313  1  0.49455960  0.17038553  0.50361311  1
  O2-  O314  1  0.49615638  0.17490175  0.83121104  1
  O2-  O315  1  0.49220345  0.67336634  0.16411535  1
  O2-  O316  1  0.50162633  0.67147815  0.49701194  1
  O2-  O317  1  0.49644251  0.67515811  0.83590426  1
  O2-  O318  1  0.82824608  0.17352139  0.17328861  1
  O2-  O319  1  0.84077086  0.17761461  0.50008746  1
  O2-  O320  1  0.84262908  0.17744811  0.83641946  1
  O2-  O321  1  0.83296510  0.66807822  0.16246900  1
  O2-  O322  1  0.83672822  0.67509325  0.48745266  1
  O2-  O323  1  0.82831553  0.67434954  0.83842469  1
  O2-  O324  1  0.00143874  0.31364768  0.16810116  1
  O2-  O325  1  -0.00743059  0.32427266  0.49814828  1
  O2-  O326  1  0.00503652  0.32288676  0.84146363  1
  O2-  O327  1  -0.00193967  0.83253746  0.16504269  1
  O2-  O328  1  0.00561495  0.82100295  0.49948606  1
  O2-  O329  1  -0.00190071  0.81814267  0.83313551  1
  O2-  O330  1  0.33491612  0.32822987  0.16835020  1
  O2-  O331  1  0.33399347  0.33689925  0.49818178  1
  O2-  O332  1  0.33067793  0.33253787  0.83225158  1
  O2-  O333  1  0.33743203  0.82169827  0.16643335  1
  O2-  O334  1  0.33767581  0.82820419  0.50397731  1
  O2-  O335  1  0.33066277  0.81723456  0.83586356  1
  O2-  O336  1  0.66518950  0.32644191  0.16415270  1
  O2-  O337  1  0.66393322  0.33521828  0.49784245  1
  O2-  O338  1  0.65673053  0.33343976  0.82424891  1
  O2-  O339  1  0.67075344  0.83020517  0.17347492  1
  O2-  O340  1  0.66642934  0.82523208  0.50025364  1
  O2-  O341  1  0.66487743  0.82653255  0.83370527  1
  O2-  O342  1  0.16626706  0.32328309  0.16501794  1
  O2-  O343  1  0.17376663  0.33210726  0.49140427  1
  O2-  O344  1  0.16528058  0.33224450  0.83854889  1
  O2-  O345  1  0.16434308  0.82946783  0.17013299  1
  O2-  O346  1  0.16280189  0.82179353  0.50189867  1
  O2-  O347  1  0.16380193  0.81157741  0.83693477  1
  O2-  O348  1  0.49058710  0.32996725  0.17528213  1
  O2-  O349  1  0.50194579  0.33592732  0.49999382  1
  O2-  O350  1  0.50136340  0.33017076  0.83136538  1
  O2-  O351  1  0.49504662  0.82257846  0.16622839  1
  O2-  O352  1  0.49604673  0.83395636  0.50459582  1
  O2-  O353  1  0.50806723  0.82401082  0.82957964  1
  O2-  O354  1  0.83695797  0.32078524  0.16546354  1
  O2-  O355  1  0.83679312  0.32577283  0.49766861  1
  O2-  O356  1  0.83267041  0.31439027  0.83527376  1
  O2-  O357  1  0.83121979  0.83462269  0.16859346  1
  O2-  O358  1  0.82648400  0.81944706  0.50214480  1
  O2-  O359  1  0.83570221  0.82316022  0.83452086  1
  O2-  O360  1  0.08720527  0.08226840  0.10585737  1
  O2-  O361  1  0.08496308  0.07959636  0.44090293  1
  O2-  O362  1  0.08039310  0.08246622  0.77178462  1
  O2-  O363  1  0.06914918  0.57626237  0.10893958  1
  O2-  O364  1  0.06949048  0.57852162  0.44780989  1
  O2-  O365  1  0.08514202  0.58295161  0.76469575  1
  O2-  O366  1  0.40457744  0.08164217  0.10151169  1
  O2-  O367  1  0.40158452  0.07682701  0.44422695  1
  O2-  O368  1  0.40568541  0.08152146  0.76603058  1
  O2-  O369  1  0.42963369  0.57951942  0.09456369  1
  O2-  O370  1  0.41915856  0.59273371  0.42216940  1
  O2-  O371  1  0.41672396  0.58177130  0.78384096  1
  O2-  O372  1  0.75335319  0.07962127  0.10678080  1
  O2-  O373  1  0.76228945  0.08047460  0.43678233  1
  O2-  O374  1  0.76690315  0.08128286  0.75045910  1
  O2-  O375  1  0.75003149  0.57977058  0.10364569  1
  O2-  O376  1  0.76555414  0.58283976  0.43668430  1
  O2-  O377  1  0.75279997  0.58218131  0.77950537  1
  O2-  O378  1  0.24051406  0.08315778  0.22825078  1
  O2-  O379  1  0.25078530  0.07933813  0.55599830  1
  O2-  O380  1  0.24940600  0.08188486  0.89560066  1
  O2-  O381  1  0.25024171  0.58383483  0.23987891  1
  O2-  O382  1  0.23486099  0.58102917  0.56816131  1
  O2-  O383  1  0.26153311  0.58047410  0.89213210  1
  O2-  O384  1  0.59723891  0.07720028  0.22525309  1
  O2-  O385  1  0.57447368  0.08336864  0.57049597  1
  O2-  O386  1  0.57785296  0.08227222  0.90592409  1
  O2-  O387  1  0.58722810  0.57715213  0.22850790  1
  O2-  O388  1  0.58536661  0.58237427  0.57574460  1
  O2-  O389  1  0.58820848  0.58011135  0.89145363  1
  O2-  O390  1  0.91007014  0.08256507  0.22507283  1
  O2-  O391  1  0.92034143  0.07846964  0.55883849  1
  O2-  O392  1  0.92670894  0.08283185  0.89566846  1
  O2-  O393  1  0.91360070  0.58126492  0.23673028  1
  O2-  O394  1  0.92426465  0.58081320  0.55038695  1
  O2-  O395  1  0.90286114  0.58194509  0.89316117  1
  O2-  O396  1  0.08321410  0.42157275  0.10506896  1
  O2-  O397  1  0.07537190  0.41763254  0.42658631  1
  O2-  O398  1  0.08920459  0.41950559  0.77650330  1
  O2-  O399  1  0.07657887  0.91534559  0.09478089  1
  O2-  O400  1  0.08275378  0.92039472  0.43471420  1
  O2-  O401  1  0.06191607  0.91986710  0.77231556  1
  O2-  O402  1  0.40555533  0.41990618  0.10006137  1
  O2-  O403  1  0.41885123  0.42918921  0.44368552  1
  O2-  O404  1  0.42635732  0.41649334  0.76286012  1
  O2-  O405  1  0.41687761  0.92057682  0.10759844  1
  O2-  O406  1  0.42571418  0.91971520  0.43995289  1
  O2-  O407  1  0.43773809  0.91724059  0.75991138  1
  O2-  O408  1  0.76604284  0.41718539  0.09729690  1
  O2-  O409  1  0.75189490  0.41928051  0.43752097  1
  O2-  O410  1  0.74451190  0.41309390  0.75688990  1
  O2-  O411  1  0.75308703  0.91603329  0.09846690  1
  O2-  O412  1  0.74200645  0.91871092  0.42982723  1
  O2-  O413  1  0.75477691  0.91670543  0.77242947  1
  O2-  O414  1  0.25748723  0.41687389  0.22997304  1
  O2-  O415  1  0.25908032  0.42051717  0.55891079  1
  O2-  O416  1  0.24361727  0.41876320  0.89994663  1
  O2-  O417  1  0.24998877  0.91609666  0.24138298  1
  O2-  O418  1  0.25401124  0.91667038  0.57081395  1
  O2-  O419  1  0.23773206  0.91492906  0.90155720  1
  O2-  O420  1  0.56228997  0.41918014  0.24296469  1
  O2-  O421  1  0.57895057  0.42396691  0.55521241  1
  O2-  O422  1  0.57282003  0.42016513  0.89505612  1
  O2-  O423  1  0.59631043  0.91807790  0.24351016  1
  O2-  O424  1  0.58885472  0.91844051  0.56729673  1
  O2-  O425  1  0.59428870  0.92508311  0.88847347  1
  O2-  O426  1  0.93166323  0.41689887  0.23547324  1
  O2-  O427  1  0.90561915  0.41902438  0.55165237  1
  O2-  O428  1  0.93562755  0.41447913  0.90910278  1
  O2-  O429  1  0.90687870  0.91813582  0.23437956  1
  O2-  O430  1  0.91871235  0.91812393  0.57527300  1
  O2-  O431  1  0.91737744  0.92100464  0.88763665  1
  O2-  O432  1  0.00008740  0.00258749  0.00005406  1
  O2-  O433  1  0.00282544  0.01330649  0.33359003  1
  O2-  O434  1  -0.00206949  0.00214804  0.67122650  1
  O2-  O435  1  -0.00137013  0.50018791  0.00286108  1
  O2-  O436  1  -0.00851412  0.50424627  0.34857138  1
  O2-  O437  1  0.00551913  0.51792163  0.66034327  1
  O2-  O438  1  0.32824378  0.00978335  0.00800530  1
  O2-  O439  1  0.32361179  0.00953009  0.33995418  1
  O2-  O440  1  0.34687827  0.00564997  0.64772921  1
  O2-  O441  1  0.34437564  0.50116242  -0.01935917  1
  O2-  O442  1  0.33359857  0.48684320  0.33561058  1
  O2-  O443  1  0.33424860  0.48991415  0.66390585  1
  O2-  O444  1  0.66809623  0.00151190  -0.00785497  1
  O2-  O445  1  0.67660288  0.00271561  0.31459785  1
  O2-  O446  1  0.67117966  -0.00797007  0.66489678  1
  O2-  O447  1  0.67700315  0.51568054  -0.01025551  1
  O2-  O448  1  0.65862019  0.49370459  0.34330110  1
  O2-  O449  1  0.66503111  0.50004493  0.66657815  1
  O2-  O450  1  0.16671378  0.00620933  -0.00240519  1
  O2-  O451  1  0.17016654  0.01187521  0.33836764  1
  O2-  O452  1  0.16097555  0.00949042  0.65962711  1
  O2-  O453  1  0.15949549  0.48877306  -0.00926151  1
  O2-  O454  1  0.17006717  0.48691932  0.33734555  1
  O2-  O455  1  0.16653039  0.50800092  0.66642482  1
  O2-  O456  1  0.49997070  0.01122144  0.00172848  1
  O2-  O457  1  0.49296467  -0.00866576  0.32975764  1
  O2-  O458  1  0.49936038  0.00154974  0.66254040  1
  O2-  O459  1  0.49003445  0.50929321  -0.01914704  1
  O2-  O460  1  0.49832249  0.49782847  0.33230210  1
  O2-  O461  1  0.50341976  0.48824510  0.66838555  1
  O2-  O462  1  0.84014614  -0.00153312  0.00304800  1
  O2-  O463  1  0.82552436  0.00837621  0.31790705  1
  O2-  O464  1  0.84216666  -0.00104955  0.67392838  1
  O2-  O465  1  0.83385582  0.51093138  0.00165420  1
  O2-  O466  1  0.84558928  0.50275819  0.35114943  1
  O2-  O467  1  0.83120124  0.50836225  0.66197723  1
  O2-  O468  1  0.57955078  0.75141107  0.58906516  1
  O2-  O469  1  0.09281698  0.24903910  0.74755941  1
  O2-  O470  1  0.25113866  0.75009860  0.59315146  1
  O2-  O471  1  0.75322524  0.74830004  0.08003036  1
  O2-  O472  1  0.74563053  0.25281806  0.08108888  1
  O2-  O473  1  0.58063728  0.75176654  0.25329115  1
  O2-  O474  1  0.25000560  0.75130023  0.25252717  1
  O2-  O475  1  0.24825568  0.24951867  0.92251716  1
  O2-  O476  1  0.73999692  0.24866678  0.74636597  1
  O2-  O477  1  0.91452439  0.75204067  0.25178325  1
  O2-  O478  1  0.74239060  0.24941551  0.40664834  1
  O2-  O479  1  0.08055834  0.75239363  0.08571607  1
  O2-  O480  1  0.41650136  0.74959921  0.74066474  1
  O2-  O481  1  0.09023180  0.24930245  0.40707302  1
  O2-  O482  1  0.41756821  0.24709223  0.41021641  1
  O2-  O483  1  0.41296714  0.25073696  0.07991105  1
  O2-  O484  1  0.25056581  0.24957864  0.58605796  1
  O2-  O485  1  0.75200165  0.75093387  0.73909788  1
  O2-  O486  1  0.25215512  0.25057188  0.26433110  1
  O2-  O487  1  0.58375768  0.25200913  0.26014096  1
  O2-  O488  1  0.91507107  0.75388735  0.59638956  1
  O2-  O489  1  0.40912483  0.25062561  0.73969125  1
  O2-  O490  1  0.58229181  0.25298779  0.58745692  1
  O2-  O491  1  0.58658839  0.25083773  0.91723698  1
  O2-  O492  1  0.42296117  0.75298558  0.41501989  1
