# generated using pymatgen
data_Ca108Mn108O277
_symmetry_space_group_name_H-M   'P 1'
_cell_length_a   16.02901952
_cell_length_b   22.30840850
_cell_length_c   16.38857197
_cell_angle_alpha   89.99527286
_cell_angle_beta   90.00155197
_cell_angle_gamma   90.00489510
_symmetry_Int_Tables_number   1
_chemical_formula_structural   Ca108Mn108O277
_chemical_formula_sum   'Ca108 Mn108 O277'
_cell_volume   5860.25690712
_cell_formula_units_Z   1
loop_
 _symmetry_equiv_pos_site_id
 _symmetry_equiv_pos_as_xyz
  1  'x, y, z'
loop_
 _atom_type_symbol
 _atom_type_oxidation_number
  Ca2+  2.0
  Mn3.34+  3.34
  O2-  -2.0
loop_
 _atom_site_type_symbol
 _atom_site_label
 _atom_site_symmetry_multiplicity
 _atom_site_fract_x
 _atom_site_fract_y
 _atom_site_fract_z
 _atom_site_occupancy
  Ca2+  Ca0  1  0.09233287  0.24675705  0.26646553  1
  Ca2+  Ca1  1  0.06621692  0.24109286  0.57430227  1
  Ca2+  Ca2  1  0.09883523  0.24494680  0.91217797  1
  Ca2+  Ca3  1  0.07972118  0.76073772  0.25071008  1
  Ca2+  Ca4  1  0.08767864  0.74957478  0.58055335  1
  Ca2+  Ca5  1  0.08607894  0.75165685  0.92477714  1
  Ca2+  Ca6  1  0.40401144  0.23834703  0.25443470  1
  Ca2+  Ca7  1  0.42451859  0.25819871  0.57690750  1
  Ca2+  Ca8  1  0.41160173  0.23537355  0.92994522  1
  Ca2+  Ca9  1  0.41975516  0.76324172  0.25617531  1
  Ca2+  Ca10  1  0.41307968  0.75848369  0.57512125  1
  Ca2+  Ca11  1  0.40889739  0.75802307  0.90905180  1
  Ca2+  Ca12  1  0.75184002  0.24971186  0.23795462  1
  Ca2+  Ca13  1  0.76397874  0.25151132  0.57602948  1
  Ca2+  Ca14  1  0.73627149  0.25211397  0.93215874  1
  Ca2+  Ca15  1  0.75082162  0.75812078  0.26609844  1
  Ca2+  Ca16  1  0.74850360  0.74566674  0.57086286  1
  Ca2+  Ca17  1  0.75506378  0.75704940  0.92254142  1
  Ca2+  Ca18  1  0.25406745  0.25240953  0.09257407  1
  Ca2+  Ca19  1  0.23430151  0.24340239  0.41268595  1
  Ca2+  Ca20  1  0.23820398  0.24975726  0.74977068  1
  Ca2+  Ca21  1  0.23047909  0.75361210  0.08820424  1
  Ca2+  Ca22  1  0.24112601  0.75472394  0.42972925  1
  Ca2+  Ca23  1  0.24152845  0.75436775  0.73190315  1
  Ca2+  Ca24  1  0.59818099  0.23561182  0.07904654  1
  Ca2+  Ca25  1  0.57390727  0.24772622  0.41716838  1
  Ca2+  Ca26  1  0.58127449  0.25314480  0.75994134  1
  Ca2+  Ca27  1  0.60238394  0.75501951  0.09150600  1
  Ca2+  Ca28  1  0.60224304  0.73262915  0.42883064  1
  Ca2+  Ca29  1  0.60636564  0.74367953  0.72598137  1
  Ca2+  Ca30  1  0.89593161  0.24941727  0.08729082  1
  Ca2+  Ca31  1  0.93186626  0.24381633  0.43836545  1
  Ca2+  Ca32  1  0.93116581  0.24457503  0.72771934  1
  Ca2+  Ca33  1  0.92097407  0.75950624  0.08921753  1
  Ca2+  Ca34  1  0.89921126  0.73887095  0.41994887  1
  Ca2+  Ca35  1  0.90942830  0.74998882  0.73983323  1
  Ca2+  Ca36  1  0.73847687  0.08221078  0.97581696  1
  Ca2+  Ca37  1  0.79506646  0.08435350  0.57343443  1
  Ca2+  Ca38  1  0.60537911  0.58936759  0.71236252  1
  Ca2+  Ca39  1  0.77241704  0.59431150  0.91661453  1
  Ca2+  Ca40  1  0.75083920  0.60035255  0.55565613  1
  Ca2+  Ca41  1  0.09181402  0.08568319  0.25010940  1
  Ca2+  Ca42  1  0.93057283  0.09636743  0.42689592  1
  Ca2+  Ca43  1  0.28373373  0.11533567  0.07423902  1
  Ca2+  Ca44  1  0.39760599  0.57573822  0.94427212  1
  Ca2+  Ca45  1  0.42089237  0.60636002  0.55997136  1
  Ca2+  Ca46  1  0.74318782  0.58406056  0.30749060  1
  Ca2+  Ca47  1  0.22372916  0.58715899  0.71635818  1
  Ca2+  Ca48  1  0.94628687  0.07215414  0.72107452  1
  Ca2+  Ca49  1  0.23335452  0.58880311  0.71275078  1
  Ca2+  Ca50  1  0.58201748  0.09403100  0.40504927  1
  Ca2+  Ca51  1  0.91179711  0.07026063  0.07677201  1
  Ca2+  Ca52  1  0.08324586  0.60310751  0.25268798  1
  Ca2+  Ca53  1  0.07685591  0.60642040  0.57830834  1
  Ca2+  Ca54  1  0.91419457  0.60392775  0.07456745  1
  Ca2+  Ca55  1  0.24404053  0.60533231  0.44333204  1
  Ca2+  Ca56  1  0.42845134  0.58706807  0.26523066  1
  Ca2+  Ca57  1  0.59100986  0.58733285  0.09328424  1
  Ca2+  Ca58  1  0.78506342  0.08612405  0.57217738  1
  Ca2+  Ca59  1  0.05888479  0.08879087  0.58339829  1
  Ca2+  Ca60  1  0.21940689  0.07747996  0.73992579  1
  Ca2+  Ca61  1  0.07184032  0.60297956  0.25192327  1
  Ca2+  Ca62  1  0.73694332  0.10050721  0.21433596  1
  Ca2+  Ca63  1  0.41584149  0.58702980  0.26445941  1
  Ca2+  Ca64  1  0.40853056  0.60638046  0.56058409  1
  Ca2+  Ca65  1  0.73915066  0.59067862  0.31035523  1
  Ca2+  Ca66  1  0.58165129  0.08735752  0.75893835  1
  Ca2+  Ca67  1  0.72834501  0.08126695  0.97343616  1
  Ca2+  Ca68  1  0.10430797  0.08543417  0.24927284  1
  Ca2+  Ca69  1  0.27649357  0.11864081  0.06826433  1
  Ca2+  Ca70  1  0.09986945  0.09646240  0.91855648  1
  Ca2+  Ca71  1  0.38637312  0.57361058  0.93969507  1
  Ca2+  Ca72  1  0.41101392  0.39632176  0.91898222  1
  Ca2+  Ca73  1  0.09076451  0.40800147  0.58350615  1
  Ca2+  Ca74  1  0.08160977  0.91585088  0.59174052  1
  Ca2+  Ca75  1  0.75877438  0.41280600  0.57629073  1
  Ca2+  Ca76  1  0.59097617  0.40587322  0.74578644  1
  Ca2+  Ca77  1  0.76757984  0.91496069  0.94456101  1
  Ca2+  Ca78  1  0.77345645  0.91227736  0.58241025  1
  Ca2+  Ca79  1  0.90464697  0.91094473  0.42134788  1
  Ca2+  Ca80  1  0.60124318  0.90601990  0.08073103  1
  Ca2+  Ca81  1  0.58430596  0.90411511  0.75267159  1
  Ca2+  Ca82  1  0.41282812  0.90687163  0.92572467  1
  Ca2+  Ca83  1  0.23595914  0.90761922  0.08680667  1
  Ca2+  Ca84  1  0.25250737  0.40583201  0.06967865  1
  Ca2+  Ca85  1  0.59562626  0.90419519  0.75390336  1
  Ca2+  Ca86  1  0.74159970  0.40592203  0.25232486  1
  Ca2+  Ca87  1  0.42429662  0.90765443  0.92522046  1
  Ca2+  Ca88  1  0.08043335  0.90823994  0.23751194  1
  Ca2+  Ca89  1  0.58777522  0.90645443  0.41322085  1
  Ca2+  Ca90  1  0.91124849  0.39878869  0.07845371  1
  Ca2+  Ca91  1  0.24129157  0.41075811  0.72924371  1
  Ca2+  Ca92  1  0.60251338  0.40615803  0.74704652  1
  Ca2+  Ca93  1  0.26508846  0.40509348  0.07181515  1
  Ca2+  Ca94  1  0.08078338  0.39485451  0.91301383  1
  Ca2+  Ca95  1  0.76516167  0.40425215  0.92273002  1
  Ca2+  Ca96  1  0.22281698  0.91995463  0.72333502  1
  Ca2+  Ca97  1  0.91632784  0.40235579  0.41852098  1
  Ca2+  Ca98  1  0.42531969  0.40176031  0.24912888  1
  Ca2+  Ca99  1  0.59922094  0.40906998  0.41166462  1
  Ca2+  Ca100  1  0.59984065  0.90724704  0.41387670  1
  Ca2+  Ca101  1  0.37784086  0.91666708  0.58165114  1
  Ca2+  Ca102  1  0.58694193  0.40686529  0.41269486  1
  Ca2+  Ca103  1  0.43648561  0.40570928  0.24555975  1
  Ca2+  Ca104  1  0.93680999  0.92278910  0.72462675  1
  Ca2+  Ca105  1  0.92097368  0.41127670  0.74203650  1
  Ca2+  Ca106  1  0.06987680  0.91703545  0.93691716  1
  Ca2+  Ca107  1  0.08224419  0.39815160  0.25244722  1
  Mn3.34+  Mn108  1  0.08094101  0.32327520  0.08562661  1
  Mn3.34+  Mn109  1  0.08595142  0.33300766  0.42009258  1
  Mn3.34+  Mn110  1  0.08243820  0.33038868  0.74757183  1
  Mn3.34+  Mn111  1  0.07764149  0.83991965  0.08515625  1
  Mn3.34+  Mn112  1  0.08048222  0.83376024  0.41678015  1
  Mn3.34+  Mn113  1  0.08004363  0.83740099  0.75825595  1
  Mn3.34+  Mn114  1  0.42340068  0.32889256  0.08531590  1
  Mn3.34+  Mn115  1  0.41080946  0.33180248  0.42195925  1
  Mn3.34+  Mn116  1  0.41280770  0.33019824  0.74604064  1
  Mn3.34+  Mn117  1  0.41488524  0.83604142  0.09346876  1
  Mn3.34+  Mn118  1  0.41009778  0.84641179  0.41643188  1
  Mn3.34+  Mn119  1  0.41211832  0.83939731  0.74796051  1
  Mn3.34+  Mn120  1  0.74569662  0.33300956  0.08440152  1
  Mn3.34+  Mn121  1  0.75306365  0.33276296  0.41767593  1
  Mn3.34+  Mn122  1  0.75794181  0.33240410  0.75000822  1
  Mn3.34+  Mn123  1  0.75865996  0.83709621  0.09069870  1
  Mn3.34+  Mn124  1  0.75185853  0.83522360  0.41798766  1
  Mn3.34+  Mn125  1  0.75761035  0.83402900  0.75120550  1
  Mn3.34+  Mn126  1  0.24904634  0.33099686  0.25338639  1
  Mn3.34+  Mn127  1  0.25050614  0.34005582  0.57701349  1
  Mn3.34+  Mn128  1  0.25215214  0.32333094  0.91063887  1
  Mn3.34+  Mn129  1  0.25009332  0.83566532  0.25588721  1
  Mn3.34+  Mn130  1  0.24320958  0.83401835  0.57996590  1
  Mn3.34+  Mn131  1  0.24436428  0.83051462  0.91324662  1
  Mn3.34+  Mn132  1  0.58518758  0.32102853  0.24613790  1
  Mn3.34+  Mn133  1  0.58581048  0.33079816  0.58161407  1
  Mn3.34+  Mn134  1  0.58232522  0.33196063  0.91797317  1
  Mn3.34+  Mn135  1  0.58335191  0.83380872  0.24699466  1
  Mn3.34+  Mn136  1  0.58069412  0.83094650  0.57790607  1
  Mn3.34+  Mn137  1  0.58742618  0.83207791  0.91749218  1
  Mn3.34+  Mn138  1  0.91682546  0.33080460  0.25181533  1
  Mn3.34+  Mn139  1  0.91856277  0.33596346  0.58221028  1
  Mn3.34+  Mn140  1  0.91813823  0.32892574  0.91182213  1
  Mn3.34+  Mn141  1  0.91365710  0.83942946  0.25187727  1
  Mn3.34+  Mn142  1  0.92019630  0.83365402  0.58024492  1
  Mn3.34+  Mn143  1  0.91835209  0.83660169  0.91225806  1
  Mn3.34+  Mn144  1  0.59615526  0.66128932  0.91370625  1
  Mn3.34+  Mn145  1  0.74306128  0.16580167  0.75116530  1
  Mn3.34+  Mn146  1  0.23675805  0.66671043  0.91431464  1
  Mn3.34+  Mn147  1  0.42505214  0.66372454  0.75594146  1
  Mn3.34+  Mn148  1  0.41682716  0.66598602  0.08987431  1
  Mn3.34+  Mn149  1  0.25668706  0.14959383  0.57040203  1
  Mn3.34+  Mn150  1  0.07940277  0.67000518  0.42190195  1
  Mn3.34+  Mn151  1  0.58546200  0.66633603  0.91570430  1
  Mn3.34+  Mn152  1  0.74266132  0.16235608  0.41784999  1
  Mn3.34+  Mn153  1  0.91384817  0.17203764  0.91417967  1
  Mn3.34+  Mn154  1  0.41589551  0.67798119  0.41019831  1
  Mn3.34+  Mn155  1  0.58167020  0.16795442  0.57954493  1
  Mn3.34+  Mn156  1  0.08146774  0.67172543  0.07994530  1
  Mn3.34+  Mn157  1  0.08372616  0.16390635  0.08673118  1
  Mn3.34+  Mn158  1  0.58491088  0.67297684  0.24868545  1
  Mn3.34+  Mn159  1  0.76014586  0.66693578  0.74559168  1
  Mn3.34+  Mn160  1  0.41562841  0.16574531  0.41654199  1
  Mn3.34+  Mn161  1  0.92096468  0.66872529  0.90953771  1
  Mn3.34+  Mn162  1  0.25486283  0.16472745  0.25330198  1
  Mn3.34+  Mn163  1  0.75459933  0.66715985  0.08994586  1
  Mn3.34+  Mn164  1  0.92202136  0.16573205  0.91115061  1
  Mn3.34+  Mn165  1  0.40812437  0.67205233  0.08718780  1
  Mn3.34+  Mn166  1  0.57842639  0.17077695  0.24662095  1
  Mn3.34+  Mn167  1  0.41153595  0.66982814  0.75389221  1
  Mn3.34+  Mn168  1  0.91298073  0.67442322  0.24998816  1
  Mn3.34+  Mn169  1  0.07272159  0.66711735  0.75609544  1
  Mn3.34+  Mn170  1  0.91446630  0.66784976  0.58356418  1
  Mn3.34+  Mn171  1  0.40944546  0.16180364  0.74976882  1
  Mn3.34+  Mn172  1  0.92002549  0.16483005  0.24871306  1
  Mn3.34+  Mn173  1  0.91036797  0.15925664  0.24740316  1
  Mn3.34+  Mn174  1  0.08570688  0.16713390  0.75175279  1
  Mn3.34+  Mn175  1  0.57539047  0.16667724  0.92580107  1
  Mn3.34+  Mn176  1  0.75655196  0.16006230  0.75452657  1
  Mn3.34+  Mn177  1  0.24889514  0.15626973  0.57380206  1
  Mn3.34+  Mn178  1  0.42008103  0.16629124  0.74907571  1
  Mn3.34+  Mn179  1  0.24724744  0.67322521  0.25119124  1
  Mn3.34+  Mn180  1  0.23833172  0.49982216  0.23897382  1
  Mn3.34+  Mn181  1  0.09905168  0.00064477  0.41680060  1
  Mn3.34+  Mn182  1  0.57867418  0.00191822  0.92378173  1
  Mn3.34+  Mn183  1  0.58364570  0.50440299  0.92156244  1
  Mn3.34+  Mn184  1  0.75989820  0.00040171  0.75689833  1
  Mn3.34+  Mn185  1  0.58459498  -0.00252876  0.24584362  1
  Mn3.34+  Mn186  1  0.42096479  0.00043882  0.08359458  1
  Mn3.34+  Mn187  1  0.40728747  0.00170954  0.74471093  1
  Mn3.34+  Mn188  1  0.07505965  0.49869022  0.75014812  1
  Mn3.34+  Mn189  1  0.92417295  0.49801963  0.24671616  1
  Mn3.34+  Mn190  1  0.24331625  -0.00292900  0.91283418  1
  Mn3.34+  Mn191  1  0.76038496  0.50527835  0.74587550  1
  Mn3.34+  Mn192  1  0.08932110  0.50406380  0.08403935  1
  Mn3.34+  Mn193  1  0.57200429  0.00738888  0.58451329  1
  Mn3.34+  Mn194  1  0.41160731  0.49521866  0.75409586  1
  Mn3.34+  Mn195  1  0.40748256  0.49559260  0.42097896  1
  Mn3.34+  Mn196  1  0.91946147  0.50117323  0.91073269  1
  Mn3.34+  Mn197  1  0.75944757  0.50088986  0.08444087  1
  Mn3.34+  Mn198  1  0.25697920  0.00366536  0.91388255  1
  Mn3.34+  Mn199  1  0.57458938  0.00274946  0.24659546  1
  Mn3.34+  Mn200  1  0.90416379  -0.00299375  0.26843434  1
  Mn3.34+  Mn201  1  0.08802224  0.50106395  0.41864299  1
  Mn3.34+  Mn202  1  0.58640152  0.00172478  0.58283619  1
  Mn3.34+  Mn203  1  0.07553848  0.49774317  0.08251254  1
  Mn3.34+  Mn204  1  0.41053421  0.00797030  0.41446684  1
  Mn3.34+  Mn205  1  0.59517875  0.49886533  0.92302994  1
  Mn3.34+  Mn206  1  0.42412391  0.49836040  0.75073306  1
  Mn3.34+  Mn207  1  0.58389230  0.49964142  0.24211804  1
  Mn3.34+  Mn208  1  0.27014456  -0.00025851  0.24755621  1
  Mn3.34+  Mn209  1  0.25350373  0.50416104  0.24033279  1
  Mn3.34+  Mn210  1  0.92451723  0.00384572  0.91149784  1
  Mn3.34+  Mn211  1  0.10802820  -0.00627996  0.41459039  1
  Mn3.34+  Mn212  1  0.23755638  0.49529899  0.90547968  1
  Mn3.34+  Mn213  1  0.58357298  0.49778977  0.58070411  1
  Mn3.34+  Mn214  1  0.91351947  0.50250732  0.24863013  1
  Mn3.34+  Mn215  1  0.91850184  0.50345112  0.58616299  1
  O2-  O216  1  0.00133607  0.17167336  0.00013821  1
  O2-  O217  1  0.00132003  0.14673399  0.32379254  1
  O2-  O218  1  0.00423043  0.15656109  0.67317994  1
  O2-  O219  1  -0.00685412  0.67429859  0.00384244  1
  O2-  O220  1  -0.00142989  0.65613599  0.33162214  1
  O2-  O221  1  0.00424190  0.67562386  0.66495777  1
  O2-  O222  1  0.32143997  0.19487305  0.00658686  1
  O2-  O223  1  0.32952219  0.16115141  0.33885847  1
  O2-  O224  1  0.33490135  0.16628663  0.65670704  1
  O2-  O225  1  0.33372399  0.65474783  -0.00271050  1
  O2-  O226  1  0.33339998  0.65858790  0.32672490  1
  O2-  O227  1  0.33512670  0.64896443  0.67382486  1
  O2-  O228  1  0.66493701  0.16617683  -0.00496332  1
  O2-  O229  1  0.66277985  0.18350533  0.33667635  1
  O2-  O230  1  0.67182691  0.13561431  0.65917509  1
  O2-  O231  1  0.67027061  0.64348597  0.00490462  1
  O2-  O232  1  0.65500668  0.66046202  0.33168473  1
  O2-  O233  1  0.68215592  0.65909665  0.66436943  1
  O2-  O234  1  0.16486770  0.16450554  0.00777611  1
  O2-  O235  1  0.16175927  0.15605335  0.31856765  1
  O2-  O236  1  0.17679444  0.16373056  0.66760895  1
  O2-  O237  1  0.16453283  0.66457670  0.00412167  1
  O2-  O238  1  0.16682167  0.64895491  0.33440606  1
  O2-  O239  1  0.15704616  0.66625895  0.67131395  1
  O2-  O240  1  0.50133388  0.17578669  0.00255628  1
  O2-  O241  1  0.50230263  0.16489929  0.33710118  1
  O2-  O242  1  0.50240831  0.14487008  0.67324036  1
  O2-  O243  1  0.49609827  0.64118465  -0.00177209  1
  O2-  O244  1  0.48806117  0.66940152  0.31696236  1
  O2-  O245  1  0.49922782  0.65433378  0.67132061  1
  O2-  O246  1  0.83580062  0.15601604  -0.00380728  1
  O2-  O247  1  0.82655501  0.15373452  0.33094569  1
  O2-  O248  1  0.83582807  0.14945161  0.67323837  1
  O2-  O249  1  0.83171768  0.66401707  -0.00197980  1
  O2-  O250  1  0.82910375  0.66468244  0.32097074  1
  O2-  O251  1  0.84271020  0.65186777  0.67191837  1
  O2-  O252  1  -0.00015807  0.32050880  -0.00078233  1
  O2-  O253  1  -0.00141473  0.34723561  0.33528576  1
  O2-  O254  1  0.00058197  0.34973714  0.66517861  1
  O2-  O255  1  0.00224310  0.83208458  -0.00678100  1
  O2-  O256  1  -0.00056089  0.85387851  0.33411520  1
  O2-  O257  1  0.00323535  0.83804985  0.66795284  1
  O2-  O258  1  0.33109157  0.33304365  0.00434886  1
  O2-  O259  1  0.34031402  0.35078623  0.32439170  1
  O2-  O260  1  0.32549830  0.32316945  0.66653884  1
  O2-  O261  1  0.33390614  0.84606163  0.00134555  1
  O2-  O262  1  0.33428360  0.81748786  0.33968763  1
  O2-  O263  1  0.32639742  0.84714218  0.67191675  1
  O2-  O264  1  0.67211412  0.34369619  -0.00752194  1
  O2-  O265  1  0.66695558  0.32629929  0.33496866  1
  O2-  O266  1  0.67396784  0.35153922  0.66152298  1
  O2-  O267  1  0.67093074  0.84087885  -0.00525950  1
  O2-  O268  1  0.66611533  0.84666512  0.33260316  1
  O2-  O269  1  0.66795043  0.85179298  0.66327900  1
  O2-  O270  1  0.16854101  0.32653546  0.00082934  1
  O2-  O271  1  0.16398843  0.34246035  0.33102598  1
  O2-  O272  1  0.16782641  0.33782836  0.66806833  1
  O2-  O273  1  0.16415799  0.84416683  -0.00378951  1
  O2-  O274  1  0.15937743  0.85036145  0.32888195  1
  O2-  O275  1  0.15994251  0.83313210  0.66984824  1
  O2-  O276  1  0.49297204  0.32934846  -0.00741012  1
  O2-  O277  1  0.50876582  0.33638763  0.33418268  1
  O2-  O278  1  0.50625371  0.35247803  0.66627946  1
  O2-  O279  1  0.49837636  0.84395148  0.00112919  1
  O2-  O280  1  0.50115778  0.84239623  0.33667361  1
  O2-  O281  1  0.49885757  0.85508688  0.66570017  1
  O2-  O282  1  0.83797553  0.33662711  0.00015035  1
  O2-  O283  1  0.82980016  0.34715742  0.33028063  1
  O2-  O284  1  0.83743866  0.34898040  0.66663002  1
  O2-  O285  1  0.83686439  0.82892810  -0.00156498  1
  O2-  O286  1  0.83599586  0.84388688  0.33950432  1
  O2-  O287  1  0.84111550  0.85319675  0.67502444  1
  O2-  O288  1  0.00059382  0.18651431  0.16662672  1
  O2-  O289  1  -0.00482626  0.17129663  0.50347111  1
  O2-  O290  1  0.00236034  0.18883366  0.83533809  1
  O2-  O291  1  0.00442157  0.67719314  0.17196365  1
  O2-  O292  1  0.00040470  0.68261129  0.50293776  1
  O2-  O293  1  -0.00090362  0.69718934  0.83495171  1
  O2-  O294  1  0.32844432  0.18030345  0.16733126  1
  O2-  O295  1  0.33331632  0.18717857  0.50129004  1
  O2-  O296  1  0.33173938  0.18656703  0.82213746  1
  O2-  O297  1  0.32981057  0.69315045  0.16913485  1
  O2-  O298  1  0.33587256  0.68496485  0.48920325  1
  O2-  O299  1  0.33531618  0.67801432  0.83710777  1
  O2-  O300  1  0.66577809  0.18446124  0.17979510  1
  O2-  O301  1  0.66755723  0.18888411  0.50026314  1
  O2-  O302  1  0.66171185  0.17839981  0.82675671  1
  O2-  O303  1  0.66681532  0.67073857  0.16701968  1
  O2-  O304  1  0.67673911  0.67313803  0.50384786  1
  O2-  O305  1  0.66871839  0.68392076  0.82521518  1
  O2-  O306  1  0.16673745  0.18311582  0.16344656  1
  O2-  O307  1  0.16762661  0.18362903  0.50648557  1
  O2-  O308  1  0.16432363  0.18375481  0.83035100  1
  O2-  O309  1  0.15734248  0.67175509  0.17695635  1
  O2-  O310  1  0.15971830  0.67822499  0.49741623  1
  O2-  O311  1  0.16891585  0.68409201  0.82446607  1
  O2-  O312  1  0.50868363  0.20623337  0.17878189  1
  O2-  O313  1  0.49933304  0.18663551  0.50134238  1
  O2-  O314  1  0.50205865  0.17195203  0.83326818  1
  O2-  O315  1  0.50694296  0.68918436  0.15798051  1
  O2-  O316  1  0.48821344  0.68469798  0.49600560  1
  O2-  O317  1  0.49372350  0.68480763  0.84211113  1
  O2-  O318  1  0.83493242  0.17465239  0.16755085  1
  O2-  O319  1  0.82500196  0.17464830  0.49321456  1
  O2-  O320  1  0.83336231  0.19584267  0.83644537  1
  O2-  O321  1  0.84426985  0.68309637  0.15827778  1
  O2-  O322  1  0.83464377  0.67317125  0.50821836  1
  O2-  O323  1  0.83060504  0.68624066  0.84071865  1
  O2-  O324  1  0.00188413  0.31635641  0.17018186  1
  O2-  O325  1  -0.00011444  0.32665456  0.50111776  1
  O2-  O326  1  0.00170088  0.31546871  0.83248591  1
  O2-  O327  1  0.00056841  0.82582427  0.17094630  1
  O2-  O328  1  -0.00389591  0.81473148  0.49652422  1
  O2-  O329  1  -0.00071522  0.81429331  0.83217390  1
  O2-  O330  1  0.33210950  0.31997947  0.16492839  1
  O2-  O331  1  0.32721130  0.31533040  0.49949649  1
  O2-  O332  1  0.34009398  0.30896486  0.83992276  1
  O2-  O333  1  0.32877208  0.81395590  0.16491538  1
  O2-  O334  1  0.33566808  0.82937084  0.50399769  1
  O2-  O335  1  0.34096703  0.82857987  0.84134973  1
  O2-  O336  1  0.66960814  0.32037199  0.17014711  1
  O2-  O337  1  0.66917249  0.31314462  0.49706834  1
  O2-  O338  1  0.66350035  0.32830005  0.82263262  1
  O2-  O339  1  0.66509549  0.82713078  0.16288721  1
  O2-  O340  1  0.65964262  0.82400416  0.49383038  1
  O2-  O341  1  0.65806591  0.82102325  0.82191941  1
  O2-  O342  1  0.16969847  0.32184914  0.16214294  1
  O2-  O343  1  0.16293846  0.31772145  0.50757354  1
  O2-  O344  1  0.16512174  0.31537803  0.83261094  1
  O2-  O345  1  0.16534306  0.82851026  0.16507966  1
  O2-  O346  1  0.15964805  0.81968187  0.50192112  1
  O2-  O347  1  0.16720422  0.81201782  0.82909937  1
  O2-  O348  1  0.48970290  0.32453723  0.17905087  1
  O2-  O349  1  0.50708689  0.32267121  0.49602357  1
  O2-  O350  1  0.50580373  0.33494349  0.82263308  1
  O2-  O351  1  0.50210200  0.81128489  0.16276325  1
  O2-  O352  1  0.49915853  0.82107943  0.49529421  1
  O2-  O353  1  0.49810094  0.83235738  0.83589336  1
  O2-  O354  1  0.83582369  0.32202576  0.16679956  1
  O2-  O355  1  0.83650283  0.32277534  0.49559980  1
  O2-  O356  1  0.82957774  0.31659286  0.83988561  1
  O2-  O357  1  0.83285986  0.81797268  0.17227974  1
  O2-  O358  1  0.82901508  0.82940045  0.50509337  1
  O2-  O359  1  0.83063679  0.81805129  0.83761129  1
  O2-  O360  1  0.07796594  0.08214391  0.11686727  1
  O2-  O361  1  0.07555955  0.07464534  0.45024823  1
  O2-  O362  1  0.08392475  0.08649370  0.78130962  1
  O2-  O363  1  0.06774439  0.58385306  0.10980887  1
  O2-  O364  1  0.09184713  0.58240133  0.44494052  1
  O2-  O365  1  0.09576628  0.57865174  0.77315906  1
  O2-  O366  1  0.39664301  0.07585954  0.11031591  1
  O2-  O367  1  0.43133077  0.08358926  0.44652274  1
  O2-  O368  1  0.41042590  0.07982572  0.78028493  1
  O2-  O369  1  0.42120111  0.58099379  0.12850384  1
  O2-  O370  1  0.40797251  0.58218567  0.42849234  1
  O2-  O371  1  0.42630982  0.57523183  0.80609242  1
  O2-  O372  1  0.76933374  0.06906570  0.09797578  1
  O2-  O373  1  0.73010694  0.08335881  0.44665713  1
  O2-  O374  1  0.74562888  0.08242243  0.79946902  1
  O2-  O375  1  0.76304403  0.57959559  0.12603728  1
  O2-  O376  1  0.73781609  0.57183872  0.43332173  1
  O2-  O377  1  0.74520621  0.58396652  0.78098236  1
  O2-  O378  1  0.23938962  0.08151138  0.20704295  1
  O2-  O379  1  0.22217906  0.07166818  0.57242705  1
  O2-  O380  1  0.24218670  0.08192964  0.88896548  1
  O2-  O381  1  0.26468993  0.58589666  0.22191344  1
  O2-  O382  1  0.27641044  0.57701098  0.56665450  1
  O2-  O383  1  0.26304348  0.57769454  0.87430791  1
  O2-  O384  1  0.59269188  0.08520356  0.23205876  1
  O2-  O385  1  0.58161853  0.08462009  0.54190097  1
  O2-  O386  1  0.60044153  0.08201173  0.90114283  1
  O2-  O387  1  0.56762143  0.58422132  0.22884898  1
  O2-  O388  1  0.55313377  0.57480696  0.57162369  1
  O2-  O389  1  0.58485541  0.57789198  0.86107909  1
  O2-  O390  1  0.92389046  0.07354263  0.21294939  1
  O2-  O391  1  0.91616630  0.06871271  0.55197220  1
  O2-  O392  1  0.91679294  0.08149554  0.86759637  1
  O2-  O393  1  0.92655382  0.58468008  0.21886860  1
  O2-  O394  1  0.93287352  0.58257568  0.56501826  1
  O2-  O395  1  0.91249088  0.58243286  0.90200014  1
  O2-  O396  1  0.08660954  0.41588484  0.10654121  1
  O2-  O397  1  0.07337961  0.42097790  0.44469895  1
  O2-  O398  1  0.08431911  0.41652248  0.78074771  1
  O2-  O399  1  0.08771173  0.91901661  0.09637977  1
  O2-  O400  1  0.07392985  0.91840815  0.45151174  1
  O2-  O401  1  0.08359648  0.91516333  0.78611331  1
  O2-  O402  1  0.38846965  0.42387523  0.12049973  1
  O2-  O403  1  0.44686940  0.41577867  0.42428842  1
  O2-  O404  1  0.39029907  0.41499602  0.78047243  1
  O2-  O405  1  0.42590466  0.92110813  0.10635149  1
  O2-  O406  1  0.43795797  0.93115940  0.45616047  1
  O2-  O407  1  0.42410294  0.92575031  0.78903233  1
  O2-  O408  1  0.76372014  0.41915091  0.11133202  1
  O2-  O409  1  0.73394388  0.41659216  0.43643029  1
  O2-  O410  1  0.74401614  0.42594458  0.78859483  1
  O2-  O411  1  0.74667854  0.91558789  0.08753198  1
  O2-  O412  1  0.73285114  0.91925180  0.45066917  1
  O2-  O413  1  0.73414567  0.91829011  0.78687602  1
  O2-  O414  1  0.23854716  0.41846409  0.20989873  1
  O2-  O415  1  0.24046012  0.41727455  0.57898374  1
  O2-  O416  1  0.24035226  0.41153197  0.89706795  1
  O2-  O417  1  0.25288416  0.91876415  0.22224718  1
  O2-  O418  1  0.23623259  0.91651642  0.57591842  1
  O2-  O419  1  0.25313608  0.91835763  0.88094151  1
  O2-  O420  1  0.57832669  0.41655331  0.23938600  1
  O2-  O421  1  0.60027870  0.41796854  0.54639429  1
  O2-  O422  1  0.57993205  0.41872956  0.88998918  1
  O2-  O423  1  0.57037075  0.91715177  0.21690691  1
  O2-  O424  1  0.57940526  0.92111874  0.54933906  1
  O2-  O425  1  0.57253109  0.92239451  0.88730174  1
  O2-  O426  1  0.92342670  0.41689235  0.21738211  1
  O2-  O427  1  0.90903177  0.42356913  0.54907180  1
  O2-  O428  1  0.92400410  0.41881183  0.88627276  1
  O2-  O429  1  0.92474000  0.92371939  0.22937836  1
  O2-  O430  1  0.92354016  0.91518389  0.56336426  1
  O2-  O431  1  0.92186052  0.92627783  0.87759940  1
  O2-  O432  1  0.00556117  0.01577288  -0.02379021  1
  O2-  O433  1  0.00886865  0.00967774  0.32782002  1
  O2-  O434  1  0.01851037  -0.00331798  0.65849410  1
  O2-  O435  1  0.00077499  0.49306070  -0.00353681  1
  O2-  O436  1  0.01018833  0.50389145  0.32490938  1
  O2-  O437  1  0.00569101  0.48323302  0.65949778  1
  O2-  O438  1  0.32925012  -0.01445562  0.00362555  1
  O2-  O439  1  0.32859104  0.00132704  0.34541531  1
  O2-  O440  1  0.30965567  -0.00393922  0.69515785  1
  O2-  O441  1  0.34040670  0.48782796  -0.03043528  1
  O2-  O442  1  0.33674286  0.49471537  0.31977296  1
  O2-  O443  1  0.32238173  0.51475730  0.68966202  1
  O2-  O444  1  0.67560968  -0.01077157  -0.02451869  1
  O2-  O445  1  0.65896782  -0.00857889  0.33215674  1
  O2-  O446  1  0.66587337  0.00183867  0.67171593  1
  O2-  O447  1  0.66481940  0.51499209  0.01383302  1
  O2-  O448  1  0.66210611  0.49473710  0.31873112  1
  O2-  O449  1  0.65726705  0.49391808  0.67995981  1
  O2-  O450  1  0.16152552  0.00120765  -0.01040975  1
  O2-  O451  1  0.16161683  0.00390579  0.30884836  1
  O2-  O452  1  0.14399789  0.00007559  0.66751364  1
  O2-  O453  1  0.17761207  0.48783795  0.00958028  1
  O2-  O454  1  0.16673504  0.50807461  0.32908303  1
  O2-  O455  1  0.16966392  0.49639548  0.69200807  1
  O2-  O456  1  0.48288783  -0.00878831  -0.01778180  1
  O2-  O457  1  0.50608092  0.00194811  0.34667881  1
  O2-  O458  1  0.51168997  -0.00457527  0.68827041  1
  O2-  O459  1  0.49494971  0.51606704  -0.00500144  1
  O2-  O460  1  0.48360425  0.50052321  0.30661011  1
  O2-  O461  1  0.50409638  0.48149104  0.67073275  1
  O2-  O462  1  0.83686943  0.00780728  -0.02245325  1
  O2-  O463  1  0.84796005  0.00954926  0.35475625  1
  O2-  O464  1  0.83388745  0.01174590  0.66815395  1
  O2-  O465  1  0.82706705  0.49488123  -0.01376764  1
  O2-  O466  1  0.81549089  0.49871675  0.30613583  1
  O2-  O467  1  0.82756875  0.48727054  0.65621033  1
  O2-  O468  1  0.75095902  0.75444608  0.40607357  1
  O2-  O469  1  0.74413882  0.24477465  0.71517127  1
  O2-  O470  1  0.41528852  0.25142248  0.39473903  1
  O2-  O471  1  0.90168361  0.75139895  0.60121150  1
  O2-  O472  1  0.59689155  0.75329006  0.27108915  1
  O2-  O473  1  0.42111000  0.75529899  0.73053681  1
  O2-  O474  1  0.58444703  0.75382244  0.59661233  1
  O2-  O475  1  0.43923636  0.24799379  0.72198633  1
  O2-  O476  1  0.75087529  0.25423809  0.06902002  1
  O2-  O477  1  0.91504384  0.25597045  0.59500989  1
  O2-  O478  1  0.92319315  0.75459131  0.27392022  1
  O2-  O479  1  0.58032052  0.24938112  0.61726531  1
  O2-  O480  1  0.08683849  0.75101905  0.38944776  1
  O2-  O481  1  0.91096008  0.24770872  0.28060002  1
  O2-  O482  1  0.75518854  0.75269299  0.71977387  1
  O2-  O483  1  0.57526238  0.74868264  0.94689188  1
  O2-  O484  1  0.26011859  0.75073409  0.94135960  1
  O2-  O485  1  0.59038764  0.25112222  0.91825686  1
  O2-  O486  1  0.74114061  0.74771338  0.06519314  1
  O2-  O487  1  0.07824872  0.25114501  0.71816553  1
  O2-  O488  1  0.25647706  0.75440713  0.59708718  1
  O2-  O489  1  0.08669885  0.75297669  0.07389135  1
  O2-  O490  1  0.22812516  0.75107356  0.27430880  1
  O2-  O491  1  0.07741036  0.25404340  0.40199402  1
  O2-  O492  1  0.24793741  0.24955682  0.27408131  1
