# generated using pymatgen
data_Ca108Mn108O277
_symmetry_space_group_name_H-M   'P 1'
_cell_length_a   16.03283466
_cell_length_b   22.31137577
_cell_length_c   16.39172571
_cell_angle_alpha   89.99196527
_cell_angle_beta   89.99848261
_cell_angle_gamma   89.99878063
_symmetry_Int_Tables_number   1
_chemical_formula_structural   Ca108Mn108O277
_chemical_formula_sum   'Ca108 Mn108 O277'
_cell_volume   5863.55952037
_cell_formula_units_Z   1
loop_
 _symmetry_equiv_pos_site_id
 _symmetry_equiv_pos_as_xyz
  1  'x, y, z'
loop_
 _atom_type_symbol
 _atom_type_oxidation_number
  Ca2+  2.0
  Mn3.34+  3.34
  O2-  -2.0
loop_
 _atom_site_type_symbol
 _atom_site_label
 _atom_site_symmetry_multiplicity
 _atom_site_fract_x
 _atom_site_fract_y
 _atom_site_fract_z
 _atom_site_occupancy
  Ca2+  Ca0  1  0.09779455  0.24347738  0.22252654  1
  Ca2+  Ca1  1  0.07447850  0.25513437  0.58389153  1
  Ca2+  Ca2  1  0.09514985  0.24056498  0.93061628  1
  Ca2+  Ca3  1  0.08077278  0.76423650  0.24367198  1
  Ca2+  Ca4  1  0.08976345  0.75674817  0.59422380  1
  Ca2+  Ca5  1  0.10081630  0.75389700  0.92504203  1
  Ca2+  Ca6  1  0.40643674  0.24211427  0.23259081  1
  Ca2+  Ca7  1  0.42568487  0.25646050  0.58457541  1
  Ca2+  Ca8  1  0.39793827  0.24587323  0.92583577  1
  Ca2+  Ca9  1  0.41483714  0.76461452  0.24282709  1
  Ca2+  Ca10  1  0.42423529  0.75224114  0.59044495  1
  Ca2+  Ca11  1  0.42413934  0.75692365  0.91741200  1
  Ca2+  Ca12  1  0.74588316  0.25090926  0.23680580  1
  Ca2+  Ca13  1  0.74931211  0.25468651  0.58671548  1
  Ca2+  Ca14  1  0.75435863  0.25035343  0.91746453  1
  Ca2+  Ca15  1  0.75921994  0.74204418  0.25276951  1
  Ca2+  Ca16  1  0.73521538  0.74883787  0.57691614  1
  Ca2+  Ca17  1  0.72128182  0.74733079  0.92173925  1
  Ca2+  Ca18  1  0.24981890  0.23428727  0.07796932  1
  Ca2+  Ca19  1  0.25520690  0.24285640  0.40071507  1
  Ca2+  Ca20  1  0.25019072  0.24994912  0.76396280  1
  Ca2+  Ca21  1  0.26187666  0.76131251  0.07862409  1
  Ca2+  Ca22  1  0.25979236  0.75961479  0.41001760  1
  Ca2+  Ca23  1  0.25834377  0.74470814  0.76069097  1
  Ca2+  Ca24  1  0.56432774  0.24301369  0.08237272  1
  Ca2+  Ca25  1  0.57228650  0.23846432  0.42730258  1
  Ca2+  Ca26  1  0.59025880  0.25113128  0.74908794  1
  Ca2+  Ca27  1  0.57552781  0.75930038  0.07660332  1
  Ca2+  Ca28  1  0.58916775  0.74680681  0.41215872  1
  Ca2+  Ca29  1  0.57206584  0.74578323  0.76111730  1
  Ca2+  Ca30  1  0.93325318  0.24940139  0.07873946  1
  Ca2+  Ca31  1  0.92774614  0.24883253  0.42091848  1
  Ca2+  Ca32  1  0.91652661  0.25171132  0.75226811  1
  Ca2+  Ca33  1  0.92349227  0.74738150  0.10121485  1
  Ca2+  Ca34  1  0.90168193  0.75593462  0.39750115  1
  Ca2+  Ca35  1  0.92553772  0.74990140  0.75081378  1
  Ca2+  Ca36  1  0.74597736  0.09715385  0.59188479  1
  Ca2+  Ca37  1  0.91267217  0.08700429  0.41676011  1
  Ca2+  Ca38  1  0.90492137  0.60383093  0.39034989  1
  Ca2+  Ca39  1  0.92556895  0.08661739  0.41734352  1
  Ca2+  Ca40  1  0.22589108  0.59863311  0.09070058  1
  Ca2+  Ca41  1  0.05779098  0.62435359  0.22664877  1
  Ca2+  Ca42  1  0.58498516  0.61042259  0.77125094  1
  Ca2+  Ca43  1  0.74496928  0.08979975  0.25067100  1
  Ca2+  Ca44  1  0.73623996  0.09511570  0.58453189  1
  Ca2+  Ca45  1  0.41214141  0.58468359  0.26407171  1
  Ca2+  Ca46  1  0.40165349  0.58492902  0.26509638  1
  Ca2+  Ca47  1  0.22320491  0.60135510  0.08141006  1
  Ca2+  Ca48  1  0.59820156  0.60277752  0.07016444  1
  Ca2+  Ca49  1  0.25417229  0.09271302  0.09089009  1
  Ca2+  Ca50  1  0.73261127  0.09222178  0.24947135  1
  Ca2+  Ca51  1  0.26598199  0.08441608  0.39140556  1
  Ca2+  Ca52  1  0.76414011  0.08530938  0.92451653  1
  Ca2+  Ca53  1  0.40100960  0.09682365  0.24524707  1
  Ca2+  Ca54  1  0.09353935  0.07513611  0.60335770  1
  Ca2+  Ca55  1  0.75265079  0.57881635  0.94006797  1
  Ca2+  Ca56  1  0.27171505  0.57454621  0.41157153  1
  Ca2+  Ca57  1  0.54135231  0.09786377  0.09145648  1
  Ca2+  Ca58  1  0.42235217  0.10158023  0.56493147  1
  Ca2+  Ca59  1  0.95262413  0.56636947  0.74152829  1
  Ca2+  Ca60  1  0.41146799  0.09985000  0.56616748  1
  Ca2+  Ca61  1  0.91867452  0.09520315  0.75107665  1
  Ca2+  Ca62  1  0.42604034  0.60498205  0.90750100  1
  Ca2+  Ca63  1  0.23926410  0.08549745  0.75622343  1
  Ca2+  Ca64  1  0.09156381  0.59109565  0.91598349  1
  Ca2+  Ca65  1  0.58903644  0.60487076  0.06611390  1
  Ca2+  Ca66  1  0.39709300  0.08321165  0.95671378  1
  Ca2+  Ca67  1  0.26688346  0.57679346  0.42018147  1
  Ca2+  Ca68  1  0.12926200  0.56887299  0.63555590  1
  Ca2+  Ca69  1  0.94078265  0.56851188  0.73814803  1
  Ca2+  Ca70  1  0.42225887  0.59144055  0.58969270  1
  Ca2+  Ca71  1  0.11439856  0.07629162  0.24318286  1
  Ca2+  Ca72  1  0.25860058  0.90953955  0.73692712  1
  Ca2+  Ca73  1  0.58825284  0.88968214  0.75296375  1
  Ca2+  Ca74  1  0.92894428  0.90741691  0.08895978  1
  Ca2+  Ca75  1  0.91112880  0.42912345  0.05010623  1
  Ca2+  Ca76  1  0.23192755  0.41895589  0.74594272  1
  Ca2+  Ca77  1  0.24244533  0.41879287  0.74677963  1
  Ca2+  Ca78  1  0.74962097  0.39401226  0.24066913  1
  Ca2+  Ca79  1  0.24767562  0.91089613  0.73655614  1
  Ca2+  Ca80  1  0.75303186  0.89498771  0.24219244  1
  Ca2+  Ca81  1  0.74892492  0.89413832  0.58110420  1
  Ca2+  Ca82  1  0.56596082  0.40033814  0.41084526  1
  Ca2+  Ca83  1  0.39705649  0.42240208  0.58067221  1
  Ca2+  Ca84  1  0.90728218  0.90017683  0.76215363  1
  Ca2+  Ca85  1  0.09734448  0.90903795  0.58426727  1
  Ca2+  Ca86  1  0.92001608  0.90117456  0.76089040  1
  Ca2+  Ca87  1  0.93210972  0.41228342  0.75463854  1
  Ca2+  Ca88  1  0.90596561  0.40354642  0.42595910  1
  Ca2+  Ca89  1  0.24461556  0.40515699  0.07929393  1
  Ca2+  Ca90  1  0.75245706  0.41744694  0.93134579  1
  Ca2+  Ca91  1  0.58807417  0.40647926  0.08226480  1
  Ca2+  Ca92  1  0.26204948  0.92452774  0.10275418  1
  Ca2+  Ca93  1  0.91887335  0.40429682  0.42608679  1
  Ca2+  Ca94  1  0.26819263  0.42029832  0.40057694  1
  Ca2+  Ca95  1  0.76100120  0.42001289  0.92647434  1
  Ca2+  Ca96  1  0.08584064  0.91653020  0.94300424  1
  Ca2+  Ca97  1  0.24134333  0.92028694  0.38229746  1
  Ca2+  Ca98  1  0.07839258  0.42492603  0.60720090  1
  Ca2+  Ca99  1  0.09975246  0.41360316  0.24551206  1
  Ca2+  Ca100  1  0.40751952  0.42233495  0.57980434  1
  Ca2+  Ca101  1  0.60064086  0.40585448  0.08135508  1
  Ca2+  Ca102  1  0.58002644  0.89259600  0.41794302  1
  Ca2+  Ca103  1  0.39705523  0.41771232  0.26858494  1
  Ca2+  Ca104  1  0.74851413  0.40387607  0.58939755  1
  Ca2+  Ca105  1  0.56978163  0.40691901  0.74562201  1
  Ca2+  Ca106  1  0.11020288  0.41096797  0.24249767  1
  Ca2+  Ca107  1  0.06821125  0.42584006  0.61108476  1
  Mn3.34+  Mn108  1  0.08296147  0.33489576  0.07606339  1
  Mn3.34+  Mn109  1  0.08700386  0.33025242  0.41540052  1
  Mn3.34+  Mn110  1  0.08353486  0.33088840  0.75735520  1
  Mn3.34+  Mn111  1  0.08739563  0.83940574  0.08886939  1
  Mn3.34+  Mn112  1  0.08103064  0.83836865  0.41636447  1
  Mn3.34+  Mn113  1  0.08350272  0.83172593  0.75608150  1
  Mn3.34+  Mn114  1  0.41549531  0.33150737  0.08068211  1
  Mn3.34+  Mn115  1  0.41398844  0.33018499  0.41741022  1
  Mn3.34+  Mn116  1  0.41397542  0.33422464  0.75456281  1
  Mn3.34+  Mn117  1  0.42111393  0.84937059  0.08365596  1
  Mn3.34+  Mn118  1  0.41608911  0.83829267  0.42005758  1
  Mn3.34+  Mn119  1  0.41809308  0.83247384  0.74970684  1
  Mn3.34+  Mn120  1  0.75384707  0.32846894  0.08380153  1
  Mn3.34+  Mn121  1  0.74590339  0.32612229  0.41655533  1
  Mn3.34+  Mn122  1  0.75024931  0.33183210  0.75449789  1
  Mn3.34+  Mn123  1  0.75042657  0.83369900  0.08171217  1
  Mn3.34+  Mn124  1  0.74977422  0.83497179  0.41624401  1
  Mn3.34+  Mn125  1  0.74906493  0.82904321  0.75447370  1
  Mn3.34+  Mn126  1  0.25523882  0.33294320  0.24572702  1
  Mn3.34+  Mn127  1  0.24881270  0.33419361  0.57503192  1
  Mn3.34+  Mn128  1  0.25009899  0.33670971  0.91783480  1
  Mn3.34+  Mn129  1  0.24944636  0.83606198  0.24757829  1
  Mn3.34+  Mn130  1  0.25611110  0.83963815  0.57052377  1
  Mn3.34+  Mn131  1  0.25657590  0.83932695  0.91914219  1
  Mn3.34+  Mn132  1  0.57766902  0.32290112  0.24950197  1
  Mn3.34+  Mn133  1  0.58170711  0.33626122  0.58059691  1
  Mn3.34+  Mn134  1  0.57941730  0.33265424  0.91052474  1
  Mn3.34+  Mn135  1  0.58273393  0.82888986  0.24351550  1
  Mn3.34+  Mn136  1  0.57786409  0.82731611  0.58240364  1
  Mn3.34+  Mn137  1  0.58119377  0.83203950  0.92123883  1
  Mn3.34+  Mn138  1  0.92040579  0.33535203  0.24501522  1
  Mn3.34+  Mn139  1  0.91434865  0.33459046  0.58710747  1
  Mn3.34+  Mn140  1  0.92235120  0.33803231  0.91245573  1
  Mn3.34+  Mn141  1  0.91846479  0.83258237  0.25026493  1
  Mn3.34+  Mn142  1  0.91883832  0.82669095  0.57656039  1
  Mn3.34+  Mn143  1  0.91161896  0.82919306  0.92501451  1
  Mn3.34+  Mn144  1  0.08658388  0.68173969  0.41888998  1
  Mn3.34+  Mn145  1  0.24064842  0.16553623  0.58234232  1
  Mn3.34+  Mn146  1  0.75627797  0.65678394  0.09376421  1
  Mn3.34+  Mn147  1  0.25225987  0.66702132  0.91489604  1
  Mn3.34+  Mn148  1  0.25327069  0.17251696  0.58553523  1
  Mn3.34+  Mn149  1  0.41552348  0.16771859  0.75545638  1
  Mn3.34+  Mn150  1  0.91874415  0.16550439  0.24059234  1
  Mn3.34+  Mn151  1  0.92082844  0.66226564  0.57996273  1
  Mn3.34+  Mn152  1  0.91057785  0.66731142  0.91863762  1
  Mn3.34+  Mn153  1  0.90970008  0.65790228  0.57935898  1
  Mn3.34+  Mn154  1  0.92100268  0.66251852  0.91811621  1
  Mn3.34+  Mn155  1  0.92102697  0.15939626  0.91512407  1
  Mn3.34+  Mn156  1  0.08699498  0.16462545  0.41477179  1
  Mn3.34+  Mn157  1  0.58017163  0.17136660  0.58956602  1
  Mn3.34+  Mn158  1  0.25141315  0.66980817  0.24758170  1
  Mn3.34+  Mn159  1  0.42411732  0.66306256  0.42534446  1
  Mn3.34+  Mn160  1  0.57663509  0.16469379  0.91037504  1
  Mn3.34+  Mn161  1  0.08081516  0.16747470  0.75446449  1
  Mn3.34+  Mn162  1  0.74792120  0.16521837  0.07846085  1
  Mn3.34+  Mn163  1  0.41509258  0.67060866  0.08575097  1
  Mn3.34+  Mn164  1  0.25028680  0.16440487  0.24679101  1
  Mn3.34+  Mn165  1  0.09301787  0.66687539  0.75297840  1
  Mn3.34+  Mn166  1  0.41551007  0.66609054  0.74978369  1
  Mn3.34+  Mn167  1  0.09492590  0.67525818  0.42132297  1
  Mn3.34+  Mn168  1  0.74322379  0.67031047  0.41472999  1
  Mn3.34+  Mn169  1  0.75219544  0.16694748  0.75536764  1
  Mn3.34+  Mn170  1  0.24452639  0.16254831  0.91785471  1
  Mn3.34+  Mn171  1  0.92153392  0.17037664  0.58370578  1
  Mn3.34+  Mn172  1  0.57654669  0.17248162  0.25151624  1
  Mn3.34+  Mn173  1  0.92805538  0.15962573  0.23863303  1
  Mn3.34+  Mn174  1  0.25468524  0.66489683  0.58040817  1
  Mn3.34+  Mn175  1  0.58657436  0.66553854  0.58218586  1
  Mn3.34+  Mn176  1  0.58536943  0.15844395  0.90870782  1
  Mn3.34+  Mn177  1  0.74752072  0.17104195  0.41987156  1
  Mn3.34+  Mn178  1  0.75100995  0.66715164  0.75400145  1
  Mn3.34+  Mn179  1  0.58669825  0.66834476  0.25067336  1
  Mn3.34+  Mn180  1  0.75376012  -0.00104490  0.07748265  1
  Mn3.34+  Mn181  1  0.74705191  0.50410190  0.43253824  1
  Mn3.34+  Mn182  1  0.43232399  0.00181022  0.75646661  1
  Mn3.34+  Mn183  1  0.75004240  0.49984440  0.74360741  1
  Mn3.34+  Mn184  1  0.58230656  -0.00548698  0.92679180  1
  Mn3.34+  Mn185  1  0.59086069  0.49885375  0.24695543  1
  Mn3.34+  Mn186  1  0.08155585  0.50739514  0.42152234  1
  Mn3.34+  Mn187  1  0.57459636  -0.00793116  0.23661898  1
  Mn3.34+  Mn188  1  0.40567260  0.49442893  0.08550844  1
  Mn3.34+  Mn189  1  0.92312751  -0.00184742  0.24834420  1
  Mn3.34+  Mn190  1  0.41866603  0.50130225  0.08283385  1
  Mn3.34+  Mn191  1  0.06986096  0.50425702  0.42453633  1
  Mn3.34+  Mn192  1  0.56847935  -0.00828830  0.93299687  1
  Mn3.34+  Mn193  1  0.73700528  0.51040284  0.43014489  1
  Mn3.34+  Mn194  1  0.58327039  -0.00026392  0.57164699  1
  Mn3.34+  Mn195  1  0.90774621  -0.00763207  0.58163763  1
  Mn3.34+  Mn196  1  0.08177426  -0.00132937  0.40986988  1
  Mn3.34+  Mn197  1  0.41941792  0.00794151  0.75906706  1
  Mn3.34+  Mn198  1  0.92617978  0.00189866  0.93592931  1
  Mn3.34+  Mn199  1  0.89775056  0.50679946  0.23704972  1
  Mn3.34+  Mn200  1  0.58324421  0.50376184  0.57412980  1
  Mn3.34+  Mn201  1  0.58107809  0.49831882  0.91422449  1
  Mn3.34+  Mn202  1  0.24551488  0.00113370  0.93647295  1
  Mn3.34+  Mn203  1  0.08067040  0.00009126  0.76087432  1
  Mn3.34+  Mn204  1  0.41577774  0.49912390  0.74778397  1
  Mn3.34+  Mn205  1  0.07168804  0.50182498  0.06423220  1
  Mn3.34+  Mn206  1  0.24898350  0.50223418  0.91589465  1
  Mn3.34+  Mn207  1  0.92178416  -0.00187755  0.57833748  1
  Mn3.34+  Mn208  1  0.91033221  0.51095361  0.23727681  1
  Mn3.34+  Mn209  1  0.41455309  -0.00729637  0.40429422  1
  Mn3.34+  Mn210  1  0.73928755  0.50478065  0.74339647  1
  Mn3.34+  Mn211  1  0.56372238  -0.00464242  0.23458353  1
  Mn3.34+  Mn212  1  0.60268148  0.50592851  0.25240267  1
  Mn3.34+  Mn213  1  0.57275166  -0.00453548  0.57027001  1
  Mn3.34+  Mn214  1  0.74070615  0.00280514  0.75264284  1
  Mn3.34+  Mn215  1  0.74889545  -0.00327477  0.40616945  1
  O2-  O216  1  -0.01202144  0.19265249  -0.01399226  1
  O2-  O217  1  0.00021169  0.14212497  0.33198556  1
  O2-  O218  1  0.00420394  0.14865032  0.66095118  1
  O2-  O219  1  0.00209835  0.68580105  -0.00933988  1
  O2-  O220  1  0.00441996  0.67084052  0.34201930  1
  O2-  O221  1  0.00324031  0.64172570  0.66214291  1
  O2-  O222  1  0.32439902  0.16011199  -0.00377613  1
  O2-  O223  1  0.33131428  0.16763543  0.33068603  1
  O2-  O224  1  0.33143731  0.14296317  0.66756091  1
  O2-  O225  1  0.32826408  0.64495629  0.00908093  1
  O2-  O226  1  0.33149249  0.65208019  0.34042292  1
  O2-  O227  1  0.33768850  0.66409232  0.65878143  1
  O2-  O228  1  0.65744204  0.14117035  -0.00195847  1
  O2-  O229  1  0.67293816  0.17011680  0.32547252  1
  O2-  O230  1  0.66598567  0.15349715  0.67047223  1
  O2-  O231  1  0.67990418  0.67060264  0.00911258  1
  O2-  O232  1  0.66215840  0.65968192  0.33469419  1
  O2-  O233  1  0.67060012  0.66210539  0.66726270  1
  O2-  O234  1  0.16878494  0.15787591  -0.00485985  1
  O2-  O235  1  0.16764001  0.14937797  0.33662113  1
  O2-  O236  1  0.16800039  0.14651907  0.66647477  1
  O2-  O237  1  0.16679841  0.65844438  -0.00550001  1
  O2-  O238  1  0.17047058  0.64856623  0.33622838  1
  O2-  O239  1  0.16951327  0.66895153  0.65825925  1
  O2-  O240  1  0.49409406  0.15573164  -0.01218883  1
  O2-  O241  1  0.50161447  0.20020998  0.32581623  1
  O2-  O242  1  0.49341765  0.14917536  0.66517646  1
  O2-  O243  1  0.49324783  0.65036367  0.00672465  1
  O2-  O244  1  0.49231707  0.65290818  0.32727652  1
  O2-  O245  1  0.50103190  0.65454800  0.66839918  1
  O2-  O246  1  0.82797396  0.16209961  -0.00982675  1
  O2-  O247  1  0.83884870  0.15188891  0.32808804  1
  O2-  O248  1  0.83184017  0.15154038  0.66385488  1
  O2-  O249  1  0.83709789  0.65487794  0.00408334  1
  O2-  O250  1  0.82651087  0.67051531  0.34211806  1
  O2-  O251  1  0.84748578  0.65116642  0.68508846  1
  O2-  O252  1  -0.01054517  0.33838998  0.00792075  1
  O2-  O253  1  0.00282854  0.36561710  0.32999348  1
  O2-  O254  1  0.00317265  0.34664318  0.66587603  1
  O2-  O255  1  0.00134449  0.83052291  0.00315087  1
  O2-  O256  1  0.00174106  0.82326458  0.33668561  1
  O2-  O257  1  0.00013706  0.84864884  0.66901610  1
  O2-  O258  1  0.33191410  0.35010197  0.00302080  1
  O2-  O259  1  0.33049242  0.33851638  0.33620990  1
  O2-  O260  1  0.32814263  0.35627908  0.66493812  1
  O2-  O261  1  0.32734934  0.85016101  0.00852129  1
  O2-  O262  1  0.33080131  0.83743277  0.34074475  1
  O2-  O263  1  0.32639855  0.83707471  0.66573670  1
  O2-  O264  1  0.67147012  0.35009137  -0.00666571  1
  O2-  O265  1  0.66665187  0.32221340  0.32876250  1
  O2-  O266  1  0.66267616  0.35035825  0.67031963  1
  O2-  O267  1  0.66694707  0.82664144  0.00269013  1
  O2-  O268  1  0.66606031  0.84395349  0.33271156  1
  O2-  O269  1  0.67134389  0.83685741  0.66384393  1
  O2-  O270  1  0.16506934  0.34901515  -0.00293686  1
  O2-  O271  1  0.16965605  0.35390088  0.33635736  1
  O2-  O272  1  0.16598329  0.35366529  0.65970950  1
  O2-  O273  1  0.16225085  0.83504269  -0.00161587  1
  O2-  O274  1  0.16668014  0.82852733  0.33874083  1
  O2-  O275  1  0.16751219  0.84282106  0.66503894  1
  O2-  O276  1  0.50751281  0.34956781  0.00432757  1
  O2-  O277  1  0.49414471  0.33730103  0.32923713  1
  O2-  O278  1  0.48722890  0.35525830  0.65242618  1
  O2-  O279  1  0.49751905  0.84404585  -0.00209869  1
  O2-  O280  1  0.49937124  0.83209313  0.33634793  1
  O2-  O281  1  0.50026738  0.84226605  0.66704766  1
  O2-  O282  1  0.83336610  0.34475714  -0.00394567  1
  O2-  O283  1  0.83568840  0.34466115  0.33516420  1
  O2-  O284  1  0.83363092  0.35108293  0.67276645  1
  O2-  O285  1  0.83233396  0.80294334  0.00169268  1
  O2-  O286  1  0.83231239  0.84135114  0.33331289  1
  O2-  O287  1  0.83768916  0.83402814  0.67084260  1
  O2-  O288  1  0.00363332  0.17696737  0.16076450  1
  O2-  O289  1  -0.00421226  0.17708148  0.49065883  1
  O2-  O290  1  -0.00567959  0.18214948  0.82585127  1
  O2-  O291  1  0.02409933  0.69988388  0.15919739  1
  O2-  O292  1  0.00355926  0.69221568  0.49966494  1
  O2-  O293  1  -0.00502962  0.68390192  0.83437530  1
  O2-  O294  1  0.32713578  0.17449055  0.16749241  1
  O2-  O295  1  0.33680057  0.18256342  0.50873404  1
  O2-  O296  1  0.33136684  0.18012701  0.83093393  1
  O2-  O297  1  0.34262626  0.68099848  0.17670812  1
  O2-  O298  1  0.33393528  0.68540915  0.49571033  1
  O2-  O299  1  0.33914159  0.67674304  0.83851321  1
  O2-  O300  1  0.66758997  0.17917354  0.16793705  1
  O2-  O301  1  0.67125548  0.18345167  0.51305312  1
  O2-  O302  1  0.67114599  0.18242220  0.83943225  1
  O2-  O303  1  0.66365707  0.67923980  0.15895877  1
  O2-  O304  1  0.66320331  0.68402407  0.50111498  1
  O2-  O305  1  0.66813270  0.68525631  0.82267276  1
  O2-  O306  1  0.16736421  0.16486529  0.16876297  1
  O2-  O307  1  0.16536084  0.18709173  0.50066940  1
  O2-  O308  1  0.16829286  0.17771701  0.82654436  1
  O2-  O309  1  0.17767899  0.67749567  0.16436054  1
  O2-  O310  1  0.17442166  0.69635932  0.49924891  1
  O2-  O311  1  0.16685354  0.68393907  0.83945823  1
  O2-  O312  1  0.50155201  0.17849036  0.16990140  1
  O2-  O313  1  0.49563373  0.17856918  0.51346125  1
  O2-  O314  1  0.50375031  0.19122571  0.82972817  1
  O2-  O315  1  0.50659390  0.67193636  0.15823510  1
  O2-  O316  1  0.49937041  0.68721820  0.50230910  1
  O2-  O317  1  0.49437806  0.67497545  0.82869348  1
  O2-  O318  1  0.82788135  0.18297534  0.16918690  1
  O2-  O319  1  0.83694401  0.18484992  0.49922720  1
  O2-  O320  1  0.83670431  0.18385873  0.82994526  1
  O2-  O321  1  0.82650064  0.68909673  0.15740374  1
  O2-  O322  1  0.83250360  0.68631718  0.50245037  1
  O2-  O323  1  0.83097249  0.69481511  0.84250907  1
  O2-  O324  1  0.01393077  0.33186393  0.17694252  1
  O2-  O325  1  -0.00669752  0.32260759  0.49006426  1
  O2-  O326  1  0.00121717  0.31403637  0.83488569  1
  O2-  O327  1  -0.00027106  0.82671984  0.16233392  1
  O2-  O328  1  0.00634821  0.81487051  0.50319313  1
  O2-  O329  1  -0.00439286  0.81912835  0.83447232  1
  O2-  O330  1  0.33644384  0.32457399  0.16726058  1
  O2-  O331  1  0.33286204  0.30789381  0.49911581  1
  O2-  O332  1  0.33183845  0.32131290  0.83184380  1
  O2-  O333  1  0.33167525  0.82538491  0.16583431  1
  O2-  O334  1  0.33818280  0.80946665  0.50287571  1
  O2-  O335  1  0.32746463  0.82981197  0.82287292  1
  O2-  O336  1  0.66151815  0.31566259  0.16225571  1
  O2-  O337  1  0.66813995  0.31854992  0.50212839  1
  O2-  O338  1  0.67008847  0.31700371  0.83715312  1
  O2-  O339  1  0.67279560  0.81190405  0.17057859  1
  O2-  O340  1  0.66283922  0.81912372  0.50056415  1
  O2-  O341  1  0.66203465  0.81470169  0.82652495  1
  O2-  O342  1  0.16786076  0.33557889  0.16721262  1
  O2-  O343  1  0.16037450  0.31907137  0.50469836  1
  O2-  O344  1  0.17630364  0.32562473  0.82284115  1
  O2-  O345  1  0.16978806  0.81535218  0.16046583  1
  O2-  O346  1  0.16862293  0.81455735  0.50238125  1
  O2-  O347  1  0.17150614  0.82853989  0.82902245  1
  O2-  O348  1  0.50463978  0.31738499  0.16177480  1
  O2-  O349  1  0.50096525  0.31466931  0.49216495  1
  O2-  O350  1  0.50805548  0.31918364  0.81999933  1
  O2-  O351  1  0.50091261  0.81962516  0.16272066  1
  O2-  O352  1  0.50374077  0.81375053  0.49474979  1
  O2-  O353  1  0.50042754  0.82418019  0.82832974  1
  O2-  O354  1  0.83354259  0.31492152  0.16792132  1
  O2-  O355  1  0.83458739  0.31856586  0.49636639  1
  O2-  O356  1  0.83684496  0.31284862  0.83766363  1
  O2-  O357  1  0.83264391  0.82122016  0.16511765  1
  O2-  O358  1  0.82641572  0.81637516  0.50532494  1
  O2-  O359  1  0.83968152  0.81707469  0.82902930  1
  O2-  O360  1  0.11166483  0.06974241  0.10951049  1
  O2-  O361  1  0.06018857  0.07069697  0.46878257  1
  O2-  O362  1  0.08028662  0.08229496  0.77160282  1
  O2-  O363  1  0.09319762  0.56761886  0.12175210  1
  O2-  O364  1  0.08394049  0.58876936  0.45199627  1
  O2-  O365  1  0.08045344  0.58209847  0.77921071  1
  O2-  O366  1  0.41227855  0.07037771  0.12020463  1
  O2-  O367  1  0.40831953  0.06789291  0.44308803  1
  O2-  O368  1  0.42072366  0.08315617  0.80402922  1
  O2-  O369  1  0.41211830  0.57867660  0.12793439  1
  O2-  O370  1  0.40247967  0.57851450  0.45280293  1
  O2-  O371  1  0.42785147  0.57978601  0.77091368  1
  O2-  O372  1  0.74586939  0.07923253  0.11718438  1
  O2-  O373  1  0.77074990  0.07783054  0.45823237  1
  O2-  O374  1  0.75869199  0.08499662  0.78422710  1
  O2-  O375  1  0.72800683  0.57902981  0.09513426  1
  O2-  O376  1  0.76203290  0.58965664  0.44461218  1
  O2-  O377  1  0.74642444  0.58005825  0.79536695  1
  O2-  O378  1  0.25870727  0.08127069  0.23725199  1
  O2-  O379  1  0.26120358  0.08471755  0.54917261  1
  O2-  O380  1  0.25682894  0.07440513  0.89050974  1
  O2-  O381  1  0.26480233  0.58470113  0.21559674  1
  O2-  O382  1  0.23781665  0.57774978  0.54385878  1
  O2-  O383  1  0.24194684  0.58250799  0.89318109  1
  O2-  O384  1  0.59149173  0.08110727  0.22115731  1
  O2-  O385  1  0.59363875  0.08328030  0.54774698  1
  O2-  O386  1  0.58607112  0.07215002  0.87043051  1
  O2-  O387  1  0.58721496  0.58347218  0.21318112  1
  O2-  O388  1  0.57046723  0.58402368  0.55790647  1
  O2-  O389  1  0.59759477  0.57920826  0.91172724  1
  O2-  O390  1  0.90324702  0.08077549  0.20417522  1
  O2-  O391  1  0.90654767  0.08035275  0.55218566  1
  O2-  O392  1  0.91250020  0.07265558  0.88253886  1
  O2-  O393  1  0.92469595  0.59120828  0.24439483  1
  O2-  O394  1  0.91803993  0.58053407  0.53818899  1
  O2-  O395  1  0.91444856  0.58320325  0.87049651  1
  O2-  O396  1  0.07920851  0.42729123  0.11013560  1
  O2-  O397  1  0.06439640  0.42345507  0.46279996  1
  O2-  O398  1  0.08369214  0.41476525  0.76471809  1
  O2-  O399  1  0.08713649  0.91576001  0.09693301  1
  O2-  O400  1  0.10172565  0.92371543  0.44770240  1
  O2-  O401  1  0.06180268  0.91849982  0.78614762  1
  O2-  O402  1  0.43742113  0.41928806  0.12745766  1
  O2-  O403  1  0.41947997  0.41966999  0.44286882  1
  O2-  O404  1  0.42234990  0.41978665  0.78272217  1
  O2-  O405  1  0.41042010  0.92259897  0.11136133  1
  O2-  O406  1  0.43385794  0.92509625  0.45417954  1
  O2-  O407  1  0.41366242  0.91916898  0.76540251  1
  O2-  O408  1  0.73783793  0.41197471  0.10956469  1
  O2-  O409  1  0.76677890  0.42058621  0.45338177  1
  O2-  O410  1  0.74546906  0.42045261  0.78895994  1
  O2-  O411  1  0.77137476  0.92103254  0.10566122  1
  O2-  O412  1  0.73255949  0.91764202  0.44807728  1
  O2-  O413  1  0.76819235  0.91921636  0.76506126  1
  O2-  O414  1  0.25107328  0.41935225  0.22564579  1
  O2-  O415  1  0.26594656  0.41372931  0.53675761  1
  O2-  O416  1  0.24734009  0.42233720  0.88387166  1
  O2-  O417  1  0.23951052  0.91461935  0.23920285  1
  O2-  O418  1  0.24327451  0.91712814  0.55852222  1
  O2-  O419  1  0.23895916  0.93586336  0.87090622  1
  O2-  O420  1  0.60180969  0.41647509  0.22171165  1
  O2-  O421  1  0.58274593  0.42167253  0.54093092  1
  O2-  O422  1  0.59168534  0.41790272  0.88053494  1
  O2-  O423  1  0.59551492  0.91156709  0.22143581  1
  O2-  O424  1  0.58587805  0.91251443  0.55931861  1
  O2-  O425  1  0.59462679  0.91662225  0.88332439  1
  O2-  O426  1  0.89176849  0.42734460  0.20130884  1
  O2-  O427  1  0.91836073  0.41932162  0.55779470  1
  O2-  O428  1  0.89741992  0.41736313  0.88536181  1
  O2-  O429  1  0.90592660  0.91764595  0.22427494  1
  O2-  O430  1  0.90995005  0.91194997  0.55823364  1
  O2-  O431  1  0.92052727  0.92410246  0.89155875  1
  O2-  O432  1  -0.00460651  -0.01789495  0.01053655  1
  O2-  O433  1  0.00130209  0.02158973  0.33441389  1
  O2-  O434  1  0.00818217  -0.00177449  0.65946149  1
  O2-  O435  1  -0.00679603  0.50818353  -0.00225428  1
  O2-  O436  1  -0.00845362  0.49118307  0.33008822  1
  O2-  O437  1  0.01243745  0.50459446  0.66159800  1
  O2-  O438  1  0.32099076  0.00410722  0.01018632  1
  O2-  O439  1  0.32869896  -0.00326738  0.34378317  1
  O2-  O440  1  0.32191438  0.00695830  0.69744120  1
  O2-  O441  1  0.32636019  0.49774509  0.00339973  1
  O2-  O442  1  0.33038964  0.51369722  0.33353832  1
  O2-  O443  1  0.33054807  0.48126409  0.67465709  1
  O2-  O444  1  0.66874370  0.01030060  -0.00076479  1
  O2-  O445  1  0.67828547  0.00518614  0.30292118  1
  O2-  O446  1  0.68496425  0.00567676  0.63646015  1
  O2-  O447  1  0.65589640  0.47944398  0.00010428  1
  O2-  O448  1  0.65234431  0.48152632  0.35520085  1
  O2-  O449  1  0.66277949  0.48447053  0.66105944  1
  O2-  O450  1  0.16666114  -0.00862072  0.00231269  1
  O2-  O451  1  0.16906950  0.01287661  0.35223487  1
  O2-  O452  1  0.16951262  -0.01144838  0.68935625  1
  O2-  O453  1  0.16817683  0.50989694  0.00658114  1
  O2-  O454  1  0.16443373  0.48793886  0.34321543  1
  O2-  O455  1  0.17259663  0.47870326  0.65912498  1
  O2-  O456  1  0.49769853  0.02194430  0.00491414  1
  O2-  O457  1  0.49599016  0.00687637  0.32845383  1
  O2-  O458  1  0.48790082  0.01533839  0.65013901  1
  O2-  O459  1  0.50055494  0.50677794  0.00231011  1
  O2-  O460  1  0.48422680  0.50037540  0.29771768  1
  O2-  O461  1  0.48669375  0.49167426  0.64588421  1
  O2-  O462  1  0.83181547  0.00827246  -0.00635297  1
  O2-  O463  1  0.83383268  0.02833835  0.32740293  1
  O2-  O464  1  0.84191133  0.01527303  0.67497506  1
  O2-  O465  1  0.81740363  0.49346516  -0.01977509  1
  O2-  O466  1  0.83284991  0.49870611  0.34192256  1
  O2-  O467  1  0.85924141  0.49546648  0.70349328  1
  O2-  O468  1  0.26080145  0.74910826  0.93575634  1
  O2-  O469  1  0.91551817  0.75329392  0.25733732  1
  O2-  O470  1  0.57265689  0.74761310  0.27069875  1
  O2-  O471  1  0.24752783  0.25242609  0.93466347  1
  O2-  O472  1  0.92778468  0.24518560  0.27759345  1
  O2-  O473  1  0.07843455  0.74990720  0.72988436  1
  O2-  O474  1  0.74256591  0.75320061  0.39630941  1
  O2-  O475  1  0.92184499  0.25256313  0.61198914  1
  O2-  O476  1  0.41351719  0.74946667  0.06044524  1
  O2-  O477  1  0.74487742  0.24825031  0.05498950  1
  O2-  O478  1  0.41292495  0.74996706  0.73177873  1
  O2-  O479  1  0.41412106  0.25437226  0.06146356  1
  O2-  O480  1  0.08814554  0.24880035  0.72131253  1
  O2-  O481  1  0.58990814  0.24939536  0.94525259  1
  O2-  O482  1  0.92530978  0.74281154  0.61430930  1
  O2-  O483  1  0.57045354  0.75311731  0.93292856  1
  O2-  O484  1  0.09231287  0.25640365  0.07436395  1
  O2-  O485  1  0.24139819  0.25148536  0.61970000  1
  O2-  O486  1  0.07831360  0.25184790  0.38041111  1
  O2-  O487  1  0.57912789  0.25303346  0.61379702  1
  O2-  O488  1  0.23770206  0.25161752  0.26297764  1
  O2-  O489  1  0.25606965  0.74866557  0.27250261  1
  O2-  O490  1  0.40811344  0.25247643  0.72004343  1
  O2-  O491  1  0.58041314  0.74839494  0.61334382  1
  O2-  O492  1  0.74662585  0.24962504  0.72276710  1
