# generated using pymatgen
data_Ca108Mn108O277
_symmetry_space_group_name_H-M   'P 1'
_cell_length_a   16.02275990
_cell_length_b   22.29947389
_cell_length_c   16.38477084
_cell_angle_alpha   89.99791384
_cell_angle_beta   89.99862101
_cell_angle_gamma   89.99403216
_symmetry_Int_Tables_number   1
_chemical_formula_structural   Ca108Mn108O277
_chemical_formula_sum   'Ca108 Mn108 O277'
_cell_volume   5854.26409859
_cell_formula_units_Z   1
loop_
 _symmetry_equiv_pos_site_id
 _symmetry_equiv_pos_as_xyz
  1  'x, y, z'
loop_
 _atom_type_symbol
 _atom_type_oxidation_number
  Ca2+  2.0
  Mn3.34+  3.34
  O2-  -2.0
loop_
 _atom_site_type_symbol
 _atom_site_label
 _atom_site_symmetry_multiplicity
 _atom_site_fract_x
 _atom_site_fract_y
 _atom_site_fract_z
 _atom_site_occupancy
  Ca2+  Ca0  1  0.07134360  0.25650629  0.23928160  1
  Ca2+  Ca1  1  0.07841049  0.26719366  0.59431023  1
  Ca2+  Ca2  1  0.07176706  0.26136224  0.91563367  1
  Ca2+  Ca3  1  0.06203996  0.74044705  0.24954628  1
  Ca2+  Ca4  1  0.07747493  0.74787122  0.57352944  1
  Ca2+  Ca5  1  0.06784423  0.73638324  0.92291920  1
  Ca2+  Ca6  1  0.43094843  0.26106173  0.25035509  1
  Ca2+  Ca7  1  0.42877417  0.26050914  0.59124560  1
  Ca2+  Ca8  1  0.42880059  0.25947601  0.91098400  1
  Ca2+  Ca9  1  0.42565961  0.75311420  0.24797121  1
  Ca2+  Ca10  1  0.43485154  0.74624095  0.59935799  1
  Ca2+  Ca11  1  0.41605991  0.74468032  0.91065226  1
  Ca2+  Ca12  1  0.74204640  0.25181171  0.25586633  1
  Ca2+  Ca13  1  0.73866540  0.25669928  0.58208215  1
  Ca2+  Ca14  1  0.74793573  0.25780806  0.90909726  1
  Ca2+  Ca15  1  0.76223936  0.73132587  0.26304696  1
  Ca2+  Ca16  1  0.72736369  0.73164941  0.58646594  1
  Ca2+  Ca17  1  0.76045297  0.74895637  0.91338620  1
  Ca2+  Ca18  1  0.23901016  0.25094525  0.08175840  1
  Ca2+  Ca19  1  0.25719954  0.26134331  0.41991908  1
  Ca2+  Ca20  1  0.25514268  0.25578934  0.75080466  1
  Ca2+  Ca21  1  0.24150574  0.75333013  0.06993871  1
  Ca2+  Ca22  1  0.22185482  0.74259824  0.41532858  1
  Ca2+  Ca23  1  0.25513650  0.75069351  0.75901147  1
  Ca2+  Ca24  1  0.58591688  0.25697181  0.07965973  1
  Ca2+  Ca25  1  0.58884973  0.26483787  0.41340250  1
  Ca2+  Ca26  1  0.58108723  0.25676296  0.74559508  1
  Ca2+  Ca27  1  0.58091862  0.75068913  0.07783007  1
  Ca2+  Ca28  1  0.59692169  0.73587021  0.43043569  1
  Ca2+  Ca29  1  0.58521681  0.73708646  0.74251851  1
  Ca2+  Ca30  1  0.92297270  0.24919638  0.08036129  1
  Ca2+  Ca31  1  0.89935927  0.25368887  0.40893226  1
  Ca2+  Ca32  1  0.91802090  0.25276629  0.76031392  1
  Ca2+  Ca33  1  0.92645322  0.74432884  0.07650155  1
  Ca2+  Ca34  1  0.92389775  0.72612030  0.40219105  1
  Ca2+  Ca35  1  0.90786283  0.74047095  0.77458941  1
  Ca2+  Ca36  1  0.44816787  0.58797144  0.60120104  1
  Ca2+  Ca37  1  0.41958124  0.09388207  0.92245596  1
  Ca2+  Ca38  1  0.25390193  0.08391873  0.07122675  1
  Ca2+  Ca39  1  0.24742767  0.08526347  0.41777172  1
  Ca2+  Ca40  1  0.58628507  0.58781616  0.09952671  1
  Ca2+  Ca41  1  0.06046412  0.59831932  0.26089478  1
  Ca2+  Ca42  1  0.74857005  0.10506170  0.91534926  1
  Ca2+  Ca43  1  0.75858364  0.10243558  0.91889500  1
  Ca2+  Ca44  1  0.41788165  0.09074240  0.59475254  1
  Ca2+  Ca45  1  0.41046933  0.08908503  0.91970563  1
  Ca2+  Ca46  1  0.92937199  0.59770655  0.07949388  1
  Ca2+  Ca47  1  0.08581545  0.08755637  0.91857877  1
  Ca2+  Ca48  1  0.57810195  0.59079933  0.09437288  1
  Ca2+  Ca49  1  0.90189242  0.10116885  0.75263878  1
  Ca2+  Ca50  1  0.26019679  0.08488434  0.41721343  1
  Ca2+  Ca51  1  0.06319243  0.09055180  0.24068924  1
  Ca2+  Ca52  1  0.08414519  0.09037165  0.59700308  1
  Ca2+  Ca53  1  0.60882733  0.58049218  0.38592696  1
  Ca2+  Ca54  1  0.91276107  0.09891455  0.75337902  1
  Ca2+  Ca55  1  0.40461682  0.09210632  0.59512338  1
  Ca2+  Ca56  1  0.59626588  0.10694424  0.75320038  1
  Ca2+  Ca57  1  0.24807802  0.59346374  0.06944775  1
  Ca2+  Ca58  1  0.07534721  0.08878090  0.24356851  1
  Ca2+  Ca59  1  0.07415985  0.08692788  0.91931208  1
  Ca2+  Ca60  1  0.58775994  0.59024728  0.74951536  1
  Ca2+  Ca61  1  0.57712114  0.09711527  0.07874242  1
  Ca2+  Ca62  1  0.45942500  0.58538148  0.59886450  1
  Ca2+  Ca63  1  0.89662686  0.09202402  0.41055937  1
  Ca2+  Ca64  1  0.26622289  0.08669922  0.07200195  1
  Ca2+  Ca65  1  0.76572726  0.59375764  0.91159906  1
  Ca2+  Ca66  1  0.75389488  0.10891163  0.58743662  1
  Ca2+  Ca67  1  0.69551043  0.58444862  0.57133430  1
  Ca2+  Ca68  1  0.44272050  0.59362061  0.24452025  1
  Ca2+  Ca69  1  0.09412499  0.60633747  0.56443621  1
  Ca2+  Ca70  1  0.59983481  0.09252115  0.40862447  1
  Ca2+  Ca71  1  0.07233645  0.09042875  0.59549030  1
  Ca2+  Ca72  1  0.92893503  0.41157856  0.74857060  1
  Ca2+  Ca73  1  0.07623367  0.90287714  0.24130321  1
  Ca2+  Ca74  1  0.57880607  0.41747574  0.73221599  1
  Ca2+  Ca75  1  0.08400994  0.41523046  0.25091499  1
  Ca2+  Ca76  1  0.09612623  0.41547159  0.25101163  1
  Ca2+  Ca77  1  0.91014714  0.91144850  0.06424694  1
  Ca2+  Ca78  1  0.10008972  0.90109935  0.59449102  1
  Ca2+  Ca79  1  0.90861510  0.90454457  0.41862926  1
  Ca2+  Ca80  1  0.08749439  0.90218085  0.59504025  1
  Ca2+  Ca81  1  0.25001207  0.40803365  0.07666959  1
  Ca2+  Ca82  1  0.91046638  0.41255568  0.42106436  1
  Ca2+  Ca83  1  0.89900017  0.41587742  0.42181550  1
  Ca2+  Ca84  1  0.07356124  0.89960862  0.90536162  1
  Ca2+  Ca85  1  0.40777618  0.90721171  0.92916236  1
  Ca2+  Ca86  1  0.43126478  0.41002748  0.59352726  1
  Ca2+  Ca87  1  0.57195283  0.90520250  0.40901646  1
  Ca2+  Ca88  1  0.71653821  0.43242985  0.26822908  1
  Ca2+  Ca89  1  0.57700595  0.89373537  0.76230268  1
  Ca2+  Ca90  1  0.89280472  0.41643260  0.07902998  1
  Ca2+  Ca91  1  0.92006070  0.90367803  0.41854818  1
  Ca2+  Ca92  1  0.57365471  0.90013077  0.08269710  1
  Ca2+  Ca93  1  0.75831878  0.89743735  0.58241721  1
  Ca2+  Ca94  1  0.25007227  0.41098176  0.40245062  1
  Ca2+  Ca95  1  0.74716497  0.89585665  0.58202260  1
  Ca2+  Ca96  1  0.40486366  0.90069319  0.58316470  1
  Ca2+  Ca97  1  0.26367278  0.90344929  0.42132001  1
  Ca2+  Ca98  1  0.72635931  0.43437760  0.27031309  1
  Ca2+  Ca99  1  0.55944699  0.90496791  0.40887612  1
  Ca2+  Ca100  1  0.26153478  0.41156898  0.07927821  1
  Ca2+  Ca101  1  0.91777807  0.90903038  0.05741307  1
  Ca2+  Ca102  1  0.41876977  0.90729315  0.92938510  1
  Ca2+  Ca103  1  0.90333482  0.41615249  0.07950971  1
  Ca2+  Ca104  1  0.57981220  0.40979140  0.08143495  1
  Ca2+  Ca105  1  0.91639943  0.41163331  0.74843275  1
  Ca2+  Ca106  1  0.08797005  0.90325070  0.24087879  1
  Ca2+  Ca107  1  0.74099952  0.41754117  0.92340251  1
  Mn3.34+  Mn108  1  0.08243981  0.33571382  0.08110009  1
  Mn3.34+  Mn109  1  0.08286138  0.33713102  0.42454977  1
  Mn3.34+  Mn110  1  0.09220192  0.33554462  0.75413040  1
  Mn3.34+  Mn111  1  0.08791182  0.83101287  0.08052007  1
  Mn3.34+  Mn112  1  0.08427157  0.83112157  0.41675880  1
  Mn3.34+  Mn113  1  0.08343924  0.82671786  0.75462256  1
  Mn3.34+  Mn114  1  0.41777917  0.33047773  0.08358798  1
  Mn3.34+  Mn115  1  0.42157905  0.33670257  0.41787747  1
  Mn3.34+  Mn116  1  0.41556853  0.33517911  0.75319899  1
  Mn3.34+  Mn117  1  0.41063146  0.84031422  0.09135549  1
  Mn3.34+  Mn118  1  0.41150650  0.83226905  0.41541412  1
  Mn3.34+  Mn119  1  0.41377849  0.83246589  0.75461827  1
  Mn3.34+  Mn120  1  0.74651325  0.33823566  0.08863649  1
  Mn3.34+  Mn121  1  0.74368052  0.33826404  0.42114880  1
  Mn3.34+  Mn122  1  0.74778830  0.33754383  0.74854115  1
  Mn3.34+  Mn123  1  0.74717146  0.83055809  0.08397043  1
  Mn3.34+  Mn124  1  0.74862382  0.82897646  0.41116960  1
  Mn3.34+  Mn125  1  0.74982285  0.82643754  0.75461745  1
  Mn3.34+  Mn126  1  0.25605334  0.33629447  0.24741818  1
  Mn3.34+  Mn127  1  0.25120952  0.33666072  0.58438413  1
  Mn3.34+  Mn128  1  0.25386349  0.33199816  0.91182285  1
  Mn3.34+  Mn129  1  0.25599227  0.82977385  0.24641363  1
  Mn3.34+  Mn130  1  0.25298754  0.82246708  0.58557902  1
  Mn3.34+  Mn131  1  0.24520031  0.83258122  0.91551277  1
  Mn3.34+  Mn132  1  0.58018788  0.33736916  0.24816350  1
  Mn3.34+  Mn133  1  0.58638971  0.34084979  0.58084678  1
  Mn3.34+  Mn134  1  0.58141837  0.33813576  0.91167282  1
  Mn3.34+  Mn135  1  0.58506838  0.82966520  0.24418180  1
  Mn3.34+  Mn136  1  0.57902799  0.82855115  0.58438497  1
  Mn3.34+  Mn137  1  0.58690800  0.82743183  0.91819633  1
  Mn3.34+  Mn138  1  0.91309340  0.33568811  0.24718541  1
  Mn3.34+  Mn139  1  0.91109490  0.33354220  0.58284444  1
  Mn3.34+  Mn140  1  0.91559326  0.33720370  0.91494394  1
  Mn3.34+  Mn141  1  0.90915502  0.83219845  0.24242575  1
  Mn3.34+  Mn142  1  0.91695623  0.83084528  0.58832070  1
  Mn3.34+  Mn143  1  0.91294751  0.83254588  0.91091688  1
  Mn3.34+  Mn144  1  0.08561630  0.17556444  0.41689437  1
  Mn3.34+  Mn145  1  0.58742701  0.17119898  0.58489264  1
  Mn3.34+  Mn146  1  0.24463336  0.65686224  0.24694856  1
  Mn3.34+  Mn147  1  0.40756738  0.66200827  0.42225325  1
  Mn3.34+  Mn148  1  0.25061568  0.67063838  0.58948886  1
  Mn3.34+  Mn149  1  0.75564812  0.66091765  0.08720613  1
  Mn3.34+  Mn150  1  0.24749246  0.66907274  0.91252594  1
  Mn3.34+  Mn151  1  0.25362247  0.17441409  0.24524962  1
  Mn3.34+  Mn152  1  0.41689411  0.66806827  0.08102419  1
  Mn3.34+  Mn153  1  0.41775653  0.16607040  0.41272689  1
  Mn3.34+  Mn154  1  0.07995163  0.16888775  0.08420190  1
  Mn3.34+  Mn155  1  0.41354231  0.66520743  0.75654976  1
  Mn3.34+  Mn156  1  0.25013176  0.17812261  0.58740235  1
  Mn3.34+  Mn157  1  0.58718846  0.17172710  0.91505257  1
  Mn3.34+  Mn158  1  0.57997785  0.66281312  0.91152629  1
  Mn3.34+  Mn159  1  0.91400351  0.17543227  0.58390601  1
  Mn3.34+  Mn160  1  0.90955179  0.65909200  0.58568338  1
  Mn3.34+  Mn161  1  0.74710326  0.17061765  0.41448856  1
  Mn3.34+  Mn162  1  0.91565438  0.16926355  0.91911105  1
  Mn3.34+  Mn163  1  0.08832723  0.17114031  0.75519389  1
  Mn3.34+  Mn164  1  0.41979506  0.66736718  0.42096669  1
  Mn3.34+  Mn165  1  0.75090852  0.17140725  0.09039526  1
  Mn3.34+  Mn166  1  0.91982265  0.66355594  0.58458232  1
  Mn3.34+  Mn167  1  0.24870069  0.17337536  0.91387811  1
  Mn3.34+  Mn168  1  0.25407684  0.66245648  0.24774587  1
  Mn3.34+  Mn169  1  0.74912049  0.66240280  0.75377737  1
  Mn3.34+  Mn170  1  0.90563637  0.16858168  0.24425878  1
  Mn3.34+  Mn171  1  0.09039750  0.66034813  0.75517518  1
  Mn3.34+  Mn172  1  0.41522406  0.16857833  0.75519010  1
  Mn3.34+  Mn173  1  0.08206476  0.66554530  0.07955270  1
  Mn3.34+  Mn174  1  0.41799882  0.16910366  0.08927442  1
  Mn3.34+  Mn175  1  0.58738345  0.17022489  0.24416682  1
  Mn3.34+  Mn176  1  0.42707564  0.15956140  0.41422626  1
  Mn3.34+  Mn177  1  0.75046900  0.65439167  0.41235778  1
  Mn3.34+  Mn178  1  0.74597857  0.66587882  0.08806411  1
  Mn3.34+  Mn179  1  0.07512335  0.17048995  0.42000488  1
  Mn3.34+  Mn180  1  0.91358198  0.00587460  0.58154478  1
  Mn3.34+  Mn181  1  0.23803653  0.50404856  0.58082898  1
  Mn3.34+  Mn182  1  0.08480660  0.50315068  0.07925994  1
  Mn3.34+  Mn183  1  0.08679966  0.50030535  0.40821754  1
  Mn3.34+  Mn184  1  0.28555232  0.00021864  0.25209034  1
  Mn3.34+  Mn185  1  0.59130474  -0.00064638  0.58268589  1
  Mn3.34+  Mn186  1  0.08106256  0.00096938  0.40982846  1
  Mn3.34+  Mn187  1  0.41491737  0.49978450  0.75003768  1
  Mn3.34+  Mn188  1  0.74375797  -0.00093533  0.09218205  1
  Mn3.34+  Mn189  1  0.42274754  0.49455776  0.40033294  1
  Mn3.34+  Mn190  1  0.08201508  -0.00034225  0.07343504  1
  Mn3.34+  Mn191  1  0.08721845  -0.00161263  0.74966772  1
  Mn3.34+  Mn192  1  0.41661378  0.49987028  0.08633013  1
  Mn3.34+  Mn193  1  0.92122606  0.50076492  0.59360205  1
  Mn3.34+  Mn194  1  0.58192867  0.50001559  0.92964185  1
  Mn3.34+  Mn195  1  0.58007005  0.00388085  0.58387028  1
  Mn3.34+  Mn196  1  0.08677986  0.50102094  0.75138187  1
  Mn3.34+  Mn197  1  0.74833535  0.50198457  0.73763361  1
  Mn3.34+  Mn198  1  0.91740611  0.50232426  0.93026287  1
  Mn3.34+  Mn199  1  0.39740266  -0.00230965  0.74639868  1
  Mn3.34+  Mn200  1  0.41028916  0.50098680  0.40047257  1
  Mn3.34+  Mn201  1  0.58908868  -0.00179525  0.91226335  1
  Mn3.34+  Mn202  1  0.25061871  0.49752482  0.58313406  1
  Mn3.34+  Mn203  1  0.76042265  -0.00933786  0.75967709  1
  Mn3.34+  Mn204  1  0.24925410  -0.00145115  0.58702844  1
  Mn3.34+  Mn205  1  0.74992064  0.00340956  0.41544709  1
  Mn3.34+  Mn206  1  0.89594417  -0.00023324  0.25394046  1
  Mn3.34+  Mn207  1  0.75388671  0.00442179  0.09244929  1
  Mn3.34+  Mn208  1  0.57666716  0.00135054  0.25140274  1
  Mn3.34+  Mn209  1  0.27444942  -0.00471703  0.24948800  1
  Mn3.34+  Mn210  1  0.25856614  0.50022785  0.90770251  1
  Mn3.34+  Mn211  1  0.24613572  -0.00074541  0.90732515  1
  Mn3.34+  Mn212  1  0.24661407  0.50493609  0.90760158  1
  Mn3.34+  Mn213  1  0.56341782  0.00541323  0.25344446  1
  Mn3.34+  Mn214  1  0.90713576  0.50793895  0.26254311  1
  Mn3.34+  Mn215  1  0.74711899  -0.00281518  0.76284042  1
  O2-  O216  1  0.00565160  0.15279439  -0.00638916  1
  O2-  O217  1  -0.00266065  0.14575331  0.33535732  1
  O2-  O218  1  -0.00393003  0.15394989  0.66994925  1
  O2-  O219  1  0.00229616  0.66374163  0.00547662  1
  O2-  O220  1  0.00114584  0.66832505  0.32752894  1
  O2-  O221  1  0.00776179  0.66357609  0.66107682  1
  O2-  O222  1  0.33342669  0.16942119  -0.00074317  1
  O2-  O223  1  0.32474683  0.15502057  0.34002855  1
  O2-  O224  1  0.33718363  0.16220956  0.66542223  1
  O2-  O225  1  0.33114409  0.67136355  0.00445030  1
  O2-  O226  1  0.33437108  0.64847206  0.33419312  1
  O2-  O227  1  0.34397737  0.66611136  0.65993714  1
  O2-  O228  1  0.66626216  0.16065088  0.00234263  1
  O2-  O229  1  0.66725348  0.15802644  0.33228188  1
  O2-  O230  1  0.66694460  0.16514034  0.66358373  1
  O2-  O231  1  0.66969992  0.65371385  0.00238277  1
  O2-  O232  1  0.66753183  0.67103172  0.33988569  1
  O2-  O233  1  0.66845577  0.65411024  0.67287456  1
  O2-  O234  1  0.17359919  0.15530785  0.00657197  1
  O2-  O235  1  0.16522838  0.14194254  0.32879855  1
  O2-  O236  1  0.15809527  0.16207006  0.65873472  1
  O2-  O237  1  0.17132994  0.66218713  0.00038803  1
  O2-  O238  1  0.16394384  0.65723377  0.32452118  1
  O2-  O239  1  0.16667972  0.68795942  0.67171567  1
  O2-  O240  1  0.49663867  0.15668698  -0.00385228  1
  O2-  O241  1  0.50503256  0.14907918  0.32830120  1
  O2-  O242  1  0.49974267  0.15012814  0.66795797  1
  O2-  O243  1  0.50987687  0.65720084  0.00680393  1
  O2-  O244  1  0.49751930  0.65924866  0.33821758  1
  O2-  O245  1  0.50068501  0.65979458  0.67698699  1
  O2-  O246  1  0.82726486  0.16801993  -0.00183734  1
  O2-  O247  1  0.83495356  0.16319899  0.33793477  1
  O2-  O248  1  0.83876077  0.16714149  0.66955885  1
  O2-  O249  1  0.83156562  0.65183876  0.00766006  1
  O2-  O250  1  0.83311599  0.66308332  0.34075870  1
  O2-  O251  1  0.83450916  0.65764068  0.66734310  1
  O2-  O252  1  -0.00940420  0.35176622  0.00830494  1
  O2-  O253  1  -0.00340802  0.35933998  0.33435983  1
  O2-  O254  1  -0.00808421  0.33772281  0.66821020  1
  O2-  O255  1  -0.00264615  0.83654224  0.00641237  1
  O2-  O256  1  -0.00030315  0.85397094  0.33252625  1
  O2-  O257  1  0.00896163  0.83432840  0.65986781  1
  O2-  O258  1  0.33120274  0.31362931  0.00314816  1
  O2-  O259  1  0.32858798  0.33106995  0.33766536  1
  O2-  O260  1  0.33768832  0.32844463  0.66371055  1
  O2-  O261  1  0.33664508  0.83446144  0.00037152  1
  O2-  O262  1  0.33043010  0.84412013  0.33508714  1
  O2-  O263  1  0.33638132  0.82949883  0.66485031  1
  O2-  O264  1  0.66740056  0.33945533  0.00243353  1
  O2-  O265  1  0.67016514  0.34526347  0.32751380  1
  O2-  O266  1  0.66462557  0.32877842  0.67025437  1
  O2-  O267  1  0.65867017  0.84026791  0.00807647  1
  O2-  O268  1  0.65584163  0.83834463  0.34127790  1
  O2-  O269  1  0.66483112  0.84358468  0.66245474  1
  O2-  O270  1  0.17554733  0.33729759  0.00684580  1
  O2-  O271  1  0.16686843  0.34625274  0.33000736  1
  O2-  O272  1  0.17348868  0.32015738  0.66864093  1
  O2-  O273  1  0.16180958  0.84577456  -0.00543958  1
  O2-  O274  1  0.16554373  0.85020551  0.33622093  1
  O2-  O275  1  0.16303732  0.81977999  0.66153297  1
  O2-  O276  1  0.50107715  0.33325387  0.00364512  1
  O2-  O277  1  0.50121234  0.33851182  0.33215863  1
  O2-  O278  1  0.50016622  0.33884381  0.66894082  1
  O2-  O279  1  0.49426043  0.83072517  -0.00037702  1
  O2-  O280  1  0.50014817  0.83645478  0.33119346  1
  O2-  O281  1  0.49702799  0.84667705  0.66583616  1
  O2-  O282  1  0.82794200  0.34531256  -0.00152311  1
  O2-  O283  1  0.83434023  0.34364525  0.33334014  1
  O2-  O284  1  0.83369938  0.31582966  0.66971574  1
  O2-  O285  1  0.83163305  0.84351101  -0.00098440  1
  O2-  O286  1  0.83402773  0.84969703  0.33335558  1
  O2-  O287  1  0.82921399  0.84095309  0.66404586  1
  O2-  O288  1  0.00243493  0.17517564  0.17275894  1
  O2-  O289  1  0.00910655  0.18950102  0.51751390  1
  O2-  O290  1  -0.00689669  0.17015493  0.83128983  1
  O2-  O291  1  0.00627838  0.67430278  0.16084354  1
  O2-  O292  1  -0.00137554  0.67380447  0.50644833  1
  O2-  O293  1  0.01199880  0.68674059  0.81744642  1
  O2-  O294  1  0.33220235  0.19264293  0.15983184  1
  O2-  O295  1  0.33605297  0.18049116  0.50250349  1
  O2-  O296  1  0.33851414  0.18409736  0.84147385  1
  O2-  O297  1  0.33672119  0.68017787  0.17225445  1
  O2-  O298  1  0.33228874  0.68477664  0.50170970  1
  O2-  O299  1  0.33185394  0.68245143  0.83388342  1
  O2-  O300  1  0.66433822  0.19024863  0.16070482  1
  O2-  O301  1  0.66423970  0.17830957  0.49834388  1
  O2-  O302  1  0.67356957  0.17634098  0.84240831  1
  O2-  O303  1  0.66322964  0.67825440  0.15981718  1
  O2-  O304  1  0.67139933  0.67030964  0.49749332  1
  O2-  O305  1  0.66457964  0.67543410  0.83431495  1
  O2-  O306  1  0.16058561  0.18169166  0.17076861  1
  O2-  O307  1  0.17874533  0.18210565  0.49225295  1
  O2-  O308  1  0.15393914  0.18413386  0.85039517  1
  O2-  O309  1  0.17169993  0.67749358  0.16051626  1
  O2-  O310  1  0.16967425  0.68838160  0.51583309  1
  O2-  O311  1  0.16635252  0.68652271  0.83204717  1
  O2-  O312  1  0.50430105  0.18774034  0.15931730  1
  O2-  O313  1  0.49616356  0.16938839  0.50791469  1
  O2-  O314  1  0.50275459  0.16936546  0.83579343  1
  O2-  O315  1  0.49706477  0.68397065  0.15866369  1
  O2-  O316  1  0.49217375  0.67407472  0.50817192  1
  O2-  O317  1  0.50006215  0.67678334  0.83365093  1
  O2-  O318  1  0.83150604  0.19602349  0.16374635  1
  O2-  O319  1  0.83134000  0.18507312  0.50375393  1
  O2-  O320  1  0.83463088  0.17688218  0.83781957  1
  O2-  O321  1  0.83535309  0.67453715  0.16223199  1
  O2-  O322  1  0.83008551  0.67103469  0.50621645  1
  O2-  O323  1  0.82241743  0.67503635  0.83626341  1
  O2-  O324  1  0.00645579  0.33399852  0.17222681  1
  O2-  O325  1  -0.00925566  0.31746295  0.49672911  1
  O2-  O326  1  -0.00543612  0.32750607  0.83037142  1
  O2-  O327  1  0.00554688  0.82501839  0.17083312  1
  O2-  O328  1  -0.00160099  0.83450017  0.50020416  1
  O2-  O329  1  0.00269872  0.81895693  0.83613743  1
  O2-  O330  1  0.33090898  0.31394378  0.16377802  1
  O2-  O331  1  0.33507074  0.31525513  0.50420285  1
  O2-  O332  1  0.33542799  0.31281001  0.83365772  1
  O2-  O333  1  0.33384532  0.80757199  0.16186943  1
  O2-  O334  1  0.33221969  0.82381475  0.50060731  1
  O2-  O335  1  0.33887464  0.82439691  0.84227922  1
  O2-  O336  1  0.66911035  0.31561197  0.16650209  1
  O2-  O337  1  0.66546960  0.32294610  0.50075317  1
  O2-  O338  1  0.66896247  0.31969417  0.83129548  1
  O2-  O339  1  0.66845871  0.80981360  0.16813453  1
  O2-  O340  1  0.66960344  0.83013562  0.50321300  1
  O2-  O341  1  0.65800202  0.81975066  0.82596143  1
  O2-  O342  1  0.16709976  0.31599850  0.16989340  1
  O2-  O343  1  0.16926897  0.31312417  0.50234529  1
  O2-  O344  1  0.16892378  0.31101838  0.83842132  1
  O2-  O345  1  0.15953201  0.82566953  0.17494220  1
  O2-  O346  1  0.16300328  0.82165554  0.50423405  1
  O2-  O347  1  0.16586080  0.81834420  0.83433572  1
  O2-  O348  1  0.50404089  0.32021127  0.16156126  1
  O2-  O349  1  0.49845448  0.32722112  0.50450852  1
  O2-  O350  1  0.50383523  0.32379974  0.82850336  1
  O2-  O351  1  0.50177477  0.81513448  0.16106202  1
  O2-  O352  1  0.50450239  0.82481437  0.49429682  1
  O2-  O353  1  0.49610470  0.82581277  0.84023713  1
  O2-  O354  1  0.84293966  0.31988048  0.15424868  1
  O2-  O355  1  0.83327401  0.32047276  0.49667920  1
  O2-  O356  1  0.83311507  0.32024616  0.82997064  1
  O2-  O357  1  0.84501813  0.82543117  0.14939153  1
  O2-  O358  1  0.83396315  0.83617979  0.49744885  1
  O2-  O359  1  0.83087664  0.82053692  0.83216752  1
  O2-  O360  1  0.09819480  0.08038552  0.11304523  1
  O2-  O361  1  0.09981447  0.08140303  0.45979649  1
  O2-  O362  1  0.07849109  0.08172372  0.78265345  1
  O2-  O363  1  0.08940005  0.58202068  0.10896009  1
  O2-  O364  1  0.08657184  0.57231517  0.43889803  1
  O2-  O365  1  0.09094585  0.58098293  0.77127017  1
  O2-  O366  1  0.40047396  0.08394167  0.09231113  1
  O2-  O367  1  0.39641530  0.07932795  0.45909909  1
  O2-  O368  1  0.41320953  0.08113670  0.78307865  1
  O2-  O369  1  0.42516492  0.58059625  0.10926532  1
  O2-  O370  1  0.41036440  0.57227889  0.45560520  1
  O2-  O371  1  0.42058466  0.58185530  0.76150899  1
  O2-  O372  1  0.74014717  0.08595905  0.10710733  1
  O2-  O373  1  0.75107118  0.08504780  0.44866201  1
  O2-  O374  1  0.76119274  0.07839414  0.78489959  1
  O2-  O375  1  0.73329048  0.58084304  0.10382232  1
  O2-  O376  1  0.74323745  0.57877873  0.43612550  1
  O2-  O377  1  0.74435843  0.57771600  0.77752394  1
  O2-  O378  1  0.25438549  0.07791430  0.20593063  1
  O2-  O379  1  0.25215320  0.07996634  0.55344842  1
  O2-  O380  1  0.23946769  0.08294796  0.88897112  1
  O2-  O381  1  0.25879055  0.57897602  0.21200279  1
  O2-  O382  1  0.24206764  0.58461817  0.56007454  1
  O2-  O383  1  0.24918354  0.58653305  0.89826329  1
  O2-  O384  1  0.58428092  0.08572924  0.21285585  1
  O2-  O385  1  0.58149156  0.08459364  0.55397656  1
  O2-  O386  1  0.60559663  0.08158261  0.89049491  1
  O2-  O387  1  0.56698532  0.56533749  0.21666420  1
  O2-  O388  1  0.56684575  0.56582770  0.53740035  1
  O2-  O389  1  0.58764721  0.57776627  0.88921338  1
  O2-  O390  1  0.92502443  0.08236279  0.22568720  1
  O2-  O391  1  0.93128639  0.08619671  0.54390861  1
  O2-  O392  1  0.90464563  0.08319870  0.88771582  1
  O2-  O393  1  0.93549225  0.57029676  0.20790751  1
  O2-  O394  1  0.93111237  0.57867150  0.56150892  1
  O2-  O395  1  0.90827914  0.57298104  0.89739464  1
  O2-  O396  1  0.09763799  0.42153633  0.11226154  1
  O2-  O397  1  0.07991704  0.42316968  0.44859109  1
  O2-  O398  1  0.07065797  0.41901258  0.77559982  1
  O2-  O399  1  0.06802060  0.91850165  0.10535782  1
  O2-  O400  1  0.08255659  0.92112719  0.45413107  1
  O2-  O401  1  0.09142873  0.91532175  0.74916294  1
  O2-  O402  1  0.39443561  0.41788126  0.10048280  1
  O2-  O403  1  0.40684540  0.42280586  0.44967487  1
  O2-  O404  1  0.42477928  0.41825887  0.76208071  1
  O2-  O405  1  0.43169593  0.91976915  0.07580165  1
  O2-  O406  1  0.42556686  0.91481384  0.44616729  1
  O2-  O407  1  0.42465141  0.91840451  0.78381804  1
  O2-  O408  1  0.76519538  0.42420396  0.13072857  1
  O2-  O409  1  0.76206477  0.41726266  0.42940898  1
  O2-  O410  1  0.76427255  0.42580761  0.78189122  1
  O2-  O411  1  0.75377965  0.91667884  0.10881031  1
  O2-  O412  1  0.74620498  0.92153395  0.44778775  1
  O2-  O413  1  0.73688714  0.91150886  0.75706836  1
  O2-  O414  1  0.22974256  0.42130711  0.20921767  1
  O2-  O415  1  0.25568912  0.42055761  0.54267777  1
  O2-  O416  1  0.25845329  0.41740165  0.90900982  1
  O2-  O417  1  0.23441731  0.91921646  0.22530982  1
  O2-  O418  1  0.23562174  0.91705756  0.56358309  1
  O2-  O419  1  0.26600003  0.91719942  0.90252081  1
  O2-  O420  1  0.59453767  0.41633454  0.21643182  1
  O2-  O421  1  0.57509855  0.41803549  0.58514125  1
  O2-  O422  1  0.59284267  0.42209956  0.88602008  1
  O2-  O423  1  0.57968521  0.91899863  0.22112441  1
  O2-  O424  1  0.58660312  0.91782533  0.55731314  1
  O2-  O425  1  0.56533393  0.91610880  0.90444592  1
  O2-  O426  1  0.92864752  0.43184282  0.21102235  1
  O2-  O427  1  0.91655045  0.42258512  0.55496292  1
  O2-  O428  1  0.91110135  0.42708576  0.88152489  1
  O2-  O429  1  0.92923322  0.92077805  0.21059720  1
  O2-  O430  1  0.90570819  0.92210698  0.55878444  1
  O2-  O431  1  0.93496843  0.91520621  0.92169429  1
  O2-  O432  1  0.01757099  0.00874111  -0.02033707  1
  O2-  O433  1  0.01663519  -0.00417823  0.30698942  1
  O2-  O434  1  -0.00498570  0.02179326  0.66943432  1
  O2-  O435  1  -0.02005130  0.49403873  0.02694042  1
  O2-  O436  1  -0.00303441  0.48794040  0.33697412  1
  O2-  O437  1  -0.01099031  0.49031330  0.68726782  1
  O2-  O438  1  0.33794612  0.01445452  -0.02545713  1
  O2-  O439  1  0.31752215  0.00376728  0.36240967  1
  O2-  O440  1  0.35821426  0.00002735  0.62652647  1
  O2-  O441  1  0.32649808  0.50483118  0.01183146  1
  O2-  O442  1  0.32280892  0.49010316  0.34022690  1
  O2-  O443  1  0.34711689  0.50379626  0.64746496  1
  O2-  O444  1  0.65684456  0.00660793  0.01107029  1
  O2-  O445  1  0.66870039  0.00314872  0.33153295  1
  O2-  O446  1  0.66951803  0.01003146  0.67070184  1
  O2-  O447  1  0.67197305  0.49724608  -0.01267747  1
  O2-  O448  1  0.66970472  0.50770770  0.32393883  1
  O2-  O449  1  0.65699709  0.50556838  0.68388059  1
  O2-  O450  1  0.17671733  0.01776370  0.00351028  1
  O2-  O451  1  0.16897342  0.01782383  0.31505439  1
  O2-  O452  1  0.14327196  0.00526919  0.63470818  1
  O2-  O453  1  0.17556189  0.49560215  0.00830187  1
  O2-  O454  1  0.15729659  0.48645025  0.32843298  1
  O2-  O455  1  0.15624642  0.50064693  0.66020337  1
  O2-  O456  1  0.48819868  0.01182295  -0.03956650  1
  O2-  O457  1  0.51334738  0.00023053  0.35989194  1
  O2-  O458  1  0.50357323  0.01258994  0.67136574  1
  O2-  O459  1  0.52293606  0.49967141  0.03531891  1
  O2-  O460  1  0.51012861  0.51258495  0.34389248  1
  O2-  O461  1  0.50141233  0.50562989  0.67806240  1
  O2-  O462  1  0.83921268  -0.00054652  0.01507122  1
  O2-  O463  1  0.86460259  -0.00460561  0.37692090  1
  O2-  O464  1  0.83203848  0.01663124  0.66983977  1
  O2-  O465  1  0.83080305  0.48541226  -0.00644449  1
  O2-  O466  1  0.83412411  0.47865002  0.33308629  1
  O2-  O467  1  0.83661042  0.48929687  0.67262776  1
  O2-  O468  1  0.57586525  0.25035971  0.59739544  1
  O2-  O469  1  0.91304666  0.75536678  0.26609006  1
  O2-  O470  1  0.75601140  0.75031075  0.41025024  1
  O2-  O471  1  0.43001365  0.24842827  0.73448678  1
  O2-  O472  1  0.09056928  0.75082454  0.06709828  1
  O2-  O473  1  0.58558231  0.74595459  0.93605299  1
  O2-  O474  1  0.91327299  0.74698476  0.59245241  1
  O2-  O475  1  0.58241077  0.25048254  0.27518015  1
  O2-  O476  1  0.25133989  0.75182824  0.93246657  1
  O2-  O477  1  0.75448377  0.74533216  0.05726589  1
  O2-  O478  1  0.74449771  0.25251742  0.39615238  1
  O2-  O479  1  0.07253446  0.25220661  0.06127296  1
  O2-  O480  1  0.42665528  0.24888631  0.39775648  1
  O2-  O481  1  0.41352663  0.75117997  0.39343945  1
  O2-  O482  1  0.74653379  0.74672457  0.72838086  1
  O2-  O483  1  0.06905380  0.25069592  0.73615422  1
  O2-  O484  1  0.07820954  0.25655440  0.37976137  1
  O2-  O485  1  0.92864598  0.25039635  0.27229655  1
  O2-  O486  1  0.07661005  0.75390822  0.39699102  1
  O2-  O487  1  0.58141249  0.25153867  0.93269928  1
  O2-  O488  1  0.25086609  0.74412538  0.27622964  1
  O2-  O489  1  0.42436763  0.75057630  0.74005662  1
  O2-  O490  1  0.92540288  0.25128766  0.93649940  1
  O2-  O491  1  0.91219888  0.75223000  0.93131514  1
  O2-  O492  1  0.58248780  0.75105064  0.59726021  1
