# generated using pymatgen
data_Ca108Mn108O277
_symmetry_space_group_name_H-M   'P 1'
_cell_length_a   16.02599760
_cell_length_b   22.30307185
_cell_length_c   16.38733647
_cell_angle_alpha   90.00182290
_cell_angle_beta   89.99900291
_cell_angle_gamma   89.99738918
_symmetry_Int_Tables_number   1
_chemical_formula_structural   Ca108Mn108O277
_chemical_formula_sum   'Ca108 Mn108 O277'
_cell_volume   5857.30888412
_cell_formula_units_Z   1
loop_
 _symmetry_equiv_pos_site_id
 _symmetry_equiv_pos_as_xyz
  1  'x, y, z'
loop_
 _atom_type_symbol
 _atom_type_oxidation_number
  Ca2+  2.0
  Mn3.34+  3.34
  O2-  -2.0
loop_
 _atom_site_type_symbol
 _atom_site_label
 _atom_site_symmetry_multiplicity
 _atom_site_fract_x
 _atom_site_fract_y
 _atom_site_fract_z
 _atom_site_occupancy
  Ca2+  Ca0  1  0.11047034  0.24807783  0.24245661  1
  Ca2+  Ca1  1  0.06364504  0.26045223  0.58750282  1
  Ca2+  Ca2  1  0.10401346  0.25064241  0.92034827  1
  Ca2+  Ca3  1  0.08555375  0.72950344  0.25178274  1
  Ca2+  Ca4  1  0.08711171  0.75091731  0.57152143  1
  Ca2+  Ca5  1  0.07652556  0.74993213  0.93153716  1
  Ca2+  Ca6  1  0.39964625  0.25239002  0.23921115  1
  Ca2+  Ca7  1  0.42307365  0.25365735  0.59607232  1
  Ca2+  Ca8  1  0.40541333  0.24341544  0.91149187  1
  Ca2+  Ca9  1  0.40714333  0.74014986  0.27399251  1
  Ca2+  Ca10  1  0.43219588  0.73963765  0.57082540  1
  Ca2+  Ca11  1  0.41711669  0.77487422  0.91764731  1
  Ca2+  Ca12  1  0.74824981  0.25907274  0.26245705  1
  Ca2+  Ca13  1  0.75858529  0.25022303  0.58052479  1
  Ca2+  Ca14  1  0.74815221  0.25184814  0.89954323  1
  Ca2+  Ca15  1  0.75499821  0.75227536  0.24572102  1
  Ca2+  Ca16  1  0.73119044  0.74363900  0.58862753  1
  Ca2+  Ca17  1  0.76435936  0.74888014  0.91061459  1
  Ca2+  Ca18  1  0.26254739  0.24017769  0.07605315  1
  Ca2+  Ca19  1  0.26739739  0.25355008  0.39770032  1
  Ca2+  Ca20  1  0.26617861  0.24331097  0.76972325  1
  Ca2+  Ca21  1  0.23039451  0.75507475  0.09675134  1
  Ca2+  Ca22  1  0.23860306  0.74890820  0.40696534  1
  Ca2+  Ca23  1  0.24795421  0.76590601  0.74685124  1
  Ca2+  Ca24  1  0.56541094  0.24423581  0.07010677  1
  Ca2+  Ca25  1  0.58182036  0.25349464  0.43006562  1
  Ca2+  Ca26  1  0.56340246  0.24284626  0.75246034  1
  Ca2+  Ca27  1  0.57836454  0.75539172  0.09418156  1
  Ca2+  Ca28  1  0.58173195  0.75420478  0.41800049  1
  Ca2+  Ca29  1  0.58595564  0.74724423  0.73022449  1
  Ca2+  Ca30  1  0.92077739  0.25817280  0.07694143  1
  Ca2+  Ca31  1  0.90198802  0.24827585  0.43586464  1
  Ca2+  Ca32  1  0.90921233  0.25617523  0.74019283  1
  Ca2+  Ca33  1  0.93939015  0.74821722  0.08511287  1
  Ca2+  Ca34  1  0.94444633  0.73999456  0.40663060  1
  Ca2+  Ca35  1  0.91081114  0.74205001  0.75267755  1
  Ca2+  Ca36  1  0.92971264  0.09809017  0.75418568  1
  Ca2+  Ca37  1  0.40178594  0.09630892  0.23557058  1
  Ca2+  Ca38  1  0.73888487  0.09285598  0.92355564  1
  Ca2+  Ca39  1  0.90400186  0.09068271  0.40686112  1
  Ca2+  Ca40  1  0.76974377  0.07340589  0.25846409  1
  Ca2+  Ca41  1  0.42051816  0.57524942  0.91761356  1
  Ca2+  Ca42  1  0.28461689  0.08635096  0.75191226  1
  Ca2+  Ca43  1  0.61698557  0.57881189  0.09166544  1
  Ca2+  Ca44  1  0.90995424  0.07314253  0.07955176  1
  Ca2+  Ca45  1  0.91621596  0.59265547  0.07215099  1
  Ca2+  Ca46  1  0.42627614  0.07986994  0.61695840  1
  Ca2+  Ca47  1  0.74915896  0.60415293  0.60678107  1
  Ca2+  Ca48  1  0.60468353  0.58001987  0.09378296  1
  Ca2+  Ca49  1  0.60740315  0.59926507  0.72383691  1
  Ca2+  Ca50  1  0.07077388  0.09540162  0.58711759  1
  Ca2+  Ca51  1  0.23523438  0.61051364  0.41390293  1
  Ca2+  Ca52  1  0.55705459  0.60966497  0.44009387  1
  Ca2+  Ca53  1  0.72945834  0.09786657  0.92219750  1
  Ca2+  Ca54  1  0.75053333  0.57914278  0.25067311  1
  Ca2+  Ca55  1  0.08284248  0.09358558  0.59075542  1
  Ca2+  Ca56  1  0.41433429  0.10981072  0.90772436  1
  Ca2+  Ca57  1  0.55080749  0.61335742  0.43350337  1
  Ca2+  Ca58  1  0.10306989  0.10012762  0.91783547  1
  Ca2+  Ca59  1  0.77877233  0.59368683  0.89600374  1
  Ca2+  Ca60  1  0.24917471  0.09312749  0.38779411  1
  Ca2+  Ca61  1  0.75974285  0.10748563  0.57700146  1
  Ca2+  Ca62  1  0.09494093  0.09604810  0.91373991  1
  Ca2+  Ca63  1  0.55577194  0.11157926  0.76949871  1
  Ca2+  Ca64  1  0.25510857  0.10276160  0.08179115  1
  Ca2+  Ca65  1  0.92243799  0.07310187  0.07989746  1
  Ca2+  Ca66  1  0.39012564  0.09694042  0.23430595  1
  Ca2+  Ca67  1  0.23236094  0.57707069  0.73673624  1
  Ca2+  Ca68  1  0.91833672  0.09661591  0.75524890  1
  Ca2+  Ca69  1  0.42753092  0.08613196  0.62232413  1
  Ca2+  Ca70  1  0.92622246  0.59426898  0.07448591  1
  Ca2+  Ca71  1  0.06239079  0.58498883  0.92554160  1
  Ca2+  Ca72  1  0.06400798  0.41817464  0.92411947  1
  Ca2+  Ca73  1  0.08050787  0.90345273  0.91464095  1
  Ca2+  Ca74  1  0.41856597  0.40278302  0.58796857  1
  Ca2+  Ca75  1  0.74883726  0.88785035  0.58066874  1
  Ca2+  Ca76  1  0.23526543  0.40142707  0.08186653  1
  Ca2+  Ca77  1  0.75879521  0.91439900  0.24280429  1
  Ca2+  Ca78  1  0.77584008  0.92627800  0.94005417  1
  Ca2+  Ca79  1  0.59055718  0.40471399  0.08472372  1
  Ca2+  Ca80  1  0.77568371  0.42288453  0.94018785  1
  Ca2+  Ca81  1  0.07221496  0.41522082  0.91919598  1
  Ca2+  Ca82  1  0.24072806  0.40045555  0.41330301  1
  Ca2+  Ca83  1  0.24706838  0.40216723  0.08076720  1
  Ca2+  Ca84  1  0.58629067  0.40921236  0.75414158  1
  Ca2+  Ca85  1  0.75158961  0.41653161  0.24388118  1
  Ca2+  Ca86  1  0.56690014  0.90852397  0.09080033  1
  Ca2+  Ca87  1  0.56292086  0.90261390  0.74272631  1
  Ca2+  Ca88  1  0.78642803  0.42540269  0.93975575  1
  Ca2+  Ca89  1  0.57811954  0.89725964  0.41390347  1
  Ca2+  Ca90  1  0.92677568  0.90835982  0.09018283  1
  Ca2+  Ca91  1  0.42204922  0.40640059  0.25274457  1
  Ca2+  Ca92  1  0.08287054  0.89752151  0.24255081  1
  Ca2+  Ca93  1  0.75245257  0.41109022  0.58294005  1
  Ca2+  Ca94  1  0.58902419  0.41566299  0.40544559  1
  Ca2+  Ca95  1  0.08201414  0.41599369  0.60036538  1
  Ca2+  Ca96  1  0.57791288  0.91107452  0.08899320  1
  Ca2+  Ca97  1  0.40635677  0.89729128  0.24849485  1
  Ca2+  Ca98  1  0.60193365  0.40841999  0.08478021  1
  Ca2+  Ca99  1  0.57409094  0.40689055  0.75616601  1
  Ca2+  Ca100  1  0.92781721  0.41775400  0.74770489  1
  Ca2+  Ca101  1  0.76450889  0.92427182  0.94449584  1
  Ca2+  Ca102  1  0.92125926  0.90807395  0.40563882  1
  Ca2+  Ca103  1  0.39101071  0.92366664  0.61627828  1
  Ca2+  Ca104  1  0.92759918  0.40870372  0.40909245  1
  Ca2+  Ca105  1  0.92524051  0.89376776  0.75783246  1
  Ca2+  Ca106  1  0.91008462  0.90754456  0.40419366  1
  Ca2+  Ca107  1  0.91502225  0.40809885  0.40922526  1
  Mn3.34+  Mn108  1  0.07714162  0.33278097  0.09002784  1
  Mn3.34+  Mn109  1  0.08426799  0.33409251  0.41799969  1
  Mn3.34+  Mn110  1  0.08858132  0.34023103  0.75307507  1
  Mn3.34+  Mn111  1  0.08694963  0.83417430  0.08258943  1
  Mn3.34+  Mn112  1  0.09010746  0.82989379  0.41882027  1
  Mn3.34+  Mn113  1  0.08734416  0.83337508  0.74558380  1
  Mn3.34+  Mn114  1  0.41811154  0.33215881  0.08175715  1
  Mn3.34+  Mn115  1  0.41789262  0.33282918  0.41771949  1
  Mn3.34+  Mn116  1  0.41026673  0.33245414  0.75315589  1
  Mn3.34+  Mn117  1  0.40598409  0.84036810  0.08353685  1
  Mn3.34+  Mn118  1  0.40688444  0.83325059  0.42502171  1
  Mn3.34+  Mn119  1  0.40971102  0.83802837  0.74993483  1
  Mn3.34+  Mn120  1  0.75584381  0.32807588  0.08737500  1
  Mn3.34+  Mn121  1  0.74872458  0.33478430  0.41643520  1
  Mn3.34+  Mn122  1  0.75149867  0.33581279  0.75079189  1
  Mn3.34+  Mn123  1  0.75030492  0.83717736  0.08594977  1
  Mn3.34+  Mn124  1  0.74846728  0.83204562  0.41492583  1
  Mn3.34+  Mn125  1  0.74829583  0.82699264  0.75255839  1
  Mn3.34+  Mn126  1  0.24886753  0.33503819  0.24922181  1
  Mn3.34+  Mn127  1  0.24796840  0.33144065  0.58467976  1
  Mn3.34+  Mn128  1  0.25176368  0.33107951  0.91212349  1
  Mn3.34+  Mn129  1  0.24717048  0.83199564  0.25127934  1
  Mn3.34+  Mn130  1  0.24828944  0.84273972  0.57698125  1
  Mn3.34+  Mn131  1  0.24801912  0.83442728  0.91597468  1
  Mn3.34+  Mn132  1  0.58406167  0.33574597  0.25094677  1
  Mn3.34+  Mn133  1  0.58513369  0.33500861  0.58090940  1
  Mn3.34+  Mn134  1  0.58388321  0.32853666  0.91365816  1
  Mn3.34+  Mn135  1  0.58243437  0.82962101  0.25257294  1
  Mn3.34+  Mn136  1  0.57648933  0.82797568  0.58082915  1
  Mn3.34+  Mn137  1  0.58285778  0.83508271  0.91021085  1
  Mn3.34+  Mn138  1  0.92317628  0.33117276  0.24455729  1
  Mn3.34+  Mn139  1  0.91499637  0.33638253  0.58514955  1
  Mn3.34+  Mn140  1  0.91929555  0.32757296  0.91210344  1
  Mn3.34+  Mn141  1  0.91581175  0.83263686  0.24386922  1
  Mn3.34+  Mn142  1  0.91755765  0.82313168  0.58118798  1
  Mn3.34+  Mn143  1  0.91909713  0.83298864  0.91540356  1
  Mn3.34+  Mn144  1  0.42183574  0.16661081  0.41915766  1
  Mn3.34+  Mn145  1  0.57790030  0.16776862  0.25571149  1
  Mn3.34+  Mn146  1  0.58630917  0.66390642  0.24974900  1
  Mn3.34+  Mn147  1  0.41918328  0.67163624  0.08755062  1
  Mn3.34+  Mn148  1  0.24900153  0.66957495  0.57356990  1
  Mn3.34+  Mn149  1  0.74485477  0.16732965  0.09119595  1
  Mn3.34+  Mn150  1  0.41614089  0.66069975  0.74696024  1
  Mn3.34+  Mn151  1  0.24235811  0.66417958  0.91420313  1
  Mn3.34+  Mn152  1  0.75483845  0.66751125  0.08868126  1
  Mn3.34+  Mn153  1  0.08707991  0.17235211  0.75247686  1
  Mn3.34+  Mn154  1  0.58985281  0.66971707  0.91542229  1
  Mn3.34+  Mn155  1  0.76397730  0.66088132  0.41594949  1
  Mn3.34+  Mn156  1  0.08403272  0.66226892  0.74559303  1
  Mn3.34+  Mn157  1  0.74466738  0.16973812  0.74771347  1
  Mn3.34+  Mn158  1  0.75349374  0.66549227  0.41433543  1
  Mn3.34+  Mn159  1  0.41985681  0.16319134  0.07581794  1
  Mn3.34+  Mn160  1  0.91734437  0.16263554  0.24356240  1
  Mn3.34+  Mn161  1  0.59107706  0.16181704  0.25252552  1
  Mn3.34+  Mn162  1  0.25620531  0.65946876  0.92083684  1
  Mn3.34+  Mn163  1  0.07431502  0.65690791  0.74675099  1
  Mn3.34+  Mn164  1  0.92283023  0.66457626  0.24733378  1
  Mn3.34+  Mn165  1  0.08563103  0.17273192  0.41291575  1
  Mn3.34+  Mn166  1  0.40568217  0.66569948  0.08984561  1
  Mn3.34+  Mn167  1  0.58040093  0.66361925  0.91407699  1
  Mn3.34+  Mn168  1  0.24550174  0.66392765  0.25066341  1
  Mn3.34+  Mn169  1  0.91742324  0.66962501  0.91551800  1
  Mn3.34+  Mn170  1  0.58499209  0.17052574  0.58099670  1
  Mn3.34+  Mn171  1  0.75418457  0.17319311  0.08872348  1
  Mn3.34+  Mn172  1  0.91941524  0.16799092  0.91501859  1
  Mn3.34+  Mn173  1  0.24705696  0.17004781  0.57803295  1
  Mn3.34+  Mn174  1  0.40638889  0.66641663  0.74554544  1
  Mn3.34+  Mn175  1  0.91555560  0.66324773  0.58231268  1
  Mn3.34+  Mn176  1  0.08160140  0.16519801  0.09153652  1
  Mn3.34+  Mn177  1  0.07604666  0.17958398  0.41194476  1
  Mn3.34+  Mn178  1  0.74851595  0.16666945  0.41778695  1
  Mn3.34+  Mn179  1  0.25677556  0.16297442  0.57529066  1
  Mn3.34+  Mn180  1  0.26483123  -0.00238908  0.92202329  1
  Mn3.34+  Mn181  1  0.59662228  -0.00203146  0.56684805  1
  Mn3.34+  Mn182  1  0.92183202  -0.00559091  0.58119349  1
  Mn3.34+  Mn183  1  0.58469927  0.00071600  0.25241223  1
  Mn3.34+  Mn184  1  0.27085010  -0.00917106  0.92619739  1
  Mn3.34+  Mn185  1  0.75393442  -0.00415598  0.75227903  1
  Mn3.34+  Mn186  1  0.41314429  0.50268663  0.41457215  1
  Mn3.34+  Mn187  1  0.73894467  0.00113041  0.75171464  1
  Mn3.34+  Mn188  1  0.55284781  0.00019402  0.92451619  1
  Mn3.34+  Mn189  1  0.56557091  -0.00145530  0.91602226  1
  Mn3.34+  Mn190  1  0.10022038  -0.00543478  0.73506947  1
  Mn3.34+  Mn191  1  0.08764109  -0.00083102  0.08325201  1
  Mn3.34+  Mn192  1  0.75628538  0.49910973  0.74478585  1
  Mn3.34+  Mn193  1  0.25247642  0.50174617  0.57855910  1
  Mn3.34+  Mn194  1  0.09228445  -0.00185688  0.42122957  1
  Mn3.34+  Mn195  1  0.74452943  -0.00021370  0.41383701  1
  Mn3.34+  Mn196  1  0.59167315  0.50141259  0.92049197  1
  Mn3.34+  Mn197  1  0.42000278  0.00399999  0.41859115  1
  Mn3.34+  Mn198  1  0.10094175  -0.00833855  0.41790662  1
  Mn3.34+  Mn199  1  0.40099867  0.50442514  0.09202641  1
  Mn3.34+  Mn200  1  0.08270078  0.50130348  0.07537889  1
  Mn3.34+  Mn201  1  0.24875223  0.49567075  0.90851224  1
  Mn3.34+  Mn202  1  0.92513772  0.50104160  0.25220042  1
  Mn3.34+  Mn203  1  0.75150530  0.50262453  0.40960284  1
  Mn3.34+  Mn204  1  0.41200435  0.49624986  0.74867090  1
  Mn3.34+  Mn205  1  0.58600812  0.00249254  0.56996309  1
  Mn3.34+  Mn206  1  0.24532167  -0.00434213  0.24165878  1
  Mn3.34+  Mn207  1  0.40656482  -0.00243527  0.41786732  1
  Mn3.34+  Mn208  1  0.57939499  0.49895221  0.58982301  1
  Mn3.34+  Mn209  1  0.90839677  0.00148519  0.57793612  1
  Mn3.34+  Mn210  1  0.41227437  0.50102100  0.09090718  1
  Mn3.34+  Mn211  1  0.23803213  0.50350162  0.25751179  1
  Mn3.34+  Mn212  1  0.39660717  0.50164605  0.41318745  1
  Mn3.34+  Mn213  1  0.92203139  0.50464963  0.59393807  1
  Mn3.34+  Mn214  1  0.23736523  0.50421530  0.57763728  1
  Mn3.34+  Mn215  1  0.08337533  0.50430201  0.40892127  1
  O2-  O216  1  0.00013115  0.15575768  -0.00069716  1
  O2-  O217  1  -0.00311472  0.17827078  0.32974410  1
  O2-  O218  1  0.00643641  0.15630829  0.66869183  1
  O2-  O219  1  -0.00435753  0.66104578  -0.00017199  1
  O2-  O220  1  -0.00430143  0.66122770  0.32517254  1
  O2-  O221  1  -0.00982785  0.66592069  0.66908965  1
  O2-  O222  1  0.33597271  0.16102012  0.00389389  1
  O2-  O223  1  0.34376546  0.15205372  0.33574430  1
  O2-  O224  1  0.33716808  0.15457386  0.65861103  1
  O2-  O225  1  0.34723181  0.64497090  -0.01121818  1
  O2-  O226  1  0.32260442  0.67456153  0.33704444  1
  O2-  O227  1  0.32163110  0.66643992  0.66847206  1
  O2-  O228  1  0.67689919  0.17674994  -0.00526913  1
  O2-  O229  1  0.67534400  0.15249549  0.32625928  1
  O2-  O230  1  0.66686027  0.15131006  0.66481558  1
  O2-  O231  1  0.67024214  0.65605660  0.00394844  1
  O2-  O232  1  0.66863561  0.64510881  0.33593955  1
  O2-  O233  1  0.67502552  0.67491226  0.67058710  1
  O2-  O234  1  0.15751655  0.16156755  0.00325542  1
  O2-  O235  1  0.17079292  0.17289605  0.33873620  1
  O2-  O236  1  0.16749390  0.15823003  0.66725873  1
  O2-  O237  1  0.16032617  0.65265659  -0.01155258  1
  O2-  O238  1  0.16533829  0.66239957  0.32555726  1
  O2-  O239  1  0.16592301  0.65795864  0.66434157  1
  O2-  O240  1  0.49769825  0.17239427  -0.00238454  1
  O2-  O241  1  0.50046407  0.13861169  0.33801360  1
  O2-  O242  1  0.50457256  0.16211600  0.66174771  1
  O2-  O243  1  0.50928775  0.63961432  0.00285889  1
  O2-  O244  1  0.50603307  0.66122542  0.32707742  1
  O2-  O245  1  0.50082865  0.65654320  0.67222627  1
  O2-  O246  1  0.83616829  0.15188836  0.00372662  1
  O2-  O247  1  0.83491769  0.15945923  0.32936369  1
  O2-  O248  1  0.83553189  0.14870155  0.67785358  1
  O2-  O249  1  0.83261626  0.66580489  0.00256899  1
  O2-  O250  1  0.82940945  0.65003414  0.32566544  1
  O2-  O251  1  0.83814066  0.68838000  0.65214756  1
  O2-  O252  1  0.00490770  0.33225034  -0.00551163  1
  O2-  O253  1  -0.00567836  0.32454210  0.34106358  1
  O2-  O254  1  0.00055438  0.34239663  0.66819688  1
  O2-  O255  1  -0.00311493  0.84791834  0.00095357  1
  O2-  O256  1  -0.00324739  0.84693895  0.33149077  1
  O2-  O257  1  -0.00782042  0.82852366  0.67095631  1
  O2-  O258  1  0.32768860  0.34674533  0.00550995  1
  O2-  O259  1  0.33280792  0.34981678  0.33119440  1
  O2-  O260  1  0.33689028  0.34529428  0.66230280  1
  O2-  O261  1  0.33069336  0.83863901  -0.00146130  1
  O2-  O262  1  0.33521142  0.82639126  0.33354270  1
  O2-  O263  1  0.32911539  0.83087837  0.66297646  1
  O2-  O264  1  0.66907779  0.31970571  -0.00130395  1
  O2-  O265  1  0.67350169  0.35110449  0.32796769  1
  O2-  O266  1  0.66674551  0.35522689  0.66798326  1
  O2-  O267  1  0.66669813  0.84973825  -0.00134150  1
  O2-  O268  1  0.66875221  0.85039445  0.32945958  1
  O2-  O269  1  0.66163168  0.83751199  0.67038332  1
  O2-  O270  1  0.15963779  0.33558883  0.00139734  1
  O2-  O271  1  0.16625610  0.33266481  0.33480750  1
  O2-  O272  1  0.15673970  0.32569544  0.66244471  1
  O2-  O273  1  0.16002675  0.84028001  -0.00651945  1
  O2-  O274  1  0.16416930  0.84629311  0.33218998  1
  O2-  O275  1  0.16907676  0.82279430  0.65742340  1
  O2-  O276  1  0.51126404  0.34014198  0.00746462  1
  O2-  O277  1  0.50356806  0.35204447  0.33684620  1
  O2-  O278  1  0.50435764  0.34513093  0.66807259  1
  O2-  O279  1  0.50366488  0.84907612  0.00167907  1
  O2-  O280  1  0.49670034  0.83574784  0.33543525  1
  O2-  O281  1  0.49460801  0.83954932  0.66002393  1
  O2-  O282  1  0.83487776  0.33951551  -0.00045408  1
  O2-  O283  1  0.83697440  0.33687816  0.33417145  1
  O2-  O284  1  0.83614201  0.35507921  0.66904471  1
  O2-  O285  1  0.82918019  0.84162948  -0.00193810  1
  O2-  O286  1  0.83149723  0.84779543  0.33027441  1
  O2-  O287  1  0.82739913  0.82119019  0.66422867  1
  O2-  O288  1  -0.00918989  0.18510079  0.15917627  1
  O2-  O289  1  0.00297510  0.18424816  0.49841716  1
  O2-  O290  1  -0.00583705  0.18514075  0.82400684  1
  O2-  O291  1  -0.01210574  0.67145758  0.16085528  1
  O2-  O292  1  -0.01161717  0.69323946  0.51751131  1
  O2-  O293  1  0.00506482  0.67430592  0.83752456  1
  O2-  O294  1  0.34034066  0.17340900  0.16518296  1
  O2-  O295  1  0.32683668  0.18363812  0.48584721  1
  O2-  O296  1  0.33662030  0.17095105  0.83060883  1
  O2-  O297  1  0.33508562  0.68608211  0.17289795  1
  O2-  O298  1  0.32490775  0.69185900  0.50527772  1
  O2-  O299  1  0.33168498  0.67912757  0.83336166  1
  O2-  O300  1  0.66046635  0.19362020  0.16266083  1
  O2-  O301  1  0.66929826  0.18279685  0.50254643  1
  O2-  O302  1  0.66776164  0.18141774  0.82800370  1
  O2-  O303  1  0.66787176  0.68315950  0.16200115  1
  O2-  O304  1  0.66942436  0.67418664  0.49030675  1
  O2-  O305  1  0.66336376  0.68556729  0.83247260  1
  O2-  O306  1  0.16651039  0.18688518  0.15251558  1
  O2-  O307  1  0.15816207  0.18909305  0.50530583  1
  O2-  O308  1  0.15779818  0.17818492  0.83686028  1
  O2-  O309  1  0.17370001  0.67864350  0.16586898  1
  O2-  O310  1  0.17047075  0.68453320  0.50369103  1
  O2-  O311  1  0.17241267  0.67774055  0.82477860  1
  O2-  O312  1  0.49716720  0.17887027  0.17493651  1
  O2-  O313  1  0.49397700  0.18449976  0.50750930  1
  O2-  O314  1  0.49520225  0.18418914  0.84324261  1
  O2-  O315  1  0.51070104  0.67644771  0.16007682  1
  O2-  O316  1  0.50173245  0.69001902  0.48024948  1
  O2-  O317  1  0.48619093  0.67517460  0.84203279  1
  O2-  O318  1  0.82901206  0.19537220  0.17148574  1
  O2-  O319  1  0.82847526  0.17402510  0.49460504  1
  O2-  O320  1  0.82938211  0.16743306  0.83839690  1
  O2-  O321  1  0.83282794  0.68473247  0.16389540  1
  O2-  O322  1  0.83329525  0.68476043  0.50135185  1
  O2-  O323  1  0.83457559  0.68133173  0.83975629  1
  O2-  O324  1  0.00569601  0.30409754  0.17020323  1
  O2-  O325  1  -0.00457800  0.32253628  0.49734541  1
  O2-  O326  1  0.00082684  0.31235793  0.83064902  1
  O2-  O327  1  -0.00240916  0.82614734  0.16448835  1
  O2-  O328  1  -0.00778635  0.82157004  0.49098852  1
  O2-  O329  1  0.00136209  0.82535872  0.83817128  1
  O2-  O330  1  0.33323730  0.33446301  0.16439161  1
  O2-  O331  1  0.33049028  0.32339130  0.49717421  1
  O2-  O332  1  0.33502246  0.32341422  0.83666856  1
  O2-  O333  1  0.33703648  0.81991353  0.17162876  1
  O2-  O334  1  0.33103077  0.81076937  0.50620210  1
  O2-  O335  1  0.33035315  0.82253339  0.83248289  1
  O2-  O336  1  0.66511400  0.31631890  0.16256701  1
  O2-  O337  1  0.66888190  0.32758726  0.50189832  1
  O2-  O338  1  0.66113797  0.31415833  0.82610282  1
  O2-  O339  1  0.66442749  0.82196479  0.16159827  1
  O2-  O340  1  0.66496161  0.82366075  0.49695151  1
  O2-  O341  1  0.66975787  0.81173568  0.83515226  1
  O2-  O342  1  0.17498630  0.32108367  0.15599913  1
  O2-  O343  1  0.16434587  0.31470815  0.49776677  1
  O2-  O344  1  0.16524197  0.31613157  0.83292072  1
  O2-  O345  1  0.16155032  0.82833879  0.17056526  1
  O2-  O346  1  0.17027346  0.81706577  0.49996459  1
  O2-  O347  1  0.16270778  0.81862319  0.83599275  1
  O2-  O348  1  0.50055848  0.32316327  0.16730378  1
  O2-  O349  1  0.49863719  0.32082443  0.50549002  1
  O2-  O350  1  0.50520222  0.32154751  0.82950259  1
  O2-  O351  1  0.50419161  0.82354860  0.16530669  1
  O2-  O352  1  0.50054753  0.81862717  0.49362699  1
  O2-  O353  1  0.50457120  0.82314864  0.82553296  1
  O2-  O354  1  0.83492098  0.31195121  0.16950611  1
  O2-  O355  1  0.83399544  0.32801097  0.49967053  1
  O2-  O356  1  0.83210397  0.32543518  0.83579284  1
  O2-  O357  1  0.83214666  0.81741637  0.16244578  1
  O2-  O358  1  0.83194620  0.81853347  0.49532770  1
  O2-  O359  1  0.83723914  0.81517230  0.82985506  1
  O2-  O360  1  0.06655256  0.07987734  0.10999789  1
  O2-  O361  1  0.08844393  0.08356008  0.45102848  1
  O2-  O362  1  0.06759364  0.07418161  0.78601912  1
  O2-  O363  1  0.05445152  0.57230375  0.10580775  1
  O2-  O364  1  0.10272484  0.57057088  0.45447984  1
  O2-  O365  1  0.09366711  0.57930596  0.78176503  1
  O2-  O366  1  0.41908553  0.08481005  0.10618833  1
  O2-  O367  1  0.40711279  0.07952854  0.47018886  1
  O2-  O368  1  0.42482055  0.07396752  0.77396229  1
  O2-  O369  1  0.41815622  0.58464189  0.11953997  1
  O2-  O370  1  0.41618039  0.58232773  0.44337611  1
  O2-  O371  1  0.40060962  0.57884420  0.77962590  1
  O2-  O372  1  0.77074106  0.08106603  0.11097622  1
  O2-  O373  1  0.75479871  0.08059936  0.44062912  1
  O2-  O374  1  0.74445963  0.08086716  0.78728289  1
  O2-  O375  1  0.74947029  0.58011990  0.11346785  1
  O2-  O376  1  0.75460200  0.57925095  0.45556901  1
  O2-  O377  1  0.74333224  0.57621843  0.76165175  1
  O2-  O378  1  0.25995955  0.07387720  0.21180690  1
  O2-  O379  1  0.22942258  0.08917820  0.53289379  1
  O2-  O380  1  0.23103721  0.07133946  0.87466088  1
  O2-  O381  1  0.25424760  0.58062492  0.23647780  1
  O2-  O382  1  0.25835276  0.58552803  0.55496738  1
  O2-  O383  1  0.26105030  0.57820216  0.87783909  1
  O2-  O384  1  0.58556079  0.08190461  0.21739983  1
  O2-  O385  1  0.58241222  0.08510459  0.55143463  1
  O2-  O386  1  0.59684609  0.07840922  0.88868246  1
  O2-  O387  1  0.59804271  0.58129634  0.22366884  1
  O2-  O388  1  0.60220231  0.57609309  0.55804069  1
  O2-  O389  1  0.58054951  0.58208807  0.87346933  1
  O2-  O390  1  0.90446740  0.07766280  0.21404968  1
  O2-  O391  1  0.93938820  0.07824510  0.54325952  1
  O2-  O392  1  0.93874821  0.08589015  0.88931767  1
  O2-  O393  1  0.90285245  0.57854003  0.21187592  1
  O2-  O394  1  0.89371204  0.58149423  0.57066208  1
  O2-  O395  1  0.91868263  0.58756136  0.91773170  1
  O2-  O396  1  0.10152735  0.42191007  0.10239483  1
  O2-  O397  1  0.06934215  0.42572381  0.45235388  1
  O2-  O398  1  0.06931056  0.42133756  0.78824274  1
  O2-  O399  1  0.07705242  0.91967261  0.10803029  1
  O2-  O400  1  0.07066851  0.91409011  0.44814357  1
  O2-  O401  1  0.06822959  0.92036394  0.77493519  1
  O2-  O402  1  0.42583234  0.41819030  0.10803806  1
  O2-  O403  1  0.40929491  0.42229773  0.45160317  1
  O2-  O404  1  0.43653266  0.41725860  0.77336356  1
  O2-  O405  1  0.43125984  0.91756427  0.11842148  1
  O2-  O406  1  0.42429492  0.91958022  0.45458107  1
  O2-  O407  1  0.42177088  0.91635915  0.75299106  1
  O2-  O408  1  0.73754264  0.41544855  0.09536545  1
  O2-  O409  1  0.77048766  0.42231479  0.44002023  1
  O2-  O410  1  0.74634097  0.42449439  0.79721134  1
  O2-  O411  1  0.74200196  0.92427556  0.09901110  1
  O2-  O412  1  0.75550970  0.91989608  0.44816022  1
  O2-  O413  1  0.75809075  0.91544942  0.77919008  1
  O2-  O414  1  0.24854653  0.42519658  0.21360231  1
  O2-  O415  1  0.23629265  0.41930140  0.55219524  1
  O2-  O416  1  0.21797398  0.41501306  0.91260580  1
  O2-  O417  1  0.25864575  0.91549656  0.23554149  1
  O2-  O418  1  0.25884926  0.91726787  0.56156059  1
  O2-  O419  1  0.23477530  0.91630311  0.89066575  1
  O2-  O420  1  0.58671853  0.41980876  0.21638640  1
  O2-  O421  1  0.57447667  0.42003527  0.55143295  1
  O2-  O422  1  0.60310696  0.41837051  0.88964307  1
  O2-  O423  1  0.58274179  0.91804266  0.22509748  1
  O2-  O424  1  0.58783465  0.91491990  0.55579753  1
  O2-  O425  1  0.59161189  0.92262970  0.87357766  1
  O2-  O426  1  0.90929163  0.41885214  0.24139818  1
  O2-  O427  1  0.91851526  0.42660283  0.54338441  1
  O2-  O428  1  0.92223919  0.41288965  0.89427004  1
  O2-  O429  1  0.90938907  0.91637469  0.22928618  1
  O2-  O430  1  0.89670655  0.91431264  0.56406182  1
  O2-  O431  1  0.90357513  0.91611840  0.89259362  1
  O2-  O432  1  -0.01920261  -0.00283306  0.02903090  1
  O2-  O433  1  -0.01349511  -0.00264179  0.36998391  1
  O2-  O434  1  -0.00670599  0.01282527  0.67468828  1
  O2-  O435  1  0.00499404  0.49307569  -0.00662745  1
  O2-  O436  1  -0.01639045  0.49320758  0.35601265  1
  O2-  O437  1  -0.00225182  0.48334745  0.66228157  1
  O2-  O438  1  0.34343272  0.02597672  -0.00105502  1
  O2-  O439  1  0.33701156  0.01461956  0.32424840  1
  O2-  O440  1  0.33646373  0.01856534  0.64405338  1
  O2-  O441  1  0.33174174  0.49830833  -0.00355828  1
  O2-  O442  1  0.34422641  0.48730460  0.31619151  1
  O2-  O443  1  0.33388286  0.49665892  0.66064961  1
  O2-  O444  1  0.67057651  -0.00302105  -0.02433845  1
  O2-  O445  1  0.68719388  -0.00476839  0.30815057  1
  O2-  O446  1  0.68130529  -0.00709456  0.65008149  1
  O2-  O447  1  0.64766214  0.49551504  0.02915958  1
  O2-  O448  1  0.66469145  0.49580351  0.35073014  1
  O2-  O449  1  0.66702530  0.48589045  0.67116301  1
  O2-  O450  1  0.15101410  0.01013367  -0.01989992  1
  O2-  O451  1  0.16943705  0.01334820  0.32859845  1
  O2-  O452  1  0.15902059  0.03265916  0.65801318  1
  O2-  O453  1  0.15931177  0.50488205  -0.01083830  1
  O2-  O454  1  0.18410514  0.48953421  0.36038394  1
  O2-  O455  1  0.16470165  0.50071481  0.66168477  1
  O2-  O456  1  0.51474668  -0.01234230  0.02443065  1
  O2-  O457  1  0.49990857  -0.00707316  0.33419438  1
  O2-  O458  1  0.50743273  0.00191928  0.65573799  1
  O2-  O459  1  0.49905345  0.51090703  0.00894866  1
  O2-  O460  1  0.50726815  0.49584852  0.35534513  1
  O2-  O461  1  0.51484048  0.49923732  0.69090355  1
  O2-  O462  1  0.81664894  0.01801545  -0.04418611  1
  O2-  O463  1  0.83850282  -0.00247807  0.35820249  1
  O2-  O464  1  0.83537037  0.02074704  0.67084039  1
  O2-  O465  1  0.81177349  0.51182723  -0.03482195  1
  O2-  O466  1  0.81927415  0.49933434  0.31504406  1
  O2-  O467  1  0.83132396  0.48534056  0.65911528  1
  O2-  O468  1  0.42236500  0.24808642  0.38491976  1
  O2-  O469  1  0.41230380  0.25437586  0.73377411  1
  O2-  O470  1  0.23792246  0.75130311  0.25822711  1
  O2-  O471  1  0.41254912  0.25219942  0.07161512  1
  O2-  O472  1  0.08565564  0.75312590  0.39605558  1
  O2-  O473  1  0.25237303  0.74712795  0.93801029  1
  O2-  O474  1  0.58254853  0.75082074  0.59396788  1
  O2-  O475  1  0.90106173  0.24746044  0.93806858  1
  O2-  O476  1  0.76285776  0.25093147  0.72310937  1
  O2-  O477  1  0.92424401  0.75262124  0.94025520  1
  O2-  O478  1  0.26449388  0.24683642  0.60935576  1
  O2-  O479  1  0.74425490  0.25073182  0.39878268  1
  O2-  O480  1  0.42391859  0.75067780  0.05567120  1
  O2-  O481  1  0.90928016  0.25729589  0.60151628  1
  O2-  O482  1  0.08057634  0.74416532  0.73777760  1
  O2-  O483  1  0.57033412  0.74884905  0.94973282  1
  O2-  O484  1  0.58994762  0.25286326  0.60785974  1
  O2-  O485  1  0.25977659  0.25639566  0.26141832  1
  O2-  O486  1  0.91121779  0.74948849  0.27020268  1
  O2-  O487  1  0.58392871  0.24916885  0.28545681  1
  O2-  O488  1  0.25549977  0.25330373  0.93187787  1
  O2-  O489  1  0.59386945  0.74861116  0.27253421  1
  O2-  O490  1  0.74320678  0.74788818  0.38524203  1
  O2-  O491  1  0.42105647  0.74928764  0.73753716  1
  O2-  O492  1  0.08471945  0.75527068  0.06946373  1
