# generated using pymatgen
data_Ca108Mn108O277
_symmetry_space_group_name_H-M   'P 1'
_cell_length_a   16.03059806
_cell_length_b   22.31045597
_cell_length_c   16.39119730
_cell_angle_alpha   89.99917029
_cell_angle_beta   89.99861330
_cell_angle_gamma   90.00368701
_symmetry_Int_Tables_number   1
_chemical_formula_structural   Ca108Mn108O277
_chemical_formula_sum   'Ca108 Mn108 O277'
_cell_volume   5862.31091684
_cell_formula_units_Z   1
loop_
 _symmetry_equiv_pos_site_id
 _symmetry_equiv_pos_as_xyz
  1  'x, y, z'
loop_
 _atom_type_symbol
 _atom_type_oxidation_number
  Ca2+  2.0
  Mn3.34+  3.34
  O2-  -2.0
loop_
 _atom_site_type_symbol
 _atom_site_label
 _atom_site_symmetry_multiplicity
 _atom_site_fract_x
 _atom_site_fract_y
 _atom_site_fract_z
 _atom_site_occupancy
  Ca2+  Ca0  1  0.05211252  0.24738169  0.24880314  1
  Ca2+  Ca1  1  0.09150949  0.26651788  0.57779466  1
  Ca2+  Ca2  1  0.09963593  0.23723945  0.92702928  1
  Ca2+  Ca3  1  0.10167534  0.74847640  0.25420618  1
  Ca2+  Ca4  1  0.10993437  0.74487024  0.58220401  1
  Ca2+  Ca5  1  0.08213377  0.75280613  0.91800368  1
  Ca2+  Ca6  1  0.43210438  0.25363989  0.23426396  1
  Ca2+  Ca7  1  0.41170223  0.25156958  0.57694832  1
  Ca2+  Ca8  1  0.41724056  0.22922392  0.92454069  1
  Ca2+  Ca9  1  0.39389533  0.74935006  0.26192180  1
  Ca2+  Ca10  1  0.39777337  0.74841474  0.57956463  1
  Ca2+  Ca11  1  0.41720593  0.75895559  0.90800917  1
  Ca2+  Ca12  1  0.76324422  0.24651951  0.24585583  1
  Ca2+  Ca13  1  0.74772930  0.25309307  0.56614777  1
  Ca2+  Ca14  1  0.73498186  0.24341437  0.92950031  1
  Ca2+  Ca15  1  0.76192466  0.75166549  0.26180192  1
  Ca2+  Ca16  1  0.75002778  0.75397107  0.58602009  1
  Ca2+  Ca17  1  0.74423285  0.75527050  0.90413085  1
  Ca2+  Ca18  1  0.27488206  0.24717932  0.06388008  1
  Ca2+  Ca19  1  0.26149773  0.25159090  0.42613859  1
  Ca2+  Ca20  1  0.25710867  0.25381363  0.75930548  1
  Ca2+  Ca21  1  0.24470915  0.75119131  0.10150102  1
  Ca2+  Ca22  1  0.26650772  0.73341134  0.41685496  1
  Ca2+  Ca23  1  0.25584691  0.73234042  0.73190797  1
  Ca2+  Ca24  1  0.57628987  0.23091674  0.07550059  1
  Ca2+  Ca25  1  0.58589771  0.25936514  0.40755479  1
  Ca2+  Ca26  1  0.58329671  0.25244828  0.76865046  1
  Ca2+  Ca27  1  0.57969766  0.76026617  0.07828038  1
  Ca2+  Ca28  1  0.55454180  0.73317775  0.41950359  1
  Ca2+  Ca29  1  0.57564691  0.75583267  0.74607331  1
  Ca2+  Ca30  1  0.90789315  0.24648792  0.09070731  1
  Ca2+  Ca31  1  0.89987590  0.25297873  0.39864750  1
  Ca2+  Ca32  1  0.91166374  0.26346771  0.74950808  1
  Ca2+  Ca33  1  0.92908436  0.75591623  0.09152193  1
  Ca2+  Ca34  1  0.92185832  0.75925457  0.41631581  1
  Ca2+  Ca35  1  0.92108891  0.76076290  0.74876382  1
  Ca2+  Ca36  1  0.57062618  0.10958640  0.77422012  1
  Ca2+  Ca37  1  0.27681748  0.09952268  0.77012953  1
  Ca2+  Ca38  1  0.02466059  0.08333015  0.23796030  1
  Ca2+  Ca39  1  0.40850924  0.59228204  0.89366661  1
  Ca2+  Ca40  1  0.03450317  0.08590307  0.23745883  1
  Ca2+  Ca41  1  0.90535346  0.10293672  0.06625813  1
  Ca2+  Ca42  1  0.08721554  0.60367799  0.90968065  1
  Ca2+  Ca43  1  0.09629731  0.07671242  0.59668798  1
  Ca2+  Ca44  1  0.26763736  0.10143926  0.77452448  1
  Ca2+  Ca45  1  0.72315669  0.58123300  0.59647073  1
  Ca2+  Ca46  1  0.26308889  0.60516116  0.09661346  1
  Ca2+  Ca47  1  0.41268511  0.60577867  0.26974681  1
  Ca2+  Ca48  1  0.10183376  0.59889939  0.25521292  1
  Ca2+  Ca49  1  0.92361553  0.58134456  0.39448321  1
  Ca2+  Ca50  1  0.74426857  0.57833199  0.91806605  1
  Ca2+  Ca51  1  0.90942477  0.10220774  0.77904139  1
  Ca2+  Ca52  1  0.58373775  0.09161422  0.40895819  1
  Ca2+  Ca53  1  0.77970805  0.10119137  0.23686300  1
  Ca2+  Ca54  1  0.89429325  0.07991461  0.39243212  1
  Ca2+  Ca55  1  0.90712516  0.10833633  0.78641947  1
  Ca2+  Ca56  1  0.42363628  0.60461527  0.57458865  1
  Ca2+  Ca57  1  0.26586358  0.09799948  0.03983323  1
  Ca2+  Ca58  1  0.41753257  0.59984639  0.26595292  1
  Ca2+  Ca59  1  0.93207045  0.57908198  0.39989992  1
  Ca2+  Ca60  1  0.42877281  0.59844581  0.57619650  1
  Ca2+  Ca61  1  0.26860032  0.60651570  0.42283786  1
  Ca2+  Ca62  1  0.76052851  0.59012498  0.25485418  1
  Ca2+  Ca63  1  0.27565660  0.09576819  0.04188513  1
  Ca2+  Ca64  1  0.73163594  0.57574380  0.91653394  1
  Ca2+  Ca65  1  0.93373653  0.57436320  0.73281664  1
  Ca2+  Ca66  1  0.73196925  0.10156856  0.92786527  1
  Ca2+  Ca67  1  0.25360709  0.61025633  0.09779117  1
  Ca2+  Ca68  1  0.09868539  0.59409536  0.59548090  1
  Ca2+  Ca69  1  0.91912425  0.59536554  0.09461674  1
  Ca2+  Ca70  1  0.42919300  0.10393733  0.24047339  1
  Ca2+  Ca71  1  0.42289155  0.10088822  0.23322963  1
  Ca2+  Ca72  1  0.25435658  0.90892496  0.41051055  1
  Ca2+  Ca73  1  0.07882155  0.90070519  0.91605163  1
  Ca2+  Ca74  1  0.42427326  0.90631150  0.59481908  1
  Ca2+  Ca75  1  0.58589318  0.90043633  0.41840004  1
  Ca2+  Ca76  1  0.92420460  0.91290823  0.08415693  1
  Ca2+  Ca77  1  0.73919084  0.40430473  0.91817588  1
  Ca2+  Ca78  1  0.43742356  0.41749108  0.59868263  1
  Ca2+  Ca79  1  0.74266116  0.90202281  0.58649624  1
  Ca2+  Ca80  1  0.08297768  0.90932111  0.58926130  1
  Ca2+  Ca81  1  0.58752025  0.41575993  0.06761008  1
  Ca2+  Ca82  1  0.25422843  0.90243727  0.75557806  1
  Ca2+  Ca83  1  0.24504165  0.91297281  0.41279360  1
  Ca2+  Ca84  1  0.41274427  0.40618495  0.24381113  1
  Ca2+  Ca85  1  0.24488050  0.39747825  0.75140278  1
  Ca2+  Ca86  1  0.03825779  0.42984856  0.61699089  1
  Ca2+  Ca87  1  0.74856234  0.41066357  0.59141579  1
  Ca2+  Ca88  1  0.76072088  0.91203244  0.25227771  1
  Ca2+  Ca89  1  0.42416057  0.40671521  0.24347765  1
  Ca2+  Ca90  1  0.92098597  0.91831654  0.40241903  1
  Ca2+  Ca91  1  0.58740856  0.42093526  0.75324267  1
  Ca2+  Ca92  1  0.74498033  0.90161108  0.92082241  1
  Ca2+  Ca93  1  0.59637571  0.41295338  0.07151994  1
  Ca2+  Ca94  1  0.76004096  0.41089880  0.59176340  1
  Ca2+  Ca95  1  0.44895700  0.42022181  0.59614843  1
  Ca2+  Ca96  1  0.91428635  0.41518376  0.40890407  1
  Ca2+  Ca97  1  0.25848646  0.90484615  0.08144754  1
  Ca2+  Ca98  1  0.24401808  0.41025907  0.41931008  1
  Ca2+  Ca99  1  0.25677781  0.41076028  0.41932348  1
  Ca2+  Ca100  1  0.08121019  0.38528977  0.90935134  1
  Ca2+  Ca101  1  0.24598227  0.90524484  0.08213069  1
  Ca2+  Ca102  1  0.07167090  0.90998555  0.58875071  1
  Ca2+  Ca103  1  0.07460908  0.40501887  0.25068934  1
  Ca2+  Ca104  1  0.43659004  0.41203838  0.91078521  1
  Ca2+  Ca105  1  0.57316731  0.90049422  0.41867805  1
  Ca2+  Ca106  1  0.06538149  0.40669756  0.24633561  1
  Ca2+  Ca107  1  0.77243384  0.91520635  0.25040285  1
  Mn3.34+  Mn108  1  0.08106765  0.32556464  0.08234730  1
  Mn3.34+  Mn109  1  0.08106627  0.33515736  0.42043389  1
  Mn3.34+  Mn110  1  0.07982800  0.33748353  0.75324798  1
  Mn3.34+  Mn111  1  0.08332215  0.83240079  0.08563285  1
  Mn3.34+  Mn112  1  0.08183918  0.83332452  0.41551293  1
  Mn3.34+  Mn113  1  0.08358877  0.83077313  0.75423519  1
  Mn3.34+  Mn114  1  0.41527340  0.33563065  0.07781931  1
  Mn3.34+  Mn115  1  0.42315208  0.33476008  0.41939556  1
  Mn3.34+  Mn116  1  0.42082322  0.34085370  0.75584735  1
  Mn3.34+  Mn117  1  0.42050876  0.83127555  0.08816208  1
  Mn3.34+  Mn118  1  0.41579668  0.83126460  0.41628055  1
  Mn3.34+  Mn119  1  0.41678005  0.83182859  0.75146456  1
  Mn3.34+  Mn120  1  0.75185498  0.33255331  0.08406609  1
  Mn3.34+  Mn121  1  0.74770828  0.33620198  0.41150942  1
  Mn3.34+  Mn122  1  0.75184574  0.33488326  0.75865119  1
  Mn3.34+  Mn123  1  0.74864175  0.83119584  0.08521104  1
  Mn3.34+  Mn124  1  0.75068769  0.83050283  0.42064831  1
  Mn3.34+  Mn125  1  0.75037920  0.83144991  0.75114655  1
  Mn3.34+  Mn126  1  0.24724194  0.33178286  0.24254819  1
  Mn3.34+  Mn127  1  0.25082290  0.33177742  0.58461384  1
  Mn3.34+  Mn128  1  0.25345614  0.32958948  0.91879803  1
  Mn3.34+  Mn129  1  0.24976931  0.83517104  0.25124475  1
  Mn3.34+  Mn130  1  0.25282517  0.83517714  0.58279296  1
  Mn3.34+  Mn131  1  0.25266324  0.82787295  0.91227080  1
  Mn3.34+  Mn132  1  0.59288243  0.33762200  0.24767872  1
  Mn3.34+  Mn133  1  0.58740518  0.33372734  0.58478087  1
  Mn3.34+  Mn134  1  0.58050598  0.33015085  0.91442736  1
  Mn3.34+  Mn135  1  0.58157593  0.82797540  0.24281361  1
  Mn3.34+  Mn136  1  0.58088622  0.83094596  0.58593545  1
  Mn3.34+  Mn137  1  0.57738189  0.83829226  0.91419002  1
  Mn3.34+  Mn138  1  0.90662671  0.33877664  0.24459948  1
  Mn3.34+  Mn139  1  0.91569389  0.33452345  0.58049057  1
  Mn3.34+  Mn140  1  0.91556498  0.32283812  0.91795271  1
  Mn3.34+  Mn141  1  0.92481734  0.83472053  0.24898417  1
  Mn3.34+  Mn142  1  0.91523209  0.83558687  0.58517624  1
  Mn3.34+  Mn143  1  0.91474357  0.83236894  0.91519630  1
  Mn3.34+  Mn144  1  0.08139545  0.16737757  0.08327188  1
  Mn3.34+  Mn145  1  0.42207412  0.67214057  0.08587815  1
  Mn3.34+  Mn146  1  0.92112383  0.65873699  0.57849219  1
  Mn3.34+  Mn147  1  0.74651552  0.17225414  0.75569953  1
  Mn3.34+  Mn148  1  0.91592998  0.66623268  0.91151074  1
  Mn3.34+  Mn149  1  0.91418343  0.16599576  0.57877651  1
  Mn3.34+  Mn150  1  0.42094579  0.16937978  0.74950917  1
  Mn3.34+  Mn151  1  0.58908633  0.17062087  0.24695961  1
  Mn3.34+  Mn152  1  0.08993258  0.66922421  0.41903184  1
  Mn3.34+  Mn153  1  0.92061217  0.66771854  0.25151340  1
  Mn3.34+  Mn154  1  0.58390679  0.67034770  0.24555763  1
  Mn3.34+  Mn155  1  0.23906409  0.16304990  0.24607629  1
  Mn3.34+  Mn156  1  0.74809230  0.16555264  0.40923572  1
  Mn3.34+  Mn157  1  0.25880575  0.16504012  0.58031791  1
  Mn3.34+  Mn158  1  0.25185751  0.67255726  0.91175993  1
  Mn3.34+  Mn159  1  0.08158851  0.16421506  0.42118091  1
  Mn3.34+  Mn160  1  0.74483830  0.16764068  0.08317662  1
  Mn3.34+  Mn161  1  0.08349905  0.17440891  0.75506713  1
  Mn3.34+  Mn162  1  0.57911629  0.16203169  0.58030444  1
  Mn3.34+  Mn163  1  0.74453099  0.67474161  0.08674477  1
  Mn3.34+  Mn164  1  0.90892775  0.66397038  0.58064697  1
  Mn3.34+  Mn165  1  0.41435740  0.66284699  0.74581745  1
  Mn3.34+  Mn166  1  0.57332284  0.65988363  0.91191408  1
  Mn3.34+  Mn167  1  0.08110628  0.66967481  0.08419666  1
  Mn3.34+  Mn168  1  0.08314792  0.16707589  0.74825707  1
  Mn3.34+  Mn169  1  0.08562579  0.66665796  0.75333635  1
  Mn3.34+  Mn170  1  0.59031195  0.16626464  0.58162264  1
  Mn3.34+  Mn171  1  0.75313326  0.66880064  0.08897035  1
  Mn3.34+  Mn172  1  0.90356878  0.16071717  0.57780423  1
  Mn3.34+  Mn173  1  0.41640706  0.16678497  0.41676893  1
  Mn3.34+  Mn174  1  0.24916281  0.17223119  0.25091541  1
  Mn3.34+  Mn175  1  0.09218072  0.15902391  0.42248371  1
  Mn3.34+  Mn176  1  0.58283028  0.66551698  0.91299059  1
  Mn3.34+  Mn177  1  0.75348568  0.66623165  0.74875583  1
  Mn3.34+  Mn178  1  0.58749390  0.66546427  0.58540399  1
  Mn3.34+  Mn179  1  0.74001849  0.66861670  0.42047891  1
  Mn3.34+  Mn180  1  0.74824073  0.00159311  0.75194674  1
  Mn3.34+  Mn181  1  0.57675926  0.50713524  0.24543831  1
  Mn3.34+  Mn182  1  0.73755382  -0.00279356  0.75226415  1
  Mn3.34+  Mn183  1  0.91334598  -0.00292547  0.92993414  1
  Mn3.34+  Mn184  1  0.72923996  0.49805496  0.40868699  1
  Mn3.34+  Mn185  1  0.90621943  0.00042171  0.58827576  1
  Mn3.34+  Mn186  1  0.91722167  0.49022817  0.90451754  1
  Mn3.34+  Mn187  1  0.43565645  0.49717424  0.41319459  1
  Mn3.34+  Mn188  1  0.74510577  0.00091870  0.07748012  1
  Mn3.34+  Mn189  1  0.09156189  0.50292910  0.42110634  1
  Mn3.34+  Mn190  1  0.92981901  0.49716596  0.90195567  1
  Mn3.34+  Mn191  1  0.25149876  -0.00567333  0.91559244  1
  Mn3.34+  Mn192  1  0.42166249  -0.00335440  0.75444939  1
  Mn3.34+  Mn193  1  0.25318549  0.00080766  0.25564429  1
  Mn3.34+  Mn194  1  0.24240665  0.50287779  0.90214032  1
  Mn3.34+  Mn195  1  0.42254261  -0.00621186  0.07346678  1
  Mn3.34+  Mn196  1  0.57694626  0.00033419  0.59338749  1
  Mn3.34+  Mn197  1  0.72030781  0.50384592  0.40660711  1
  Mn3.34+  Mn198  1  0.74467128  -0.00021537  0.42055814  1
  Mn3.34+  Mn199  1  0.08855949  0.49635232  0.08142900  1
  Mn3.34+  Mn200  1  0.57460286  -0.00743702  0.23379107  1
  Mn3.34+  Mn201  1  0.75371422  0.49971537  0.73609462  1
  Mn3.34+  Mn202  1  0.42625988  0.50663159  0.06844061  1
  Mn3.34+  Mn203  1  0.25254131  0.49762075  0.90283213  1
  Mn3.34+  Mn204  1  0.07963022  0.00113599  0.40707818  1
  Mn3.34+  Mn205  1  0.25313071  0.50190738  0.60541434  1
  Mn3.34+  Mn206  1  0.58776200  -0.00058681  0.23388592  1
  Mn3.34+  Mn207  1  0.26508430  0.00387698  0.59941232  1
  Mn3.34+  Mn208  1  0.75885358  0.49923000  0.08262877  1
  Mn3.34+  Mn209  1  0.24114564  0.49543895  0.60168363  1
  Mn3.34+  Mn210  1  0.08618867  -0.00031110  0.07626957  1
  Mn3.34+  Mn211  1  0.25220520  0.49536487  0.25117168  1
  Mn3.34+  Mn212  1  0.58598116  -0.00555263  0.93306411  1
  Mn3.34+  Mn213  1  0.07408380  0.50149910  0.08434357  1
  Mn3.34+  Mn214  1  0.07744530  -0.00428977  0.74809330  1
  Mn3.34+  Mn215  1  0.41819390  0.00299513  0.41873627  1
  O2-  O216  1  0.00086510  0.18420290  0.01094103  1
  O2-  O217  1  -0.00215014  0.14976341  0.34203094  1
  O2-  O218  1  -0.00336162  0.15638036  0.66877458  1
  O2-  O219  1  -0.00308926  0.65797904  0.00050830  1
  O2-  O220  1  0.00335904  0.65138681  0.33181152  1
  O2-  O221  1  -0.00057620  0.65237703  0.66401471  1
  O2-  O222  1  0.34519569  0.16704242  0.00378631  1
  O2-  O223  1  0.33301169  0.14680348  0.32748012  1
  O2-  O224  1  0.33044005  0.16165989  0.67145773  1
  O2-  O225  1  0.33082404  0.66878964  0.00443532  1
  O2-  O226  1  0.33593004  0.66016686  0.32953560  1
  O2-  O227  1  0.34330206  0.65923088  0.66263308  1
  O2-  O228  1  0.65878956  0.16015021  0.00973654  1
  O2-  O229  1  0.66482656  0.15138853  0.33275957  1
  O2-  O230  1  0.66338385  0.16148139  0.67296347  1
  O2-  O231  1  0.66860609  0.65565304  -0.00244421  1
  O2-  O232  1  0.67294108  0.66980688  0.32335481  1
  O2-  O233  1  0.67523361  0.66903350  0.66079139  1
  O2-  O234  1  0.17185004  0.16776520  0.01338020  1
  O2-  O235  1  0.15952092  0.14045332  0.32455778  1
  O2-  O236  1  0.16544016  0.15811244  0.66797061  1
  O2-  O237  1  0.17006295  0.65586801  0.00202528  1
  O2-  O238  1  0.16639453  0.65693504  0.34188262  1
  O2-  O239  1  0.16285307  0.66144573  0.67588484  1
  O2-  O240  1  0.49482055  0.16121960  0.00190702  1
  O2-  O241  1  0.50041318  0.15643097  0.33069278  1
  O2-  O242  1  0.49792659  0.17023153  0.66230405  1
  O2-  O243  1  0.49412786  0.66127522  -0.00281805  1
  O2-  O244  1  0.50187597  0.67242665  0.32183191  1
  O2-  O245  1  0.50904767  0.66580320  0.67162875  1
  O2-  O246  1  0.82047170  0.16746542  -0.00053754  1
  O2-  O247  1  0.83079610  0.16177696  0.33539432  1
  O2-  O248  1  0.83410073  0.15783088  0.67426440  1
  O2-  O249  1  0.83208764  0.65707501  -0.00073957  1
  O2-  O250  1  0.83695718  0.64763380  0.33985042  1
  O2-  O251  1  0.83589058  0.63818260  0.66520950  1
  O2-  O252  1  0.00228057  0.31179092  -0.00334105  1
  O2-  O253  1  0.00083360  0.34457575  0.33550927  1
  O2-  O254  1  0.00142589  0.33297742  0.66635603  1
  O2-  O255  1  -0.00192858  0.83595191  0.00197491  1
  O2-  O256  1  -0.00465690  0.84759011  0.34123301  1
  O2-  O257  1  -0.00011945  0.84857471  0.66974097  1
  O2-  O258  1  0.33943152  0.34924101  -0.00852003  1
  O2-  O259  1  0.33245890  0.35407528  0.33398247  1
  O2-  O260  1  0.34347949  0.34507251  0.66327081  1
  O2-  O261  1  0.32722007  0.81727015  0.00500866  1
  O2-  O262  1  0.33449174  0.85088061  0.33420264  1
  O2-  O263  1  0.33360170  0.84657395  0.66326982  1
  O2-  O264  1  0.66417084  0.34542783  -0.00389289  1
  O2-  O265  1  0.66566561  0.34140382  0.33379756  1
  O2-  O266  1  0.67076900  0.34292010  0.67125465  1
  O2-  O267  1  0.67067833  0.83140307  -0.00185314  1
  O2-  O268  1  0.67099445  0.84378510  0.32843703  1
  O2-  O269  1  0.66808839  0.82836207  0.66145696  1
  O2-  O270  1  0.16348626  0.32781021  -0.00245983  1
  O2-  O271  1  0.16316271  0.35831042  0.33064960  1
  O2-  O272  1  0.16524049  0.33502668  0.66875795  1
  O2-  O273  1  0.16899631  0.83835131  0.00016570  1
  O2-  O274  1  0.16832985  0.85047566  0.33694521  1
  O2-  O275  1  0.16679912  0.84984132  0.66362039  1
  O2-  O276  1  0.50374270  0.35267107  0.00254431  1
  O2-  O277  1  0.49804220  0.34991269  0.32998148  1
  O2-  O278  1  0.50426673  0.33488800  0.67320876  1
  O2-  O279  1  0.49505929  0.82087694  0.00259229  1
  O2-  O280  1  0.50982560  0.83651487  0.33977970  1
  O2-  O281  1  0.49724908  0.83250826  0.66375093  1
  O2-  O282  1  0.82718412  0.33065936  -0.00537914  1
  O2-  O283  1  0.83695761  0.34727005  0.33912244  1
  O2-  O284  1  0.82730383  0.33695510  0.66525800  1
  O2-  O285  1  0.83416108  0.81538267  0.00185377  1
  O2-  O286  1  0.83022602  0.84939165  0.33424138  1
  O2-  O287  1  0.82831131  0.84553161  0.66268328  1
  O2-  O288  1  0.00476563  0.17127465  0.16958081  1
  O2-  O289  1  0.00585122  0.18882960  0.50892913  1
  O2-  O290  1  -0.00422649  0.18714707  0.82706868  1
  O2-  O291  1  0.00238118  0.68065388  0.16839201  1
  O2-  O292  1  -0.00488765  0.68405074  0.49536764  1
  O2-  O293  1  -0.00313365  0.68874921  0.83723734  1
  O2-  O294  1  0.33523043  0.18089885  0.17434765  1
  O2-  O295  1  0.33665977  0.18166497  0.49831558  1
  O2-  O296  1  0.33546120  0.18308426  0.81897027  1
  O2-  O297  1  0.33512730  0.68124625  0.15927360  1
  O2-  O298  1  0.34150670  0.66835122  0.50724983  1
  O2-  O299  1  0.33771824  0.68430712  0.83754083  1
  O2-  O300  1  0.67558354  0.17730204  0.17831597  1
  O2-  O301  1  0.66383180  0.17738586  0.49335332  1
  O2-  O302  1  0.66862404  0.17989020  0.83283230  1
  O2-  O303  1  0.66488237  0.69214030  0.16621409  1
  O2-  O304  1  0.66211970  0.69211906  0.50341729  1
  O2-  O305  1  0.66893095  0.67457230  0.83521555  1
  O2-  O306  1  0.16243825  0.19232053  0.16977063  1
  O2-  O307  1  0.16752856  0.18131005  0.50474439  1
  O2-  O308  1  0.17364127  0.17769402  0.82573708  1
  O2-  O309  1  0.16654972  0.67223499  0.16119351  1
  O2-  O310  1  0.16565681  0.67475048  0.49747019  1
  O2-  O311  1  0.16190731  0.68692563  0.84155642  1
  O2-  O312  1  0.49948355  0.17544417  0.17591659  1
  O2-  O313  1  0.50376720  0.18571988  0.49483067  1
  O2-  O314  1  0.49907528  0.18541943  0.82340514  1
  O2-  O315  1  0.49752332  0.69037963  0.16740717  1
  O2-  O316  1  0.49937331  0.68517557  0.52270758  1
  O2-  O317  1  0.49316608  0.67748794  0.83326891  1
  O2-  O318  1  0.83162617  0.17593305  0.15783732  1
  O2-  O319  1  0.82947469  0.18263307  0.49213483  1
  O2-  O320  1  0.83540370  0.18784768  0.82444515  1
  O2-  O321  1  0.83784362  0.68744917  0.16734901  1
  O2-  O322  1  0.83017143  0.67798086  0.49977920  1
  O2-  O323  1  0.82623016  0.67974826  0.84171183  1
  O2-  O324  1  -0.00160473  0.32147603  0.16830383  1
  O2-  O325  1  -0.00064032  0.32430645  0.50228323  1
  O2-  O326  1  0.00472072  0.30914825  0.83476960  1
  O2-  O327  1  0.00172111  0.82294944  0.16461781  1
  O2-  O328  1  0.00785667  0.82277030  0.50865664  1
  O2-  O329  1  0.00326871  0.81776317  0.84098267  1
  O2-  O330  1  0.34016737  0.32239543  0.17172945  1
  O2-  O331  1  0.32994677  0.32538026  0.49423834  1
  O2-  O332  1  0.32833582  0.33027229  0.82324108  1
  O2-  O333  1  0.32859772  0.81912935  0.16356387  1
  O2-  O334  1  0.32939694  0.83370625  0.49343683  1
  O2-  O335  1  0.32774573  0.81560657  0.82663547  1
  O2-  O336  1  0.65337408  0.33219197  0.15128623  1
  O2-  O337  1  0.67383364  0.32936890  0.50888034  1
  O2-  O338  1  0.66776766  0.31643699  0.83560879  1
  O2-  O339  1  0.67035133  0.80754372  0.16985683  1
  O2-  O340  1  0.66090933  0.81946727  0.49577714  1
  O2-  O341  1  0.66744971  0.81931325  0.83159595  1
  O2-  O342  1  0.15276849  0.31839459  0.17815577  1
  O2-  O343  1  0.17445146  0.32229280  0.48943799  1
  O2-  O344  1  0.16409481  0.31455697  0.82979139  1
  O2-  O345  1  0.17005574  0.82503827  0.16197503  1
  O2-  O346  1  0.16661948  0.83385240  0.50142686  1
  O2-  O347  1  0.16577293  0.81289489  0.83607261  1
  O2-  O348  1  0.49521276  0.33377985  0.16936509  1
  O2-  O349  1  0.49654429  0.32389864  0.51141934  1
  O2-  O350  1  0.49248739  0.31662671  0.83839419  1
  O2-  O351  1  0.49528128  0.80625163  0.17210020  1
  O2-  O352  1  0.50054352  0.81979953  0.49930984  1
  O2-  O353  1  0.49867295  0.81951539  0.83077255  1
  O2-  O354  1  0.82710012  0.32198403  0.16653059  1
  O2-  O355  1  0.83194718  0.32105012  0.50069270  1
  O2-  O356  1  0.82936755  0.31120302  0.83786972  1
  O2-  O357  1  0.83231205  0.81714954  0.16940217  1
  O2-  O358  1  0.83252140  0.82799692  0.49974424  1
  O2-  O359  1  0.83298441  0.81696335  0.83709605  1
  O2-  O360  1  0.09059767  0.07805965  0.11326196  1
  O2-  O361  1  0.08039913  0.07888401  0.46088666  1
  O2-  O362  1  0.05430823  0.08029504  0.77485645  1
  O2-  O363  1  0.08234765  0.58300353  0.11243539  1
  O2-  O364  1  0.06926630  0.58350329  0.44685760  1
  O2-  O365  1  0.07199125  0.58681602  0.78155928  1
  O2-  O366  1  0.39087343  0.06984466  0.11506037  1
  O2-  O367  1  0.43538751  0.08320243  0.43132343  1
  O2-  O368  1  0.41814111  0.08021075  0.77825826  1
  O2-  O369  1  0.39600636  0.57763466  0.12555556  1
  O2-  O370  1  0.41606683  0.57637488  0.43817894  1
  O2-  O371  1  0.41442445  0.58309206  0.76290556  1
  O2-  O372  1  0.75177077  0.08078282  0.10113636  1
  O2-  O373  1  0.75214404  0.08145217  0.43288502  1
  O2-  O374  1  0.76239962  0.08204584  0.79046874  1
  O2-  O375  1  0.76503571  0.58133810  0.11844486  1
  O2-  O376  1  0.73386187  0.58164900  0.45632970  1
  O2-  O377  1  0.75068148  0.57548987  0.78180181  1
  O2-  O378  1  0.25449854  0.08244143  0.20980769  1
  O2-  O379  1  0.24183155  0.08291097  0.57162288  1
  O2-  O380  1  0.25380603  0.07720304  0.90191946  1
  O2-  O381  1  0.25749263  0.57595546  0.22498270  1
  O2-  O382  1  0.25053908  0.57247550  0.55477539  1
  O2-  O383  1  0.25307976  0.58514454  0.88569890  1
  O2-  O384  1  0.56898607  0.08171530  0.22548387  1
  O2-  O385  1  0.58160612  0.08016786  0.55127849  1
  O2-  O386  1  0.60395539  0.05779285  0.87590097  1
  O2-  O387  1  0.56215940  0.58570593  0.21947695  1
  O2-  O388  1  0.58324301  0.58942308  0.56321677  1
  O2-  O389  1  0.59174043  0.57937269  0.89499096  1
  O2-  O390  1  0.90763701  0.06524147  0.20327256  1
  O2-  O391  1  0.92053926  0.08167002  0.53850639  1
  O2-  O392  1  0.90004473  0.07697696  0.90691796  1
  O2-  O393  1  0.91465872  0.58499592  0.22978688  1
  O2-  O394  1  0.91545709  0.58062036  0.53635156  1
  O2-  O395  1  0.90656616  0.57732371  0.87342797  1
  O2-  O396  1  0.08339473  0.41571957  0.10743343  1
  O2-  O397  1  0.10361198  0.42473527  0.45812703  1
  O2-  O398  1  0.09309274  0.41620267  0.77316330  1
  O2-  O399  1  0.09375257  0.91720982  0.09343442  1
  O2-  O400  1  0.08598311  0.92270596  0.45187944  1
  O2-  O401  1  0.09578060  0.91472610  0.78233669  1
  O2-  O402  1  0.41713407  0.42748007  0.11264557  1
  O2-  O403  1  0.40523477  0.42107312  0.46473811  1
  O2-  O404  1  0.43878839  0.42139707  0.76563942  1
  O2-  O405  1  0.39605727  0.91644484  0.10206935  1
  O2-  O406  1  0.43767489  0.92183594  0.45039699  1
  O2-  O407  1  0.40408792  0.91587040  0.76671592  1
  O2-  O408  1  0.73582212  0.41821942  0.09340857  1
  O2-  O409  1  0.75596764  0.42280903  0.45552378  1
  O2-  O410  1  0.74199953  0.42598361  0.78320765  1
  O2-  O411  1  0.75429560  0.92078213  0.11588320  1
  O2-  O412  1  0.72479620  0.91796999  0.44773741  1
  O2-  O413  1  0.74936463  0.91609432  0.78248717  1
  O2-  O414  1  0.25588676  0.41619494  0.21744125  1
  O2-  O415  1  0.24771082  0.42198761  0.55528723  1
  O2-  O416  1  0.23241127  0.41532122  0.89018964  1
  O2-  O417  1  0.24969150  0.92053339  0.21316198  1
  O2-  O418  1  0.25997043  0.92646636  0.54962312  1
  O2-  O419  1  0.23704522  0.91517686  0.89670043  1
  O2-  O420  1  0.56995917  0.42691419  0.21180863  1
  O2-  O421  1  0.58374571  0.41558430  0.57943980  1
  O2-  O422  1  0.58612806  0.41340831  0.88821562  1
  O2-  O423  1  0.60627873  0.91381226  0.21470270  1
  O2-  O424  1  0.58191374  0.92119661  0.55122999  1
  O2-  O425  1  0.59428497  0.92322173  0.88965582  1
  O2-  O426  1  0.93888281  0.42125393  0.23390121  1
  O2-  O427  1  0.90202610  0.41593094  0.56054323  1
  O2-  O428  1  0.93591111  0.40991976  0.90007220  1
  O2-  O429  1  0.90455148  0.91604512  0.22044761  1
  O2-  O430  1  0.92501096  0.92222303  0.54392763  1
  O2-  O431  1  0.91704366  0.91870274  0.90255010  1
  O2-  O432  1  -0.00500154  -0.00276566  0.01329308  1
  O2-  O433  1  -0.00779185  0.01865280  0.33763649  1
  O2-  O434  1  0.01181129  -0.00334297  0.63980310  1
  O2-  O435  1  0.00193561  0.51129623  -0.00566187  1
  O2-  O436  1  -0.00395762  0.49580783  0.35884739  1
  O2-  O437  1  0.00137629  0.51851292  0.65067108  1
  O2-  O438  1  0.32580221  -0.00380180  0.01022801  1
  O2-  O439  1  0.32781181  -0.01306531  0.35203851  1
  O2-  O440  1  0.30420455  0.00781551  0.71571114  1
  O2-  O441  1  0.34400100  0.51217299  -0.01911884  1
  O2-  O442  1  0.31762964  0.48720331  0.35270925  1
  O2-  O443  1  0.33244819  0.47622920  0.66973866  1
  O2-  O444  1  0.69091488  -0.00518648  -0.02704119  1
  O2-  O445  1  0.66448748  -0.00605190  0.32768551  1
  O2-  O446  1  0.68027143  -0.00887802  0.64899856  1
  O2-  O447  1  0.68243821  0.50250296  -0.00877935  1
  O2-  O448  1  0.68157497  0.51164753  0.29559856  1
  O2-  O449  1  0.67525945  0.48985335  0.65709056  1
  O2-  O450  1  0.18254358  -0.00059020  0.01600629  1
  O2-  O451  1  0.17198947  -0.01131177  0.34361809  1
  O2-  O452  1  0.15737752  -0.01061215  0.64610123  1
  O2-  O453  1  0.16699118  0.50961767  -0.00515165  1
  O2-  O454  1  0.15208918  0.49161229  0.31516178  1
  O2-  O455  1  0.14190331  0.50082919  0.64241397  1
  O2-  O456  1  0.51985468  0.00502411  0.01490059  1
  O2-  O457  1  0.50059356  -0.00375989  0.32774485  1
  O2-  O458  1  0.47940925  -0.00540373  0.65243555  1
  O2-  O459  1  0.50816663  0.47948002  0.00326969  1
  O2-  O460  1  0.46431812  0.50299572  0.28622949  1
  O2-  O461  1  0.46713698  0.51119361  0.59802009  1
  O2-  O462  1  0.84217827  -0.00862858  0.02041108  1
  O2-  O463  1  0.82923485  -0.01447771  0.34461777  1
  O2-  O464  1  0.85001865  0.01295401  0.69229344  1
  O2-  O465  1  0.83780261  0.51366492  -0.00949578  1
  O2-  O466  1  0.83792763  0.50872325  0.36130920  1
  O2-  O467  1  0.83078001  0.50194014  0.66174863  1
  O2-  O468  1  0.74327422  0.25075780  0.39744451  1
  O2-  O469  1  0.58589446  0.74575659  0.92856357  1
  O2-  O470  1  0.25387088  0.24906215  0.60233226  1
  O2-  O471  1  0.40721968  0.75384892  0.40304192  1
  O2-  O472  1  0.07583141  0.75182628  0.72020240  1
  O2-  O473  1  0.42410097  0.25765422  0.06674287  1
  O2-  O474  1  0.41504511  0.75036035  0.72782757  1
  O2-  O475  1  0.26149807  0.25271825  0.92673643  1
  O2-  O476  1  0.08750609  0.74962329  0.06310541  1
  O2-  O477  1  0.91026248  0.24794329  0.60558632  1
  O2-  O478  1  0.07888320  0.75182550  0.39243485  1
  O2-  O479  1  0.25194047  0.75641747  0.59467768  1
  O2-  O480  1  0.91100666  0.25739306  0.26570562  1
  O2-  O481  1  0.24513948  0.75731893  0.27265660  1
  O2-  O482  1  0.58104740  0.25266868  0.26831041  1
  O2-  O483  1  0.59387994  0.24976869  0.59903142  1
  O2-  O484  1  0.57823686  0.25274789  0.93997728  1
  O2-  O485  1  0.41448316  0.25130978  0.38884006  1
  O2-  O486  1  0.24794054  0.25165153  0.28887614  1
  O2-  O487  1  0.91927155  0.75080499  0.27828327  1
  O2-  O488  1  0.90827492  0.74557035  0.60784719  1
  O2-  O489  1  0.76507912  0.74857025  0.72876535  1
  O2-  O490  1  0.76822667  0.75087983  0.39797406  1
  O2-  O491  1  0.73480920  0.25206196  0.07210185  1
  O2-  O492  1  0.09139549  0.24534183  0.38886555  1
