# generated using pymatgen
data_Ca108Mn108O277
_symmetry_space_group_name_H-M   'P 1'
_cell_length_a   16.02670284
_cell_length_b   22.30456890
_cell_length_c   16.38934975
_cell_angle_alpha   89.99976490
_cell_angle_beta   89.99974805
_cell_angle_gamma   90.00050267
_symmetry_Int_Tables_number   1
_chemical_formula_structural   Ca108Mn108O277
_chemical_formula_sum   'Ca108 Mn108 O277'
_cell_volume   5858.67951097
_cell_formula_units_Z   1
loop_
 _symmetry_equiv_pos_site_id
 _symmetry_equiv_pos_as_xyz
  1  'x, y, z'
loop_
 _atom_type_symbol
 _atom_type_oxidation_number
  Ca2+  2.0
  Mn3.34+  3.34
  O2-  -2.0
loop_
 _atom_site_type_symbol
 _atom_site_label
 _atom_site_symmetry_multiplicity
 _atom_site_fract_x
 _atom_site_fract_y
 _atom_site_fract_z
 _atom_site_occupancy
  Ca2+  Ca0  1  0.08114901  0.23971847  0.27036280  1
  Ca2+  Ca1  1  0.06601505  0.24674412  0.55806728  1
  Ca2+  Ca2  1  0.07198840  0.25944198  0.91935634  1
  Ca2+  Ca3  1  0.08740519  0.74963229  0.25125694  1
  Ca2+  Ca4  1  0.10017902  0.74288246  0.58167678  1
  Ca2+  Ca5  1  0.08691013  0.75344963  0.91791490  1
  Ca2+  Ca6  1  0.40255310  0.23898032  0.23456758  1
  Ca2+  Ca7  1  0.40611271  0.24850115  0.58520165  1
  Ca2+  Ca8  1  0.40254293  0.24496166  0.92955127  1
  Ca2+  Ca9  1  0.40571048  0.77267378  0.25221381  1
  Ca2+  Ca10  1  0.39574760  0.75398214  0.59768603  1
  Ca2+  Ca11  1  0.41120355  0.76121706  0.90740038  1
  Ca2+  Ca12  1  0.76269513  0.24659389  0.25609014  1
  Ca2+  Ca13  1  0.77156872  0.24156547  0.58683599  1
  Ca2+  Ca14  1  0.77251766  0.25036251  0.90914302  1
  Ca2+  Ca15  1  0.75634961  0.75342383  0.25580277  1
  Ca2+  Ca16  1  0.76281514  0.75481318  0.58385282  1
  Ca2+  Ca17  1  0.75210437  0.74873620  0.90709435  1
  Ca2+  Ca18  1  0.26798112  0.24074847  0.08473343  1
  Ca2+  Ca19  1  0.22639757  0.22594151  0.41240271  1
  Ca2+  Ca20  1  0.26386809  0.25273269  0.74808228  1
  Ca2+  Ca21  1  0.23726156  0.76529898  0.08231157  1
  Ca2+  Ca22  1  0.24483665  0.76496538  0.41696286  1
  Ca2+  Ca23  1  0.24818314  0.73372516  0.74858588  1
  Ca2+  Ca24  1  0.56540227  0.25498853  0.08451526  1
  Ca2+  Ca25  1  0.58206674  0.25233941  0.42085659  1
  Ca2+  Ca26  1  0.59352013  0.25136020  0.74595331  1
  Ca2+  Ca27  1  0.57766583  0.76259901  0.07566722  1
  Ca2+  Ca28  1  0.58966627  0.76689941  0.41285892  1
  Ca2+  Ca29  1  0.57738915  0.75679809  0.76324524  1
  Ca2+  Ca30  1  0.91549879  0.23461199  0.07469217  1
  Ca2+  Ca31  1  0.92210314  0.23960380  0.42534792  1
  Ca2+  Ca32  1  0.90500397  0.24032076  0.74430600  1
  Ca2+  Ca33  1  0.92908872  0.75400779  0.08307108  1
  Ca2+  Ca34  1  0.92279353  0.75692542  0.41490221  1
  Ca2+  Ca35  1  0.91980861  0.74451759  0.76150588  1
  Ca2+  Ca36  1  0.56024150  0.08216300  0.07994726  1
  Ca2+  Ca37  1  0.75649142  0.58260298  0.62164820  1
  Ca2+  Ca38  1  0.92548266  0.60595087  0.09202534  1
  Ca2+  Ca39  1  0.92944688  0.59246328  0.40113253  1
  Ca2+  Ca40  1  0.06843083  0.09476781  0.27243859  1
  Ca2+  Ca41  1  0.91661810  0.59555616  0.75852379  1
  Ca2+  Ca42  1  0.28469986  0.09739221  0.08675954  1
  Ca2+  Ca43  1  0.80465713  0.09559656  0.24412171  1
  Ca2+  Ca44  1  0.08453921  0.60834855  0.89550348  1
  Ca2+  Ca45  1  0.58283735  0.08128036  0.41236600  1
  Ca2+  Ca46  1  0.61219482  0.59584719  0.76435462  1
  Ca2+  Ca47  1  0.05871378  0.09285474  0.92105858  1
  Ca2+  Ca48  1  0.92157560  0.59041328  0.40856328  1
  Ca2+  Ca49  1  0.22348004  0.59026321  0.42796272  1
  Ca2+  Ca50  1  0.57080078  0.07925002  0.07783040  1
  Ca2+  Ca51  1  0.75796472  0.59720243  0.90092875  1
  Ca2+  Ca52  1  0.79527446  0.10131918  0.90962880  1
  Ca2+  Ca53  1  0.59807401  0.59428900  0.06075188  1
  Ca2+  Ca54  1  0.26677698  0.09113485  0.75026029  1
  Ca2+  Ca55  1  0.09369872  0.60562582  0.89878004  1
  Ca2+  Ca56  1  0.40598083  0.58945387  0.25165973  1
  Ca2+  Ca57  1  0.06355363  0.60595275  0.24570892  1
  Ca2+  Ca58  1  0.41239631  0.07923678  0.26193883  1
  Ca2+  Ca59  1  0.41881322  0.58911195  0.25217198  1
  Ca2+  Ca60  1  0.40214180  0.09261804  0.58557568  1
  Ca2+  Ca61  1  0.06097559  0.10817187  0.55804566  1
  Ca2+  Ca62  1  0.42097539  0.59234141  0.90638978  1
  Ca2+  Ca63  1  0.41413138  0.09072094  0.58820155  1
  Ca2+  Ca64  1  0.92736756  0.10532934  0.40822185  1
  Ca2+  Ca65  1  0.77586389  0.60292178  0.24923869  1
  Ca2+  Ca66  1  0.59980131  0.58975238  0.40190801  1
  Ca2+  Ca67  1  0.57206213  0.08136698  0.41299175  1
  Ca2+  Ca68  1  0.59963405  0.59529950  0.76289329  1
  Ca2+  Ca69  1  0.78393811  0.09791110  0.58569216  1
  Ca2+  Ca70  1  0.76371910  0.60184112  0.25197172  1
  Ca2+  Ca71  1  0.59146026  0.59240189  0.06981191  1
  Ca2+  Ca72  1  0.24698267  0.41279006  0.74455881  1
  Ca2+  Ca73  1  0.07557654  0.91211388  0.24952666  1
  Ca2+  Ca74  1  0.91648077  0.40169773  0.08315997  1
  Ca2+  Ca75  1  0.91709752  0.91239718  0.40734811  1
  Ca2+  Ca76  1  0.92409966  0.39883814  0.41977555  1
  Ca2+  Ca77  1  0.08657744  0.91142814  0.24929292  1
  Ca2+  Ca78  1  0.74933392  0.91908266  0.25060455  1
  Ca2+  Ca79  1  0.24885877  0.40540685  0.07850264  1
  Ca2+  Ca80  1  0.25339825  0.90549819  0.74235156  1
  Ca2+  Ca81  1  0.08868355  0.91010424  0.92433460  1
  Ca2+  Ca82  1  0.23106702  0.40575401  0.42243323  1
  Ca2+  Ca83  1  0.07972350  0.40487645  0.25873686  1
  Ca2+  Ca84  1  0.90685119  0.90093531  0.74644597  1
  Ca2+  Ca85  1  0.41327135  0.40068234  0.24765778  1
  Ca2+  Ca86  1  0.58996689  0.40201957  0.41422876  1
  Ca2+  Ca87  1  0.75329566  0.41092001  0.59493388  1
  Ca2+  Ca88  1  0.91858301  0.40426776  0.75231287  1
  Ca2+  Ca89  1  0.58695828  0.40902655  0.76058270  1
  Ca2+  Ca90  1  0.55830170  0.92598967  0.38200578  1
  Ca2+  Ca91  1  0.39407126  0.40885000  0.59038055  1
  Ca2+  Ca92  1  0.23755954  0.40571570  0.07931834  1
  Ca2+  Ca93  1  0.26551792  0.90399282  0.74499376  1
  Ca2+  Ca94  1  0.40535564  0.40511197  0.59379884  1
  Ca2+  Ca95  1  0.41138232  0.90467503  0.57991244  1
  Ca2+  Ca96  1  0.07735702  0.90912960  0.92530751  1
  Ca2+  Ca97  1  0.75614551  0.90638217  0.58056431  1
  Ca2+  Ca98  1  0.75811370  0.92165194  0.25478016  1
  Ca2+  Ca99  1  0.23657980  0.41312270  0.74305307  1
  Ca2+  Ca100  1  0.76421084  0.41110251  0.59771607  1
  Ca2+  Ca101  1  0.92905176  0.40263242  0.08404725  1
  Ca2+  Ca102  1  0.75377473  0.39791222  0.25190953  1
  Ca2+  Ca103  1  0.42600805  0.40036195  0.24694241  1
  Ca2+  Ca104  1  0.08444789  0.90056177  0.58014846  1
  Ca2+  Ca105  1  0.74940356  0.90332669  0.91927818  1
  Ca2+  Ca106  1  0.58292766  0.91434275  0.08193980  1
  Ca2+  Ca107  1  0.75152545  0.41059588  0.89872062  1
  Mn3.34+  Mn108  1  0.08376774  0.33114283  0.08226786  1
  Mn3.34+  Mn109  1  0.08243187  0.33050690  0.41686843  1
  Mn3.34+  Mn110  1  0.08018434  0.33706259  0.75123320  1
  Mn3.34+  Mn111  1  0.08136072  0.83486801  0.08672598  1
  Mn3.34+  Mn112  1  0.08522753  0.83598106  0.41817832  1
  Mn3.34+  Mn113  1  0.08198318  0.82768296  0.75067850  1
  Mn3.34+  Mn114  1  0.41907937  0.32914465  0.07707110  1
  Mn3.34+  Mn115  1  0.41400781  0.32562488  0.41893199  1
  Mn3.34+  Mn116  1  0.42198364  0.33251229  0.76252303  1
  Mn3.34+  Mn117  1  0.41334342  0.84045237  0.08237231  1
  Mn3.34+  Mn118  1  0.41539686  0.84085272  0.41686569  1
  Mn3.34+  Mn119  1  0.42387034  0.83398687  0.75263332  1
  Mn3.34+  Mn120  1  0.74571934  0.32524148  0.08106846  1
  Mn3.34+  Mn121  1  0.75010544  0.33086178  0.42083794  1
  Mn3.34+  Mn122  1  0.74938418  0.33317354  0.75403081  1
  Mn3.34+  Mn123  1  0.75254813  0.83258815  0.08631038  1
  Mn3.34+  Mn124  1  0.75000758  0.83372757  0.41951438  1
  Mn3.34+  Mn125  1  0.74107635  0.83752354  0.75089054  1
  Mn3.34+  Mn126  1  0.24761712  0.33020484  0.25216796  1
  Mn3.34+  Mn127  1  0.24098310  0.33187811  0.57885652  1
  Mn3.34+  Mn128  1  0.24608991  0.33220869  0.91250075  1
  Mn3.34+  Mn129  1  0.25371508  0.84104734  0.24941638  1
  Mn3.34+  Mn130  1  0.24986831  0.83169687  0.57864227  1
  Mn3.34+  Mn131  1  0.25545854  0.83529110  0.91847396  1
  Mn3.34+  Mn132  1  0.58703483  0.33096082  0.24838780  1
  Mn3.34+  Mn133  1  0.58168385  0.32976386  0.58363262  1
  Mn3.34+  Mn134  1  0.58552646  0.34161339  0.92054871  1
  Mn3.34+  Mn135  1  0.58327095  0.83938465  0.24326703  1
  Mn3.34+  Mn136  1  0.58314112  0.82861093  0.58262947  1
  Mn3.34+  Mn137  1  0.58104817  0.83623012  0.91779514  1
  Mn3.34+  Mn138  1  0.91783867  0.32615916  0.24831224  1
  Mn3.34+  Mn139  1  0.92273870  0.33050994  0.58411449  1
  Mn3.34+  Mn140  1  0.91900834  0.33296178  0.91250139  1
  Mn3.34+  Mn141  1  0.91388211  0.83700299  0.24176908  1
  Mn3.34+  Mn142  1  0.91817421  0.83539413  0.58051267  1
  Mn3.34+  Mn143  1  0.91363400  0.83067559  0.91667356  1
  Mn3.34+  Mn144  1  0.41936513  0.67418381  0.42185083  1
  Mn3.34+  Mn145  1  0.41148129  0.16615396  0.41825764  1
  Mn3.34+  Mn146  1  0.25109287  0.15944081  0.25277158  1
  Mn3.34+  Mn147  1  0.41227371  0.67315386  0.07951575  1
  Mn3.34+  Mn148  1  0.57768297  0.16298739  0.91136398  1
  Mn3.34+  Mn149  1  0.58019085  0.16699013  0.24687860  1
  Mn3.34+  Mn150  1  0.08764977  0.67024358  0.41628873  1
  Mn3.34+  Mn151  1  0.93218163  0.66242609  0.58780151  1
  Mn3.34+  Mn152  1  0.08689618  0.66902272  0.08522642  1
  Mn3.34+  Mn153  1  0.24503485  0.66899935  0.24942237  1
  Mn3.34+  Mn154  1  0.75231537  0.16385132  0.08622666  1
  Mn3.34+  Mn155  1  0.91644499  0.66934370  0.91722400  1
  Mn3.34+  Mn156  1  0.59442279  0.16156675  0.24360589  1
  Mn3.34+  Mn157  1  0.58192541  0.67782707  0.24596282  1
  Mn3.34+  Mn158  1  0.25250175  0.16509355  0.91573209  1
  Mn3.34+  Mn159  1  0.39866003  0.66728564  0.08113122  1
  Mn3.34+  Mn160  1  0.75081723  0.66922698  0.42351943  1
  Mn3.34+  Mn161  1  0.92151654  0.66701361  0.58795468  1
  Mn3.34+  Mn162  1  0.08197894  0.17751544  0.74963482  1
  Mn3.34+  Mn163  1  0.24525043  0.16837199  0.58144384  1
  Mn3.34+  Mn164  1  0.58459352  0.67291968  0.91224293  1
  Mn3.34+  Mn165  1  0.08873399  0.16463291  0.08747943  1
  Mn3.34+  Mn166  1  0.75015655  0.16787439  0.41982297  1
  Mn3.34+  Mn167  1  0.75355139  0.16597588  0.74879154  1
  Mn3.34+  Mn168  1  0.08944827  0.17094986  0.75164505  1
  Mn3.34+  Mn169  1  0.58447990  0.16984032  0.58253459  1
  Mn3.34+  Mn170  1  0.41960167  0.16945550  0.75379800  1
  Mn3.34+  Mn171  1  0.58957427  0.68023216  0.58665507  1
  Mn3.34+  Mn172  1  0.59010818  0.16802971  0.91182644  1
  Mn3.34+  Mn173  1  0.07811397  0.16044767  0.08841667  1
  Mn3.34+  Mn174  1  0.75399569  0.67873238  0.08242398  1
  Mn3.34+  Mn175  1  0.40727914  0.66704749  0.42560031  1
  Mn3.34+  Mn176  1  0.24476020  0.65593567  0.59069909  1
  Mn3.34+  Mn177  1  0.41140778  0.66382509  0.74958019  1
  Mn3.34+  Mn178  1  0.58083031  0.67403623  0.58513539  1
  Mn3.34+  Mn179  1  0.24996148  0.66824785  0.91450265  1
  Mn3.34+  Mn180  1  0.91811620  0.49951735  0.24855912  1
  Mn3.34+  Mn181  1  0.08162937  0.49846016  0.72641840  1
  Mn3.34+  Mn182  1  0.58174218  0.50682115  0.57715650  1
  Mn3.34+  Mn183  1  0.75042806  0.50288870  0.41953662  1
  Mn3.34+  Mn184  1  0.59099753  -0.00090270  0.59043417  1
  Mn3.34+  Mn185  1  0.41722401  0.50407735  0.42337975  1
  Mn3.34+  Mn186  1  0.92476364  0.49876424  0.91934963  1
  Mn3.34+  Mn187  1  0.08062475  0.50324329  0.08041577  1
  Mn3.34+  Mn188  1  0.08221950  0.49953334  0.42446838  1
  Mn3.34+  Mn189  1  0.75806915  0.49966645  0.07818942  1
  Mn3.34+  Mn190  1  0.07990850  0.00711324  0.75142708  1
  Mn3.34+  Mn191  1  0.08148641  -0.00266067  0.40385360  1
  Mn3.34+  Mn192  1  0.75976939  0.00347270  0.07262521  1
  Mn3.34+  Mn193  1  0.57055441  0.50221148  0.57589388  1
  Mn3.34+  Mn194  1  0.75316895  0.00315814  0.41154782  1
  Mn3.34+  Mn195  1  0.40508433  0.49979833  0.42225465  1
  Mn3.34+  Mn196  1  0.41947563  0.49806312  0.06747401  1
  Mn3.34+  Mn197  1  0.25636542  -0.00152351  0.26833521  1
  Mn3.34+  Mn198  1  0.58218417  -0.00413231  0.91872651  1
  Mn3.34+  Mn199  1  0.91677456  -0.00115516  0.58257810  1
  Mn3.34+  Mn200  1  0.59256593  0.49925938  0.24207783  1
  Mn3.34+  Mn201  1  0.58133099  -0.00646652  0.58827286  1
  Mn3.34+  Mn202  1  0.23430579  0.50546866  0.24967180  1
  Mn3.34+  Mn203  1  0.40777565  -0.00964281  0.07585453  1
  Mn3.34+  Mn204  1  0.25537008  0.00276781  0.92275410  1
  Mn3.34+  Mn205  1  0.24694030  0.00034284  0.58094049  1
  Mn3.34+  Mn206  1  0.43120839  0.49356408  0.06533502  1
  Mn3.34+  Mn207  1  0.75688165  0.00397342  0.74941920  1
  Mn3.34+  Mn208  1  0.42353734  0.00230618  0.75351495  1
  Mn3.34+  Mn209  1  0.74409545  0.49291908  0.07867775  1
  Mn3.34+  Mn210  1  0.23977535  0.49935003  0.91606197  1
  Mn3.34+  Mn211  1  0.08202944  0.00061271  0.07685137  1
  Mn3.34+  Mn212  1  0.91231685  -0.00353088  0.92031575  1
  Mn3.34+  Mn213  1  0.93012275  0.49661360  0.58611374  1
  Mn3.34+  Mn214  1  0.41281253  0.49851934  0.75081158  1
  Mn3.34+  Mn215  1  0.06866679  0.00249793  0.75291895  1
  O2-  O216  1  0.00059289  0.15887433  0.00684760  1
  O2-  O217  1  -0.01091427  0.17534150  0.32886284  1
  O2-  O218  1  0.01137962  0.17454279  0.66303784  1
  O2-  O219  1  0.00620022  0.65167605  -0.00241234  1
  O2-  O220  1  -0.00241670  0.66446846  0.34025792  1
  O2-  O221  1  0.00115615  0.67210271  0.67563410  1
  O2-  O222  1  0.32968966  0.16108345  -0.00764493  1
  O2-  O223  1  0.33576666  0.15251776  0.33352381  1
  O2-  O224  1  0.33602922  0.15676517  0.66557508  1
  O2-  O225  1  0.33559310  0.64667459  -0.00743927  1
  O2-  O226  1  0.32923914  0.64610100  0.33759477  1
  O2-  O227  1  0.33396979  0.66403783  0.66713875  1
  O2-  O228  1  0.66278344  0.15882939  0.00258082  1
  O2-  O229  1  0.66699917  0.14586841  0.33051139  1
  O2-  O230  1  0.66738799  0.17481955  0.65993805  1
  O2-  O231  1  0.67200418  0.66554688  -0.00322166  1
  O2-  O232  1  0.67128988  0.65852190  0.32630335  1
  O2-  O233  1  0.67087426  0.66672641  0.66746648  1
  O2-  O234  1  0.16270539  0.14526047  0.00130516  1
  O2-  O235  1  0.16293732  0.16013296  0.32192997  1
  O2-  O236  1  0.17308214  0.15335809  0.67625812  1
  O2-  O237  1  0.16467059  0.65708272  -0.00429960  1
  O2-  O238  1  0.16178300  0.64926372  0.32835613  1
  O2-  O239  1  0.16562412  0.67098225  0.66213776  1
  O2-  O240  1  0.50802532  0.16443049  0.00127989  1
  O2-  O241  1  0.50418872  0.14790018  0.33414807  1
  O2-  O242  1  0.49483718  0.16139979  0.65879700  1
  O2-  O243  1  0.50109058  0.65130176  0.00170515  1
  O2-  O244  1  0.49740937  0.65095019  0.33355811  1
  O2-  O245  1  0.50877048  0.65897354  0.67405407  1
  O2-  O246  1  0.82032431  0.17588742  0.00318845  1
  O2-  O247  1  0.82807438  0.16649415  0.33907386  1
  O2-  O248  1  0.83155935  0.16137998  0.67259397  1
  O2-  O249  1  0.83671731  0.65941861  0.00520008  1
  O2-  O250  1  0.83700883  0.65439588  0.34278783  1
  O2-  O251  1  0.83938936  0.65724329  0.66795918  1
  O2-  O252  1  -0.00255875  0.34527004  0.00095159  1
  O2-  O253  1  0.00075794  0.33689818  0.32888077  1
  O2-  O254  1  -0.00185539  0.33417986  0.67039349  1
  O2-  O255  1  0.00101698  0.84602926  -0.00176936  1
  O2-  O256  1  -0.00416996  0.84191190  0.32979005  1
  O2-  O257  1  -0.00013845  0.83887635  0.66750204  1
  O2-  O258  1  0.32882644  0.34774736  0.00354666  1
  O2-  O259  1  0.33174574  0.35469499  0.33616207  1
  O2-  O260  1  0.32832699  0.34614338  0.67320848  1
  O2-  O261  1  0.33632294  0.84158316  -0.00323960  1
  O2-  O262  1  0.33197840  0.84304211  0.33416795  1
  O2-  O263  1  0.33404736  0.84281995  0.66372307  1
  O2-  O264  1  0.66631849  0.30568115  -0.00230900  1
  O2-  O265  1  0.66890814  0.34694931  0.33474539  1
  O2-  O266  1  0.66438017  0.34361067  0.66666960  1
  O2-  O267  1  0.66656477  0.83409142  0.00685308  1
  O2-  O268  1  0.66886886  0.84004500  0.33101920  1
  O2-  O269  1  0.66576432  0.80507606  0.66739446  1
  O2-  O270  1  0.16455856  0.34816243  -0.00177903  1
  O2-  O271  1  0.16390642  0.34422874  0.33048959  1
  O2-  O272  1  0.16903576  0.34147314  0.67147569  1
  O2-  O273  1  0.16339936  0.84604591  -0.00199316  1
  O2-  O274  1  0.15945913  0.84871079  0.32932181  1
  O2-  O275  1  0.16804214  0.84041505  0.67198283  1
  O2-  O276  1  0.50053104  0.32346697  -0.00494823  1
  O2-  O277  1  0.49850542  0.34746996  0.33768141  1
  O2-  O278  1  0.49525267  0.34681155  0.66252624  1
  O2-  O279  1  0.50637523  0.84773248  0.00663548  1
  O2-  O280  1  0.50641705  0.83251562  0.33267934  1
  O2-  O281  1  0.49704974  0.83079532  0.66000254  1
  O2-  O282  1  0.83016904  0.34800188  -0.00197851  1
  O2-  O283  1  0.83523103  0.33894446  0.33420406  1
  O2-  O284  1  0.83501157  0.34508725  0.66736882  1
  O2-  O285  1  0.82520831  0.82987429  -0.00602121  1
  O2-  O286  1  0.83160114  0.84096767  0.32676349  1
  O2-  O287  1  0.82508775  0.84084260  0.66312005  1
  O2-  O288  1  0.00712645  0.18510696  0.16982357  1
  O2-  O289  1  -0.00555611  0.17458354  0.49134900  1
  O2-  O290  1  0.00509978  0.18977777  0.82929811  1
  O2-  O291  1  0.00313527  0.68210104  0.16032652  1
  O2-  O292  1  0.00320026  0.68147726  0.49967062  1
  O2-  O293  1  0.00102764  0.67558022  0.84049239  1
  O2-  O294  1  0.33135217  0.16858480  0.17259635  1
  O2-  O295  1  0.33385043  0.17899572  0.50494734  1
  O2-  O296  1  0.32881597  0.17998077  0.82726067  1
  O2-  O297  1  0.33997644  0.68294653  0.18129633  1
  O2-  O298  1  0.33142833  0.68014913  0.50584249  1
  O2-  O299  1  0.33753985  0.67392933  0.83891607  1
  O2-  O300  1  0.66233191  0.19069340  0.15851152  1
  O2-  O301  1  0.65634448  0.18099535  0.49283733  1
  O2-  O302  1  0.66566711  0.18861848  0.83413618  1
  O2-  O303  1  0.66239827  0.68222494  0.15521702  1
  O2-  O304  1  0.66669760  0.69249926  0.50113318  1
  O2-  O305  1  0.66227786  0.68337768  0.83189731  1
  O2-  O306  1  0.17380806  0.17668942  0.15966353  1
  O2-  O307  1  0.15968540  0.17538229  0.51430058  1
  O2-  O308  1  0.16537333  0.18860737  0.83425498  1
  O2-  O309  1  0.16529401  0.68241841  0.16860885  1
  O2-  O310  1  0.17358305  0.67913934  0.49072993  1
  O2-  O311  1  0.16473987  0.68354898  0.84104116  1
  O2-  O312  1  0.50256311  0.17479610  0.16600246  1
  O2-  O313  1  0.49737665  0.18557758  0.50194635  1
  O2-  O314  1  0.50040460  0.19237557  0.83637880  1
  O2-  O315  1  0.49230336  0.67747502  0.16385548  1
  O2-  O316  1  0.50374400  0.68951966  0.50183305  1
  O2-  O317  1  0.50159962  0.67476075  0.83375104  1
  O2-  O318  1  0.82390623  0.18405990  0.16387745  1
  O2-  O319  1  0.82623285  0.17419840  0.49748009  1
  O2-  O320  1  0.82667114  0.17832483  0.82985883  1
  O2-  O321  1  0.82411602  0.68156841  0.17227487  1
  O2-  O322  1  0.84554040  0.67327858  0.50155995  1
  O2-  O323  1  0.83656305  0.67840660  0.83956441  1
  O2-  O324  1  -0.00059289  0.31946849  0.16419974  1
  O2-  O325  1  -0.00724274  0.32401738  0.49129185  1
  O2-  O326  1  -0.00377645  0.31959492  0.82778052  1
  O2-  O327  1  0.00215751  0.81632437  0.17350841  1
  O2-  O328  1  -0.00003105  0.82291713  0.49747820  1
  O2-  O329  1  0.00205790  0.81649525  0.83319128  1
  O2-  O330  1  0.33330845  0.32813989  0.16839750  1
  O2-  O331  1  0.33987727  0.32357096  0.51029052  1
  O2-  O332  1  0.33005682  0.32178783  0.83165097  1
  O2-  O333  1  0.32799186  0.82229531  0.16157875  1
  O2-  O334  1  0.33639248  0.82604381  0.50344683  1
  O2-  O335  1  0.32490148  0.82589832  0.82288035  1
  O2-  O336  1  0.67384491  0.31570814  0.17237254  1
  O2-  O337  1  0.66430676  0.31975805  0.50311434  1
  O2-  O338  1  0.66894666  0.31914208  0.83501670  1
  O2-  O339  1  0.66980976  0.80816096  0.16986351  1
  O2-  O340  1  0.67220818  0.81559246  0.50564710  1
  O2-  O341  1  0.66983802  0.81594219  0.83848267  1
  O2-  O342  1  0.17109214  0.33313118  0.16087792  1
  O2-  O343  1  0.17068186  0.31968711  0.49208608  1
  O2-  O344  1  0.16728365  0.31503205  0.82657463  1
  O2-  O345  1  0.15822548  0.82466840  0.17373463  1
  O2-  O346  1  0.16155361  0.82316684  0.50645441  1
  O2-  O347  1  0.16441050  0.82219698  0.83335725  1
  O2-  O348  1  0.49242171  0.32081591  0.17461076  1
  O2-  O349  1  0.50010791  0.31381145  0.50293310  1
  O2-  O350  1  0.51152847  0.31869639  0.83022075  1
  O2-  O351  1  0.50276523  0.81681925  0.16724012  1
  O2-  O352  1  0.50070094  0.81085890  0.50126187  1
  O2-  O353  1  0.50049798  0.82467026  0.83585212  1
  O2-  O354  1  0.83911291  0.31178098  0.16224846  1
  O2-  O355  1  0.82697687  0.32779283  0.50785756  1
  O2-  O356  1  0.83364580  0.32584618  0.83210161  1
  O2-  O357  1  0.83489903  0.80807743  0.16578359  1
  O2-  O358  1  0.83506906  0.82522702  0.49708598  1
  O2-  O359  1  0.83533816  0.81645453  0.82744457  1
  O2-  O360  1  0.08268085  0.07992446  0.12444236  1
  O2-  O361  1  0.06783884  0.07126617  0.43123675  1
  O2-  O362  1  0.08627530  0.08714213  0.78446575  1
  O2-  O363  1  0.07550319  0.58319464  0.11198943  1
  O2-  O364  1  0.07146962  0.58380343  0.43899047  1
  O2-  O365  1  0.06104818  0.56617556  0.78058267  1
  O2-  O366  1  0.42988742  0.06384293  0.12380528  1
  O2-  O367  1  0.43467605  0.08546882  0.45662459  1
  O2-  O368  1  0.41472159  0.08483249  0.76702397  1
  O2-  O369  1  0.41426267  0.57808923  0.11868232  1
  O2-  O370  1  0.42965865  0.58400595  0.45003649  1
  O2-  O371  1  0.43878075  0.57863947  0.77374428  1
  O2-  O372  1  0.73819623  0.08301236  0.11606664  1
  O2-  O373  1  0.73455419  0.08087340  0.44967180  1
  O2-  O374  1  0.74309748  0.08323293  0.77812397  1
  O2-  O375  1  0.74282939  0.57966320  0.12153535  1
  O2-  O376  1  0.74414028  0.58569631  0.45651085  1
  O2-  O377  1  0.73768562  0.57143197  0.77305177  1
  O2-  O378  1  0.25390636  0.07294619  0.22260259  1
  O2-  O379  1  0.26438744  0.08238832  0.56221164  1
  O2-  O380  1  0.23766061  0.08154027  0.88306198  1
  O2-  O381  1  0.26996022  0.58530930  0.22109337  1
  O2-  O382  1  0.24853534  0.58090213  0.55878865  1
  O2-  O383  1  0.22799624  0.58161863  0.88996862  1
  O2-  O384  1  0.58642643  0.08009461  0.21343359  1
  O2-  O385  1  0.57599017  0.07918495  0.55250544  1
  O2-  O386  1  0.58452909  0.07755643  0.89702831  1
  O2-  O387  1  0.56976647  0.58023228  0.20312814  1
  O2-  O388  1  0.58760566  0.58726514  0.54369445  1
  O2-  O389  1  0.59474802  0.58945777  0.89506871  1
  O2-  O390  1  0.93439509  0.08077242  0.26556010  1
  O2-  O391  1  0.91772421  0.07191767  0.54290659  1
  O2-  O392  1  0.92624736  0.06957845  0.88026866  1
  O2-  O393  1  0.90956380  0.58149453  0.22337210  1
  O2-  O394  1  0.92463303  0.57816417  0.54632026  1
  O2-  O395  1  0.92041902  0.58191048  0.89533226  1
  O2-  O396  1  0.06903510  0.42284976  0.11919881  1
  O2-  O397  1  0.07764129  0.41690410  0.42841510  1
  O2-  O398  1  0.09379216  0.42558381  0.77845225  1
  O2-  O399  1  0.07298258  0.91838488  0.11525589  1
  O2-  O400  1  0.07818202  0.92141242  0.44727755  1
  O2-  O401  1  0.07935649  0.92041779  0.78460449  1
  O2-  O402  1  0.41346849  0.41666942  0.11326110  1
  O2-  O403  1  0.42746747  0.41852227  0.45327380  1
  O2-  O404  1  0.42630626  0.41748341  0.77932733  1
  O2-  O405  1  0.43277080  0.91932166  0.11760479  1
  O2-  O406  1  0.43503216  0.91672673  0.44820506  1
  O2-  O407  1  0.40233366  0.91931591  0.76471844  1
  O2-  O408  1  0.77185934  0.41542088  0.11585655  1
  O2-  O409  1  0.74460868  0.41873669  0.45099409  1
  O2-  O410  1  0.74739277  0.41601303  0.76062957  1
  O2-  O411  1  0.75184468  0.92192707  0.11584749  1
  O2-  O412  1  0.75902957  0.92104113  0.43856811  1
  O2-  O413  1  0.76518912  0.92356352  0.78188131  1
  O2-  O414  1  0.25935847  0.42373337  0.21315585  1
  O2-  O415  1  0.26110924  0.41484169  0.55452242  1
  O2-  O416  1  0.24683216  0.41852186  0.88180939  1
  O2-  O417  1  0.22988950  0.92580139  0.22444662  1
  O2-  O418  1  0.24438596  0.91750929  0.57862337  1
  O2-  O419  1  0.23518490  0.92301947  0.87545427  1
  O2-  O420  1  0.56820910  0.41600290  0.23294439  1
  O2-  O421  1  0.57576524  0.42007747  0.54933039  1
  O2-  O422  1  0.60592641  0.41983497  0.89535189  1
  O2-  O423  1  0.61756989  0.92131874  0.22195084  1
  O2-  O424  1  0.59873067  0.91527870  0.55266185  1
  O2-  O425  1  0.60773118  0.91681926  0.90155749  1
  O2-  O426  1  0.91236339  0.41750215  0.21822886  1
  O2-  O427  1  0.90993499  0.41683117  0.55761170  1
  O2-  O428  1  0.90950155  0.41957461  0.88827147  1
  O2-  O429  1  0.90292574  0.91502643  0.22764594  1
  O2-  O430  1  0.91567744  0.91938871  0.55245038  1
  O2-  O431  1  0.92578454  0.91590784  0.88387905  1
  O2-  O432  1  0.01092147  -0.00577554  -0.02511393  1
  O2-  O433  1  0.00028502  -0.02080227  0.33369989  1
  O2-  O434  1  0.00379417  -0.00975378  0.65809130  1
  O2-  O435  1  -0.02718166  0.49526603  0.03128391  1
  O2-  O436  1  -0.00663489  0.50784672  0.34230088  1
  O2-  O437  1  -0.03009281  0.49400368  0.69818954  1
  O2-  O438  1  0.32075251  0.01413865  0.01670208  1
  O2-  O439  1  0.34706298  0.00041090  0.31809751  1
  O2-  O440  1  0.32741820  0.00344570  0.67384809  1
  O2-  O441  1  0.33917379  0.49688677  -0.01648605  1
  O2-  O442  1  0.34468516  0.49848101  0.31947803  1
  O2-  O443  1  0.33781822  0.47349355  0.67066603  1
  O2-  O444  1  0.65050678  0.00479215  0.02421808  1
  O2-  O445  1  0.65997843  -0.00047624  0.35764183  1
  O2-  O446  1  0.67731701  -0.00454694  0.66255356  1
  O2-  O447  1  0.66450641  0.52014818  0.00535192  1
  O2-  O448  1  0.66498143  0.51310112  0.33494244  1
  O2-  O449  1  0.66964905  0.49864989  0.65164239  1
  O2-  O450  1  0.15755697  -0.01025997  -0.01951031  1
  O2-  O451  1  0.14999883  0.00090049  0.31110841  1
  O2-  O452  1  0.17052701  -0.00117427  0.67744342  1
  O2-  O453  1  0.17799931  0.48638818  0.02016573  1
  O2-  O454  1  0.17795398  0.50022032  0.35631010  1
  O2-  O455  1  0.18264632  0.49624060  0.68965017  1
  O2-  O456  1  0.50369261  -0.00071507  0.01422440  1
  O2-  O457  1  0.51094262  0.01430764  0.35138569  1
  O2-  O458  1  0.47841955  0.00417785  0.64063569  1
  O2-  O459  1  0.50615014  0.53133761  -0.00278394  1
  O2-  O460  1  0.49535756  0.51436004  0.32910644  1
  O2-  O461  1  0.50451197  0.49295940  0.67232090  1
  O2-  O462  1  0.80589800  -0.00260487  -0.03963351  1
  O2-  O463  1  0.81795657  -0.00335188  0.31763291  1
  O2-  O464  1  0.83180617  -0.00550694  0.65620745  1
  O2-  O465  1  0.81895902  0.49660185  -0.02321000  1
  O2-  O466  1  0.83165711  0.51836619  0.33109017  1
  O2-  O467  1  0.82002672  0.49738633  0.62154913  1
  O2-  O468  1  0.25213993  0.24766337  0.26738916  1
  O2-  O469  1  0.75396388  0.25235974  0.72900783  1
  O2-  O470  1  0.08694673  0.75190364  0.05799643  1
  O2-  O471  1  0.25093536  0.75198045  0.59789665  1
  O2-  O472  1  0.91788543  0.25634092  0.93698235  1
  O2-  O473  1  0.40971277  0.25084487  0.07303749  1
  O2-  O474  1  0.90988373  0.75227914  0.59656839  1
  O2-  O475  1  0.40322653  0.75244774  0.39029685  1
  O2-  O476  1  0.41460271  0.74929809  0.73948535  1
  O2-  O477  1  0.25238919  0.24992405  0.60763107  1
  O2-  O478  1  0.09382656  0.24664420  0.05705856  1
  O2-  O479  1  0.08350069  0.25177784  0.40655855  1
  O2-  O480  1  0.58436033  0.24676570  0.28100712  1
  O2-  O481  1  0.41483748  0.25228848  0.72607839  1
  O2-  O482  1  0.41724419  0.75415234  0.05663271  1
  O2-  O483  1  0.76140806  0.75046996  0.39552167  1
  O2-  O484  1  0.41643737  0.24710300  0.38253133  1
  O2-  O485  1  0.08767232  0.75221541  0.39425345  1
  O2-  O486  1  0.24586372  0.75066505  0.27681044  1
  O2-  O487  1  0.92728203  0.74957594  0.94245776  1
  O2-  O488  1  0.56719287  0.75247979  0.93832324  1
  O2-  O489  1  0.91518207  0.25269796  0.59208118  1
  O2-  O490  1  0.25054468  0.25059607  0.94348678  1
  O2-  O491  1  0.25616765  0.74991574  0.94123505  1
  O2-  O492  1  0.73888307  0.25037018  0.39467271  1
