# generated using pymatgen
data_Ca108Mn108O277
_symmetry_space_group_name_H-M   'P 1'
_cell_length_a   16.01658232
_cell_length_b   22.29382349
_cell_length_c   16.38078533
_cell_angle_alpha   89.99847165
_cell_angle_beta   90.00069783
_cell_angle_gamma   90.00407325
_symmetry_Int_Tables_number   1
_chemical_formula_structural   Ca108Mn108O277
_chemical_formula_sum   'Ca108 Mn108 O277'
_cell_volume   5849.10107406
_cell_formula_units_Z   1
loop_
 _symmetry_equiv_pos_site_id
 _symmetry_equiv_pos_as_xyz
  1  'x, y, z'
loop_
 _atom_type_symbol
 _atom_type_oxidation_number
  Ca2+  2.0
  Mn3.34+  3.34
  O2-  -2.0
loop_
 _atom_site_type_symbol
 _atom_site_label
 _atom_site_symmetry_multiplicity
 _atom_site_fract_x
 _atom_site_fract_y
 _atom_site_fract_z
 _atom_site_occupancy
  Ca2+  Ca0  1  0.07222210  0.24825486  0.25654345  1
  Ca2+  Ca1  1  0.06863687  0.25168310  0.57740776  1
  Ca2+  Ca2  1  0.07109044  0.25660825  0.91923974  1
  Ca2+  Ca3  1  0.07921597  0.74566925  0.26082692  1
  Ca2+  Ca4  1  0.08710086  0.74178878  0.59282685  1
  Ca2+  Ca5  1  0.08838413  0.72598903  0.90790953  1
  Ca2+  Ca6  1  0.42845114  0.23509664  0.25322326  1
  Ca2+  Ca7  1  0.42890444  0.24311386  0.56790125  1
  Ca2+  Ca8  1  0.42881463  0.25962680  0.93170458  1
  Ca2+  Ca9  1  0.39895848  0.74481834  0.26782081  1
  Ca2+  Ca10  1  0.42367404  0.74603126  0.57136969  1
  Ca2+  Ca11  1  0.39926796  0.75258608  0.90577866  1
  Ca2+  Ca12  1  0.75049045  0.25356196  0.24946850  1
  Ca2+  Ca13  1  0.75476518  0.24919874  0.59079183  1
  Ca2+  Ca14  1  0.74567210  0.26122155  0.90865094  1
  Ca2+  Ca15  1  0.77401380  0.74879185  0.25879866  1
  Ca2+  Ca16  1  0.74743679  0.75331302  0.59048705  1
  Ca2+  Ca17  1  0.75324114  0.74999484  0.89946985  1
  Ca2+  Ca18  1  0.25695901  0.25488143  0.10580113  1
  Ca2+  Ca19  1  0.24749663  0.25486728  0.40558912  1
  Ca2+  Ca20  1  0.23740915  0.25724578  0.74334974  1
  Ca2+  Ca21  1  0.23333323  0.73583146  0.07210438  1
  Ca2+  Ca22  1  0.24330051  0.74343824  0.41857838  1
  Ca2+  Ca23  1  0.22528262  0.74228214  0.75827111  1
  Ca2+  Ca24  1  0.57380891  0.24822420  0.10479519  1
  Ca2+  Ca25  1  0.58000711  0.23377891  0.39546940  1
  Ca2+  Ca26  1  0.59798509  0.25435157  0.74337312  1
  Ca2+  Ca27  1  0.58859511  0.75930921  0.06623450  1
  Ca2+  Ca28  1  0.59049203  0.75955599  0.42954439  1
  Ca2+  Ca29  1  0.59654135  0.75925176  0.74936497  1
  Ca2+  Ca30  1  0.91978451  0.25036075  0.11064262  1
  Ca2+  Ca31  1  0.92633977  0.25091029  0.40390331  1
  Ca2+  Ca32  1  0.91342641  0.26232732  0.74012516  1
  Ca2+  Ca33  1  0.93061836  0.75168219  0.08625810  1
  Ca2+  Ca34  1  0.92608309  0.75207577  0.41232229  1
  Ca2+  Ca35  1  0.92597048  0.74922431  0.75408931  1
  Ca2+  Ca36  1  0.23556881  0.09583435  0.73706713  1
  Ca2+  Ca37  1  0.37135263  0.60622173  0.26120287  1
  Ca2+  Ca38  1  0.74962942  0.58350010  0.90401361  1
  Ca2+  Ca39  1  0.07272924  0.08149259  0.92812936  1
  Ca2+  Ca40  1  0.20898497  0.60047971  0.76660596  1
  Ca2+  Ca41  1  0.59690054  0.57981023  0.06539204  1
  Ca2+  Ca42  1  0.24098728  0.10053805  0.41625871  1
  Ca2+  Ca43  1  0.25038894  0.61677508  0.41696987  1
  Ca2+  Ca44  1  0.57296681  0.60600699  0.42108011  1
  Ca2+  Ca45  1  0.93165128  0.59341114  0.73960858  1
  Ca2+  Ca46  1  0.73705294  0.58145114  0.90315304  1
  Ca2+  Ca47  1  0.56040884  0.60689558  0.42185478  1
  Ca2+  Ca48  1  0.92738515  0.09116950  0.40871946  1
  Ca2+  Ca49  1  0.09522824  0.60612572  0.58027087  1
  Ca2+  Ca50  1  0.58349030  0.58003915  0.06486587  1
  Ca2+  Ca51  1  0.91479262  0.08291243  0.73400374  1
  Ca2+  Ca52  1  0.92304836  0.58916773  0.74293293  1
  Ca2+  Ca53  1  0.92413462  0.08818854  0.41745153  1
  Ca2+  Ca54  1  0.76037495  0.09967090  0.25975460  1
  Ca2+  Ca55  1  0.90437519  0.08251249  0.73187311  1
  Ca2+  Ca56  1  0.06147166  0.09689959  0.25660263  1
  Ca2+  Ca57  1  0.43847274  0.07548893  0.95770463  1
  Ca2+  Ca58  1  0.74989513  0.09973402  0.26035384  1
  Ca2+  Ca59  1  0.92649561  0.09365318  0.11276725  1
  Ca2+  Ca60  1  0.38258633  0.58800461  0.92590272  1
  Ca2+  Ca61  1  0.09644851  0.59631519  0.26224958  1
  Ca2+  Ca62  1  0.76366004  0.58656474  0.60235650  1
  Ca2+  Ca63  1  0.20563274  0.60708592  0.76931706  1
  Ca2+  Ca64  1  0.26098742  0.09998999  0.09314069  1
  Ca2+  Ca65  1  0.90873503  0.59506593  0.09415415  1
  Ca2+  Ca66  1  0.44980717  0.07316010  0.95316439  1
  Ca2+  Ca67  1  0.07278432  0.09194734  0.57743855  1
  Ca2+  Ca68  1  0.94148758  0.58098717  0.40537249  1
  Ca2+  Ca69  1  0.60874473  0.09151641  0.74680069  1
  Ca2+  Ca70  1  0.91999404  0.59515088  0.09375225  1
  Ca2+  Ca71  1  0.38927138  0.62029671  0.55771382  1
  Ca2+  Ca72  1  0.44932541  0.91266152  0.24391256  1
  Ca2+  Ca73  1  0.05653722  0.41239277  0.57289546  1
  Ca2+  Ca74  1  0.43304649  0.89909330  0.57468619  1
  Ca2+  Ca75  1  0.75103787  0.91196032  0.90745247  1
  Ca2+  Ca76  1  0.76043749  0.40180238  0.24617865  1
  Ca2+  Ca77  1  0.92932122  0.41544063  0.40962013  1
  Ca2+  Ca78  1  0.06284587  0.90973865  0.57421453  1
  Ca2+  Ca79  1  0.91309649  0.91116821  0.73600165  1
  Ca2+  Ca80  1  0.24776551  0.40121951  0.75449136  1
  Ca2+  Ca81  1  0.92946031  0.91430870  0.07735813  1
  Ca2+  Ca82  1  0.58206191  0.40741530  0.07234427  1
  Ca2+  Ca83  1  0.91484948  0.40276004  0.09387375  1
  Ca2+  Ca84  1  0.56332477  0.92912596  0.05721270  1
  Ca2+  Ca85  1  0.40833033  0.39346291  0.58301098  1
  Ca2+  Ca86  1  0.26151649  0.40769827  0.07456914  1
  Ca2+  Ca87  1  0.26542166  0.90406129  0.08540118  1
  Ca2+  Ca88  1  0.74262477  0.90825194  0.25863057  1
  Ca2+  Ca89  1  0.43754676  0.91001170  0.24607083  1
  Ca2+  Ca90  1  0.06641342  0.90718192  0.91469230  1
  Ca2+  Ca91  1  0.75529411  0.90858443  0.25793655  1
  Ca2+  Ca92  1  0.06892210  0.41884890  0.27261754  1
  Ca2+  Ca93  1  0.42038656  0.89948982  0.57568382  1
  Ca2+  Ca94  1  0.58967155  0.39277105  0.41376058  1
  Ca2+  Ca95  1  0.43613452  0.90754037  0.92338274  1
  Ca2+  Ca96  1  0.41407649  0.39944330  0.24186441  1
  Ca2+  Ca97  1  0.25263646  0.90367193  0.08617543  1
  Ca2+  Ca98  1  0.92353313  0.91638534  0.08627309  1
  Ca2+  Ca99  1  0.42122380  0.39412023  0.58246536  1
  Ca2+  Ca100  1  0.23583275  0.89858338  0.74999803  1
  Ca2+  Ca101  1  0.23119597  0.90201106  0.41395181  1
  Ca2+  Ca102  1  0.60952719  0.41312014  0.76297962  1
  Ca2+  Ca103  1  0.78250307  0.42511830  0.62000152  1
  Ca2+  Ca104  1  0.73849809  0.91317628  0.90481341  1
  Ca2+  Ca105  1  0.24866222  0.89915197  0.74975683  1
  Ca2+  Ca106  1  0.09568668  0.41029258  0.91214229  1
  Ca2+  Ca107  1  0.08303951  0.40795523  0.91123513  1
  Mn3.34+  Mn108  1  0.08469490  0.33274222  0.08819080  1
  Mn3.34+  Mn109  1  0.08603349  0.33660808  0.41854973  1
  Mn3.34+  Mn110  1  0.07679257  0.33324232  0.74566043  1
  Mn3.34+  Mn111  1  0.08492833  0.83241315  0.08633409  1
  Mn3.34+  Mn112  1  0.07870109  0.83450010  0.41921419  1
  Mn3.34+  Mn113  1  0.07597372  0.82892988  0.74925310  1
  Mn3.34+  Mn114  1  0.41793034  0.33290281  0.08325343  1
  Mn3.34+  Mn115  1  0.41313311  0.32934527  0.41146564  1
  Mn3.34+  Mn116  1  0.42043005  0.32972155  0.75920369  1
  Mn3.34+  Mn117  1  0.41897169  0.82732166  0.08680171  1
  Mn3.34+  Mn118  1  0.41721351  0.82814166  0.41403448  1
  Mn3.34+  Mn119  1  0.42328855  0.83412440  0.75202867  1
  Mn3.34+  Mn120  1  0.74930179  0.33648392  0.08000647  1
  Mn3.34+  Mn121  1  0.75252768  0.32837581  0.42011581  1
  Mn3.34+  Mn122  1  0.75538069  0.33823485  0.75299236  1
  Mn3.34+  Mn123  1  0.74984225  0.82806218  0.08558828  1
  Mn3.34+  Mn124  1  0.75536482  0.83044450  0.42363989  1
  Mn3.34+  Mn125  1  0.75264203  0.83484925  0.74301633  1
  Mn3.34+  Mn126  1  0.24595053  0.33785805  0.25134267  1
  Mn3.34+  Mn127  1  0.24449732  0.32797482  0.57961162  1
  Mn3.34+  Mn128  1  0.25427051  0.33750427  0.91509289  1
  Mn3.34+  Mn129  1  0.24719652  0.82661038  0.25008227  1
  Mn3.34+  Mn130  1  0.24879126  0.82387937  0.57916991  1
  Mn3.34+  Mn131  1  0.24732047  0.82930982  0.91636381  1
  Mn3.34+  Mn132  1  0.58425243  0.33282533  0.24752043  1
  Mn3.34+  Mn133  1  0.58965183  0.32851940  0.58259152  1
  Mn3.34+  Mn134  1  0.58494513  0.34358210  0.91527639  1
  Mn3.34+  Mn135  1  0.58703096  0.82685665  0.24377066  1
  Mn3.34+  Mn136  1  0.59482282  0.83866710  0.58275722  1
  Mn3.34+  Mn137  1  0.58491167  0.83210800  0.91335839  1
  Mn3.34+  Mn138  1  0.91747396  0.33448982  0.25156312  1
  Mn3.34+  Mn139  1  0.91291089  0.33437193  0.57717666  1
  Mn3.34+  Mn140  1  0.91204770  0.33596679  0.91632519  1
  Mn3.34+  Mn141  1  0.92279190  0.83771276  0.25371681  1
  Mn3.34+  Mn142  1  0.91277685  0.84085178  0.57709280  1
  Mn3.34+  Mn143  1  0.91418338  0.83520635  0.91334800  1
  Mn3.34+  Mn144  1  0.58840263  0.67006551  0.58535683  1
  Mn3.34+  Mn145  1  0.58418724  0.67630976  0.24583166  1
  Mn3.34+  Mn146  1  0.41816710  0.67347211  0.08619801  1
  Mn3.34+  Mn147  1  0.91284534  0.16649993  0.57836565  1
  Mn3.34+  Mn148  1  0.58346181  0.66672294  0.91291066  1
  Mn3.34+  Mn149  1  0.41521639  0.17058136  0.74551829  1
  Mn3.34+  Mn150  1  0.08373097  0.16784500  0.09061658  1
  Mn3.34+  Mn151  1  0.74820145  0.16792591  0.74785662  1
  Mn3.34+  Mn152  1  0.08349280  0.16811893  0.41827981  1
  Mn3.34+  Mn153  1  0.08846746  0.66800334  0.08684365  1
  Mn3.34+  Mn154  1  0.42428678  0.16539694  0.09394683  1
  Mn3.34+  Mn155  1  0.25166300  0.16887756  0.25192522  1
  Mn3.34+  Mn156  1  0.24461285  0.17962734  0.91834543  1
  Mn3.34+  Mn157  1  0.40583289  0.66601835  0.08736478  1
  Mn3.34+  Mn158  1  0.73659208  0.16576574  0.08056148  1
  Mn3.34+  Mn159  1  0.75085029  0.67128354  0.08476508  1
  Mn3.34+  Mn160  1  0.74707228  0.17065287  0.08102013  1
  Mn3.34+  Mn161  1  0.91580082  0.66107791  0.57554646  1
  Mn3.34+  Mn162  1  0.42797229  0.16403187  0.74869805  1
  Mn3.34+  Mn163  1  0.91807769  0.66443764  0.25260249  1
  Mn3.34+  Mn164  1  0.75034047  0.66600836  0.74880916  1
  Mn3.34+  Mn165  1  0.91692816  0.66683024  0.91425098  1
  Mn3.34+  Mn166  1  0.90746120  0.15747997  0.91462422  1
  Mn3.34+  Mn167  1  0.59287140  0.67006622  0.24400916  1
  Mn3.34+  Mn168  1  0.92011580  0.16426396  0.91633525  1
  Mn3.34+  Mn169  1  0.74887943  0.16854192  0.42525609  1
  Mn3.34+  Mn170  1  0.41454143  0.66712245  0.74886403  1
  Mn3.34+  Mn171  1  0.08361653  0.66791155  0.42132597  1
  Mn3.34+  Mn172  1  0.58826364  0.16293747  0.57359741  1
  Mn3.34+  Mn173  1  0.25398638  0.17394375  0.91699213  1
  Mn3.34+  Mn174  1  0.58830974  0.15837561  0.91148378  1
  Mn3.34+  Mn175  1  0.41823708  0.16491961  0.41658975  1
  Mn3.34+  Mn176  1  0.08210836  0.16930105  0.74714523  1
  Mn3.34+  Mn177  1  0.25003835  0.17240442  0.57729430  1
  Mn3.34+  Mn178  1  0.42562994  0.66343397  0.74921036  1
  Mn3.34+  Mn179  1  0.75898019  0.66943375  0.41977330  1
  Mn3.34+  Mn180  1  0.10307809  0.50720583  0.07829040  1
  Mn3.34+  Mn181  1  0.41710142  0.49526334  0.41481974  1
  Mn3.34+  Mn182  1  0.58180570  0.50173927  0.58887610  1
  Mn3.34+  Mn183  1  0.75089509  0.50027703  0.08483851  1
  Mn3.34+  Mn184  1  0.09036493  0.50098492  0.08145516  1
  Mn3.34+  Mn185  1  0.40517658  0.49705197  0.76744093  1
  Mn3.34+  Mn186  1  0.40647742  0.50079686  0.41513236  1
  Mn3.34+  Mn187  1  0.43749518  0.00635535  0.40711930  1
  Mn3.34+  Mn188  1  0.08310761  0.00252524  0.75196574  1
  Mn3.34+  Mn189  1  0.59387718  0.49661402  0.58870414  1
  Mn3.34+  Mn190  1  0.74363807  0.49941367  0.42158470  1
  Mn3.34+  Mn191  1  0.43898417  0.00300138  0.75087805  1
  Mn3.34+  Mn192  1  0.41156057  0.50069482  0.07351950  1
  Mn3.34+  Mn193  1  0.08532448  0.00080990  0.08933566  1
  Mn3.34+  Mn194  1  0.74606127  -0.00169082  0.07987905  1
  Mn3.34+  Mn195  1  0.25970313  0.00462835  0.57617362  1
  Mn3.34+  Mn196  1  0.24186016  0.00261988  0.25993123  1
  Mn3.34+  Mn197  1  0.22959196  -0.00178087  0.26097969  1
  Mn3.34+  Mn198  1  0.25685400  0.50368577  0.57694142  1
  Mn3.34+  Mn199  1  0.25616099  0.00467516  0.91421579  1
  Mn3.34+  Mn200  1  0.24278727  0.49729314  0.57517741  1
  Mn3.34+  Mn201  1  0.73538010  0.00349505  0.07904329  1
  Mn3.34+  Mn202  1  0.41619509  0.49936556  0.76947072  1
  Mn3.34+  Mn203  1  0.73068446  -0.00167646  0.42089508  1
  Mn3.34+  Mn204  1  0.24552465  -0.00196466  0.57554930  1
  Mn3.34+  Mn205  1  0.91428342  0.49914016  0.91985597  1
  Mn3.34+  Mn206  1  0.23954587  0.49950824  0.26037156  1
  Mn3.34+  Mn207  1  0.44357948  0.01184853  0.41545797  1
  Mn3.34+  Mn208  1  0.74478917  -0.00276806  0.42631644  1
  Mn3.34+  Mn209  1  0.58519386  0.50206325  0.24635382  1
  Mn3.34+  Mn210  1  0.42600493  0.00002156  0.75255644  1
  Mn3.34+  Mn211  1  0.24531369  -0.00045108  0.91295159  1
  Mn3.34+  Mn212  1  0.75780195  0.50392898  0.41733624  1
  Mn3.34+  Mn213  1  0.07170575  0.49505654  0.73875969  1
  Mn3.34+  Mn214  1  0.74736482  -0.00021955  0.72800236  1
  Mn3.34+  Mn215  1  0.59146410  0.00162788  0.58318541  1
  O2-  O216  1  -0.00159044  0.15010062  0.00205373  1
  O2-  O217  1  -0.00132661  0.16095344  0.34357102  1
  O2-  O218  1  -0.00366236  0.14941673  0.66630039  1
  O2-  O219  1  -0.01237573  0.65441418  0.00633104  1
  O2-  O220  1  0.00128697  0.65794849  0.33023288  1
  O2-  O221  1  -0.00683973  0.66212352  0.65854284  1
  O2-  O222  1  0.33519820  0.16734073  -0.00011144  1
  O2-  O223  1  0.32480275  0.16376751  0.34012606  1
  O2-  O224  1  0.32828243  0.16352596  0.66763117  1
  O2-  O225  1  0.33860194  0.67127183  -0.00326331  1
  O2-  O226  1  0.32766858  0.67930520  0.33604640  1
  O2-  O227  1  0.33300479  0.66139834  0.67169802  1
  O2-  O228  1  0.66423255  0.18408480  -0.00472881  1
  O2-  O229  1  0.68341270  0.17449066  0.33337057  1
  O2-  O230  1  0.66573183  0.16378717  0.66878859  1
  O2-  O231  1  0.66473615  0.66641615  0.00677107  1
  O2-  O232  1  0.66643264  0.65689508  0.33581713  1
  O2-  O233  1  0.67400906  0.65909024  0.66161780  1
  O2-  O234  1  0.16468569  0.15602588  -0.00033771  1
  O2-  O235  1  0.16218146  0.15709267  0.32990702  1
  O2-  O236  1  0.16698480  0.16659442  0.66413063  1
  O2-  O237  1  0.15889718  0.66359858  0.00603403  1
  O2-  O238  1  0.16118444  0.66840547  0.33896045  1
  O2-  O239  1  0.17146115  0.66484746  0.66948533  1
  O2-  O240  1  0.49956659  0.16481723  -0.00687101  1
  O2-  O241  1  0.49196936  0.16113973  0.33789663  1
  O2-  O242  1  0.50501029  0.15132235  0.66452560  1
  O2-  O243  1  0.50052855  0.65696941  0.00855252  1
  O2-  O244  1  0.50342495  0.67054362  0.33182777  1
  O2-  O245  1  0.49448461  0.65850174  0.65932134  1
  O2-  O246  1  0.83172451  0.15398027  0.00652394  1
  O2-  O247  1  0.83460714  0.15633118  0.34624181  1
  O2-  O248  1  0.83698545  0.15735999  0.66899421  1
  O2-  O249  1  0.82540086  0.65076440  -0.00311296  1
  O2-  O250  1  0.84071229  0.66293626  0.33993327  1
  O2-  O251  1  0.84001177  0.66438286  0.67027072  1
  O2-  O252  1  0.00613787  0.34526178  0.00007718  1
  O2-  O253  1  -0.00204594  0.34141654  0.33552373  1
  O2-  O254  1  0.00194101  0.34246072  0.65862898  1
  O2-  O255  1  -0.00328364  0.84886937  0.00075380  1
  O2-  O256  1  0.00097492  0.83721219  0.33393873  1
  O2-  O257  1  -0.00117318  0.83377939  0.66375176  1
  O2-  O258  1  0.32927393  0.32733073  0.00240573  1
  O2-  O259  1  0.33427185  0.34054266  0.32952567  1
  O2-  O260  1  0.33051688  0.33275756  0.66444063  1
  O2-  O261  1  0.33505381  0.84128841  -0.00036462  1
  O2-  O262  1  0.33563135  0.83361852  0.33006056  1
  O2-  O263  1  0.33334827  0.84327409  0.66382487  1
  O2-  O264  1  0.66422804  0.32886939  -0.00143767  1
  O2-  O265  1  0.67094448  0.33299894  0.33084477  1
  O2-  O266  1  0.66566355  0.34115892  0.66735682  1
  O2-  O267  1  0.67240872  0.83175344  -0.00103536  1
  O2-  O268  1  0.66959016  0.83488907  0.32412911  1
  O2-  O269  1  0.66730182  0.83417185  0.66939745  1
  O2-  O270  1  0.16589343  0.34119812  -0.00326603  1
  O2-  O271  1  0.16023711  0.34037573  0.32724392  1
  O2-  O272  1  0.17016842  0.33675561  0.67076860  1
  O2-  O273  1  0.16839705  0.84996173  -0.00017687  1
  O2-  O274  1  0.17113018  0.82757499  0.33627430  1
  O2-  O275  1  0.16994021  0.83641621  0.66878179  1
  O2-  O276  1  0.50663594  0.33094238  0.00238165  1
  O2-  O277  1  0.49984282  0.34700930  0.33224955  1
  O2-  O278  1  0.50088587  0.34765715  0.66801258  1
  O2-  O279  1  0.50312243  0.83646331  0.00499980  1
  O2-  O280  1  0.49819533  0.82315112  0.32699053  1
  O2-  O281  1  0.49818238  0.84192391  0.66024833  1
  O2-  O282  1  0.83895999  0.34029674  0.00579834  1
  O2-  O283  1  0.83244452  0.33414095  0.33422082  1
  O2-  O284  1  0.83156540  0.33534801  0.66290793  1
  O2-  O285  1  0.83225141  0.84801525  0.00310764  1
  O2-  O286  1  0.82843502  0.84045249  0.32719574  1
  O2-  O287  1  0.84146654  0.82515136  0.66716058  1
  O2-  O288  1  0.00343058  0.17300722  0.16634619  1
  O2-  O289  1  0.00086989  0.17810462  0.50227509  1
  O2-  O290  1  0.00346838  0.17496089  0.83384435  1
  O2-  O291  1  -0.00733002  0.67615918  0.16402671  1
  O2-  O292  1  -0.00521484  0.68193793  0.50204976  1
  O2-  O293  1  -0.01352125  0.67003185  0.82961051  1
  O2-  O294  1  0.33154771  0.17615213  0.16526262  1
  O2-  O295  1  0.32790818  0.18999739  0.49828011  1
  O2-  O296  1  0.33180055  0.18294548  0.83000192  1
  O2-  O297  1  0.33090927  0.68765535  0.16619268  1
  O2-  O298  1  0.33431174  0.69500447  0.49812805  1
  O2-  O299  1  0.33417333  0.67339933  0.82872284  1
  O2-  O300  1  0.66638623  0.17250871  0.16932849  1
  O2-  O301  1  0.66849533  0.19186627  0.50036872  1
  O2-  O302  1  0.66451086  0.18091173  0.83011147  1
  O2-  O303  1  0.66879371  0.69325808  0.16191582  1
  O2-  O304  1  0.66285938  0.67166938  0.49335688  1
  O2-  O305  1  0.67493545  0.66911792  0.83679509  1
  O2-  O306  1  0.17097663  0.17794222  0.16417655  1
  O2-  O307  1  0.16580075  0.18310672  0.49966970  1
  O2-  O308  1  0.16805977  0.18686795  0.83108588  1
  O2-  O309  1  0.15525090  0.68406237  0.16973719  1
  O2-  O310  1  0.16058579  0.68028493  0.50017050  1
  O2-  O311  1  0.17153668  0.67430896  0.83753117  1
  O2-  O312  1  0.50042482  0.17148407  0.16538397  1
  O2-  O313  1  0.50308337  0.17721944  0.49709414  1
  O2-  O314  1  0.49899079  0.18604258  0.83584813  1
  O2-  O315  1  0.49478639  0.68945592  0.16834963  1
  O2-  O316  1  0.50886335  0.67772636  0.49930102  1
  O2-  O317  1  0.49254017  0.67579084  0.83845838  1
  O2-  O318  1  0.82582060  0.17066464  0.16829832  1
  O2-  O319  1  0.83939898  0.18385819  0.49591661  1
  O2-  O320  1  0.83600373  0.17462258  0.82805743  1
  O2-  O321  1  0.83924916  0.67907376  0.15804232  1
  O2-  O322  1  0.82752549  0.68561685  0.50892364  1
  O2-  O323  1  0.83009620  0.67773213  0.83557089  1
  O2-  O324  1  0.00060133  0.32635672  0.16623615  1
  O2-  O325  1  -0.00145569  0.32263366  0.49788288  1
  O2-  O326  1  0.00481493  0.32617658  0.83965131  1
  O2-  O327  1  -0.00791501  0.83394696  0.15761624  1
  O2-  O328  1  0.00184666  0.82086215  0.50839347  1
  O2-  O329  1  -0.00330000  0.83258173  0.83254044  1
  O2-  O330  1  0.33375402  0.33171233  0.16430448  1
  O2-  O331  1  0.33753261  0.31764496  0.50624330  1
  O2-  O332  1  0.32870363  0.31075525  0.83457324  1
  O2-  O333  1  0.33172716  0.81279002  0.16589950  1
  O2-  O334  1  0.33839174  0.82095979  0.50188047  1
  O2-  O335  1  0.32629993  0.82717695  0.82690907  1
  O2-  O336  1  0.66798641  0.32670243  0.16543577  1
  O2-  O337  1  0.66333795  0.31943333  0.49513792  1
  O2-  O338  1  0.66394549  0.32428437  0.83244225  1
  O2-  O339  1  0.67066214  0.80743545  0.16684872  1
  O2-  O340  1  0.67198050  0.82010707  0.50229265  1
  O2-  O341  1  0.67246666  0.82660432  0.83735724  1
  O2-  O342  1  0.17105576  0.32587575  0.16165326  1
  O2-  O343  1  0.16224516  0.31663805  0.50325443  1
  O2-  O344  1  0.16567603  0.31769692  0.83881539  1
  O2-  O345  1  0.17648024  0.82161400  0.15776426  1
  O2-  O346  1  0.16719481  0.81426282  0.50212849  1
  O2-  O347  1  0.16630267  0.83025614  0.83009689  1
  O2-  O348  1  0.49991965  0.33354233  0.16472062  1
  O2-  O349  1  0.49586645  0.32781117  0.50357410  1
  O2-  O350  1  0.50781631  0.31570058  0.83858839  1
  O2-  O351  1  0.49824706  0.80798443  0.16913187  1
  O2-  O352  1  0.49580060  0.82084216  0.49965138  1
  O2-  O353  1  0.49548942  0.82545556  0.84064854  1
  O2-  O354  1  0.83265811  0.32939443  0.16880306  1
  O2-  O355  1  0.83278404  0.31258885  0.49826834  1
  O2-  O356  1  0.83527417  0.32088230  0.83361449  1
  O2-  O357  1  0.83167459  0.81822761  0.16314992  1
  O2-  O358  1  0.83815352  0.81273504  0.50156783  1
  O2-  O359  1  0.82974967  0.82528515  0.83596851  1
  O2-  O360  1  0.08406610  0.08189751  0.11154857  1
  O2-  O361  1  0.07550647  0.08614628  0.44287507  1
  O2-  O362  1  0.09581763  0.08286694  0.78090013  1
  O2-  O363  1  0.07130191  0.58337983  0.11742496  1
  O2-  O364  1  0.08309438  0.58624322  0.44205759  1
  O2-  O365  1  0.07105120  0.57263278  0.77538750  1
  O2-  O366  1  0.40827952  0.08400307  0.08393416  1
  O2-  O367  1  0.39356208  0.08364448  0.44831031  1
  O2-  O368  1  0.40609690  0.08287727  0.78444570  1
  O2-  O369  1  0.42633710  0.57961314  0.11840069  1
  O2-  O370  1  0.42345920  0.58289165  0.43537706  1
  O2-  O371  1  0.43515440  0.58190807  0.78020634  1
  O2-  O372  1  0.75577630  0.08257391  0.11206266  1
  O2-  O373  1  0.75305296  0.08142257  0.44373953  1
  O2-  O374  1  0.75780559  0.08041640  0.76727384  1
  O2-  O375  1  0.73695733  0.58167803  0.11136618  1
  O2-  O376  1  0.75803558  0.58396253  0.44468933  1
  O2-  O377  1  0.77029296  0.58271154  0.77157503  1
  O2-  O378  1  0.24865225  0.08289774  0.22571665  1
  O2-  O379  1  0.23774655  0.08474444  0.55782117  1
  O2-  O380  1  0.24612713  0.08590322  0.88563668  1
  O2-  O381  1  0.24305432  0.57283832  0.22485495  1
  O2-  O382  1  0.25289394  0.58185239  0.54603541  1
  O2-  O383  1  0.29335132  0.54757773  0.84421175  1
  O2-  O384  1  0.62104960  0.07650028  0.23520980  1
  O2-  O385  1  0.59121006  0.08032243  0.55634240  1
  O2-  O386  1  0.55874456  0.07630807  0.87514864  1
  O2-  O387  1  0.58167955  0.58481776  0.20479499  1
  O2-  O388  1  0.57821832  0.58214230  0.55423623  1
  O2-  O389  1  0.59883795  0.58368119  0.91813869  1
  O2-  O390  1  0.88746165  0.07082137  0.23492021  1
  O2-  O391  1  0.92173563  0.08291447  0.55256345  1
  O2-  O392  1  0.93016737  0.07695994  0.88070501  1
  O2-  O393  1  0.92259286  0.58294928  0.22560590  1
  O2-  O394  1  0.91064555  0.58369073  0.55595182  1
  O2-  O395  1  0.89605002  0.57896106  0.88197181  1
  O2-  O396  1  0.08296097  0.42142525  0.11343643  1
  O2-  O397  1  0.07530276  0.41663899  0.43710058  1
  O2-  O398  1  0.09723836  0.41853301  0.77652222  1
  O2-  O399  1  0.09431711  0.91849113  0.10633706  1
  O2-  O400  1  0.09766465  0.91319806  0.44523433  1
  O2-  O401  1  0.09635268  0.91976332  0.76906925  1
  O2-  O402  1  0.41354456  0.42068667  0.09997691  1
  O2-  O403  1  0.41138408  0.41536228  0.44570579  1
  O2-  O404  1  0.39917987  0.41264706  0.76842977  1
  O2-  O405  1  0.40260865  0.91817472  0.11696340  1
  O2-  O406  1  0.41294232  0.92447729  0.44575283  1
  O2-  O407  1  0.40625498  0.91921853  0.77524216  1
  O2-  O408  1  0.75053722  0.41980983  0.10535691  1
  O2-  O409  1  0.74767956  0.41865983  0.43568173  1
  O2-  O410  1  0.74721531  0.41722870  0.75697977  1
  O2-  O411  1  0.73516003  0.91844009  0.12256228  1
  O2-  O412  1  0.74357626  0.91345649  0.42445950  1
  O2-  O413  1  0.75762831  0.92127264  0.77257483  1
  O2-  O414  1  0.25125698  0.42503292  0.21767382  1
  O2-  O415  1  0.26796286  0.41662094  0.56543347  1
  O2-  O416  1  0.23630713  0.41483760  0.88757347  1
  O2-  O417  1  0.26447517  0.91897491  0.22026738  1
  O2-  O418  1  0.26424492  0.91664591  0.55819362  1
  O2-  O419  1  0.25168273  0.91783049  0.88885603  1
  O2-  O420  1  0.58874727  0.41958756  0.22745202  1
  O2-  O421  1  0.57108957  0.41700767  0.55270034  1
  O2-  O422  1  0.57993482  0.42018962  0.89946270  1
  O2-  O423  1  0.57534706  0.91365962  0.20402978  1
  O2-  O424  1  0.56665854  0.92124224  0.55292963  1
  O2-  O425  1  0.59640388  0.91155450  0.90765816  1
  O2-  O426  1  0.91434012  0.41799927  0.23344654  1
  O2-  O427  1  0.91176446  0.41542432  0.55303683  1
  O2-  O428  1  0.94033366  0.41970853  0.90229210  1
  O2-  O429  1  0.88573922  0.92102089  0.21394386  1
  O2-  O430  1  0.92263569  0.91821015  0.58063575  1
  O2-  O431  1  0.90222755  0.91762886  0.89447180  1
  O2-  O432  1  -0.00150981  -0.00631348  0.01802805  1
  O2-  O433  1  -0.00746386  0.02794339  0.32791702  1
  O2-  O434  1  0.00275883  0.01070102  0.67722747  1
  O2-  O435  1  -0.00303581  0.50719260  0.00774618  1
  O2-  O436  1  0.00450171  0.50095665  0.33687486  1
  O2-  O437  1  -0.00612381  0.50963291  0.66698317  1
  O2-  O438  1  0.32380528  -0.00711488  0.00755935  1
  O2-  O439  1  0.33364899  -0.00576380  0.34050586  1
  O2-  O440  1  0.32501039  0.00049683  0.68069045  1
  O2-  O441  1  0.33198333  0.50505869  0.00656324  1
  O2-  O442  1  0.33823887  0.50335116  0.31882756  1
  O2-  O443  1  0.33450326  0.49976325  0.66877487  1
  O2-  O444  1  0.66753118  -0.01164204  -0.01057780  1
  O2-  O445  1  0.68574851  -0.00239677  0.31242252  1
  O2-  O446  1  0.64244327  0.00323396  0.68703951  1
  O2-  O447  1  0.67004990  0.50651508  0.00891934  1
  O2-  O448  1  0.66516062  0.50427268  0.33930670  1
  O2-  O449  1  0.68216526  0.50214794  0.65884869  1
  O2-  O450  1  0.16138921  0.00394122  -0.00445810  1
  O2-  O451  1  0.17015973  0.00647859  0.35446859  1
  O2-  O452  1  0.17004561  0.00058017  0.66730032  1
  O2-  O453  1  0.16401992  0.48322465  -0.01141681  1
  O2-  O454  1  0.14833965  0.50192764  0.31397790  1
  O2-  O455  1  0.16545084  0.50538249  0.66619653  1
  O2-  O456  1  0.48582292  -0.01271004  -0.02294187  1
  O2-  O457  1  0.49527110  -0.01306360  0.31137962  1
  O2-  O458  1  0.48465251  -0.00536342  0.64632332  1
  O2-  O459  1  0.51078318  0.50295676  0.02551588  1
  O2-  O460  1  0.50549657  0.51003301  0.33871208  1
  O2-  O461  1  0.50305371  0.49184712  0.68053942  1
  O2-  O462  1  0.84205309  -0.01461253  0.01773416  1
  O2-  O463  1  0.83663189  0.00073094  0.36119786  1
  O2-  O464  1  0.85433642  -0.00200488  0.69695519  1
  O2-  O465  1  0.83639551  0.51871941  0.00757484  1
  O2-  O466  1  0.85120755  0.50220435  0.35900261  1
  O2-  O467  1  0.84403370  0.51862816  0.66673816  1
  O2-  O468  1  0.24966661  0.25160072  0.26099624  1
  O2-  O469  1  0.92077307  0.24862993  0.60446351  1
  O2-  O470  1  0.42597309  0.25101876  0.72395764  1
  O2-  O471  1  0.58199055  0.74837130  0.92469376  1
  O2-  O472  1  0.42049545  0.25051284  0.07814440  1
  O2-  O473  1  0.08199331  0.25091755  0.39681888  1
  O2-  O474  1  0.76076642  0.25356909  0.07853757  1
  O2-  O475  1  0.42419792  0.24994197  0.39864420  1
  O2-  O476  1  0.57464634  0.24887795  0.60499252  1
  O2-  O477  1  0.57603506  0.25387092  0.25398234  1
  O2-  O478  1  0.24822753  0.75266593  0.92675758  1
  O2-  O479  1  0.92127340  0.75136502  0.26424016  1
  O2-  O480  1  0.42132375  0.75154204  0.73565643  1
  O2-  O481  1  0.07786251  0.75109903  0.74474305  1
  O2-  O482  1  0.07269031  0.25096162  0.73010000  1
  O2-  O483  1  0.91836149  0.25347056  0.25713896  1
  O2-  O484  1  0.07119748  0.75099162  0.40105706  1
  O2-  O485  1  0.07905627  0.24956500  0.06315676  1
  O2-  O486  1  0.75218768  0.25005802  0.73581870  1
  O2-  O487  1  0.74374456  0.74895542  0.74314257  1
  O2-  O488  1  0.07482845  0.75211063  0.06157646  1
  O2-  O489  1  0.91592803  0.24651911  0.93471600  1
  O2-  O490  1  0.91371937  0.75029193  0.93593962  1
  O2-  O491  1  0.74330323  0.74919663  0.39752196  1
  O2-  O492  1  0.58446236  0.75101389  0.60077388  1
