# generated using pymatgen
data_Ca108Mn108O277
_symmetry_space_group_name_H-M   'P 1'
_cell_length_a   16.02503614
_cell_length_b   22.30294202
_cell_length_c   16.38850411
_cell_angle_alpha   89.99988400
_cell_angle_beta   90.00572830
_cell_angle_gamma   89.99791457
_symmetry_Int_Tables_number   1
_chemical_formula_structural   Ca108Mn108O277
_chemical_formula_sum   'Ca108 Mn108 O277'
_cell_volume   5857.34068787
_cell_formula_units_Z   1
loop_
 _symmetry_equiv_pos_site_id
 _symmetry_equiv_pos_as_xyz
  1  'x, y, z'
loop_
 _atom_type_symbol
 _atom_type_oxidation_number
  Ca2+  2.0
  Mn3.34+  3.34
  O2-  -2.0
loop_
 _atom_site_type_symbol
 _atom_site_label
 _atom_site_symmetry_multiplicity
 _atom_site_fract_x
 _atom_site_fract_y
 _atom_site_fract_z
 _atom_site_occupancy
  Ca2+  Ca0  1  0.08784014  0.25647515  0.26165030  1
  Ca2+  Ca1  1  0.09240410  0.25288330  0.56621804  1
  Ca2+  Ca2  1  0.06274690  0.25485547  0.91912925  1
  Ca2+  Ca3  1  0.08675935  0.74797836  0.26918860  1
  Ca2+  Ca4  1  0.08753288  0.75427924  0.57820795  1
  Ca2+  Ca5  1  0.07809890  0.74682743  0.91374820  1
  Ca2+  Ca6  1  0.43930450  0.24038062  0.23542071  1
  Ca2+  Ca7  1  0.42521283  0.26022349  0.57914212  1
  Ca2+  Ca8  1  0.43896857  0.25086417  0.92742856  1
  Ca2+  Ca9  1  0.41811022  0.74386467  0.23271623  1
  Ca2+  Ca10  1  0.42778495  0.75186562  0.58663911  1
  Ca2+  Ca11  1  0.40273301  0.73814732  0.91976211  1
  Ca2+  Ca12  1  0.71762568  0.24464346  0.25402696  1
  Ca2+  Ca13  1  0.73056068  0.25453035  0.59159799  1
  Ca2+  Ca14  1  0.73904446  0.25672191  0.91264014  1
  Ca2+  Ca15  1  0.74757266  0.76283330  0.25579842  1
  Ca2+  Ca16  1  0.73313000  0.75042420  0.58674843  1
  Ca2+  Ca17  1  0.77118487  0.73531598  0.90796902  1
  Ca2+  Ca18  1  0.28003281  0.25083875  0.07279642  1
  Ca2+  Ca19  1  0.25852260  0.25182047  0.43308872  1
  Ca2+  Ca20  1  0.26965327  0.25153087  0.74159760  1
  Ca2+  Ca21  1  0.27521603  0.74720291  0.08371723  1
  Ca2+  Ca22  1  0.26185902  0.75245751  0.40387536  1
  Ca2+  Ca23  1  0.27345915  0.74533781  0.75695743  1
  Ca2+  Ca24  1  0.57233112  0.24383211  0.06979769  1
  Ca2+  Ca25  1  0.57655107  0.23885402  0.40813410  1
  Ca2+  Ca26  1  0.58228202  0.24695838  0.76898234  1
  Ca2+  Ca27  1  0.56279663  0.75092538  0.08822738  1
  Ca2+  Ca28  1  0.58061849  0.76375583  0.41515030  1
  Ca2+  Ca29  1  0.56760810  0.74607649  0.74054599  1
  Ca2+  Ca30  1  0.90823494  0.25046470  0.05863635  1
  Ca2+  Ca31  1  0.91850600  0.25759278  0.42984994  1
  Ca2+  Ca32  1  0.89880977  0.24810480  0.78109722  1
  Ca2+  Ca33  1  0.91057898  0.74649591  0.07420034  1
  Ca2+  Ca34  1  0.91258187  0.74742189  0.40900808  1
  Ca2+  Ca35  1  0.91166173  0.73685068  0.77327325  1
  Ca2+  Ca36  1  0.29425440  0.59694302  0.06195008  1
  Ca2+  Ca37  1  0.26725147  0.60216706  0.78392427  1
  Ca2+  Ca38  1  0.41027562  0.59558894  0.91303389  1
  Ca2+  Ca39  1  0.42968192  0.10163204  0.92274441  1
  Ca2+  Ca40  1  0.89670385  0.09161889  0.41052355  1
  Ca2+  Ca41  1  0.70834159  0.10241441  0.24857871  1
  Ca2+  Ca42  1  0.75909356  0.11247295  0.91475540  1
  Ca2+  Ca43  1  0.89945771  0.59829489  0.04160642  1
  Ca2+  Ca44  1  0.76027462  0.59502659  0.25676589  1
  Ca2+  Ca45  1  0.43785293  0.08254929  0.58646989  1
  Ca2+  Ca46  1  0.57732139  0.59198862  0.74595976  1
  Ca2+  Ca47  1  0.54310317  0.58112665  0.07603319  1
  Ca2+  Ca48  1  0.53343165  0.58334044  0.07809214  1
  Ca2+  Ca49  1  0.28361035  0.07862368  0.41408917  1
  Ca2+  Ca50  1  0.29038833  0.59042715  0.06446141  1
  Ca2+  Ca51  1  0.21489115  0.60537344  0.40799812  1
  Ca2+  Ca52  1  0.43665690  0.10652012  0.92632600  1
  Ca2+  Ca53  1  0.42466691  0.59245913  0.60310736  1
  Ca2+  Ca54  1  0.74916010  0.11195633  0.91086834  1
  Ca2+  Ca55  1  0.59669210  0.08111401  0.74119277  1
  Ca2+  Ca56  1  0.27727078  0.09266588  0.07353657  1
  Ca2+  Ca57  1  0.56158337  0.10836200  0.08839102  1
  Ca2+  Ca58  1  0.60711225  0.08029513  0.74031560  1
  Ca2+  Ca59  1  0.08153539  0.60018424  0.91224290  1
  Ca2+  Ca60  1  0.94698282  0.59953274  0.41165795  1
  Ca2+  Ca61  1  0.59075100  0.60107342  0.42318427  1
  Ca2+  Ca62  1  0.60005613  0.59939505  0.42756479  1
  Ca2+  Ca63  1  0.07124632  0.09255557  0.92444266  1
  Ca2+  Ca64  1  0.74918957  0.59539110  0.25839769  1
  Ca2+  Ca65  1  0.08374433  0.58209588  0.58146784  1
  Ca2+  Ca66  1  0.42735435  0.08221875  0.58652373  1
  Ca2+  Ca67  1  0.27206903  0.08185823  0.41185240  1
  Ca2+  Ca68  1  0.25740154  0.60129528  0.78682965  1
  Ca2+  Ca69  1  0.10325325  0.08844845  0.59155573  1
  Ca2+  Ca70  1  0.90923386  0.09003570  0.40869357  1
  Ca2+  Ca71  1  0.56967910  0.08375769  0.40895037  1
  Ca2+  Ca72  1  0.57881955  0.91582604  0.73361233  1
  Ca2+  Ca73  1  0.90432265  0.89942818  0.74725928  1
  Ca2+  Ca74  1  0.27108141  0.41814740  0.06533498  1
  Ca2+  Ca75  1  0.91522756  0.89149971  0.41956507  1
  Ca2+  Ca76  1  0.92398184  0.89127170  0.08816008  1
  Ca2+  Ca77  1  0.59921335  0.40169878  0.42135179  1
  Ca2+  Ca78  1  0.08173352  0.41360173  0.58777769  1
  Ca2+  Ca79  1  0.75208824  0.41805184  0.58954526  1
  Ca2+  Ca80  1  0.25669153  0.41670506  0.74158496  1
  Ca2+  Ca81  1  0.25338960  0.90151308  0.08783711  1
  Ca2+  Ca82  1  0.41813893  0.91270442  0.26312967  1
  Ca2+  Ca83  1  0.09018270  0.90315882  0.92842537  1
  Ca2+  Ca84  1  0.24944186  0.39952507  0.42292671  1
  Ca2+  Ca85  1  0.89223173  0.41744103  0.41773591  1
  Ca2+  Ca86  1  0.58702016  0.40982942  0.76158224  1
  Ca2+  Ca87  1  0.42958312  0.42991624  0.93865529  1
  Ca2+  Ca88  1  0.58786163  0.40191992  0.42108159  1
  Ca2+  Ca89  1  0.25583047  0.90426497  0.74843185  1
  Ca2+  Ca90  1  0.08390366  0.39687944  0.24645955  1
  Ca2+  Ca91  1  0.74928676  0.40082422  0.24379525  1
  Ca2+  Ca92  1  0.09055699  0.41592109  0.58303902  1
  Ca2+  Ca93  1  0.57616524  0.90055686  0.08808924  1
  Ca2+  Ca94  1  0.25247611  0.41954501  0.75040480  1
  Ca2+  Ca95  1  0.91401845  0.41511750  0.74289588  1
  Ca2+  Ca96  1  0.73692779  0.40900097  0.92109046  1
  Ca2+  Ca97  1  0.43149645  0.91327913  0.57366895  1
  Ca2+  Ca98  1  0.90443222  0.42013869  0.41595071  1
  Ca2+  Ca99  1  0.26530053  0.90816844  0.41325757  1
  Ca2+  Ca100  1  0.24330632  0.90557996  0.74611420  1
  Ca2+  Ca101  1  0.08136827  0.41473494  0.92232916  1
  Ca2+  Ca102  1  0.09372841  0.41686165  0.92253011  1
  Ca2+  Ca103  1  0.57031432  0.41472031  0.06704553  1
  Ca2+  Ca104  1  0.72158109  0.92315993  0.59651185  1
  Ca2+  Ca105  1  0.74671512  0.90225347  0.91430986  1
  Ca2+  Ca106  1  0.73672221  0.89929306  0.91095895  1
  Ca2+  Ca107  1  0.91704767  0.89934303  0.74690761  1
  Mn3.34+  Mn108  1  0.08385287  0.33282577  0.08774817  1
  Mn3.34+  Mn109  1  0.08295279  0.33384688  0.41572637  1
  Mn3.34+  Mn110  1  0.08260774  0.33168708  0.75335365  1
  Mn3.34+  Mn111  1  0.08769304  0.82938885  0.09062836  1
  Mn3.34+  Mn112  1  0.08614436  0.82848397  0.41858507  1
  Mn3.34+  Mn113  1  0.08431113  0.82750574  0.74967491  1
  Mn3.34+  Mn114  1  0.41817080  0.33463937  0.08485679  1
  Mn3.34+  Mn115  1  0.41720153  0.33178981  0.41310932  1
  Mn3.34+  Mn116  1  0.42076697  0.33455650  0.75215028  1
  Mn3.34+  Mn117  1  0.41669487  0.83461652  0.08354728  1
  Mn3.34+  Mn118  1  0.42023871  0.83753321  0.41676270  1
  Mn3.34+  Mn119  1  0.41843506  0.83201059  0.74887979  1
  Mn3.34+  Mn120  1  0.75005990  0.33597259  0.08622125  1
  Mn3.34+  Mn121  1  0.75121050  0.33002767  0.41831706  1
  Mn3.34+  Mn122  1  0.74930103  0.33892814  0.75047802  1
  Mn3.34+  Mn123  1  0.74609217  0.82964521  0.08715824  1
  Mn3.34+  Mn124  1  0.74841907  0.83552544  0.41895726  1
  Mn3.34+  Mn125  1  0.74498676  0.82926693  0.74831542  1
  Mn3.34+  Mn126  1  0.25701486  0.33380871  0.24487570  1
  Mn3.34+  Mn127  1  0.25645433  0.33880197  0.58180904  1
  Mn3.34+  Mn128  1  0.25203231  0.33346648  0.91154681  1
  Mn3.34+  Mn129  1  0.25055145  0.83190359  0.24894462  1
  Mn3.34+  Mn130  1  0.25223607  0.83088857  0.57655313  1
  Mn3.34+  Mn131  1  0.25147416  0.83182765  0.91662286  1
  Mn3.34+  Mn132  1  0.57913585  0.33127975  0.24250825  1
  Mn3.34+  Mn133  1  0.58015252  0.33492407  0.59028485  1
  Mn3.34+  Mn134  1  0.58225492  0.33623365  0.91685190  1
  Mn3.34+  Mn135  1  0.58457067  0.83594738  0.25402449  1
  Mn3.34+  Mn136  1  0.58216791  0.83883408  0.57845526  1
  Mn3.34+  Mn137  1  0.57312064  0.83205464  0.91375865  1
  Mn3.34+  Mn138  1  0.91319265  0.32914971  0.24366743  1
  Mn3.34+  Mn139  1  0.91630562  0.33904918  0.58509915  1
  Mn3.34+  Mn140  1  0.91308331  0.33806485  0.91692835  1
  Mn3.34+  Mn141  1  0.91756336  0.82879991  0.24919127  1
  Mn3.34+  Mn142  1  0.91661368  0.82539131  0.57856745  1
  Mn3.34+  Mn143  1  0.91998474  0.82692285  0.91798763  1
  Mn3.34+  Mn144  1  0.25422691  0.66934766  0.24994266  1
  Mn3.34+  Mn145  1  0.58430734  0.66870698  0.58692015  1
  Mn3.34+  Mn146  1  0.25180305  0.16680322  0.90822094  1
  Mn3.34+  Mn147  1  0.41667678  0.16754468  0.75113329  1
  Mn3.34+  Mn148  1  0.08117443  0.66752279  0.75149704  1
  Mn3.34+  Mn149  1  0.90636715  0.16408987  0.58904290  1
  Mn3.34+  Mn150  1  0.57873172  0.66956695  0.24552150  1
  Mn3.34+  Mn151  1  0.74405592  0.17007333  0.08543721  1
  Mn3.34+  Mn152  1  0.91483070  0.17043717  0.24303708  1
  Mn3.34+  Mn153  1  0.74695972  0.16872892  0.75116150  1
  Mn3.34+  Mn154  1  0.08268296  0.17242414  0.75218405  1
  Mn3.34+  Mn155  1  0.59184232  0.66058516  0.91376587  1
  Mn3.34+  Mn156  1  0.58297469  0.66648282  0.91464459  1
  Mn3.34+  Mn157  1  0.25364284  0.66070084  0.57893213  1
  Mn3.34+  Mn158  1  0.09047791  0.16919828  0.08514744  1
  Mn3.34+  Mn159  1  0.25776610  0.16838812  0.24669947  1
  Mn3.34+  Mn160  1  0.41829820  0.66827044  0.41154088  1
  Mn3.34+  Mn161  1  0.09562288  0.16556895  0.75467496  1
  Mn3.34+  Mn162  1  0.74477293  0.66554386  0.09052434  1
  Mn3.34+  Mn163  1  0.24517392  0.66715022  0.58035153  1
  Mn3.34+  Mn164  1  0.91509283  0.65604087  0.58070649  1
  Mn3.34+  Mn165  1  0.58613717  0.16497530  0.58215614  1
  Mn3.34+  Mn166  1  0.25603372  0.16744767  0.58441656  1
  Mn3.34+  Mn167  1  0.91736550  0.16845195  0.59100483  1
  Mn3.34+  Mn168  1  0.75138297  0.66120907  0.75018419  1
  Mn3.34+  Mn169  1  0.07741545  0.16268295  0.08738405  1
  Mn3.34+  Mn170  1  0.08521170  0.16561189  0.41873657  1
  Mn3.34+  Mn171  1  0.74102454  0.16589427  0.42235843  1
  Mn3.34+  Mn172  1  0.42311822  0.16651422  0.41935678  1
  Mn3.34+  Mn173  1  0.92078403  0.67105662  0.25204909  1
  Mn3.34+  Mn174  1  0.90599163  0.17650328  0.24487489  1
  Mn3.34+  Mn175  1  0.91455755  0.65940319  0.59171558  1
  Mn3.34+  Mn176  1  0.75320240  0.66827044  0.42141224  1
  Mn3.34+  Mn177  1  0.09064248  0.66944244  0.09264801  1
  Mn3.34+  Mn178  1  0.24838604  0.16288350  0.24510356  1
  Mn3.34+  Mn179  1  0.08071653  0.66432776  0.09285201  1
  Mn3.34+  Mn180  1  0.75428189  0.00427285  0.09294894  1
  Mn3.34+  Mn181  1  0.90756767  -0.00068105  0.58948873  1
  Mn3.34+  Mn182  1  0.73994627  -0.00127179  0.09234998  1
  Mn3.34+  Mn183  1  0.08473542  0.50103212  0.41630606  1
  Mn3.34+  Mn184  1  0.92115831  0.00166738  0.91094791  1
  Mn3.34+  Mn185  1  0.08584423  -0.00006387  0.08445518  1
  Mn3.34+  Mn186  1  0.07456135  -0.00733166  0.42306270  1
  Mn3.34+  Mn187  1  0.91024581  -0.00546984  0.24421295  1
  Mn3.34+  Mn188  1  0.25142911  -0.00161813  0.25424175  1
  Mn3.34+  Mn189  1  0.41488671  0.50344684  0.42849371  1
  Mn3.34+  Mn190  1  0.41948200  0.00033375  0.07795717  1
  Mn3.34+  Mn191  1  0.57980943  -0.00428919  0.26701448  1
  Mn3.34+  Mn192  1  0.74588864  0.50087892  0.07261294  1
  Mn3.34+  Mn193  1  0.08522075  0.00063682  0.75532526  1
  Mn3.34+  Mn194  1  0.25052836  0.00089310  0.92053171  1
  Mn3.34+  Mn195  1  0.25791567  0.50005674  0.24777713  1
  Mn3.34+  Mn196  1  0.07718505  0.50406697  0.73962814  1
  Mn3.34+  Mn197  1  0.41119526  0.00221128  0.74992108  1
  Mn3.34+  Mn198  1  0.08613804  0.49713853  0.08120358  1
  Mn3.34+  Mn199  1  0.92083408  -0.00675852  0.58848465  1
  Mn3.34+  Mn200  1  0.24620438  -0.00606765  0.58579030  1
  Mn3.34+  Mn201  1  0.41507684  0.50043504  0.74705424  1
  Mn3.34+  Mn202  1  0.57804966  0.49953268  0.24939695  1
  Mn3.34+  Mn203  1  0.56743202  0.49593067  0.24757452  1
  Mn3.34+  Mn204  1  0.92300716  0.00093457  0.24219942  1
  Mn3.34+  Mn205  1  0.08784196  -0.00132209  0.42421209  1
  Mn3.34+  Mn206  1  0.75714976  0.50417758  0.73744699  1
  Mn3.34+  Mn207  1  0.91878403  0.49860555  0.23406452  1
  Mn3.34+  Mn208  1  0.74244970  -0.00477534  0.41622826  1
  Mn3.34+  Mn209  1  0.91777913  0.50274240  0.92112303  1
  Mn3.34+  Mn210  1  0.57899347  -0.00360379  0.91750833  1
  Mn3.34+  Mn211  1  0.40043151  0.49866093  0.43059211  1
  Mn3.34+  Mn212  1  0.90956433  0.00569895  0.91043636  1
  Mn3.34+  Mn213  1  0.24444546  0.50615433  0.24848956  1
  Mn3.34+  Mn214  1  0.93270888  0.50447079  0.23710999  1
  Mn3.34+  Mn215  1  0.58508487  0.50064751  0.59331875  1
  O2-  O216  1  0.00092881  0.15620611  0.00523173  1
  O2-  O217  1  -0.01240761  0.15962109  0.33930418  1
  O2-  O218  1  0.01194299  0.15240921  0.66412738  1
  O2-  O219  1  0.00540518  0.66915533  0.00756227  1
  O2-  O220  1  -0.00135622  0.67268444  0.33082004  1
  O2-  O221  1  -0.00353623  0.68373001  0.66787158  1
  O2-  O222  1  0.33051844  0.16560209  -0.01174799  1
  O2-  O223  1  0.33058611  0.15789352  0.33796193  1
  O2-  O224  1  0.34419420  0.14789710  0.65750929  1
  O2-  O225  1  0.33336183  0.66753046  -0.00473945  1
  O2-  O226  1  0.32940185  0.65046469  0.33886400  1
  O2-  O227  1  0.32354520  0.64599493  0.66712289  1
  O2-  O228  1  0.66678117  0.15330321  0.00508639  1
  O2-  O229  1  0.66007757  0.15741288  0.34777223  1
  O2-  O230  1  0.66505156  0.15568576  0.66577312  1
  O2-  O231  1  0.65492042  0.65418298  0.01111214  1
  O2-  O232  1  0.66852709  0.65659621  0.33116083  1
  O2-  O233  1  0.66122068  0.65965869  0.67005903  1
  O2-  O234  1  0.16811672  0.15611704  -0.00414948  1
  O2-  O235  1  0.17025852  0.16030035  0.33162739  1
  O2-  O236  1  0.17050801  0.16504147  0.66806511  1
  O2-  O237  1  0.16400375  0.67582869  0.00541279  1
  O2-  O238  1  0.17354961  0.67938457  0.33257836  1
  O2-  O239  1  0.15564794  0.65718314  0.65806868  1
  O2-  O240  1  0.49942158  0.16448191  -0.00543486  1
  O2-  O241  1  0.50058054  0.15799804  0.34531550  1
  O2-  O242  1  0.50456363  0.14458263  0.67261611  1
  O2-  O243  1  0.49666868  0.65753849  -0.00837217  1
  O2-  O244  1  0.50734834  0.64415879  0.33524384  1
  O2-  O245  1  0.50217614  0.65974492  0.66055836  1
  O2-  O246  1  0.81701262  0.18126470  -0.00058375  1
  O2-  O247  1  0.82345571  0.15478312  0.32731455  1
  O2-  O248  1  0.83113349  0.16009629  0.67328867  1
  O2-  O249  1  0.82261747  0.67938352  0.01310532  1
  O2-  O250  1  0.83962800  0.64981619  0.33906761  1
  O2-  O251  1  0.83075976  0.67338269  0.66213891  1
  O2-  O252  1  0.00396940  0.34852657  -0.00756177  1
  O2-  O253  1  -0.00794341  0.34182851  0.33700866  1
  O2-  O254  1  0.00648325  0.34942822  0.66355157  1
  O2-  O255  1  0.00235018  0.83353381  0.00021892  1
  O2-  O256  1  -0.00068047  0.82430136  0.33865417  1
  O2-  O257  1  -0.00635612  0.82290615  0.67159777  1
  O2-  O258  1  0.33203272  0.33343388  -0.00389549  1
  O2-  O259  1  0.32419811  0.32796769  0.34043397  1
  O2-  O260  1  0.32957467  0.35133253  0.67208246  1
  O2-  O261  1  0.32696261  0.83560321  0.00427233  1
  O2-  O262  1  0.33263809  0.84571135  0.33314894  1
  O2-  O263  1  0.33133261  0.84925178  0.66324119  1
  O2-  O264  1  0.66488558  0.33923544  0.00337497  1
  O2-  O265  1  0.66876466  0.34657719  0.33324838  1
  O2-  O266  1  0.67049448  0.35152005  0.66475380  1
  O2-  O267  1  0.66665708  0.84236004  0.00020981  1
  O2-  O268  1  0.66652205  0.83702521  0.33453949  1
  O2-  O269  1  0.66404545  0.84448995  0.66908499  1
  O2-  O270  1  0.16838095  0.34422206  -0.00461583  1
  O2-  O271  1  0.16601915  0.33940771  0.32964483  1
  O2-  O272  1  0.16592948  0.34605067  0.67012051  1
  O2-  O273  1  0.16449784  0.82294239  -0.00300807  1
  O2-  O274  1  0.17050425  0.82634178  0.33610051  1
  O2-  O275  1  0.17031739  0.83746978  0.67111010  1
  O2-  O276  1  0.49672633  0.34457848  -0.00540767  1
  O2-  O277  1  0.50613853  0.35091181  0.33552193  1
  O2-  O278  1  0.50264968  0.35037896  0.67302809  1
  O2-  O279  1  0.50161556  0.84314280  0.00384306  1
  O2-  O280  1  0.49870826  0.84582610  0.33182697  1
  O2-  O281  1  0.49568042  0.84664186  0.66344984  1
  O2-  O282  1  0.82633177  0.33619017  -0.00387598  1
  O2-  O283  1  0.83539340  0.34587533  0.33454458  1
  O2-  O284  1  0.83404369  0.35089071  0.66537852  1
  O2-  O285  1  0.83048962  0.84346329  -0.00426486  1
  O2-  O286  1  0.83345234  0.84394231  0.33420748  1
  O2-  O287  1  0.83195203  0.84160518  0.66424937  1
  O2-  O288  1  0.00608022  0.18945813  0.17567029  1
  O2-  O289  1  -0.00187439  0.17681150  0.50476345  1
  O2-  O290  1  0.00599566  0.18492826  0.83194862  1
  O2-  O291  1  -0.00354153  0.68791961  0.16372307  1
  O2-  O292  1  -0.00389814  0.68279931  0.50857900  1
  O2-  O293  1  0.01217000  0.68183187  0.83305705  1
  O2-  O294  1  0.33105716  0.18226458  0.16317136  1
  O2-  O295  1  0.32801932  0.16998105  0.49360127  1
  O2-  O296  1  0.33748784  0.18764317  0.83304888  1
  O2-  O297  1  0.32341771  0.67095857  0.16002824  1
  O2-  O298  1  0.34088393  0.67911780  0.50397637  1
  O2-  O299  1  0.33112916  0.67657308  0.83692884  1
  O2-  O300  1  0.66316896  0.17950979  0.16307547  1
  O2-  O301  1  0.66463760  0.18462555  0.50333715  1
  O2-  O302  1  0.66519685  0.17321038  0.82912815  1
  O2-  O303  1  0.67259710  0.68073930  0.17898328  1
  O2-  O304  1  0.66349939  0.67950335  0.49339171  1
  O2-  O305  1  0.66737000  0.67849275  0.83324835  1
  O2-  O306  1  0.16613072  0.18841416  0.16849609  1
  O2-  O307  1  0.16681660  0.17558215  0.50411286  1
  O2-  O308  1  0.16870176  0.19415451  0.83403297  1
  O2-  O309  1  0.16365385  0.69020935  0.17202381  1
  O2-  O310  1  0.16925746  0.68281975  0.50017417  1
  O2-  O311  1  0.16985839  0.68315434  0.81887141  1
  O2-  O312  1  0.51093045  0.18084372  0.16071731  1
  O2-  O313  1  0.49116728  0.17716722  0.51378459  1
  O2-  O314  1  0.49377549  0.17431449  0.83026990  1
  O2-  O315  1  0.51024879  0.67183261  0.15997080  1
  O2-  O316  1  0.50937604  0.67605261  0.49133951  1
  O2-  O317  1  0.50519971  0.67478846  0.83314525  1
  O2-  O318  1  0.82867564  0.19412399  0.16322843  1
  O2-  O319  1  0.84300481  0.17676269  0.48689502  1
  O2-  O320  1  0.81744850  0.18200273  0.83677270  1
  O2-  O321  1  0.82496509  0.67632082  0.17662111  1
  O2-  O322  1  0.83580912  0.67995535  0.50266389  1
  O2-  O323  1  0.82864443  0.66942150  0.82538908  1
  O2-  O324  1  0.00355469  0.31145687  0.17630185  1
  O2-  O325  1  0.00332306  0.32642865  0.50426056  1
  O2-  O326  1  -0.00177284  0.32360755  0.82941693  1
  O2-  O327  1  -0.00047876  0.81067574  0.16196528  1
  O2-  O328  1  -0.00121569  0.80628275  0.49665613  1
  O2-  O329  1  -0.00290254  0.82235746  0.82915230  1
  O2-  O330  1  0.33691075  0.31450051  0.16691088  1
  O2-  O331  1  0.33389551  0.32452680  0.49944817  1
  O2-  O332  1  0.32839697  0.32012540  0.82645843  1
  O2-  O333  1  0.33397724  0.82922618  0.16615910  1
  O2-  O334  1  0.33557172  0.81762413  0.49926575  1
  O2-  O335  1  0.32831832  0.82260998  0.82886054  1
  O2-  O336  1  0.67041513  0.31721284  0.16888455  1
  O2-  O337  1  0.66657277  0.32471937  0.49689175  1
  O2-  O338  1  0.66575271  0.32930699  0.83195530  1
  O2-  O339  1  0.65930259  0.81410574  0.16114982  1
  O2-  O340  1  0.66936839  0.82290358  0.50434402  1
  O2-  O341  1  0.67351732  0.82481709  0.84038040  1
  O2-  O342  1  0.16888261  0.31132801  0.17128615  1
  O2-  O343  1  0.16767935  0.32547032  0.50149879  1
  O2-  O344  1  0.16397808  0.30990432  0.83244796  1
  O2-  O345  1  0.17497161  0.81433042  0.16266336  1
  O2-  O346  1  0.17207233  0.81078661  0.49647644  1
  O2-  O347  1  0.16652454  0.81357595  0.83268932  1
  O2-  O348  1  0.50638962  0.32302093  0.15819879  1
  O2-  O349  1  0.50961706  0.32823658  0.49185984  1
  O2-  O350  1  0.50062954  0.32414776  0.83234341  1
  O2-  O351  1  0.49956827  0.82975826  0.16781062  1
  O2-  O352  1  0.49712746  0.82237369  0.50233826  1
  O2-  O353  1  0.50579153  0.82402656  0.82317869  1
  O2-  O354  1  0.82875293  0.31005095  0.16901457  1
  O2-  O355  1  0.83840809  0.32649927  0.49673061  1
  O2-  O356  1  0.83004015  0.33045306  0.83452049  1
  O2-  O357  1  0.83681248  0.81511781  0.15536204  1
  O2-  O358  1  0.83543666  0.81074189  0.50047793  1
  O2-  O359  1  0.83567473  0.82514553  0.83334029  1
  O2-  O360  1  0.09512516  0.08231226  0.11445924  1
  O2-  O361  1  0.06631409  0.07922558  0.45442442  1
  O2-  O362  1  0.08316295  0.08117158  0.78796201  1
  O2-  O363  1  0.07263670  0.57925881  0.10296273  1
  O2-  O364  1  0.08313647  0.57921369  0.44577804  1
  O2-  O365  1  0.10584051  0.57913880  0.77585901  1
  O2-  O366  1  0.41479121  0.07655237  0.10069059  1
  O2-  O367  1  0.41305474  0.07975273  0.44935023  1
  O2-  O368  1  0.41399547  0.08139057  0.78791095  1
  O2-  O369  1  0.41388765  0.57216793  0.11648698  1
  O2-  O370  1  0.42507234  0.58263615  0.45903090  1
  O2-  O371  1  0.40800566  0.57623889  0.78184247  1
  O2-  O372  1  0.75829793  0.08401447  0.11783752  1
  O2-  O373  1  0.76497060  0.08089779  0.44547501  1
  O2-  O374  1  0.73939421  0.08442624  0.78044598  1
  O2-  O375  1  0.76401598  0.57594596  0.12202738  1
  O2-  O376  1  0.73398744  0.58534633  0.42617262  1
  O2-  O377  1  0.73168989  0.57735629  0.77040734  1
  O2-  O378  1  0.25286810  0.07818211  0.21331613  1
  O2-  O379  1  0.23702190  0.07356409  0.54409085  1
  O2-  O380  1  0.25804824  0.08012674  0.89256487  1
  O2-  O381  1  0.23760994  0.58416463  0.21173061  1
  O2-  O382  1  0.23993688  0.58023058  0.54957856  1
  O2-  O383  1  0.23883099  0.57264292  0.90661127  1
  O2-  O384  1  0.59438674  0.05368465  0.19799074  1
  O2-  O385  1  0.56954376  0.08251738  0.55286535  1
  O2-  O386  1  0.57255325  0.07325919  0.87849135  1
  O2-  O387  1  0.59808619  0.58013423  0.21393789  1
  O2-  O388  1  0.58099180  0.58172797  0.55841090  1
  O2-  O389  1  0.57743383  0.58033246  0.89400470  1
  O2-  O390  1  0.90819077  0.08303621  0.22281466  1
  O2-  O391  1  0.91835136  0.07691389  0.54470392  1
  O2-  O392  1  0.89856955  0.08688369  0.89795821  1
  O2-  O393  1  0.91727303  0.58632134  0.21919871  1
  O2-  O394  1  0.93752391  0.57679760  0.55050063  1
  O2-  O395  1  0.93775866  0.57868483  0.91011304  1
  O2-  O396  1  0.08600646  0.41689374  0.11453161  1
  O2-  O397  1  0.08155527  0.41964449  0.44465145  1
  O2-  O398  1  0.08193740  0.42549914  0.78704080  1
  O2-  O399  1  0.08007362  0.91762381  0.09472237  1
  O2-  O400  1  0.07384790  0.91256680  0.44097556  1
  O2-  O401  1  0.07484763  0.91905099  0.78147615  1
  O2-  O402  1  0.41310194  0.41521666  0.08958955  1
  O2-  O403  1  0.40773004  0.41615256  0.43506443  1
  O2-  O404  1  0.40791149  0.42156309  0.78605993  1
  O2-  O405  1  0.41634173  0.92315970  0.11506338  1
  O2-  O406  1  0.40649551  0.91605313  0.43866206  1
  O2-  O407  1  0.39424822  0.92104738  0.76879648  1
  O2-  O408  1  0.74401779  0.42239574  0.10843828  1
  O2-  O409  1  0.75581666  0.41760259  0.44141415  1
  O2-  O410  1  0.75186495  0.42930952  0.78662341  1
  O2-  O411  1  0.74749186  0.91736691  0.10627053  1
  O2-  O412  1  0.76792844  0.91759911  0.45735421  1
  O2-  O413  1  0.77197378  0.91573576  0.78491629  1
  O2-  O414  1  0.24301004  0.42126291  0.21034356  1
  O2-  O415  1  0.23095458  0.42045548  0.55825474  1
  O2-  O416  1  0.22504335  0.42122174  0.87787173  1
  O2-  O417  1  0.24945540  0.91775984  0.22717509  1
  O2-  O418  1  0.25013948  0.91399526  0.55393554  1
  O2-  O419  1  0.22989625  0.92165489  0.88071115  1
  O2-  O420  1  0.59298860  0.41660383  0.21459832  1
  O2-  O421  1  0.59444888  0.42225237  0.55165512  1
  O2-  O422  1  0.58815213  0.42057035  0.90303624  1
  O2-  O423  1  0.58138642  0.92431611  0.22184493  1
  O2-  O424  1  0.57995945  0.91902457  0.57266406  1
  O2-  O425  1  0.59977647  0.91762982  0.88901329  1
  O2-  O426  1  0.92348457  0.41686846  0.22084913  1
  O2-  O427  1  0.92744872  0.42188063  0.54789335  1
  O2-  O428  1  0.93053823  0.42408206  0.88308223  1
  O2-  O429  1  0.92496104  0.91352381  0.22319959  1
  O2-  O430  1  0.92537352  0.91469956  0.55340081  1
  O2-  O431  1  0.92365586  0.91781382  0.88910913  1
  O2-  O432  1  0.00865034  0.00570706  -0.01277025  1
  O2-  O433  1  -0.00165695  0.01198123  0.33519336  1
  O2-  O434  1  0.00156844  0.00549753  0.67198836  1
  O2-  O435  1  0.02279186  0.49392753  -0.02028892  1
  O2-  O436  1  -0.01472362  0.49303658  0.34807857  1
  O2-  O437  1  0.00911117  0.48629935  0.65830999  1
  O2-  O438  1  0.33083134  0.00233084  0.00678444  1
  O2-  O439  1  0.32188866  0.00056511  0.34645866  1
  O2-  O440  1  0.35272926  0.00453004  0.63681078  1
  O2-  O441  1  0.33652106  0.50491269  0.00126529  1
  O2-  O442  1  0.32744886  0.50736638  0.34142783  1
  O2-  O443  1  0.30607906  0.50715153  0.71177365  1
  O2-  O444  1  0.67537079  0.00332696  -0.00925331  1
  O2-  O445  1  0.66153213  0.02011715  0.33366682  1
  O2-  O446  1  0.64981440  -0.00480995  0.70234468  1
  O2-  O447  1  0.63298178  0.50835800  0.06235105  1
  O2-  O448  1  0.65608633  0.49846494  0.33676875  1
  O2-  O449  1  0.66477835  0.48734834  0.67732500  1
  O2-  O450  1  0.16831636  -0.00013379  0.00027221  1
  O2-  O451  1  0.16958999  0.01254937  0.34471654  1
  O2-  O452  1  0.18164609  -0.00718460  0.68639172  1
  O2-  O453  1  0.17562488  0.48777764  0.02327842  1
  O2-  O454  1  0.16712774  0.49075948  0.33504805  1
  O2-  O455  1  0.15989012  0.48112068  0.67079121  1
  O2-  O456  1  0.50238178  0.01268820  -0.00010381  1
  O2-  O457  1  0.49600598  0.00350509  0.32552056  1
  O2-  O458  1  0.49966424  0.01410547  0.68060456  1
  O2-  O459  1  0.48685725  0.50787286  -0.00145137  1
  O2-  O460  1  0.49698747  0.50058737  0.34361820  1
  O2-  O461  1  0.50225129  0.51360559  0.67609303  1
  O2-  O462  1  0.83513611  -0.01099301  0.00318937  1
  O2-  O463  1  0.84316733  0.00595446  0.34333411  1
  O2-  O464  1  0.83293273  -0.02462580  0.66877522  1
  O2-  O465  1  0.83476570  0.50268323  0.00047237  1
  O2-  O466  1  0.82642340  0.50062273  0.31171717  1
  O2-  O467  1  0.83385631  0.48501981  0.66978458  1
  O2-  O468  1  0.07856256  0.25059914  0.40443009  1
  O2-  O469  1  0.42030799  0.74851506  0.38868554  1
  O2-  O470  1  0.42425687  0.25343290  0.06798549  1
  O2-  O471  1  0.58493665  0.74703682  0.93884208  1
  O2-  O472  1  0.58023170  0.25026282  0.61075429  1
  O2-  O473  1  0.91990575  0.25397041  0.60053206  1
  O2-  O474  1  0.75161091  0.74998272  0.39417266  1
  O2-  O475  1  0.74636522  0.74904141  0.73456281  1
  O2-  O476  1  0.57690579  0.25507004  0.27261725  1
  O2-  O477  1  0.74679981  0.25376022  0.72937073  1
  O2-  O478  1  0.41740367  0.75458315  0.72675357  1
  O2-  O479  1  0.89678867  0.74969906  0.27107429  1
  O2-  O480  1  0.58217391  0.75154657  0.60129753  1
  O2-  O481  1  0.42032979  0.75557439  0.07512940  1
  O2-  O482  1  0.27651245  0.75079524  0.26388574  1
  O2-  O483  1  0.25978707  0.74739061  0.61221188  1
  O2-  O484  1  0.07604552  0.24991648  0.05534901  1
  O2-  O485  1  0.41898111  0.24976773  0.71919821  1
  O2-  O486  1  0.42040843  0.24903301  0.40793759  1
  O2-  O487  1  0.57034501  0.74936392  0.27211818  1
  O2-  O488  1  0.91479629  0.74966655  0.92695294  1
  O2-  O489  1  0.75469827  0.24918173  0.39453620  1
  O2-  O490  1  0.25568777  0.25450086  0.59928348  1
  O2-  O491  1  0.58686432  0.25561418  0.92656142  1
  O2-  O492  1  0.91930903  0.25840670  0.92503761  1
