# generated using pymatgen
data_Ca108Mn108O277
_symmetry_space_group_name_H-M   'P 1'
_cell_length_a   16.02852156
_cell_length_b   22.30683002
_cell_length_c   16.39025041
_cell_angle_alpha   90.00542590
_cell_angle_beta   89.99514217
_cell_angle_gamma   89.99356964
_symmetry_Int_Tables_number   1
_chemical_formula_structural   Ca108Mn108O277
_chemical_formula_sum   'Ca108 Mn108 O277'
_cell_volume   5860.26029438
_cell_formula_units_Z   1
loop_
 _symmetry_equiv_pos_site_id
 _symmetry_equiv_pos_as_xyz
  1  'x, y, z'
loop_
 _atom_type_symbol
 _atom_type_oxidation_number
  Ca2+  2.0
  Mn3.34+  3.34
  O2-  -2.0
loop_
 _atom_site_type_symbol
 _atom_site_label
 _atom_site_symmetry_multiplicity
 _atom_site_fract_x
 _atom_site_fract_y
 _atom_site_fract_z
 _atom_site_occupancy
  Ca2+  Ca0  1  0.08451237  0.24994589  0.25839213  1
  Ca2+  Ca1  1  0.09916512  0.24180081  0.58674515  1
  Ca2+  Ca2  1  0.08332636  0.25387380  0.90668769  1
  Ca2+  Ca3  1  0.10930133  0.74049647  0.25930663  1
  Ca2+  Ca4  1  0.07518539  0.74674943  0.55305333  1
  Ca2+  Ca5  1  0.06228686  0.74739920  0.91552428  1
  Ca2+  Ca6  1  0.41317342  0.25688640  0.23645627  1
  Ca2+  Ca7  1  0.41105065  0.25823769  0.58653861  1
  Ca2+  Ca8  1  0.41780240  0.24658924  0.92783776  1
  Ca2+  Ca9  1  0.40655575  0.74765336  0.24316236  1
  Ca2+  Ca10  1  0.43712457  0.74951151  0.56328286  1
  Ca2+  Ca11  1  0.41217761  0.74855554  0.93905909  1
  Ca2+  Ca12  1  0.75856635  0.25346493  0.22474390  1
  Ca2+  Ca13  1  0.74120326  0.26121408  0.59262167  1
  Ca2+  Ca14  1  0.74660639  0.24634059  0.91904105  1
  Ca2+  Ca15  1  0.73705423  0.74906656  0.23397990  1
  Ca2+  Ca16  1  0.74056823  0.75174340  0.58110739  1
  Ca2+  Ca17  1  0.75875398  0.74479245  0.92911966  1
  Ca2+  Ca18  1  0.27873407  0.23876196  0.08003254  1
  Ca2+  Ca19  1  0.24117559  0.23773092  0.41499727  1
  Ca2+  Ca20  1  0.24298655  0.25122063  0.74348973  1
  Ca2+  Ca21  1  0.26715331  0.74434051  0.09778251  1
  Ca2+  Ca22  1  0.24499176  0.74462565  0.39555655  1
  Ca2+  Ca23  1  0.23720726  0.76113632  0.76458096  1
  Ca2+  Ca24  1  0.57089012  0.25212761  0.06953375  1
  Ca2+  Ca25  1  0.57820795  0.26224305  0.42083061  1
  Ca2+  Ca26  1  0.58146650  0.26365568  0.75530778  1
  Ca2+  Ca27  1  0.57875635  0.73384682  0.08316905  1
  Ca2+  Ca28  1  0.58422136  0.75069676  0.41204149  1
  Ca2+  Ca29  1  0.59896601  0.74964751  0.74264925  1
  Ca2+  Ca30  1  0.90019234  0.24867308  0.07975562  1
  Ca2+  Ca31  1  0.94239194  0.24508419  0.40919627  1
  Ca2+  Ca32  1  0.91884680  0.24803010  0.75782391  1
  Ca2+  Ca33  1  0.89719340  0.74019555  0.06001058  1
  Ca2+  Ca34  1  0.92155120  0.75754971  0.41674032  1
  Ca2+  Ca35  1  0.90710903  0.74872439  0.77307418  1
  Ca2+  Ca36  1  0.58953983  0.08843210  0.74477984  1
  Ca2+  Ca37  1  0.60209260  0.08799510  0.74684907  1
  Ca2+  Ca38  1  0.07353998  0.10421791  0.89634176  1
  Ca2+  Ca39  1  0.40457822  0.60612320  0.23862559  1
  Ca2+  Ca40  1  0.37153809  0.12123951  0.24161787  1
  Ca2+  Ca41  1  0.11241149  0.59902061  0.24426604  1
  Ca2+  Ca42  1  0.58713838  0.07765593  0.41686082  1
  Ca2+  Ca43  1  0.58681376  0.58789512  0.74837616  1
  Ca2+  Ca44  1  0.41736601  0.09793130  0.93787339  1
  Ca2+  Ca45  1  0.94021762  0.60391531  0.42406439  1
  Ca2+  Ca46  1  0.26448318  0.60710144  0.09523381  1
  Ca2+  Ca47  1  0.06496528  0.58090982  0.94673242  1
  Ca2+  Ca48  1  0.89415314  0.59680165  0.06919536  1
  Ca2+  Ca49  1  0.73023588  0.60006789  0.23126051  1
  Ca2+  Ca50  1  0.76861797  0.06912664  0.58770664  1
  Ca2+  Ca51  1  0.57402869  0.59217977  0.41240823  1
  Ca2+  Ca52  1  0.77381533  0.08380744  0.24654052  1
  Ca2+  Ca53  1  0.10121998  0.09260585  0.54841543  1
  Ca2+  Ca54  1  0.92830932  0.08790155  0.74654884  1
  Ca2+  Ca55  1  0.22746302  0.08616461  0.71363956  1
  Ca2+  Ca56  1  0.08629915  0.10399624  0.89690034  1
  Ca2+  Ca57  1  0.09884075  0.10001187  0.30197495  1
  Ca2+  Ca58  1  0.75618733  0.60475009  0.92704435  1
  Ca2+  Ca59  1  0.37529416  0.11573312  0.23547545  1
  Ca2+  Ca60  1  0.26072824  0.57314756  0.75737863  1
  Ca2+  Ca61  1  0.75658781  0.07171089  0.59093339  1
  Ca2+  Ca62  1  0.27329000  0.57191761  0.75879227  1
  Ca2+  Ca63  1  0.42579211  0.59551818  0.95077366  1
  Ca2+  Ca64  1  0.23416303  0.60195162  0.39688387  1
  Ca2+  Ca65  1  0.95206843  0.60374694  0.42849489  1
  Ca2+  Ca66  1  0.05601134  0.58384821  0.94307158  1
  Ca2+  Ca67  1  0.76490425  0.07749494  0.24968896  1
  Ca2+  Ca68  1  0.58158071  0.09723844  0.07445101  1
  Ca2+  Ca69  1  0.74133640  0.59281855  0.58572005  1
  Ca2+  Ca70  1  0.89591091  0.59963942  0.76685991  1
  Ca2+  Ca71  1  0.57487786  0.08011540  0.41739489  1
  Ca2+  Ca72  1  0.08386455  0.91021717  0.25553108  1
  Ca2+  Ca73  1  0.75584840  0.90807013  0.58746362  1
  Ca2+  Ca74  1  0.94026694  0.41473067  0.08093928  1
  Ca2+  Ca75  1  0.25299690  0.89319634  0.08490142  1
  Ca2+  Ca76  1  0.40217971  0.40784519  0.25988858  1
  Ca2+  Ca77  1  0.73793864  0.41106818  0.25364710  1
  Ca2+  Ca78  1  0.39771092  0.90668358  0.58465942  1
  Ca2+  Ca79  1  0.92763320  0.41639818  0.08029426  1
  Ca2+  Ca80  1  0.73551339  0.41125166  0.58791062  1
  Ca2+  Ca81  1  0.07953716  0.90674549  0.91503453  1
  Ca2+  Ca82  1  0.91441656  0.92329316  0.42427673  1
  Ca2+  Ca83  1  0.90800879  0.90269536  0.08075340  1
  Ca2+  Ca84  1  0.41967556  0.41019646  0.90889760  1
  Ca2+  Ca85  1  0.92412038  0.92555618  0.42667039  1
  Ca2+  Ca86  1  0.10559765  0.91394007  0.57264816  1
  Ca2+  Ca87  1  0.08749832  0.41182838  0.92447877  1
  Ca2+  Ca88  1  0.73901206  0.90570194  0.24857130  1
  Ca2+  Ca89  1  0.92278526  0.40552208  0.40883522  1
  Ca2+  Ca90  1  0.74906953  0.41241560  0.25469809  1
  Ca2+  Ca91  1  0.56856173  0.41544630  0.74396533  1
  Ca2+  Ca92  1  0.09212757  0.40718249  0.25076801  1
  Ca2+  Ca93  1  0.74524105  0.40396387  0.91367952  1
  Ca2+  Ca94  1  0.40926449  0.90305297  0.58611687  1
  Ca2+  Ca95  1  0.06791528  0.90649168  0.91444376  1
  Ca2+  Ca96  1  0.25074806  0.91185034  0.73181701  1
  Ca2+  Ca97  1  0.24383591  0.40578207  0.08270542  1
  Ca2+  Ca98  1  0.58280812  0.90575718  0.41889352  1
  Ca2+  Ca99  1  0.57397085  0.41085129  0.41755020  1
  Ca2+  Ca100  1  0.41484788  0.40764435  0.25923407  1
  Ca2+  Ca101  1  0.07494926  0.90806415  0.26017415  1
  Ca2+  Ca102  1  0.74762334  0.90927843  0.25186302  1
  Ca2+  Ca103  1  0.40862361  0.40972234  0.90828911  1
  Ca2+  Ca104  1  0.08681518  0.39114624  0.57972153  1
  Ca2+  Ca105  1  0.58075595  0.90134153  0.74421584  1
  Ca2+  Ca106  1  0.91842128  0.40035227  0.75175330  1
  Ca2+  Ca107  1  0.90746631  0.91083362  0.73784724  1
  Mn3.34+  Mn108  1  0.08676137  0.33182765  0.08514261  1
  Mn3.34+  Mn109  1  0.09088527  0.33399369  0.41872529  1
  Mn3.34+  Mn110  1  0.08623889  0.33605494  0.75111159  1
  Mn3.34+  Mn111  1  0.08132975  0.83217779  0.08753928  1
  Mn3.34+  Mn112  1  0.08508969  0.83495592  0.41891833  1
  Mn3.34+  Mn113  1  0.08062077  0.83550405  0.74643396  1
  Mn3.34+  Mn114  1  0.41857265  0.33752752  0.08288482  1
  Mn3.34+  Mn115  1  0.40756615  0.33525982  0.42386622  1
  Mn3.34+  Mn116  1  0.40970334  0.34172408  0.74419627  1
  Mn3.34+  Mn117  1  0.42283251  0.82679244  0.08364643  1
  Mn3.34+  Mn118  1  0.41393790  0.83355100  0.41025750  1
  Mn3.34+  Mn119  1  0.41735735  0.82730022  0.75780533  1
  Mn3.34+  Mn120  1  0.74558541  0.33784881  0.08050259  1
  Mn3.34+  Mn121  1  0.75106753  0.33554235  0.42189945  1
  Mn3.34+  Mn122  1  0.74963682  0.33527914  0.74988735  1
  Mn3.34+  Mn123  1  0.73928037  0.83253850  0.07786617  1
  Mn3.34+  Mn124  1  0.75421842  0.83485927  0.42101397  1
  Mn3.34+  Mn125  1  0.74700014  0.83241969  0.75281236  1
  Mn3.34+  Mn126  1  0.24705939  0.32551216  0.24817340  1
  Mn3.34+  Mn127  1  0.25195227  0.32876777  0.57961474  1
  Mn3.34+  Mn128  1  0.24807029  0.33269006  0.91205402  1
  Mn3.34+  Mn129  1  0.25590831  0.83203021  0.25031918  1
  Mn3.34+  Mn130  1  0.24906313  0.82914056  0.57937781  1
  Mn3.34+  Mn131  1  0.25284201  0.83086547  0.91666432  1
  Mn3.34+  Mn132  1  0.58277004  0.33471940  0.24895756  1
  Mn3.34+  Mn133  1  0.57573364  0.33590598  0.58418944  1
  Mn3.34+  Mn134  1  0.58365916  0.33659655  0.91494398  1
  Mn3.34+  Mn135  1  0.57456579  0.83374474  0.24752320  1
  Mn3.34+  Mn136  1  0.58444451  0.83285453  0.58111021  1
  Mn3.34+  Mn137  1  0.58150306  0.83042837  0.91557963  1
  Mn3.34+  Mn138  1  0.92023358  0.33210892  0.24644989  1
  Mn3.34+  Mn139  1  0.91631269  0.32919507  0.57964115  1
  Mn3.34+  Mn140  1  0.91634352  0.33102177  0.91364518  1
  Mn3.34+  Mn141  1  0.91646373  0.83378725  0.24756815  1
  Mn3.34+  Mn142  1  0.91670772  0.83791783  0.58283144  1
  Mn3.34+  Mn143  1  0.90561007  0.83610338  0.91394017  1
  Mn3.34+  Mn144  1  0.41305974  0.16346947  0.42687868  1
  Mn3.34+  Mn145  1  0.58584363  0.66455823  0.91543638  1
  Mn3.34+  Mn146  1  0.74871749  0.66806821  0.41690224  1
  Mn3.34+  Mn147  1  0.24933742  0.66865143  0.57882798  1
  Mn3.34+  Mn148  1  0.42399325  0.67610692  0.75189735  1
  Mn3.34+  Mn149  1  0.58256109  0.66305347  0.57830975  1
  Mn3.34+  Mn150  1  0.41867002  0.16629402  0.74751146  1
  Mn3.34+  Mn151  1  0.07611420  0.65616459  0.74657747  1
  Mn3.34+  Mn152  1  0.91245605  0.67044133  0.24419292  1
  Mn3.34+  Mn153  1  0.58803659  0.16249379  0.24452078  1
  Mn3.34+  Mn154  1  0.57842702  0.66916895  0.24704177  1
  Mn3.34+  Mn155  1  0.58721275  0.16802881  0.91574345  1
  Mn3.34+  Mn156  1  0.08829296  0.66460243  0.74621038  1
  Mn3.34+  Mn157  1  0.24871607  0.66849215  0.91844078  1
  Mn3.34+  Mn158  1  0.58321826  0.17095680  0.57926126  1
  Mn3.34+  Mn159  1  0.90760482  0.67250971  0.58545098  1
  Mn3.34+  Mn160  1  0.41763478  0.66642151  0.41464099  1
  Mn3.34+  Mn161  1  0.24973334  0.16411043  0.57589125  1
  Mn3.34+  Mn162  1  0.92830765  0.16088880  0.58249003  1
  Mn3.34+  Mn163  1  0.08379916  0.66403253  0.08489540  1
  Mn3.34+  Mn164  1  0.57489251  0.16973099  0.24631611  1
  Mn3.34+  Mn165  1  0.40914126  0.16064816  0.74898411  1
  Mn3.34+  Mn166  1  0.75158951  0.16754363  0.75302703  1
  Mn3.34+  Mn167  1  0.92267005  0.16923781  0.24938040  1
  Mn3.34+  Mn168  1  0.09162175  0.16680830  0.09275842  1
  Mn3.34+  Mn169  1  0.07896677  0.16169591  0.09113159  1
  Mn3.34+  Mn170  1  0.41498799  0.66674065  0.75457904  1
  Mn3.34+  Mn171  1  0.74565344  0.66837995  0.75200957  1
  Mn3.34+  Mn172  1  0.92275449  0.66583230  0.24142647  1
  Mn3.34+  Mn173  1  0.75832771  0.16546443  0.42051639  1
  Mn3.34+  Mn174  1  0.75034218  0.17159957  0.41775037  1
  Mn3.34+  Mn175  1  0.25082318  0.17092663  0.91622753  1
  Mn3.34+  Mn176  1  0.91832030  0.16631847  0.58335443  1
  Mn3.34+  Mn177  1  0.25860098  0.66295913  0.57644036  1
  Mn3.34+  Mn178  1  0.91094584  0.16750463  0.91441344  1
  Mn3.34+  Mn179  1  0.75517794  0.16259969  0.07705811  1
  Mn3.34+  Mn180  1  0.07967650  -0.00232869  0.72513920  1
  Mn3.34+  Mn181  1  0.41357390  -0.00167076  0.74907345  1
  Mn3.34+  Mn182  1  0.58257400  -0.00948599  0.92362778  1
  Mn3.34+  Mn183  1  0.24821454  0.49896963  0.25622498  1
  Mn3.34+  Mn184  1  0.58752629  0.50173081  0.92805402  1
  Mn3.34+  Mn185  1  0.74481054  0.50084558  0.74949914  1
  Mn3.34+  Mn186  1  0.91531412  0.49527133  0.58814341  1
  Mn3.34+  Mn187  1  0.26346538  -0.00120615  0.91246900  1
  Mn3.34+  Mn188  1  0.56869582  -0.00115825  0.25304399  1
  Mn3.34+  Mn189  1  0.24697835  -0.00286117  0.25979895  1
  Mn3.34+  Mn190  1  0.74047885  0.50127946  0.06777158  1
  Mn3.34+  Mn191  1  0.90746068  0.49392866  0.91765104  1
  Mn3.34+  Mn192  1  0.41516870  -0.00267042  0.09198208  1
  Mn3.34+  Mn193  1  0.25852962  0.49148157  0.58462587  1
  Mn3.34+  Mn194  1  0.25220425  0.00226035  0.91430075  1
  Mn3.34+  Mn195  1  0.40864621  -0.00034513  0.41394794  1
  Mn3.34+  Mn196  1  0.57804426  0.50369977  0.24963693  1
  Mn3.34+  Mn197  1  0.57171136  0.50070703  0.59771959  1
  Mn3.34+  Mn198  1  0.92447207  0.50264266  0.25633241  1
  Mn3.34+  Mn199  1  0.08947227  0.49422019  0.75189262  1
  Mn3.34+  Mn200  1  0.24810273  0.49817377  0.92718985  1
  Mn3.34+  Mn201  1  0.56932689  0.00284936  0.58918646  1
  Mn3.34+  Mn202  1  0.93014400  0.00178303  0.24175343  1
  Mn3.34+  Mn203  1  0.75279970  0.50285827  0.40966678  1
  Mn3.34+  Mn204  1  0.75471450  -0.00156040  0.75792285  1
  Mn3.34+  Mn205  1  0.75614523  -0.00099397  0.06825463  1
  Mn3.34+  Mn206  1  0.42809982  -0.00912769  0.08902840  1
  Mn3.34+  Mn207  1  0.59542611  -0.00370987  0.92299774  1
  Mn3.34+  Mn208  1  0.90650576  0.00318246  0.92433922  1
  Mn3.34+  Mn209  1  0.41271368  0.50379348  0.41238086  1
  Mn3.34+  Mn210  1  0.42331476  0.49901621  0.07907781  1
  Mn3.34+  Mn211  1  0.25512955  0.00203993  0.25404811  1
  Mn3.34+  Mn212  1  0.08773325  0.49859307  0.41686836  1
  Mn3.34+  Mn213  1  0.07479958  0.00266304  0.07500679  1
  Mn3.34+  Mn214  1  0.92864874  0.50216530  0.58800350  1
  Mn3.34+  Mn215  1  0.26985853  0.49500545  0.58236110  1
  O2-  O216  1  0.00902862  0.16501720  -0.00069454  1
  O2-  O217  1  0.00354032  0.17538937  0.32468876  1
  O2-  O218  1  0.00099793  0.15899043  0.67010638  1
  O2-  O219  1  0.00401232  0.66763003  0.00376777  1
  O2-  O220  1  0.00269754  0.65393634  0.32066429  1
  O2-  O221  1  -0.00702481  0.67111326  0.66694200  1
  O2-  O222  1  0.33425585  0.16244809  -0.01000743  1
  O2-  O223  1  0.34614709  0.18478950  0.33896336  1
  O2-  O224  1  0.33414399  0.15342660  0.66556142  1
  O2-  O225  1  0.32752394  0.66381863  -0.00573241  1
  O2-  O226  1  0.33441339  0.66122859  0.34284486  1
  O2-  O227  1  0.32919037  0.66829487  0.67259721  1
  O2-  O228  1  0.66765616  0.16057424  -0.00084720  1
  O2-  O229  1  0.66464304  0.15135319  0.33494850  1
  O2-  O230  1  0.67671200  0.14498414  0.65690382  1
  O2-  O231  1  0.66611516  0.67365586  -0.01425443  1
  O2-  O232  1  0.66711632  0.65126490  0.33900507  1
  O2-  O233  1  0.66105075  0.65180586  0.66696639  1
  O2-  O234  1  0.16440518  0.15948461  0.00200163  1
  O2-  O235  1  0.15784343  0.18749784  0.33230156  1
  O2-  O236  1  0.17036098  0.16916762  0.66187792  1
  O2-  O237  1  0.15928122  0.64960148  -0.00694727  1
  O2-  O238  1  0.16456852  0.66465624  0.32948861  1
  O2-  O239  1  0.16858360  0.64939060  0.66338711  1
  O2-  O240  1  0.50817400  0.15866500  -0.00624963  1
  O2-  O241  1  0.49802228  0.14919844  0.33426672  1
  O2-  O242  1  0.50466805  0.14589147  0.67273416  1
  O2-  O243  1  0.50436937  0.67461805  -0.01304629  1
  O2-  O244  1  0.49765569  0.65265242  0.33454240  1
  O2-  O245  1  0.49880468  0.66249979  0.66632507  1
  O2-  O246  1  0.83527126  0.16028704  -0.00144499  1
  O2-  O247  1  0.83363339  0.15405233  0.33199788  1
  O2-  O248  1  0.83476047  0.14380697  0.66198243  1
  O2-  O249  1  0.83399014  0.66490333  -0.00354224  1
  O2-  O250  1  0.84206871  0.64373376  0.33642047  1
  O2-  O251  1  0.82800921  0.65554586  0.66663594  1
  O2-  O252  1  0.00241293  0.34231568  -0.00202537  1
  O2-  O253  1  0.00444567  0.33697961  0.33100877  1
  O2-  O254  1  -0.00118681  0.33773609  0.66819639  1
  O2-  O255  1  -0.00068911  0.84262218  -0.00033620  1
  O2-  O256  1  -0.00502793  0.85157412  0.33697523  1
  O2-  O257  1  -0.00141593  0.83847351  0.66432412  1
  O2-  O258  1  0.33412937  0.35305970  0.00001858  1
  O2-  O259  1  0.34046308  0.32734180  0.32279509  1
  O2-  O260  1  0.33061434  0.33845355  0.66435229  1
  O2-  O261  1  0.32712058  0.82953443  0.00276534  1
  O2-  O262  1  0.32874949  0.83667705  0.33761484  1
  O2-  O263  1  0.33128884  0.82004122  0.66832566  1
  O2-  O264  1  0.66996484  0.33980321  -0.00589475  1
  O2-  O265  1  0.66581719  0.34658354  0.33857553  1
  O2-  O266  1  0.66317641  0.34804103  0.66902346  1
  O2-  O267  1  0.66399803  0.81797127  -0.00526539  1
  O2-  O268  1  0.67308462  0.84927909  0.33921502  1
  O2-  O269  1  0.66524352  0.84463789  0.66453225  1
  O2-  O270  1  0.16486542  0.34034249  -0.00226888  1
  O2-  O271  1  0.16659496  0.32057204  0.33122407  1
  O2-  O272  1  0.16080042  0.32758611  0.66315870  1
  O2-  O273  1  0.16010046  0.84884469  -0.00305285  1
  O2-  O274  1  0.16073111  0.84577317  0.32863745  1
  O2-  O275  1  0.16915064  0.83899680  0.66690259  1
  O2-  O276  1  0.49669022  0.35255567  -0.00481020  1
  O2-  O277  1  0.49850268  0.33882255  0.33565769  1
  O2-  O278  1  0.50075649  0.34441821  0.67118051  1
  O2-  O279  1  0.50137118  0.81854663  -0.00282953  1
  O2-  O280  1  0.50470012  0.84596669  0.33965374  1
  O2-  O281  1  0.49348032  0.83846477  0.66125887  1
  O2-  O282  1  0.83935424  0.35438668  0.00348447  1
  O2-  O283  1  0.82976472  0.34836687  0.32904748  1
  O2-  O284  1  0.82955919  0.35057215  0.66032359  1
  O2-  O285  1  0.83201900  0.84071003  0.00330265  1
  O2-  O286  1  0.83990651  0.85946441  0.33671108  1
  O2-  O287  1  0.83276698  0.83898507  0.66310331  1
  O2-  O288  1  -0.00516888  0.19112975  0.15898686  1
  O2-  O289  1  0.00759673  0.17988575  0.50577437  1
  O2-  O290  1  -0.00034826  0.17975988  0.84083967  1
  O2-  O291  1  0.00226018  0.69252319  0.16170445  1
  O2-  O292  1  -0.01682940  0.68373441  0.49890596  1
  O2-  O293  1  0.00347478  0.66796412  0.83439145  1
  O2-  O294  1  0.33010926  0.19386793  0.18109135  1
  O2-  O295  1  0.34005409  0.18679086  0.50350880  1
  O2-  O296  1  0.32774807  0.17857019  0.82718163  1
  O2-  O297  1  0.33496769  0.67557619  0.16998063  1
  O2-  O298  1  0.33998000  0.68948709  0.50141047  1
  O2-  O299  1  0.33179759  0.68963270  0.83226250  1
  O2-  O300  1  0.66832993  0.17695309  0.16368908  1
  O2-  O301  1  0.67270187  0.19815685  0.49623034  1
  O2-  O302  1  0.65545832  0.17915778  0.81913791  1
  O2-  O303  1  0.66113684  0.67767006  0.17562009  1
  O2-  O304  1  0.67102709  0.67663174  0.50248583  1
  O2-  O305  1  0.66300647  0.68261373  0.82848869  1
  O2-  O306  1  0.16424140  0.19763012  0.15944337  1
  O2-  O307  1  0.17016405  0.17747999  0.50229114  1
  O2-  O308  1  0.16012551  0.17956687  0.84322689  1
  O2-  O309  1  0.16699175  0.67974915  0.15306943  1
  O2-  O310  1  0.17404391  0.68762140  0.49758238  1
  O2-  O311  1  0.17754248  0.66902735  0.82248966  1
  O2-  O312  1  0.49800330  0.18141809  0.16515876  1
  O2-  O313  1  0.50985073  0.18492460  0.48704618  1
  O2-  O314  1  0.49671951  0.17529520  0.83210296  1
  O2-  O315  1  0.49627581  0.67926040  0.17910236  1
  O2-  O316  1  0.50992570  0.67753685  0.49208056  1
  O2-  O317  1  0.50568882  0.68628114  0.83039090  1
  O2-  O318  1  0.82672050  0.16948239  0.17382943  1
  O2-  O319  1  0.84058624  0.18612028  0.50059015  1
  O2-  O320  1  0.83790731  0.17798638  0.82571238  1
  O2-  O321  1  0.83034548  0.67472486  0.16917427  1
  O2-  O322  1  0.83005779  0.68543220  0.50041401  1
  O2-  O323  1  0.82620418  0.67525090  0.82793653  1
  O2-  O324  1  -0.00461342  0.31400588  0.15729729  1
  O2-  O325  1  0.00376689  0.31264858  0.49827289  1
  O2-  O326  1  -0.00095278  0.31366799  0.83008201  1
  O2-  O327  1  0.00196224  0.81718552  0.17254859  1
  O2-  O328  1  -0.00476449  0.82123446  0.49994284  1
  O2-  O329  1  0.00241538  0.83006860  0.83691434  1
  O2-  O330  1  0.33088155  0.32437921  0.16306253  1
  O2-  O331  1  0.32745904  0.31155041  0.49424348  1
  O2-  O332  1  0.34141951  0.32728077  0.84259863  1
  O2-  O333  1  0.33012874  0.82574195  0.16401453  1
  O2-  O334  1  0.34121774  0.81814432  0.50908324  1
  O2-  O335  1  0.33232807  0.81255337  0.83515743  1
  O2-  O336  1  0.67380934  0.32841522  0.17717219  1
  O2-  O337  1  0.66518558  0.32192654  0.50169774  1
  O2-  O338  1  0.66818021  0.32371174  0.83495485  1
  O2-  O339  1  0.67114413  0.83041989  0.17699655  1
  O2-  O340  1  0.66907742  0.82891242  0.50105036  1
  O2-  O341  1  0.66402541  0.81700627  0.82847433  1
  O2-  O342  1  0.16452764  0.31766167  0.16771339  1
  O2-  O343  1  0.16335549  0.31096242  0.50242750  1
  O2-  O344  1  0.16745298  0.31459907  0.83102611  1
  O2-  O345  1  0.16647448  0.82012636  0.16425991  1
  O2-  O346  1  0.16368826  0.82173601  0.50345951  1
  O2-  O347  1  0.16255802  0.83631390  0.83556175  1
  O2-  O348  1  0.49367552  0.32897339  0.17469103  1
  O2-  O349  1  0.49578570  0.31826284  0.49873538  1
  O2-  O350  1  0.49777531  0.32776565  0.83739504  1
  O2-  O351  1  0.50056083  0.81599721  0.16827895  1
  O2-  O352  1  0.50139745  0.82730109  0.50095395  1
  O2-  O353  1  0.50352100  0.80451764  0.82650150  1
  O2-  O354  1  0.83414003  0.33384769  0.16536414  1
  O2-  O355  1  0.83623267  0.31193391  0.49278063  1
  O2-  O356  1  0.83310061  0.32078058  0.83324877  1
  O2-  O357  1  0.82777731  0.83359747  0.17716525  1
  O2-  O358  1  0.83517507  0.81462853  0.50324929  1
  O2-  O359  1  0.83569160  0.82729153  0.82447401  1
  O2-  O360  1  0.08424035  0.08141721  0.12479074  1
  O2-  O361  1  0.09023521  0.07088473  0.42544148  1
  O2-  O362  1  0.08780561  0.06868128  0.77369209  1
  O2-  O363  1  0.07592895  0.58400228  0.09783809  1
  O2-  O364  1  0.07986193  0.57671834  0.44816102  1
  O2-  O365  1  0.09963373  0.57572902  0.79239753  1
  O2-  O366  1  0.42605906  0.07584815  0.12576535  1
  O2-  O367  1  0.43657232  0.07900474  0.44865253  1
  O2-  O368  1  0.41963926  0.07765914  0.79334342  1
  O2-  O369  1  0.40663927  0.57599086  0.09905589  1
  O2-  O370  1  0.41345662  0.58275733  0.44082423  1
  O2-  O371  1  0.40186665  0.58440603  0.79773473  1
  O2-  O372  1  0.73991745  0.07540093  0.11751173  1
  O2-  O373  1  0.72782543  0.08037970  0.45812447  1
  O2-  O374  1  0.73880275  0.08119835  0.78007304  1
  O2-  O375  1  0.75510684  0.57447072  0.10030823  1
  O2-  O376  1  0.76243265  0.58155885  0.44786947  1
  O2-  O377  1  0.74354428  0.58227987  0.78093993  1
  O2-  O378  1  0.24355174  0.08277482  0.22693515  1
  O2-  O379  1  0.23882696  0.08402960  0.57485539  1
  O2-  O380  1  0.23562978  0.08427235  0.88683458  1
  O2-  O381  1  0.25085658  0.57510922  0.22475163  1
  O2-  O382  1  0.25440035  0.57661881  0.53870643  1
  O2-  O383  1  0.25813507  0.57834101  0.89298228  1
  O2-  O384  1  0.57015291  0.08108665  0.21190568  1
  O2-  O385  1  0.59191082  0.08475557  0.55096878  1
  O2-  O386  1  0.58139626  0.07609701  0.87850100  1
  O2-  O387  1  0.58245637  0.58285825  0.23039626  1
  O2-  O388  1  0.58820608  0.57603094  0.55206417  1
  O2-  O389  1  0.57621447  0.58118170  0.88962389  1
  O2-  O390  1  0.92042062  0.08391239  0.23382133  1
  O2-  O391  1  0.90516761  0.08044273  0.55185237  1
  O2-  O392  1  0.93394463  0.08320329  0.88550849  1
  O2-  O393  1  0.92297816  0.58269916  0.20771709  1
  O2-  O394  1  0.90630868  0.58120271  0.55337202  1
  O2-  O395  1  0.92521769  0.57390437  0.89610397  1
  O2-  O396  1  0.07517307  0.41992367  0.11553610  1
  O2-  O397  1  0.07380678  0.41936424  0.44659851  1
  O2-  O398  1  0.06651178  0.41730098  0.78804228  1
  O2-  O399  1  0.08004744  0.92215155  0.12109848  1
  O2-  O400  1  0.06117661  0.91948055  0.44640072  1
  O2-  O401  1  0.08704231  0.92914018  0.78136403  1
  O2-  O402  1  0.40906584  0.42358340  0.12510056  1
  O2-  O403  1  0.41945509  0.42116618  0.42121856  1
  O2-  O404  1  0.42371561  0.42134720  0.77655652  1
  O2-  O405  1  0.40801411  0.91136066  0.09233131  1
  O2-  O406  1  0.41451222  0.91888083  0.45243769  1
  O2-  O407  1  0.41568937  0.91607642  0.75274715  1
  O2-  O408  1  0.74996971  0.42771666  0.12020410  1
  O2-  O409  1  0.74907533  0.42441740  0.45068068  1
  O2-  O410  1  0.75587383  0.42003655  0.77793994  1
  O2-  O411  1  0.75241179  0.92192157  0.11172300  1
  O2-  O412  1  0.77067077  0.92026215  0.44551903  1
  O2-  O413  1  0.74748037  0.91670961  0.76078638  1
  O2-  O414  1  0.25588594  0.41835612  0.22550828  1
  O2-  O415  1  0.23301773  0.41274203  0.55611552  1
  O2-  O416  1  0.24748382  0.41883568  0.89488736  1
  O2-  O417  1  0.23846796  0.91775391  0.22067113  1
  O2-  O418  1  0.26498716  0.91329705  0.57853152  1
  O2-  O419  1  0.26324707  0.91705431  0.88428822  1
  O2-  O420  1  0.58472433  0.42022371  0.23189005  1
  O2-  O421  1  0.58432443  0.42349895  0.55433081  1
  O2-  O422  1  0.58239105  0.42226571  0.88591773  1
  O2-  O423  1  0.59948957  0.91841105  0.23949080  1
  O2-  O424  1  0.56937984  0.91874815  0.56516898  1
  O2-  O425  1  0.57214392  0.91635817  0.87823443  1
  O2-  O426  1  0.93249649  0.41866630  0.21800697  1
  O2-  O427  1  0.92451446  0.41731241  0.54807735  1
  O2-  O428  1  0.91664095  0.41422939  0.88798632  1
  O2-  O429  1  0.93408502  0.91932666  0.21370258  1
  O2-  O430  1  0.90968949  0.92101444  0.56034158  1
  O2-  O431  1  0.92529380  0.92234617  0.88463631  1
  O2-  O432  1  0.02213620  -0.00135300  -0.03813654  1
  O2-  O433  1  -0.01428745  -0.01768968  0.33406641  1
  O2-  O434  1  -0.01328437  -0.00170942  0.67905059  1
  O2-  O435  1  -0.00053697  0.49098909  -0.01266396  1
  O2-  O436  1  -0.01889137  0.50400423  0.36482450  1
  O2-  O437  1  -0.00098176  0.49734014  0.67802633  1
  O2-  O438  1  0.33860312  0.00969935  0.00139734  1
  O2-  O439  1  0.35994127  0.01562732  0.30430486  1
  O2-  O440  1  0.32987853  -0.00441323  0.67964162  1
  O2-  O441  1  0.32624558  0.48768347  0.00885754  1
  O2-  O442  1  0.35460779  0.49823030  0.30516729  1
  O2-  O443  1  0.33732894  0.51631815  0.67148023  1
  O2-  O444  1  0.65287902  0.00761628  0.02078865  1
  O2-  O445  1  0.66962802  0.02831466  0.31622903  1
  O2-  O446  1  0.67259270  0.01145062  0.66154844  1
  O2-  O447  1  0.70207655  0.50201316  -0.04393620  1
  O2-  O448  1  0.67608125  0.49582094  0.31713622  1
  O2-  O449  1  0.67680532  0.49961753  0.64949097  1
  O2-  O450  1  0.17089507  -0.01470706  -0.00522945  1
  O2-  O451  1  0.13887489  -0.00416055  0.29623949  1
  O2-  O452  1  0.15926467  -0.00685597  0.65643298  1
  O2-  O453  1  0.14646246  0.50359034  -0.03347680  1
  O2-  O454  1  0.14579250  0.50248997  0.31075935  1
  O2-  O455  1  0.17932525  0.50980736  0.67383682  1
  O2-  O456  1  0.49691203  0.01779453  -0.00146617  1
  O2-  O457  1  0.52589985  -0.00528691  0.37200401  1
  O2-  O458  1  0.52073679  0.00672641  0.70421733  1
  O2-  O459  1  0.47818028  0.49535939  -0.03011390  1
  O2-  O460  1  0.51336942  0.49869118  0.34792473  1
  O2-  O461  1  0.52215784  0.50713126  0.69146470  1
  O2-  O462  1  0.86363147  -0.00670852  0.03343938  1
  O2-  O463  1  0.81697683  -0.00844374  0.28411953  1
  O2-  O464  1  0.83166135  0.00660520  0.67360485  1
  O2-  O465  1  0.85087793  0.49312420  0.02723633  1
  O2-  O466  1  0.82713285  0.48010504  0.32163652  1
  O2-  O467  1  0.83554768  0.50587697  0.67238729  1
  O2-  O468  1  0.25874792  0.25249025  0.93846311  1
  O2-  O469  1  0.25352580  0.75337539  0.25997744  1
  O2-  O470  1  0.90334501  0.75186232  0.27941277  1
  O2-  O471  1  0.43103080  0.75101612  0.39654803  1
  O2-  O472  1  0.58037886  0.25303034  0.93151541  1
  O2-  O473  1  0.58853314  0.75243504  0.27546515  1
  O2-  O474  1  0.90512164  0.24557028  0.61678657  1
  O2-  O475  1  0.75554884  0.75506079  0.08217364  1
  O2-  O476  1  0.41992501  0.25088758  0.73058061  1
  O2-  O477  1  0.08867035  0.74844331  0.74794706  1
  O2-  O478  1  0.75168355  0.24994965  0.72683098  1
  O2-  O479  1  0.89804896  0.25185180  0.26919248  1
  O2-  O480  1  0.75517218  0.25108463  0.07116744  1
  O2-  O481  1  0.58180974  0.25012346  0.61513075  1
  O2-  O482  1  0.58789088  0.74996253  0.59981950  1
  O2-  O483  1  0.41139643  0.74822848  0.08036937  1
  O2-  O484  1  0.42583294  0.25962024  0.06275641  1
  O2-  O485  1  0.75058482  0.74994265  0.72304962  1
  O2-  O486  1  0.91410180  0.75654813  0.92138300  1
  O2-  O487  1  0.25963984  0.24938976  0.60527611  1
  O2-  O488  1  0.90608768  0.25127171  0.94091504  1
  O2-  O489  1  0.59313454  0.25026027  0.27548028  1
  O2-  O490  1  0.07676126  0.75739825  0.39700376  1
  O2-  O491  1  0.74957075  0.75089375  0.38722346  1
  O2-  O492  1  0.22225366  0.74994540  0.93070495  1
