# generated using pymatgen
data_Ca108Mn108O277
_symmetry_space_group_name_H-M   'P 1'
_cell_length_a   16.01660033
_cell_length_b   22.29334627
_cell_length_c   16.38148737
_cell_angle_alpha   89.99931838
_cell_angle_beta   90.00015972
_cell_angle_gamma   89.99759032
_symmetry_Int_Tables_number   1
_chemical_formula_structural   Ca108Mn108O277
_chemical_formula_sum   'Ca108 Mn108 O277'
_cell_volume   5849.23313327
_cell_formula_units_Z   1
loop_
 _symmetry_equiv_pos_site_id
 _symmetry_equiv_pos_as_xyz
  1  'x, y, z'
loop_
 _atom_type_symbol
 _atom_type_oxidation_number
  Ca2+  2.0
  Mn3.34+  3.34
  O2-  -2.0
loop_
 _atom_site_type_symbol
 _atom_site_label
 _atom_site_symmetry_multiplicity
 _atom_site_fract_x
 _atom_site_fract_y
 _atom_site_fract_z
 _atom_site_occupancy
  Ca2+  Ca0  1  0.09126101  0.25514384  0.23890529  1
  Ca2+  Ca1  1  0.06777467  0.26434694  0.58231796  1
  Ca2+  Ca2  1  0.09491328  0.24794372  0.92674919  1
  Ca2+  Ca3  1  0.08733149  0.74687095  0.25832471  1
  Ca2+  Ca4  1  0.07883295  0.75009339  0.58282552  1
  Ca2+  Ca5  1  0.08445822  0.75237960  0.90875655  1
  Ca2+  Ca6  1  0.39381623  0.25161741  0.25306848  1
  Ca2+  Ca7  1  0.43461183  0.24846888  0.58881952  1
  Ca2+  Ca8  1  0.39652135  0.24834993  0.90594404  1
  Ca2+  Ca9  1  0.41849895  0.72245752  0.25309844  1
  Ca2+  Ca10  1  0.42650224  0.74832154  0.57581529  1
  Ca2+  Ca11  1  0.42129330  0.74327585  0.91899727  1
  Ca2+  Ca12  1  0.76277082  0.25600997  0.24314172  1
  Ca2+  Ca13  1  0.75404935  0.25528477  0.57524065  1
  Ca2+  Ca14  1  0.76322589  0.24884342  0.93335679  1
  Ca2+  Ca15  1  0.73611647  0.73425196  0.25998906  1
  Ca2+  Ca16  1  0.74018071  0.74564960  0.57260137  1
  Ca2+  Ca17  1  0.74570109  0.75852216  0.91950920  1
  Ca2+  Ca18  1  0.23651995  0.24289594  0.08241445  1
  Ca2+  Ca19  1  0.24662012  0.25395825  0.40222680  1
  Ca2+  Ca20  1  0.25532221  0.25300771  0.76544413  1
  Ca2+  Ca21  1  0.26383919  0.75616909  0.09657271  1
  Ca2+  Ca22  1  0.25198775  0.73820626  0.39892488  1
  Ca2+  Ca23  1  0.25748016  0.75105919  0.74730550  1
  Ca2+  Ca24  1  0.59681083  0.25207841  0.08593633  1
  Ca2+  Ca25  1  0.58628463  0.25711180  0.43881725  1
  Ca2+  Ca26  1  0.57249388  0.25471938  0.73340083  1
  Ca2+  Ca27  1  0.57616319  0.74968337  0.09323854  1
  Ca2+  Ca28  1  0.57334520  0.74711108  0.41694236  1
  Ca2+  Ca29  1  0.57794743  0.74711109  0.74205186  1
  Ca2+  Ca30  1  0.91928454  0.24471767  0.08345915  1
  Ca2+  Ca31  1  0.91691974  0.26141126  0.42211263  1
  Ca2+  Ca32  1  0.92232478  0.26093570  0.74096377  1
  Ca2+  Ca33  1  0.90853618  0.76474845  0.08450638  1
  Ca2+  Ca34  1  0.90904436  0.73960556  0.41374344  1
  Ca2+  Ca35  1  0.91370962  0.75779976  0.74642776  1
  Ca2+  Ca36  1  0.59369644  0.61150683  0.41493584  1
  Ca2+  Ca37  1  0.23467702  0.59565227  0.74828732  1
  Ca2+  Ca38  1  0.09761044  0.09047990  0.92517755  1
  Ca2+  Ca39  1  0.93306617  0.59051610  0.74637142  1
  Ca2+  Ca40  1  0.26792730  0.59837518  0.10619259  1
  Ca2+  Ca41  1  0.43685391  0.10622267  0.58055384  1
  Ca2+  Ca42  1  0.72710770  0.57345501  0.92809030  1
  Ca2+  Ca43  1  0.56743167  0.10476941  0.42626078  1
  Ca2+  Ca44  1  0.60186790  0.61489840  0.41941746  1
  Ca2+  Ca45  1  0.10138576  0.58504221  0.26487478  1
  Ca2+  Ca46  1  0.57291339  0.59837813  0.09052928  1
  Ca2+  Ca47  1  0.43553388  0.60179117  0.58224928  1
  Ca2+  Ca48  1  0.09107894  0.58506183  0.26498238  1
  Ca2+  Ca49  1  0.07429263  0.58853474  0.91453446  1
  Ca2+  Ca50  1  0.24653763  0.59627986  0.74808769  1
  Ca2+  Ca51  1  0.07772982  0.08604299  0.58698285  1
  Ca2+  Ca52  1  0.42724601  0.59739287  0.57850402  1
  Ca2+  Ca53  1  0.26227999  0.59453135  0.11324323  1
  Ca2+  Ca54  1  0.73879395  0.57446318  0.92914076  1
  Ca2+  Ca55  1  0.09049159  0.10323791  0.24182687  1
  Ca2+  Ca56  1  0.90999992  0.08793215  0.74674727  1
  Ca2+  Ca57  1  0.88877661  0.09798911  0.07604858  1
  Ca2+  Ca58  1  0.74305847  0.60547828  0.56800819  1
  Ca2+  Ca59  1  0.25707025  0.09742422  0.78055931  1
  Ca2+  Ca60  1  0.26268842  0.10006025  0.77269306  1
  Ca2+  Ca61  1  0.92021300  0.08747044  0.41101008  1
  Ca2+  Ca62  1  0.41706883  0.09661345  0.25727329  1
  Ca2+  Ca63  1  0.73886995  0.09424371  0.59089875  1
  Ca2+  Ca64  1  0.40435992  0.09791932  0.25554857  1
  Ca2+  Ca65  1  0.74327149  0.10836568  0.22468687  1
  Ca2+  Ca66  1  0.57559149  0.58780146  0.75350618  1
  Ca2+  Ca67  1  0.58296794  0.09077701  0.73223431  1
  Ca2+  Ca68  1  0.75193459  0.09399248  0.59090305  1
  Ca2+  Ca69  1  0.26081174  0.09552527  0.41054934  1
  Ca2+  Ca70  1  0.24842733  0.09297526  0.05170227  1
  Ca2+  Ca71  1  0.06448993  0.08709075  0.58563120  1
  Ca2+  Ca72  1  0.41335981  0.91403717  0.92346322  1
  Ca2+  Ca73  1  0.74836157  0.41380736  0.59438484  1
  Ca2+  Ca74  1  0.23595252  0.90325815  0.75002609  1
  Ca2+  Ca75  1  0.23750295  0.40547494  0.74881843  1
  Ca2+  Ca76  1  0.22204728  0.41397967  0.09337996  1
  Ca2+  Ca77  1  0.58831167  0.91321747  0.07262805  1
  Ca2+  Ca78  1  0.42462400  0.89946153  0.24588827  1
  Ca2+  Ca79  1  0.23385730  0.41605255  0.09008943  1
  Ca2+  Ca80  1  0.91701269  0.41492213  0.74917910  1
  Ca2+  Ca81  1  0.75500550  0.90014949  0.58784724  1
  Ca2+  Ca82  1  0.58580127  0.90045309  0.41888765  1
  Ca2+  Ca83  1  0.75714776  0.40799812  0.24579899  1
  Ca2+  Ca84  1  0.07633255  0.89164100  0.25235690  1
  Ca2+  Ca85  1  0.42465119  0.91387618  0.92330291  1
  Ca2+  Ca86  1  0.74777376  0.90877675  0.91682116  1
  Ca2+  Ca87  1  0.91582981  0.41692576  0.08288564  1
  Ca2+  Ca88  1  0.74686568  0.41472209  0.91477549  1
  Ca2+  Ca89  1  0.92167174  0.41064142  0.40977090  1
  Ca2+  Ca90  1  0.07710317  0.41092237  0.91783126  1
  Ca2+  Ca91  1  0.07583878  0.89929796  0.91691362  1
  Ca2+  Ca92  1  0.59325193  0.41874906  0.05716652  1
  Ca2+  Ca93  1  0.73735952  0.41227984  0.59322007  1
  Ca2+  Ca94  1  0.73482369  0.41602564  0.91243320  1
  Ca2+  Ca95  1  0.92693813  0.89444734  0.41459481  1
  Ca2+  Ca96  1  0.59162298  0.90289661  0.75569498  1
  Ca2+  Ca97  1  0.75952918  0.89936931  0.24348966  1
  Ca2+  Ca98  1  0.92842515  0.41675822  0.08311478  1
  Ca2+  Ca99  1  0.24768100  0.90364425  0.74933834  1
  Ca2+  Ca100  1  0.41326880  0.90051779  0.24476316  1
  Ca2+  Ca101  1  0.39925678  0.40989620  0.25275299  1
  Ca2+  Ca102  1  0.25033075  0.40348989  0.74983210  1
  Ca2+  Ca103  1  0.41199135  0.41044332  0.25273869  1
  Ca2+  Ca104  1  0.42243236  0.40411113  0.58366673  1
  Ca2+  Ca105  1  0.24292684  0.41705518  0.39812841  1
  Ca2+  Ca106  1  0.41048141  0.89972487  0.58011026  1
  Ca2+  Ca107  1  0.57362605  0.90064960  0.41925022  1
  Mn3.34+  Mn108  1  0.07836791  0.33520757  0.08397752  1
  Mn3.34+  Mn109  1  0.08472218  0.33875835  0.41810049  1
  Mn3.34+  Mn110  1  0.08127668  0.34026523  0.75099858  1
  Mn3.34+  Mn111  1  0.08393910  0.82959282  0.08381549  1
  Mn3.34+  Mn112  1  0.08738239  0.83202041  0.42187962  1
  Mn3.34+  Mn113  1  0.07553660  0.83525375  0.74756784  1
  Mn3.34+  Mn114  1  0.41993885  0.33345271  0.08112192  1
  Mn3.34+  Mn115  1  0.41745693  0.33470850  0.42133634  1
  Mn3.34+  Mn116  1  0.42182294  0.33583446  0.75396675  1
  Mn3.34+  Mn117  1  0.41511973  0.83340245  0.08238974  1
  Mn3.34+  Mn118  1  0.40734214  0.83110745  0.41918534  1
  Mn3.34+  Mn119  1  0.41856531  0.82879532  0.74993321  1
  Mn3.34+  Mn120  1  0.74971986  0.33789792  0.08613435  1
  Mn3.34+  Mn121  1  0.74560532  0.34296279  0.41482883  1
  Mn3.34+  Mn122  1  0.74573675  0.33702727  0.75630935  1
  Mn3.34+  Mn123  1  0.75259693  0.83799169  0.08235225  1
  Mn3.34+  Mn124  1  0.75159490  0.82358759  0.41567148  1
  Mn3.34+  Mn125  1  0.75440397  0.83486625  0.75035323  1
  Mn3.34+  Mn126  1  0.24423779  0.33156532  0.24909584  1
  Mn3.34+  Mn127  1  0.24954773  0.32959979  0.57596480  1
  Mn3.34+  Mn128  1  0.25079877  0.33129249  0.91964135  1
  Mn3.34+  Mn129  1  0.24708657  0.82658221  0.25102050  1
  Mn3.34+  Mn130  1  0.24452193  0.83019637  0.57747434  1
  Mn3.34+  Mn131  1  0.24905017  0.83474597  0.91874610  1
  Mn3.34+  Mn132  1  0.58176785  0.32882493  0.24844659  1
  Mn3.34+  Mn133  1  0.58273864  0.33245939  0.58434487  1
  Mn3.34+  Mn134  1  0.57894924  0.32960974  0.91245427  1
  Mn3.34+  Mn135  1  0.58676810  0.82850407  0.24455116  1
  Mn3.34+  Mn136  1  0.58394626  0.82871439  0.58640756  1
  Mn3.34+  Mn137  1  0.58341531  0.83326769  0.91425270  1
  Mn3.34+  Mn138  1  0.92107439  0.33464715  0.25171312  1
  Mn3.34+  Mn139  1  0.91784139  0.33443809  0.58231449  1
  Mn3.34+  Mn140  1  0.91699451  0.33088915  0.91216270  1
  Mn3.34+  Mn141  1  0.91694442  0.82881794  0.24793565  1
  Mn3.34+  Mn142  1  0.91785686  0.82997031  0.58221263  1
  Mn3.34+  Mn143  1  0.91518464  0.83327207  0.91523562  1
  Mn3.34+  Mn144  1  0.41045520  0.66373890  0.41276096  1
  Mn3.34+  Mn145  1  0.75433403  0.66309085  0.74942704  1
  Mn3.34+  Mn146  1  0.41521943  0.17576802  0.41904357  1
  Mn3.34+  Mn147  1  0.08324967  0.66823185  0.08241896  1
  Mn3.34+  Mn148  1  0.41991017  0.66743218  0.08231002  1
  Mn3.34+  Mn149  1  0.08431177  0.17148670  0.75208729  1
  Mn3.34+  Mn150  1  0.58562696  0.15618654  0.91865540  1
  Mn3.34+  Mn151  1  0.41769617  0.66421423  0.75438644  1
  Mn3.34+  Mn152  1  0.75798956  0.17078207  0.41415177  1
  Mn3.34+  Mn153  1  0.25374074  0.16645505  0.58039953  1
  Mn3.34+  Mn154  1  0.74391729  0.65854505  0.75173187  1
  Mn3.34+  Mn155  1  0.74715051  0.16650896  0.41448221  1
  Mn3.34+  Mn156  1  0.74802232  0.66384157  0.08582761  1
  Mn3.34+  Mn157  1  0.07841903  0.16474562  0.41656465  1
  Mn3.34+  Mn158  1  0.91401064  0.16574012  0.92286545  1
  Mn3.34+  Mn159  1  0.58311618  0.17519601  0.24728172  1
  Mn3.34+  Mn160  1  0.75723917  0.17477238  0.75763186  1
  Mn3.34+  Mn161  1  0.74522794  0.17536902  0.75525017  1
  Mn3.34+  Mn162  1  0.07392213  0.66238262  0.08394849  1
  Mn3.34+  Mn163  1  0.91845172  0.67041912  0.57568386  1
  Mn3.34+  Mn164  1  0.24484790  0.67132986  0.57527007  1
  Mn3.34+  Mn165  1  0.91262265  0.66531693  0.25915560  1
  Mn3.34+  Mn166  1  0.91604552  0.66858566  0.91364858  1
  Mn3.34+  Mn167  1  0.91579607  0.16652043  0.24217193  1
  Mn3.34+  Mn168  1  0.42130950  0.17170208  0.75283382  1
  Mn3.34+  Mn169  1  0.08064364  0.66452763  0.74898293  1
  Mn3.34+  Mn170  1  0.42697702  0.16785220  0.08071243  1
  Mn3.34+  Mn171  1  0.58973594  0.14552151  0.92090874  1
  Mn3.34+  Mn172  1  0.57767692  0.66527190  0.91516334  1
  Mn3.34+  Mn173  1  0.08301749  0.16788062  0.08327191  1
  Mn3.34+  Mn174  1  0.08219320  0.66015998  0.42499091  1
  Mn3.34+  Mn175  1  0.41431113  0.16847499  0.07904363  1
  Mn3.34+  Mn176  1  0.25196559  0.67189328  0.91588319  1
  Mn3.34+  Mn177  1  0.08831252  0.17012779  0.41604758  1
  Mn3.34+  Mn178  1  0.76075800  0.65672435  0.08910143  1
  Mn3.34+  Mn179  1  0.07450531  0.16602769  0.75345362  1
  Mn3.34+  Mn180  1  0.91274485  -0.00152231  0.91451829  1
  Mn3.34+  Mn181  1  0.23665137  -0.00510448  0.24274646  1
  Mn3.34+  Mn182  1  0.93814921  0.50093616  0.58824093  1
  Mn3.34+  Mn183  1  0.75962780  -0.00632294  0.41333751  1
  Mn3.34+  Mn184  1  0.75251599  0.00059953  0.74972532  1
  Mn3.34+  Mn185  1  0.92254557  0.50097337  0.91922153  1
  Mn3.34+  Mn186  1  0.40535032  0.50103318  0.40492563  1
  Mn3.34+  Mn187  1  0.07187541  -0.00528270  0.08494451  1
  Mn3.34+  Mn188  1  0.74531575  -0.00003866  0.41271141  1
  Mn3.34+  Mn189  1  0.41744595  0.00281202  0.06589854  1
  Mn3.34+  Mn190  1  0.07572413  -0.00188791  0.74988433  1
  Mn3.34+  Mn191  1  0.41740286  0.00512175  0.75533255  1
  Mn3.34+  Mn192  1  0.24604319  -0.00146665  0.58274114  1
  Mn3.34+  Mn193  1  0.25127653  0.00015173  0.24142514  1
  Mn3.34+  Mn194  1  0.59117703  0.49944775  0.24547690  1
  Mn3.34+  Mn195  1  0.08655436  -0.00032269  0.08134957  1
  Mn3.34+  Mn196  1  0.74144524  0.00073685  0.06100616  1
  Mn3.34+  Mn197  1  0.08617391  0.49783843  0.40832015  1
  Mn3.34+  Mn198  1  0.58029188  0.00365105  0.24521422  1
  Mn3.34+  Mn199  1  0.57879742  0.50618631  0.24510705  1
  Mn3.34+  Mn200  1  0.24926169  0.50471360  0.91971587  1
  Mn3.34+  Mn201  1  0.92375575  -0.00024785  0.24879182  1
  Mn3.34+  Mn202  1  0.41407681  0.00016948  0.41909104  1
  Mn3.34+  Mn203  1  0.91791526  -0.00757159  0.58793645  1
  Mn3.34+  Mn204  1  0.42780164  0.50150157  0.07025364  1
  Mn3.34+  Mn205  1  0.92724048  0.50514273  0.58581337  1
  Mn3.34+  Mn206  1  0.24187689  0.49907144  0.57767482  1
  Mn3.34+  Mn207  1  0.08507473  -0.00282200  0.41246785  1
  Mn3.34+  Mn208  1  0.75630117  0.50288051  0.40539797  1
  Mn3.34+  Mn209  1  0.58434142  0.49876241  0.58949679  1
  Mn3.34+  Mn210  1  0.26058999  0.50011921  0.92039505  1
  Mn3.34+  Mn211  1  0.22853833  0.50407248  0.58145470  1
  Mn3.34+  Mn212  1  0.42854846  0.00106893  0.75686878  1
  Mn3.34+  Mn213  1  0.58675741  -0.00082352  0.58088107  1
  Mn3.34+  Mn214  1  0.42061186  0.49928395  0.75085975  1
  Mn3.34+  Mn215  1  0.91341500  0.50640526  0.25519466  1
  O2-  O216  1  -0.00360251  0.15085355  0.00113999  1
  O2-  O217  1  -0.00172719  0.15030480  0.33083947  1
  O2-  O218  1  0.00103019  0.15265494  0.66702932  1
  O2-  O219  1  -0.00082627  0.66536743  -0.00231067  1
  O2-  O220  1  0.00278615  0.66682171  0.33460071  1
  O2-  O221  1  -0.00134294  0.67129225  0.67165556  1
  O2-  O222  1  0.33283075  0.17103486  0.00323409  1
  O2-  O223  1  0.33857062  0.16255550  0.33430777  1
  O2-  O224  1  0.33352114  0.15593616  0.66563558  1
  O2-  O225  1  0.32217554  0.65335094  0.00485389  1
  O2-  O226  1  0.33279071  0.66494336  0.33879298  1
  O2-  O227  1  0.33347578  0.64930652  0.66737857  1
  O2-  O228  1  0.66088087  0.18973446  -0.00653330  1
  O2-  O229  1  0.66103297  0.16076571  0.33751418  1
  O2-  O230  1  0.67125037  0.16368251  0.66948492  1
  O2-  O231  1  0.66816551  0.65745484  -0.00032967  1
  O2-  O232  1  0.66724460  0.68516467  0.35423937  1
  O2-  O233  1  0.66401756  0.65226702  0.67170601  1
  O2-  O234  1  0.15994796  0.16275390  0.00247694  1
  O2-  O235  1  0.16849026  0.15462070  0.33916512  1
  O2-  O236  1  0.16805571  0.15466887  0.66617432  1
  O2-  O237  1  0.15792307  0.65999670  -0.00685859  1
  O2-  O238  1  0.15327335  0.66588798  0.33516320  1
  O2-  O239  1  0.17085327  0.66825727  0.67188116  1
  O2-  O240  1  0.50166357  0.18192143  -0.00367615  1
  O2-  O241  1  0.49581401  0.17456102  0.32886968  1
  O2-  O242  1  0.50111123  0.16065918  0.67406428  1
  O2-  O243  1  0.50021196  0.65977464  -0.00248840  1
  O2-  O244  1  0.49818391  0.66160154  0.34353689  1
  O2-  O245  1  0.49703220  0.65325001  0.67401632  1
  O2-  O246  1  0.83562677  0.17348737  0.00116516  1
  O2-  O247  1  0.83136299  0.15009847  0.32927398  1
  O2-  O248  1  0.83157968  0.15958898  0.66981299  1
  O2-  O249  1  0.82635220  0.65044172  -0.00697431  1
  O2-  O250  1  0.83166564  0.67302441  0.33105014  1
  O2-  O251  1  0.83612795  0.64967615  0.66723862  1
  O2-  O252  1  -0.00601420  0.34992164  0.00133562  1
  O2-  O253  1  -0.00256134  0.34361900  0.33825124  1
  O2-  O254  1  -0.00622039  0.34463027  0.67262066  1
  O2-  O255  1  0.00314151  0.82491478  -0.00311193  1
  O2-  O256  1  0.00212819  0.82709741  0.33416508  1
  O2-  O257  1  0.00247287  0.82210540  0.66442657  1
  O2-  O258  1  0.32330102  0.34066303  0.01173782  1
  O2-  O259  1  0.33444680  0.33911345  0.33322876  1
  O2-  O260  1  0.32910581  0.33872316  0.66337931  1
  O2-  O261  1  0.33945406  0.84725950  -0.00496883  1
  O2-  O262  1  0.33663287  0.84468944  0.32952612  1
  O2-  O263  1  0.33237422  0.84474004  0.67398054  1
  O2-  O264  1  0.66975435  0.32603271  -0.00130996  1
  O2-  O265  1  0.66696987  0.32719190  0.32649205  1
  O2-  O266  1  0.67112772  0.33580418  0.66606458  1
  O2-  O267  1  0.66673103  0.84578450  -0.00490026  1
  O2-  O268  1  0.66451416  0.84208673  0.33488724  1
  O2-  O269  1  0.66727774  0.84322585  0.66632143  1
  O2-  O270  1  0.16215476  0.34697558  -0.00189341  1
  O2-  O271  1  0.17011947  0.34240388  0.33819146  1
  O2-  O272  1  0.17203857  0.33394057  0.67083456  1
  O2-  O273  1  0.16168282  0.82726080  -0.00483613  1
  O2-  O274  1  0.16158238  0.82572115  0.33106401  1
  O2-  O275  1  0.16941611  0.83135203  0.67374404  1
  O2-  O276  1  0.50287547  0.31542477  0.00068794  1
  O2-  O277  1  0.49246148  0.32143207  0.32884027  1
  O2-  O278  1  0.49752290  0.33944977  0.66351666  1
  O2-  O279  1  0.49930065  0.84773954  0.00117015  1
  O2-  O280  1  0.50085523  0.84531157  0.33329551  1
  O2-  O281  1  0.49981534  0.84616471  0.66750579  1
  O2-  O282  1  0.83059382  0.34239634  -0.00365572  1
  O2-  O283  1  0.83251996  0.34816693  0.33220773  1
  O2-  O284  1  0.82874663  0.34297442  0.66706823  1
  O2-  O285  1  0.83025233  0.84227569  -0.00507585  1
  O2-  O286  1  0.83328882  0.83488337  0.33455936  1
  O2-  O287  1  0.83267807  0.84032926  0.66476003  1
  O2-  O288  1  0.00023774  0.17839142  0.16807954  1
  O2-  O289  1  0.00417165  0.17157828  0.50072857  1
  O2-  O290  1  -0.00409755  0.17628729  0.83638015  1
  O2-  O291  1  0.00347692  0.68317662  0.16822968  1
  O2-  O292  1  0.00066339  0.68892638  0.49852792  1
  O2-  O293  1  0.00232840  0.68017482  0.83313371  1
  O2-  O294  1  0.34210197  0.17906802  0.16666716  1
  O2-  O295  1  0.33049767  0.18574060  0.49923357  1
  O2-  O296  1  0.32998571  0.17775990  0.82303285  1
  O2-  O297  1  0.33406574  0.67423714  0.15692622  1
  O2-  O298  1  0.34124759  0.67138242  0.51122628  1
  O2-  O299  1  0.32484757  0.67408641  0.82402117  1
  O2-  O300  1  0.66911614  0.19124753  0.18006706  1
  O2-  O301  1  0.67248567  0.17497501  0.50104982  1
  O2-  O302  1  0.66562334  0.19008663  0.83508355  1
  O2-  O303  1  0.66778603  0.67509554  0.16091202  1
  O2-  O304  1  0.66571521  0.68135004  0.49279342  1
  O2-  O305  1  0.66906803  0.67995409  0.83824381  1
  O2-  O306  1  0.15943490  0.17553871  0.16206096  1
  O2-  O307  1  0.16315703  0.18354125  0.50804162  1
  O2-  O308  1  0.16791321  0.17719451  0.82948270  1
  O2-  O309  1  0.16889302  0.68158305  0.15668777  1
  O2-  O310  1  0.16642887  0.68876086  0.49675583  1
  O2-  O311  1  0.16824989  0.68507288  0.82855049  1
  O2-  O312  1  0.49921894  0.18986251  0.16443929  1
  O2-  O313  1  0.49782759  0.18161938  0.49432151  1
  O2-  O314  1  0.50591031  0.18035791  0.83822475  1
  O2-  O315  1  0.50033108  0.67673941  0.15446938  1
  O2-  O316  1  0.49588790  0.66891339  0.49930501  1
  O2-  O317  1  0.50384583  0.67769334  0.82780415  1
  O2-  O318  1  0.83429297  0.17822824  0.16759280  1
  O2-  O319  1  0.83162511  0.16779018  0.50243653  1
  O2-  O320  1  0.83684062  0.18629456  0.83412433  1
  O2-  O321  1  0.83757546  0.67387063  0.16595959  1
  O2-  O322  1  0.83198139  0.67933579  0.50801109  1
  O2-  O323  1  0.83501622  0.67275700  0.82813969  1
  O2-  O324  1  -0.00606145  0.32660352  0.15947514  1
  O2-  O325  1  -0.00401704  0.32682384  0.49574875  1
  O2-  O326  1  0.00048273  0.33112295  0.83374333  1
  O2-  O327  1  0.00351536  0.81783503  0.16874588  1
  O2-  O328  1  -0.00400011  0.81711893  0.49427203  1
  O2-  O329  1  0.00246560  0.81748335  0.83440864  1
  O2-  O330  1  0.33709547  0.32373050  0.16909043  1
  O2-  O331  1  0.33574782  0.30824628  0.49902981  1
  O2-  O332  1  0.32777953  0.32591544  0.82946344  1
  O2-  O333  1  0.33978508  0.82911113  0.17093967  1
  O2-  O334  1  0.33959285  0.82639621  0.50992992  1
  O2-  O335  1  0.33130349  0.82923881  0.82761785  1
  O2-  O336  1  0.66913906  0.32007919  0.16612516  1
  O2-  O337  1  0.67218187  0.32912704  0.50695012  1
  O2-  O338  1  0.66786117  0.31062567  0.83619529  1
  O2-  O339  1  0.66641510  0.82888414  0.16337854  1
  O2-  O340  1  0.66207962  0.82113831  0.49452997  1
  O2-  O341  1  0.66274250  0.82425571  0.83074760  1
  O2-  O342  1  0.17008396  0.32642441  0.15662898  1
  O2-  O343  1  0.16675908  0.31183006  0.49880263  1
  O2-  O344  1  0.16811983  0.32382556  0.83145403  1
  O2-  O345  1  0.16368181  0.81490825  0.16842679  1
  O2-  O346  1  0.16793568  0.81085086  0.49858249  1
  O2-  O347  1  0.16896941  0.82122825  0.82997838  1
  O2-  O348  1  0.49716499  0.31311968  0.16776219  1
  O2-  O349  1  0.49768730  0.32296947  0.50328400  1
  O2-  O350  1  0.49958585  0.31284402  0.83541890  1
  O2-  O351  1  0.49757729  0.82944797  0.16674510  1
  O2-  O352  1  0.50337913  0.82732269  0.49651498  1
  O2-  O353  1  0.49305028  0.82176087  0.83793815  1
  O2-  O354  1  0.83562772  0.32035639  0.16073240  1
  O2-  O355  1  0.83033848  0.33154217  0.50560465  1
  O2-  O356  1  0.83325140  0.31456015  0.83079049  1
  O2-  O357  1  0.83065460  0.82676064  0.17152146  1
  O2-  O358  1  0.82982098  0.81658225  0.49864339  1
  O2-  O359  1  0.82868104  0.82510122  0.83655885  1
  O2-  O360  1  0.08445099  0.07989909  0.10701286  1
  O2-  O361  1  0.08834723  0.07938907  0.45124281  1
  O2-  O362  1  0.08966403  0.08266270  0.78273167  1
  O2-  O363  1  0.09865328  0.58081512  0.11286554  1
  O2-  O364  1  0.08087711  0.57454345  0.43676717  1
  O2-  O365  1  0.10182681  0.58245501  0.78254237  1
  O2-  O366  1  0.41452175  0.07758702  0.11997284  1
  O2-  O367  1  0.41655972  0.08302163  0.44194500  1
  O2-  O368  1  0.41139359  0.08688116  0.77659461  1
  O2-  O369  1  0.41036633  0.58064530  0.10461132  1
  O2-  O370  1  0.42078939  0.57764549  0.44377391  1
  O2-  O371  1  0.40579855  0.57992240  0.77710891  1
  O2-  O372  1  0.75265612  0.06860101  0.10819242  1
  O2-  O373  1  0.75224831  0.07872927  0.45225427  1
  O2-  O374  1  0.74806124  0.08368496  0.77311926  1
  O2-  O375  1  0.73573867  0.57691793  0.08546636  1
  O2-  O376  1  0.72637159  0.57289612  0.44463372  1
  O2-  O377  1  0.74692559  0.57581695  0.78505067  1
  O2-  O378  1  0.26473130  0.07905236  0.21400817  1
  O2-  O379  1  0.23507998  0.07799437  0.54581536  1
  O2-  O380  1  0.22988706  0.06720992  0.88871493  1
  O2-  O381  1  0.21844862  0.56561589  0.22034717  1
  O2-  O382  1  0.24143800  0.58634124  0.56614988  1
  O2-  O383  1  0.24108135  0.58534402  0.88849483  1
  O2-  O384  1  0.55987223  0.08650607  0.23440072  1
  O2-  O385  1  0.60129848  0.07919690  0.55522812  1
  O2-  O386  1  0.58328834  0.07507548  0.86990133  1
  O2-  O387  1  0.58715636  0.58489728  0.23662811  1
  O2-  O388  1  0.57198083  0.57307945  0.54532327  1
  O2-  O389  1  0.59628074  0.58434948  0.89057671  1
  O2-  O390  1  0.91668215  0.08041790  0.21454096  1
  O2-  O391  1  0.92969813  0.06845824  0.54277563  1
  O2-  O392  1  0.91683988  0.07997867  0.88547549  1
  O2-  O393  1  0.94921839  0.58405163  0.23480974  1
  O2-  O394  1  0.92230653  0.58586221  0.56268701  1
  O2-  O395  1  0.92713254  0.58090407  0.88863733  1
  O2-  O396  1  0.08292261  0.41734899  0.10173173  1
  O2-  O397  1  0.08958257  0.42247521  0.44747614  1
  O2-  O398  1  0.10174774  0.41870572  0.77911291  1
  O2-  O399  1  0.08433344  0.91655378  0.10823310  1
  O2-  O400  1  0.07097535  0.91716566  0.42099980  1
  O2-  O401  1  0.10435424  0.91944597  0.78347568  1
  O2-  O402  1  0.42187763  0.42370408  0.11755709  1
  O2-  O403  1  0.40380296  0.42327801  0.44693770  1
  O2-  O404  1  0.39227736  0.41864392  0.76133291  1
  O2-  O405  1  0.41931975  0.92637688  0.11379691  1
  O2-  O406  1  0.43206160  0.91768201  0.43980886  1
  O2-  O407  1  0.42135260  0.91772165  0.77441261  1
  O2-  O408  1  0.76545231  0.42170637  0.10423685  1
  O2-  O409  1  0.75574369  0.42830685  0.45587749  1
  O2-  O410  1  0.75948421  0.42183614  0.78151890  1
  O2-  O411  1  0.74107681  0.93180236  0.11432335  1
  O2-  O412  1  0.74077089  0.91480530  0.44387881  1
  O2-  O413  1  0.73888021  0.92021454  0.77467690  1
  O2-  O414  1  0.26506016  0.41783075  0.21997542  1
  O2-  O415  1  0.25387568  0.41862502  0.55226675  1
  O2-  O416  1  0.24954753  0.41874674  0.88802528  1
  O2-  O417  1  0.24597377  0.91345320  0.23393949  1
  O2-  O418  1  0.25534396  0.91620037  0.58732766  1
  O2-  O419  1  0.26003096  0.91822812  0.88409882  1
  O2-  O420  1  0.57411103  0.41960088  0.21942127  1
  O2-  O421  1  0.59035804  0.41838447  0.56831068  1
  O2-  O422  1  0.59735506  0.40828352  0.91204781  1
  O2-  O423  1  0.57180914  0.92050084  0.22771220  1
  O2-  O424  1  0.58587531  0.91768121  0.55391374  1
  O2-  O425  1  0.56540091  0.91570460  0.88836643  1
  O2-  O426  1  0.90825380  0.42469041  0.21540865  1
  O2-  O427  1  0.91531033  0.42100495  0.55486728  1
  O2-  O428  1  0.90713812  0.41941595  0.89071814  1
  O2-  O429  1  0.92407755  0.91555805  0.24753786  1
  O2-  O430  1  0.90282495  0.91443158  0.55329326  1
  O2-  O431  1  0.92824594  0.91714827  0.89628276  1
  O2-  O432  1  0.00302494  0.00394294  -0.00712547  1
  O2-  O433  1  -0.00408997  0.01360469  0.34120254  1
  O2-  O434  1  -0.00181154  0.02163592  0.66484611  1
  O2-  O435  1  -0.00159980  0.48723028  -0.00518525  1
  O2-  O436  1  0.00525277  0.49603591  0.33173783  1
  O2-  O437  1  -0.01474554  0.50227943  0.69343953  1
  O2-  O438  1  0.34045005  -0.00496751  -0.00418635  1
  O2-  O439  1  0.33742659  0.00588330  0.32454862  1
  O2-  O440  1  0.33083597  0.00660867  0.67331277  1
  O2-  O441  1  0.31800998  0.49717881  0.02765017  1
  O2-  O442  1  0.33615899  0.48001251  0.32568082  1
  O2-  O443  1  0.33897570  0.50499742  0.65021805  1
  O2-  O444  1  0.66519427  -0.01248952  -0.00552881  1
  O2-  O445  1  0.66405621  -0.00296260  0.33038585  1
  O2-  O446  1  0.66960167  0.00887438  0.66442666  1
  O2-  O447  1  0.68062669  0.49113287  -0.03425368  1
  O2-  O448  1  0.66895790  0.49447927  0.32815171  1
  O2-  O449  1  0.68161168  0.50394008  0.63558106  1
  O2-  O450  1  0.17052331  0.00942912  0.01274467  1
  O2-  O451  1  0.16757989  0.01823702  0.33117583  1
  O2-  O452  1  0.16681706  0.01304649  0.66828425  1
  O2-  O453  1  0.16602486  0.49300355  -0.00034594  1
  O2-  O454  1  0.16814187  0.50064712  0.34333563  1
  O2-  O455  1  0.18921071  0.49909640  0.69086781  1
  O2-  O456  1  0.49864715  -0.01649259  -0.00119411  1
  O2-  O457  1  0.49814709  -0.00039017  0.33199927  1
  O2-  O458  1  0.50361657  0.00784597  0.66644336  1
  O2-  O459  1  0.53448291  0.50555988  0.04412783  1
  O2-  O460  1  0.49491660  0.49230468  0.32534772  1
  O2-  O461  1  0.49821240  0.51255876  0.66181607  1
  O2-  O462  1  0.83158143  0.00079638  -0.00039346  1
  O2-  O463  1  0.83163206  0.00660032  0.32558887  1
  O2-  O464  1  0.82796849  0.01755069  0.65753709  1
  O2-  O465  1  0.82884918  0.49830428  -0.02457837  1
  O2-  O466  1  0.83403541  0.48093636  0.33217128  1
  O2-  O467  1  0.82920416  0.49005816  0.64769009  1
  O2-  O468  1  0.93086118  0.25133060  0.93663524  1
  O2-  O469  1  0.07721066  0.25206002  0.06572646  1
  O2-  O470  1  0.90512617  0.74953962  0.60507639  1
  O2-  O471  1  0.26067757  0.74993901  0.25935599  1
  O2-  O472  1  0.58660787  0.25416693  0.59273942  1
  O2-  O473  1  0.76089394  0.25553045  0.40887554  1
  O2-  O474  1  0.58175746  0.75049551  0.93752297  1
  O2-  O475  1  0.57854006  0.75132528  0.60215176  1
  O2-  O476  1  0.24596065  0.25393275  0.92956470  1
  O2-  O477  1  0.91559418  0.24845863  0.27419244  1
  O2-  O478  1  0.41564320  0.25215848  0.73190395  1
  O2-  O479  1  0.26456070  0.74977192  0.60409212  1
  O2-  O480  1  0.07551034  0.25246851  0.39345495  1
  O2-  O481  1  0.91597378  0.74844888  0.25983925  1
  O2-  O482  1  0.41461339  0.75165741  0.06060426  1
  O2-  O483  1  0.90124516  0.74911506  0.93198045  1
  O2-  O484  1  0.91675041  0.25589883  0.59564423  1
  O2-  O485  1  0.26680730  0.75095035  0.93408114  1
  O2-  O486  1  0.58001046  0.75183470  0.25908032  1
  O2-  O487  1  0.41715073  0.75009064  0.40808951  1
  O2-  O488  1  0.24186605  0.25306375  0.26263293  1
  O2-  O489  1  0.41515208  0.74774776  0.72916758  1
  O2-  O490  1  0.74998849  0.74722695  0.73199132  1
  O2-  O491  1  0.75750973  0.74539863  0.06612673  1
  O2-  O492  1  0.07311809  0.25341361  0.73081474  1
