# generated using pymatgen
data_Ca108Mn108O277
_symmetry_space_group_name_H-M   'P 1'
_cell_length_a   16.02695802
_cell_length_b   22.30551483
_cell_length_c   16.38893123
_cell_angle_alpha   90.00106202
_cell_angle_beta   89.99938219
_cell_angle_gamma   90.00403920
_symmetry_Int_Tables_number   1
_chemical_formula_structural   Ca108Mn108O277
_chemical_formula_sum   'Ca108 Mn108 O277'
_cell_volume   5858.87163272
_cell_formula_units_Z   1
loop_
 _symmetry_equiv_pos_site_id
 _symmetry_equiv_pos_as_xyz
  1  'x, y, z'
loop_
 _atom_type_symbol
 _atom_type_oxidation_number
  Ca2+  2.0
  Mn3.34+  3.34
  O2-  -2.0
loop_
 _atom_site_type_symbol
 _atom_site_label
 _atom_site_symmetry_multiplicity
 _atom_site_fract_x
 _atom_site_fract_y
 _atom_site_fract_z
 _atom_site_occupancy
  Ca2+  Ca0  1  0.09244244  0.25133049  0.26942289  1
  Ca2+  Ca1  1  0.06495635  0.24983387  0.56283878  1
  Ca2+  Ca2  1  0.08146661  0.25656583  0.91652501  1
  Ca2+  Ca3  1  0.07423249  0.75844825  0.24995114  1
  Ca2+  Ca4  1  0.07335658  0.75311593  0.58513584  1
  Ca2+  Ca5  1  0.08859907  0.74984087  0.91232723  1
  Ca2+  Ca6  1  0.41363913  0.26242826  0.25498656  1
  Ca2+  Ca7  1  0.43745593  0.24804348  0.56894987  1
  Ca2+  Ca8  1  0.42407425  0.24833921  0.93148478  1
  Ca2+  Ca9  1  0.42559173  0.72757462  0.23680970  1
  Ca2+  Ca10  1  0.42961088  0.75350554  0.57840568  1
  Ca2+  Ca11  1  0.40157912  0.72673737  0.93489559  1
  Ca2+  Ca12  1  0.74244214  0.26558931  0.25329474  1
  Ca2+  Ca13  1  0.75192236  0.22599324  0.58729763  1
  Ca2+  Ca14  1  0.74022258  0.24234154  0.92029386  1
  Ca2+  Ca15  1  0.74334408  0.73094005  0.22265501  1
  Ca2+  Ca16  1  0.74497771  0.76100609  0.57585067  1
  Ca2+  Ca17  1  0.75223137  0.74787023  0.93725271  1
  Ca2+  Ca18  1  0.26349632  0.25503090  0.09532554  1
  Ca2+  Ca19  1  0.24293130  0.25393202  0.40766970  1
  Ca2+  Ca20  1  0.23895271  0.25872896  0.75223429  1
  Ca2+  Ca21  1  0.27104919  0.74740303  0.07385601  1
  Ca2+  Ca22  1  0.25118490  0.75757798  0.41548113  1
  Ca2+  Ca23  1  0.23757845  0.74546333  0.78258979  1
  Ca2+  Ca24  1  0.58581283  0.25365651  0.07524368  1
  Ca2+  Ca25  1  0.58268356  0.24873035  0.43208040  1
  Ca2+  Ca26  1  0.60132726  0.24982999  0.73952451  1
  Ca2+  Ca27  1  0.58421006  0.73981682  0.08295815  1
  Ca2+  Ca28  1  0.57238910  0.74024010  0.40708532  1
  Ca2+  Ca29  1  0.57596942  0.75375564  0.74730004  1
  Ca2+  Ca30  1  0.90815739  0.26082704  0.07514446  1
  Ca2+  Ca31  1  0.91641066  0.25894354  0.43387780  1
  Ca2+  Ca32  1  0.90728667  0.24502423  0.73279685  1
  Ca2+  Ca33  1  0.89664528  0.74950083  0.08051597  1
  Ca2+  Ca34  1  0.91637975  0.74925312  0.41558315  1
  Ca2+  Ca35  1  0.92957949  0.75598657  0.75205255  1
  Ca2+  Ca36  1  0.88290049  0.59452196  0.08183813  1
  Ca2+  Ca37  1  0.61297114  0.09443893  0.06140856  1
  Ca2+  Ca38  1  0.07412745  0.08335167  0.92225359  1
  Ca2+  Ca39  1  0.74729013  0.59185266  0.93949074  1
  Ca2+  Ca40  1  0.44064106  0.59807772  0.58632316  1
  Ca2+  Ca41  1  0.92057119  0.11563507  0.43718164  1
  Ca2+  Ca42  1  0.93207721  0.11499070  0.43712152  1
  Ca2+  Ca43  1  0.89220671  0.58172879  0.40702019  1
  Ca2+  Ca44  1  0.09006148  0.60067029  0.90641745  1
  Ca2+  Ca45  1  0.30085590  0.59938418  0.07897200  1
  Ca2+  Ca46  1  0.58124773  0.60182628  0.08951615  1
  Ca2+  Ca47  1  0.26781520  0.09789805  0.06345522  1
  Ca2+  Ca48  1  0.44928932  0.09308757  0.56397033  1
  Ca2+  Ca49  1  0.07540479  0.59095305  0.60942639  1
  Ca2+  Ca50  1  0.09484136  0.57567422  0.24891628  1
  Ca2+  Ca51  1  0.06898247  0.10592913  0.56725436  1
  Ca2+  Ca52  1  0.41056619  0.07726584  0.28033005  1
  Ca2+  Ca53  1  0.93003755  0.59413467  0.75681213  1
  Ca2+  Ca54  1  0.09580560  0.60493451  0.90004859  1
  Ca2+  Ca55  1  0.28545519  0.60590201  0.40099386  1
  Ca2+  Ca56  1  0.10033862  0.08984266  0.27577304  1
  Ca2+  Ca57  1  0.74048341  0.58858256  0.57318831  1
  Ca2+  Ca58  1  0.25665134  0.09738167  0.06164899  1
  Ca2+  Ca59  1  0.08215413  0.57658313  0.25017772  1
  Ca2+  Ca60  1  0.93795737  0.59958611  0.75341058  1
  Ca2+  Ca61  1  0.29691666  0.59527369  0.08622059  1
  Ca2+  Ca62  1  0.60510991  0.09742261  0.74587956  1
  Ca2+  Ca63  1  0.74325879  0.09704631  0.23949722  1
  Ca2+  Ca64  1  0.43182799  0.59374770  0.58171257  1
  Ca2+  Ca65  1  0.25215462  0.09773142  0.77868625  1
  Ca2+  Ca66  1  0.75286398  0.58986892  0.57370780  1
  Ca2+  Ca67  1  0.58450085  0.59237052  0.39747960  1
  Ca2+  Ca68  1  0.25298538  0.61111954  0.77544536  1
  Ca2+  Ca69  1  0.87412785  0.09714232  0.05318907  1
  Ca2+  Ca70  1  0.25386492  0.09048481  0.41138740  1
  Ca2+  Ca71  1  0.59763325  0.09300478  0.74986170  1
  Ca2+  Ca72  1  0.91192517  0.91326859  0.05609401  1
  Ca2+  Ca73  1  0.10142973  0.91037198  0.58642945  1
  Ca2+  Ca74  1  0.74393178  0.40010320  0.57203937  1
  Ca2+  Ca75  1  0.06524284  0.40999865  0.91945779  1
  Ca2+  Ca76  1  0.57678500  0.90484957  0.41562412  1
  Ca2+  Ca77  1  0.75449088  0.40029057  0.57166322  1
  Ca2+  Ca78  1  0.25093872  0.91183922  0.74263553  1
  Ca2+  Ca79  1  0.75568987  0.40361554  0.92895503  1
  Ca2+  Ca80  1  0.09158489  0.41195907  0.25736695  1
  Ca2+  Ca81  1  0.58207548  0.91180509  0.75576894  1
  Ca2+  Ca82  1  0.42443481  0.40714093  0.92083128  1
  Ca2+  Ca83  1  0.73904828  0.89947024  0.24358920  1
  Ca2+  Ca84  1  0.24663623  0.90582334  0.08327001  1
  Ca2+  Ca85  1  0.59435081  0.90973686  0.75747638  1
  Ca2+  Ca86  1  0.75026770  0.89927952  0.24410307  1
  Ca2+  Ca87  1  0.41565364  0.90690133  0.25766221  1
  Ca2+  Ca88  1  0.40404695  0.90705061  0.25790960  1
  Ca2+  Ca89  1  0.25904009  0.91932075  0.41042380  1
  Ca2+  Ca90  1  0.24765898  0.41011716  0.08659876  1
  Ca2+  Ca91  1  0.59397064  0.91065395  0.05897130  1
  Ca2+  Ca92  1  0.25787065  0.41226687  0.09030119  1
  Ca2+  Ca93  1  0.08173853  0.40883107  0.25634704  1
  Ca2+  Ca94  1  0.41421703  0.92247023  0.58014539  1
  Ca2+  Ca95  1  0.06335410  0.91375549  0.91505673  1
  Ca2+  Ca96  1  0.41592654  0.39543871  0.58504175  1
  Ca2+  Ca97  1  0.25603142  0.40285831  0.75078595  1
  Ca2+  Ca98  1  0.07342061  0.91073649  0.91755696  1
  Ca2+  Ca99  1  0.40199234  0.92027560  0.58011346  1
  Ca2+  Ca100  1  0.42837996  0.90458435  0.91840504  1
  Ca2+  Ca101  1  0.92093641  0.40303923  0.75801705  1
  Ca2+  Ca102  1  0.09407853  0.90379898  0.25274591  1
  Ca2+  Ca103  1  0.91012486  0.40950022  0.41279454  1
  Ca2+  Ca104  1  0.59913133  0.41024173  0.40631708  1
  Ca2+  Ca105  1  0.91376627  0.89608546  0.41890319  1
  Ca2+  Ca106  1  0.57550911  0.39702175  0.75519320  1
  Ca2+  Ca107  1  0.08992740  0.91050564  0.58629074  1
  Mn3.34+  Mn108  1  0.07895111  0.33701883  0.08542803  1
  Mn3.34+  Mn109  1  0.08408578  0.33365009  0.42110936  1
  Mn3.34+  Mn110  1  0.08269348  0.33445511  0.74708934  1
  Mn3.34+  Mn111  1  0.08259689  0.83377233  0.08416842  1
  Mn3.34+  Mn112  1  0.08418057  0.83383730  0.41674890  1
  Mn3.34+  Mn113  1  0.08356482  0.83658562  0.75292387  1
  Mn3.34+  Mn114  1  0.42642177  0.33580420  0.08942666  1
  Mn3.34+  Mn115  1  0.41715164  0.33207515  0.41571923  1
  Mn3.34+  Mn116  1  0.41662909  0.33049958  0.75481293  1
  Mn3.34+  Mn117  1  0.41921028  0.83053322  0.08333980  1
  Mn3.34+  Mn118  1  0.41612314  0.83304154  0.41880448  1
  Mn3.34+  Mn119  1  0.41488045  0.83206812  0.75389082  1
  Mn3.34+  Mn120  1  0.74734459  0.33870163  0.08937674  1
  Mn3.34+  Mn121  1  0.75008466  0.33416174  0.41045093  1
  Mn3.34+  Mn122  1  0.75178860  0.33164566  0.75518895  1
  Mn3.34+  Mn123  1  0.74840707  0.83068972  0.07786358  1
  Mn3.34+  Mn124  1  0.74700314  0.83009071  0.41658700  1
  Mn3.34+  Mn125  1  0.75644229  0.83725538  0.75665864  1
  Mn3.34+  Mn126  1  0.25574592  0.34007532  0.25453440  1
  Mn3.34+  Mn127  1  0.24715139  0.32849280  0.58058198  1
  Mn3.34+  Mn128  1  0.25122544  0.33259744  0.91582775  1
  Mn3.34+  Mn129  1  0.24956660  0.82543681  0.24649643  1
  Mn3.34+  Mn130  1  0.25425919  0.83387510  0.58052781  1
  Mn3.34+  Mn131  1  0.25192602  0.83479056  0.91698962  1
  Mn3.34+  Mn132  1  0.58261061  0.34124861  0.24707596  1
  Mn3.34+  Mn133  1  0.58482197  0.32992571  0.58284707  1
  Mn3.34+  Mn134  1  0.58474202  0.33251925  0.91845923  1
  Mn3.34+  Mn135  1  0.58140154  0.83002612  0.24582998  1
  Mn3.34+  Mn136  1  0.58835063  0.83542396  0.57872666  1
  Mn3.34+  Mn137  1  0.58462760  0.83278275  0.91335573  1
  Mn3.34+  Mn138  1  0.91216501  0.33902162  0.24591720  1
  Mn3.34+  Mn139  1  0.91962699  0.33587721  0.58478360  1
  Mn3.34+  Mn140  1  0.91333892  0.33719999  0.91575166  1
  Mn3.34+  Mn141  1  0.91767311  0.82816098  0.24742590  1
  Mn3.34+  Mn142  1  0.90896894  0.83157332  0.58604734  1
  Mn3.34+  Mn143  1  0.91056072  0.83209499  0.91148157  1
  Mn3.34+  Mn144  1  0.24512929  0.66424724  0.58491909  1
  Mn3.34+  Mn145  1  0.24424838  0.15807473  0.58086089  1
  Mn3.34+  Mn146  1  0.90765668  0.16247478  0.91037918  1
  Mn3.34+  Mn147  1  0.07616704  0.66255339  0.08804809  1
  Mn3.34+  Mn148  1  0.08681961  0.65603182  0.41894801  1
  Mn3.34+  Mn149  1  0.58783768  0.16512866  0.24964082  1
  Mn3.34+  Mn150  1  0.74784533  0.67830227  0.75199856  1
  Mn3.34+  Mn151  1  0.91108388  0.66247352  0.24829214  1
  Mn3.34+  Mn152  1  0.42598984  0.66427327  0.76098531  1
  Mn3.34+  Mn153  1  0.25724924  0.16518481  0.58083442  1
  Mn3.34+  Mn154  1  0.58775434  0.16467478  0.91803760  1
  Mn3.34+  Mn155  1  0.90557430  0.17332453  0.24539099  1
  Mn3.34+  Mn156  1  0.08768506  0.17013177  0.08088517  1
  Mn3.34+  Mn157  1  0.25344178  0.66322686  0.24881423  1
  Mn3.34+  Mn158  1  0.91420348  0.66831199  0.91611630  1
  Mn3.34+  Mn159  1  0.57966346  0.66013093  0.91234331  1
  Mn3.34+  Mn160  1  0.25501813  0.16847421  0.24955690  1
  Mn3.34+  Mn161  1  0.08204276  0.16863318  0.75257108  1
  Mn3.34+  Mn162  1  0.07579380  0.66103492  0.41713899  1
  Mn3.34+  Mn163  1  0.42023763  0.16379282  0.41665902  1
  Mn3.34+  Mn164  1  0.42046744  0.17146786  0.75779169  1
  Mn3.34+  Mn165  1  0.09079458  0.66862602  0.09008655  1
  Mn3.34+  Mn166  1  0.76011292  0.16514055  0.75132794  1
  Mn3.34+  Mn167  1  0.91152496  0.66883262  0.58023500  1
  Mn3.34+  Mn168  1  0.91737194  0.16763884  0.24264641  1
  Mn3.34+  Mn169  1  0.58544141  0.67338804  0.57818670  1
  Mn3.34+  Mn170  1  0.07195043  0.16366675  0.75450483  1
  Mn3.34+  Mn171  1  0.58296280  0.66243077  0.24625887  1
  Mn3.34+  Mn172  1  0.73828528  0.67285664  0.75440270  1
  Mn3.34+  Mn173  1  0.25746495  0.67201487  0.58665952  1
  Mn3.34+  Mn174  1  0.57725272  0.16965759  0.24969689  1
  Mn3.34+  Mn175  1  0.40759048  0.17222891  0.75539454  1
  Mn3.34+  Mn176  1  0.07432538  0.16362589  0.08226007  1
  Mn3.34+  Mn177  1  0.42024241  0.17072493  0.08243190  1
  Mn3.34+  Mn178  1  0.74291009  0.17047373  0.42242819  1
  Mn3.34+  Mn179  1  0.74821199  0.66480536  0.41210946  1
  Mn3.34+  Mn180  1  0.89288380  -0.00481449  0.59584026  1
  Mn3.34+  Mn181  1  0.43719679  0.49509375  0.08375745  1
  Mn3.34+  Mn182  1  0.75269363  0.00011053  0.42652237  1
  Mn3.34+  Mn183  1  0.41271167  0.00058377  0.74783015  1
  Mn3.34+  Mn184  1  0.90633198  0.00079595  0.59807203  1
  Mn3.34+  Mn185  1  0.07736648  -0.00048116  0.08312249  1
  Mn3.34+  Mn186  1  0.92118285  0.00298729  0.24012483  1
  Mn3.34+  Mn187  1  0.58016038  0.50117282  0.91781531  1
  Mn3.34+  Mn188  1  0.60207735  0.50034799  0.26340471  1
  Mn3.34+  Mn189  1  0.73631861  0.50509967  0.75692813  1
  Mn3.34+  Mn190  1  0.40103415  0.49331230  0.39046617  1
  Mn3.34+  Mn191  1  0.08962636  0.00206848  0.73799581  1
  Mn3.34+  Mn192  1  0.41103729  0.48791607  0.39029006  1
  Mn3.34+  Mn193  1  0.24774544  -0.00013811  0.24664641  1
  Mn3.34+  Mn194  1  0.25686579  0.49774779  0.92405777  1
  Mn3.34+  Mn195  1  0.43598193  0.00716214  0.07848177  1
  Mn3.34+  Mn196  1  0.75294313  0.49692568  0.06524702  1
  Mn3.34+  Mn197  1  0.91027809  -0.00054688  0.23916275  1
  Mn3.34+  Mn198  1  0.59769084  -0.00074811  0.59141070  1
  Mn3.34+  Mn199  1  0.75529695  0.00067634  0.77284238  1
  Mn3.34+  Mn200  1  0.25279302  0.49319121  0.57699121  1
  Mn3.34+  Mn201  1  0.58181047  0.49905240  0.57357990  1
  Mn3.34+  Mn202  1  0.25084579  -0.00112633  0.91907080  1
  Mn3.34+  Mn203  1  0.73931794  0.00653158  0.42493473  1
  Mn3.34+  Mn204  1  0.08741003  0.49580017  0.74642920  1
  Mn3.34+  Mn205  1  0.08153167  0.00081442  0.41571945  1
  Mn3.34+  Mn206  1  0.23906281  0.49827370  0.57255380  1
  Mn3.34+  Mn207  1  0.75109657  -0.00322705  0.06135923  1
  Mn3.34+  Mn208  1  0.09164645  0.49835824  0.41725628  1
  Mn3.34+  Mn209  1  0.06596330  0.49687468  0.05759663  1
  Mn3.34+  Mn210  1  0.58514810  -0.00022583  0.24594032  1
  Mn3.34+  Mn211  1  0.89976885  0.50054022  0.26307583  1
  Mn3.34+  Mn212  1  0.42564721  0.00167125  0.08194056  1
  Mn3.34+  Mn213  1  0.42011462  0.50177912  0.74520728  1
  Mn3.34+  Mn214  1  0.92852016  0.49968790  0.58287155  1
  Mn3.34+  Mn215  1  0.75116963  0.49976493  0.75720129  1
  O2-  O216  1  -0.00123495  0.16717414  -0.00652439  1
  O2-  O217  1  -0.00419588  0.15114037  0.32218398  1
  O2-  O218  1  0.00337956  0.15850776  0.66733340  1
  O2-  O219  1  0.00074004  0.64822468  -0.00174785  1
  O2-  O220  1  -0.00274666  0.63832297  0.33146291  1
  O2-  O221  1  -0.00787769  0.65952911  0.66349665  1
  O2-  O222  1  0.33328445  0.17098993  0.00641683  1
  O2-  O223  1  0.33490116  0.15599943  0.32931357  1
  O2-  O224  1  0.33545567  0.15483046  0.66672138  1
  O2-  O225  1  0.32668954  0.66679130  0.00535302  1
  O2-  O226  1  0.31951454  0.69355999  0.33258238  1
  O2-  O227  1  0.34210685  0.65590084  0.66517174  1
  O2-  O228  1  0.66772467  0.16901924  -0.00468303  1
  O2-  O229  1  0.66963469  0.15378521  0.32930412  1
  O2-  O230  1  0.67122727  0.16154208  0.67880545  1
  O2-  O231  1  0.66152285  0.66733709  -0.01275404  1
  O2-  O232  1  0.66855406  0.67125611  0.33377127  1
  O2-  O233  1  0.67146668  0.65604793  0.65919477  1
  O2-  O234  1  0.16359415  0.15576340  -0.00227670  1
  O2-  O235  1  0.17549307  0.15986533  0.32809690  1
  O2-  O236  1  0.17141670  0.14298702  0.67333718  1
  O2-  O237  1  0.16786144  0.64494408  0.01231121  1
  O2-  O238  1  0.16593848  0.64666466  0.32901184  1
  O2-  O239  1  0.16637641  0.65932739  0.66570199  1
  O2-  O240  1  0.50518043  0.15737595  0.00714242  1
  O2-  O241  1  0.49970417  0.15006862  0.32817451  1
  O2-  O242  1  0.49810077  0.16369977  0.67550570  1
  O2-  O243  1  0.50957500  0.66823116  -0.00725427  1
  O2-  O244  1  0.50602556  0.66494011  0.33401628  1
  O2-  O245  1  0.50144555  0.66511387  0.66594993  1
  O2-  O246  1  0.84217433  0.18594299  -0.00580790  1
  O2-  O247  1  0.83202034  0.14495374  0.32958984  1
  O2-  O248  1  0.83394106  0.16403574  0.67469732  1
  O2-  O249  1  0.83232600  0.66117387  -0.00734170  1
  O2-  O250  1  0.83833022  0.66904214  0.34105579  1
  O2-  O251  1  0.82904678  0.65174040  0.66801979  1
  O2-  O252  1  -0.00105014  0.33170720  -0.00384856  1
  O2-  O253  1  0.00022775  0.34717665  0.33041444  1
  O2-  O254  1  -0.00402904  0.34658982  0.67187206  1
  O2-  O255  1  0.00194981  0.84705799  -0.00067301  1
  O2-  O256  1  0.00246342  0.84955316  0.33172523  1
  O2-  O257  1  0.01108978  0.83857761  0.66195342  1
  O2-  O258  1  0.32933430  0.33687391  0.00280138  1
  O2-  O259  1  0.33248810  0.33396735  0.33830589  1
  O2-  O260  1  0.33395956  0.33369323  0.67284896  1
  O2-  O261  1  0.33341725  0.84961691  0.00215649  1
  O2-  O262  1  0.33274514  0.83619424  0.33428977  1
  O2-  O263  1  0.34206350  0.84417342  0.65996025  1
  O2-  O264  1  0.67202291  0.33405893  -0.00354281  1
  O2-  O265  1  0.66786991  0.34130300  0.33163040  1
  O2-  O266  1  0.66873826  0.35026192  0.66879600  1
  O2-  O267  1  0.66182158  0.82923979  -0.00053717  1
  O2-  O268  1  0.66569665  0.84481643  0.33008909  1
  O2-  O269  1  0.66629364  0.84143035  0.67481931  1
  O2-  O270  1  0.16688448  0.34744963  0.00157461  1
  O2-  O271  1  0.16223205  0.34034374  0.32803741  1
  O2-  O272  1  0.17349334  0.34404353  0.67531167  1
  O2-  O273  1  0.16191770  0.85582797  -0.00529142  1
  O2-  O274  1  0.17068766  0.83439953  0.33382401  1
  O2-  O275  1  0.16934843  0.84631491  0.66884023  1
  O2-  O276  1  0.49687537  0.34117493  -0.00414471  1
  O2-  O277  1  0.50327608  0.34754175  0.33826095  1
  O2-  O278  1  0.49954875  0.33822156  0.66692340  1
  O2-  O279  1  0.50258263  0.84142999  0.00065853  1
  O2-  O280  1  0.49868651  0.84546719  0.33320456  1
  O2-  O281  1  0.49894376  0.84521225  0.66846853  1
  O2-  O282  1  0.82898180  0.32253387  -0.00446563  1
  O2-  O283  1  0.83775600  0.34158854  0.33701823  1
  O2-  O284  1  0.83140923  0.35236561  0.66919285  1
  O2-  O285  1  0.83443030  0.83947565  0.00184375  1
  O2-  O286  1  0.82911455  0.83950190  0.33171319  1
  O2-  O287  1  0.82748038  0.81122619  0.67302924  1
  O2-  O288  1  0.00517490  0.17942956  0.16902468  1
  O2-  O289  1  -0.00266324  0.17972279  0.49752092  1
  O2-  O290  1  -0.00518411  0.18800688  0.83804701  1
  O2-  O291  1  0.00652637  0.67658436  0.17664322  1
  O2-  O292  1  -0.00007759  0.67476872  0.50438110  1
  O2-  O293  1  -0.00381414  0.67566649  0.83228821  1
  O2-  O294  1  0.33003704  0.17763406  0.15927886  1
  O2-  O295  1  0.33122891  0.18312130  0.49551522  1
  O2-  O296  1  0.32517021  0.19009727  0.82644811  1
  O2-  O297  1  0.32494335  0.67796636  0.16797634  1
  O2-  O298  1  0.33957015  0.67674721  0.50779564  1
  O2-  O299  1  0.33832642  0.68599756  0.82082979  1
  O2-  O300  1  0.66513817  0.17833761  0.16835554  1
  O2-  O301  1  0.66732487  0.18236925  0.49371815  1
  O2-  O302  1  0.65945898  0.18002247  0.82832565  1
  O2-  O303  1  0.65775981  0.67212943  0.16125352  1
  O2-  O304  1  0.66829359  0.68205009  0.49760090  1
  O2-  O305  1  0.66240942  0.69653815  0.83508456  1
  O2-  O306  1  0.17145185  0.17323235  0.16159751  1
  O2-  O307  1  0.16600740  0.17321985  0.50268557  1
  O2-  O308  1  0.15988342  0.18072409  0.83254007  1
  O2-  O309  1  0.16215221  0.69415934  0.17758712  1
  O2-  O310  1  0.17492701  0.68322993  0.49321905  1
  O2-  O311  1  0.15699234  0.67629028  0.83902707  1
  O2-  O312  1  0.49715610  0.17733888  0.16973455  1
  O2-  O313  1  0.49456725  0.17330938  0.49643056  1
  O2-  O314  1  0.49797183  0.18613773  0.83604609  1
  O2-  O315  1  0.50914105  0.67125119  0.16520795  1
  O2-  O316  1  0.49846903  0.67777930  0.50827405  1
  O2-  O317  1  0.50250987  0.69333332  0.83488364  1
  O2-  O318  1  0.83113055  0.18230443  0.16317452  1
  O2-  O319  1  0.83428731  0.18168730  0.48664072  1
  O2-  O320  1  0.83388890  0.18759724  0.83668897  1
  O2-  O321  1  0.84357692  0.67546371  0.16439673  1
  O2-  O322  1  0.82451696  0.68368824  0.50404758  1
  O2-  O323  1  0.83797316  0.68658807  0.82532880  1
  O2-  O324  1  0.00908284  0.32933393  0.17590595  1
  O2-  O325  1  -0.00549541  0.33201675  0.49683201  1
  O2-  O326  1  -0.00086005  0.32041005  0.83543187  1
  O2-  O327  1  0.00018209  0.82448709  0.16671830  1
  O2-  O328  1  0.00210983  0.82970703  0.49960178  1
  O2-  O329  1  0.00504292  0.81685249  0.83580085  1
  O2-  O330  1  0.33053668  0.32979831  0.16341136  1
  O2-  O331  1  0.34017660  0.31473339  0.50798878  1
  O2-  O332  1  0.33455237  0.31130394  0.83686263  1
  O2-  O333  1  0.33542268  0.82141641  0.16965632  1
  O2-  O334  1  0.33625098  0.80987409  0.49795563  1
  O2-  O335  1  0.32915127  0.82325640  0.82931688  1
  O2-  O336  1  0.66358540  0.31467969  0.16252039  1
  O2-  O337  1  0.67048039  0.32470723  0.50207459  1
  O2-  O338  1  0.66558337  0.32247003  0.83129753  1
  O2-  O339  1  0.66797898  0.82688976  0.16676985  1
  O2-  O340  1  0.66060464  0.81277615  0.48686899  1
  O2-  O341  1  0.66211417  0.81373346  0.83053421  1
  O2-  O342  1  0.16834935  0.32736863  0.16155331  1
  O2-  O343  1  0.16721495  0.31631945  0.50034305  1
  O2-  O344  1  0.16584332  0.31832358  0.83837159  1
  O2-  O345  1  0.16734730  0.81881872  0.16425772  1
  O2-  O346  1  0.16241895  0.82499739  0.50661017  1
  O2-  O347  1  0.16235748  0.82233651  0.83613560  1
  O2-  O348  1  0.50164242  0.32011360  0.16970612  1
  O2-  O349  1  0.50256468  0.32473048  0.50203417  1
  O2-  O350  1  0.50238008  0.31924246  0.83070757  1
  O2-  O351  1  0.49317903  0.83361801  0.17433459  1
  O2-  O352  1  0.49896236  0.81695536  0.49511920  1
  O2-  O353  1  0.50048583  0.81537610  0.83216668  1
  O2-  O354  1  0.83219570  0.31512877  0.16547423  1
  O2-  O355  1  0.82647287  0.32509812  0.50450575  1
  O2-  O356  1  0.83626797  0.31849118  0.83185709  1
  O2-  O357  1  0.82602277  0.82673262  0.16944203  1
  O2-  O358  1  0.83435825  0.81374602  0.49005392  1
  O2-  O359  1  0.83211051  0.80850711  0.83452269  1
  O2-  O360  1  0.08732238  0.08073320  0.11395969  1
  O2-  O361  1  0.06486095  0.07962044  0.43405917  1
  O2-  O362  1  0.08579615  0.08015111  0.78586379  1
  O2-  O363  1  0.07622702  0.57600149  0.11565347  1
  O2-  O364  1  0.08679771  0.57404644  0.46947646  1
  O2-  O365  1  0.07722756  0.57727108  0.77432377  1
  O2-  O366  1  0.40201202  0.08484255  0.11427086  1
  O2-  O367  1  0.40181118  0.08253920  0.43214950  1
  O2-  O368  1  0.40148005  0.08147761  0.77424902  1
  O2-  O369  1  0.43140437  0.57137788  0.11620537  1
  O2-  O370  1  0.41371520  0.56680077  0.45738799  1
  O2-  O371  1  0.40389338  0.58069955  0.76908571  1
  O2-  O372  1  0.75116808  0.06657188  0.11442655  1
  O2-  O373  1  0.76038940  0.08600759  0.44482181  1
  O2-  O374  1  0.74102309  0.08348980  0.78166565  1
  O2-  O375  1  0.73909143  0.56405036  0.11091890  1
  O2-  O376  1  0.74953129  0.58084675  0.44214331  1
  O2-  O377  1  0.75176597  0.58605211  0.79264229  1
  O2-  O378  1  0.25193944  0.07960528  0.21228440  1
  O2-  O379  1  0.25431904  0.07869557  0.55239595  1
  O2-  O380  1  0.23855460  0.07845664  0.90834264  1
  O2-  O381  1  0.22504429  0.58337870  0.20120534  1
  O2-  O382  1  0.25645347  0.58038336  0.54255192  1
  O2-  O383  1  0.22903844  0.57275727  0.89432216  1
  O2-  O384  1  0.58954406  0.08058618  0.21434769  1
  O2-  O385  1  0.58480649  0.07730164  0.59202215  1
  O2-  O386  1  0.58320871  0.08565304  0.88487572  1
  O2-  O387  1  0.59164339  0.57640378  0.22953085  1
  O2-  O388  1  0.58929555  0.58549527  0.54959868  1
  O2-  O389  1  0.60004003  0.58057150  0.88688124  1
  O2-  O390  1  0.90860437  0.08314476  0.20239093  1
  O2-  O391  1  0.92656335  0.07578854  0.55634388  1
  O2-  O392  1  0.92283370  0.08572730  0.91410395  1
  O2-  O393  1  0.92370428  0.57560106  0.21498150  1
  O2-  O394  1  0.89435236  0.58293494  0.54967020  1
  O2-  O395  1  0.91000728  0.58648999  0.88365342  1
  O2-  O396  1  0.09028816  0.42385324  0.11480825  1
  O2-  O397  1  0.07370902  0.41945792  0.41570765  1
  O2-  O398  1  0.08609108  0.41675582  0.78262236  1
  O2-  O399  1  0.08573736  0.92067572  0.11777895  1
  O2-  O400  1  0.09606955  0.92159517  0.44853103  1
  O2-  O401  1  0.08887018  0.92413594  0.78526347  1
  O2-  O402  1  0.40025606  0.41744848  0.09823042  1
  O2-  O403  1  0.41929235  0.41724858  0.45116909  1
  O2-  O404  1  0.41972557  0.42130593  0.77758471  1
  O2-  O405  1  0.40752140  0.92213334  0.12216308  1
  O2-  O406  1  0.41066021  0.92094777  0.44603145  1
  O2-  O407  1  0.43991201  0.92283024  0.78277555  1
  O2-  O408  1  0.75686141  0.42604872  0.10158474  1
  O2-  O409  1  0.74612725  0.41557455  0.43987916  1
  O2-  O410  1  0.75067035  0.41871479  0.78671963  1
  O2-  O411  1  0.74869733  0.92251874  0.11149022  1
  O2-  O412  1  0.74719962  0.91882906  0.44071520  1
  O2-  O413  1  0.73145450  0.91935923  0.78769658  1
  O2-  O414  1  0.22824657  0.42208773  0.22045072  1
  O2-  O415  1  0.26085295  0.41230737  0.56600496  1
  O2-  O416  1  0.26862393  0.42041388  0.88772090  1
  O2-  O417  1  0.24839811  0.91770750  0.22421293  1
  O2-  O418  1  0.26298647  0.91582999  0.54895254  1
  O2-  O419  1  0.24862449  0.92058960  0.88292710  1
  O2-  O420  1  0.58591537  0.42528587  0.23055278  1
  O2-  O421  1  0.59810865  0.41666240  0.55684181  1
  O2-  O422  1  0.58284869  0.41944929  0.88788908  1
  O2-  O423  1  0.60037701  0.91926884  0.21862131  1
  O2-  O424  1  0.57043146  0.91996323  0.55030505  1
  O2-  O425  1  0.57705144  0.91304261  0.89039387  1
  O2-  O426  1  0.93601274  0.42584844  0.23051796  1
  O2-  O427  1  0.88989597  0.42160155  0.55344347  1
  O2-  O428  1  0.91302053  0.41712016  0.89531615  1
  O2-  O429  1  0.90143415  0.91602129  0.22834669  1
  O2-  O430  1  0.91146825  0.91739030  0.55245397  1
  O2-  O431  1  0.92747640  0.91223684  0.89775917  1
  O2-  O432  1  0.01330651  -0.00925174  -0.01061035  1
  O2-  O433  1  0.00834933  -0.00542344  0.31862146  1
  O2-  O434  1  0.01180708  -0.01187542  0.64868778  1
  O2-  O435  1  0.02678079  0.52184456  -0.04054825  1
  O2-  O436  1  -0.00084240  0.51377000  0.32815523  1
  O2-  O437  1  -0.01181279  0.51461375  0.68545875  1
  O2-  O438  1  0.32750948  0.00209801  0.01302515  1
  O2-  O439  1  0.33407055  -0.01089472  0.31748459  1
  O2-  O440  1  0.33372048  -0.01938847  0.67625651  1
  O2-  O441  1  0.32267264  0.50238072  0.02886452  1
  O2-  O442  1  0.30524514  0.51742105  0.34520433  1
  O2-  O443  1  0.32465069  0.49846053  0.67008602  1
  O2-  O444  1  0.65614468  -0.00014738  0.01674505  1
  O2-  O445  1  0.67248084  -0.00611368  0.32646539  1
  O2-  O446  1  0.63873868  -0.00110006  0.71283562  1
  O2-  O447  1  0.68169512  0.49765969  -0.01976684  1
  O2-  O448  1  0.65995063  0.50251847  0.35089067  1
  O2-  O449  1  0.67644449  0.50612864  0.65146799  1
  O2-  O450  1  0.17139552  -0.00184498  0.00697761  1
  O2-  O451  1  0.17274963  0.00629945  0.34057933  1
  O2-  O452  1  0.16648131  -0.02247473  0.66123194  1
  O2-  O453  1  0.17280604  0.48330416  0.00764180  1
  O2-  O454  1  0.14733326  0.50313510  0.31692112  1
  O2-  O455  1  0.15685715  0.51227551  0.65311830  1
  O2-  O456  1  0.50363369  -0.01888304  -0.00254675  1
  O2-  O457  1  0.48416343  -0.01247635  0.29498625  1
  O2-  O458  1  0.48874179  -0.00992947  0.64981343  1
  O2-  O459  1  0.48496766  0.49603331  -0.02003359  1
  O2-  O460  1  0.50822326  0.50779798  0.33524231  1
  O2-  O461  1  0.48359328  0.50877165  0.64196422  1
  O2-  O462  1  0.85027603  -0.00064495  0.02268838  1
  O2-  O463  1  0.83449561  0.00190453  0.33347909  1
  O2-  O464  1  0.82213384  -0.00278949  0.68308443  1
  O2-  O465  1  0.83528270  0.51231610  0.00376675  1
  O2-  O466  1  0.84602552  0.49487312  0.35388152  1
  O2-  O467  1  0.82976270  0.51302904  0.66876813  1
  O2-  O468  1  0.07823100  0.25577325  0.40384371  1
  O2-  O469  1  0.42235921  0.25287546  0.07168233  1
  O2-  O470  1  0.91692400  0.25764571  0.59641544  1
  O2-  O471  1  0.92579762  0.25411031  0.27275438  1
  O2-  O472  1  0.07522258  0.74708609  0.39532941  1
  O2-  O473  1  0.08236512  0.25278049  0.06862356  1
  O2-  O474  1  0.08632535  0.25049492  0.72011714  1
  O2-  O475  1  0.75209390  0.24983319  0.38917312  1
  O2-  O476  1  0.75009694  0.25259311  0.72724251  1
  O2-  O477  1  0.07693539  0.74893947  0.05392777  1
  O2-  O478  1  0.24173175  0.24400087  0.61245520  1
  O2-  O479  1  0.75103976  0.75177781  0.07590996  1
  O2-  O480  1  0.58651768  0.75297771  0.60757624  1
  O2-  O481  1  0.42764132  0.24940510  0.39473111  1
  O2-  O482  1  0.58599599  0.25238052  0.59899748  1
  O2-  O483  1  0.92882846  0.74923558  0.59885807  1
  O2-  O484  1  0.92372103  0.74930883  0.94403675  1
  O2-  O485  1  0.24467321  0.75767828  0.93751293  1
  O2-  O486  1  0.23932506  0.75310017  0.60822579  1
  O2-  O487  1  0.58153900  0.75038674  0.26141131  1
  O2-  O488  1  0.42304606  0.75318424  0.07333323  1
  O2-  O489  1  0.57982315  0.25209113  0.27711002  1
  O2-  O490  1  0.92968545  0.74721348  0.27381454  1
  O2-  O491  1  0.57831307  0.25143081  0.93693126  1
  O2-  O492  1  0.24948083  0.25161229  0.25999611  1
