# generated using pymatgen
data_Ca108Mn108O277
_symmetry_space_group_name_H-M   'P 1'
_cell_length_a   16.02639989
_cell_length_b   22.30457087
_cell_length_c   16.38937301
_cell_angle_alpha   90.00262492
_cell_angle_beta   90.00478899
_cell_angle_gamma   89.99615961
_symmetry_Int_Tables_number   1
_chemical_formula_structural   Ca108Mn108O277
_chemical_formula_sum   'Ca108 Mn108 O277'
_cell_volume   5858.57755970
_cell_formula_units_Z   1
loop_
 _symmetry_equiv_pos_site_id
 _symmetry_equiv_pos_as_xyz
  1  'x, y, z'
loop_
 _atom_type_symbol
 _atom_type_oxidation_number
  Ca2+  2.0
  Mn3.34+  3.34
  O2-  -2.0
loop_
 _atom_site_type_symbol
 _atom_site_label
 _atom_site_symmetry_multiplicity
 _atom_site_fract_x
 _atom_site_fract_y
 _atom_site_fract_z
 _atom_site_occupancy
  Ca2+  Ca0  1  0.10505577  0.23920037  0.24052661  1
  Ca2+  Ca1  1  0.07802449  0.26445454  0.58434989  1
  Ca2+  Ca2  1  0.06654921  0.24831714  0.92565946  1
  Ca2+  Ca3  1  0.07008937  0.75863271  0.25585569  1
  Ca2+  Ca4  1  0.06552987  0.74913738  0.58908224  1
  Ca2+  Ca5  1  0.09432094  0.75120725  0.90133296  1
  Ca2+  Ca6  1  0.39600648  0.23551921  0.25930731  1
  Ca2+  Ca7  1  0.41667120  0.24092064  0.58202952  1
  Ca2+  Ca8  1  0.42678920  0.24566776  0.90873101  1
  Ca2+  Ca9  1  0.42217987  0.77222957  0.24411809  1
  Ca2+  Ca10  1  0.41051053  0.77347152  0.58580495  1
  Ca2+  Ca11  1  0.42163873  0.75063028  0.92527947  1
  Ca2+  Ca12  1  0.74885033  0.24850724  0.26227290  1
  Ca2+  Ca13  1  0.74778954  0.24371314  0.58817975  1
  Ca2+  Ca14  1  0.75519171  0.23994517  0.90069162  1
  Ca2+  Ca15  1  0.75734124  0.75913650  0.24228494  1
  Ca2+  Ca16  1  0.77791171  0.74205593  0.58906809  1
  Ca2+  Ca17  1  0.74839217  0.74917930  0.92419513  1
  Ca2+  Ca18  1  0.24589506  0.24438295  0.10999690  1
  Ca2+  Ca19  1  0.26151943  0.25209101  0.40792527  1
  Ca2+  Ca20  1  0.25902180  0.25929362  0.74254488  1
  Ca2+  Ca21  1  0.25754533  0.74694108  0.06101314  1
  Ca2+  Ca22  1  0.25313042  0.75551390  0.41696562  1
  Ca2+  Ca23  1  0.24389437  0.76192078  0.76962180  1
  Ca2+  Ca24  1  0.57485690  0.24885505  0.07892236  1
  Ca2+  Ca25  1  0.58208851  0.24042753  0.42908915  1
  Ca2+  Ca26  1  0.58474783  0.23797194  0.74832230  1
  Ca2+  Ca27  1  0.59527918  0.74822465  0.06784028  1
  Ca2+  Ca28  1  0.59450009  0.77055914  0.40966764  1
  Ca2+  Ca29  1  0.59881062  0.74788055  0.77876661  1
  Ca2+  Ca30  1  0.93014293  0.24570365  0.07872405  1
  Ca2+  Ca31  1  0.90263638  0.24714584  0.42264277  1
  Ca2+  Ca32  1  0.90920227  0.24867509  0.75386240  1
  Ca2+  Ca33  1  0.89779518  0.76588889  0.07856619  1
  Ca2+  Ca34  1  0.91418700  0.75664513  0.42244608  1
  Ca2+  Ca35  1  0.92711484  0.73169635  0.74583614  1
  Ca2+  Ca36  1  0.89477517  0.08650104  0.74866346  1
  Ca2+  Ca37  1  0.71514284  0.08445700  0.91631980  1
  Ca2+  Ca38  1  0.90474315  0.06524492  0.39804194  1
  Ca2+  Ca39  1  0.21878154  0.61013489  0.76785281  1
  Ca2+  Ca40  1  0.27240106  0.07554287  0.72861621  1
  Ca2+  Ca41  1  0.21595572  0.08450827  0.10740624  1
  Ca2+  Ca42  1  0.73028606  0.61030461  0.91266758  1
  Ca2+  Ca43  1  0.40308375  0.60409791  0.24349814  1
  Ca2+  Ca44  1  0.45807374  0.07402375  0.91830246  1
  Ca2+  Ca45  1  0.75854943  0.07266263  0.25881034  1
  Ca2+  Ca46  1  0.90665014  0.61246429  0.08029742  1
  Ca2+  Ca47  1  0.75965547  0.60350463  0.24474418  1
  Ca2+  Ca48  1  0.25977338  0.08749121  0.40469034  1
  Ca2+  Ca49  1  0.60028099  0.58479784  0.41187088  1
  Ca2+  Ca50  1  0.25222996  0.08315370  0.40873767  1
  Ca2+  Ca51  1  0.46836876  0.07314963  0.91802416  1
  Ca2+  Ca52  1  0.40825933  0.08229370  0.25720902  1
  Ca2+  Ca53  1  0.26179759  0.07886928  0.72352769  1
  Ca2+  Ca54  1  0.22945720  0.60969093  0.76855653  1
  Ca2+  Ca55  1  0.08407404  0.61021201  0.25580315  1
  Ca2+  Ca56  1  0.08600820  0.61972554  0.90996841  1
  Ca2+  Ca57  1  0.05438077  0.61516261  0.57632436  1
  Ca2+  Ca58  1  0.59120128  0.09639177  0.74630549  1
  Ca2+  Ca59  1  0.09197874  0.07608152  0.57940624  1
  Ca2+  Ca60  1  0.72176652  0.09739278  0.57927507  1
  Ca2+  Ca61  1  0.39049085  0.60395547  0.24237667  1
  Ca2+  Ca62  1  0.89444962  0.06648279  0.39679656  1
  Ca2+  Ca63  1  0.92902488  0.61921914  0.42949604  1
  Ca2+  Ca64  1  0.41976537  0.57867612  0.59251120  1
  Ca2+  Ca65  1  0.94427173  0.06797048  0.09239968  1
  Ca2+  Ca66  1  0.09373698  0.60824934  0.25214667  1
  Ca2+  Ca67  1  0.59184816  0.09384705  0.41640487  1
  Ca2+  Ca68  1  0.89498675  0.61253795  0.08139693  1
  Ca2+  Ca69  1  0.22861892  0.60719094  0.40880343  1
  Ca2+  Ca70  1  0.44382562  0.09524444  0.58634745  1
  Ca2+  Ca71  1  0.59644440  0.05597224  0.06952525  1
  Ca2+  Ca72  1  0.07990732  0.39362112  0.25336026  1
  Ca2+  Ca73  1  0.91227839  0.90047458  0.75473988  1
  Ca2+  Ca74  1  0.25626284  0.90894111  0.41813545  1
  Ca2+  Ca75  1  0.41861670  0.40989072  0.58641530  1
  Ca2+  Ca76  1  0.58382232  0.39712763  0.08314187  1
  Ca2+  Ca77  1  0.25015440  0.41144851  0.73718226  1
  Ca2+  Ca78  1  0.91594859  0.40111262  0.40950479  1
  Ca2+  Ca79  1  0.90478459  0.91847326  0.39529477  1
  Ca2+  Ca80  1  0.24983285  0.39709242  0.08611910  1
  Ca2+  Ca81  1  0.40600619  0.40779837  0.58542966  1
  Ca2+  Ca82  1  0.58446969  0.40343076  0.74360682  1
  Ca2+  Ca83  1  0.92544884  0.40631513  0.75266484  1
  Ca2+  Ca84  1  0.74290121  0.90209857  0.57335160  1
  Ca2+  Ca85  1  0.59486785  0.40653584  0.41146707  1
  Ca2+  Ca86  1  0.24657691  0.91072708  0.42076316  1
  Ca2+  Ca87  1  0.72884908  0.92259913  0.93744439  1
  Ca2+  Ca88  1  0.75275130  0.40846363  0.26663669  1
  Ca2+  Ca89  1  0.08398425  0.90887810  0.93888018  1
  Ca2+  Ca90  1  0.73987208  0.40524100  0.91489809  1
  Ca2+  Ca91  1  0.42133988  0.39755133  0.91369191  1
  Ca2+  Ca92  1  0.08749132  0.90869502  0.57344243  1
  Ca2+  Ca93  1  0.41212909  0.40253487  0.24893525  1
  Ca2+  Ca94  1  0.58393669  0.90058071  0.75768390  1
  Ca2+  Ca95  1  0.42333024  0.91735294  0.93378425  1
  Ca2+  Ca96  1  0.76212341  0.91990290  0.25103522  1
  Ca2+  Ca97  1  0.57141164  0.91742463  0.07421977  1
  Ca2+  Ca98  1  0.91862697  0.40033032  0.08739392  1
  Ca2+  Ca99  1  0.25337645  0.90950068  0.08406036  1
  Ca2+  Ca100  1  0.90303442  0.40126780  0.41007501  1
  Ca2+  Ca101  1  0.42492731  0.40216141  0.24925688  1
  Ca2+  Ca102  1  0.07787887  0.90630828  0.57077604  1
  Ca2+  Ca103  1  0.75264990  0.40579556  0.91505384  1
  Ca2+  Ca104  1  0.73788900  0.92048757  0.94181299  1
  Ca2+  Ca105  1  0.05620590  0.93393934  0.25259997  1
  Ca2+  Ca106  1  0.08346188  0.39981469  0.91827252  1
  Ca2+  Ca107  1  0.91382240  0.40604837  0.75147916  1
  Mn3.34+  Mn108  1  0.08475000  0.32902360  0.08480676  1
  Mn3.34+  Mn109  1  0.08519794  0.32684589  0.41867045  1
  Mn3.34+  Mn110  1  0.08688635  0.33400227  0.74862266  1
  Mn3.34+  Mn111  1  0.08334489  0.83872753  0.08955841  1
  Mn3.34+  Mn112  1  0.08310648  0.83279633  0.41458841  1
  Mn3.34+  Mn113  1  0.08246014  0.83292160  0.75353712  1
  Mn3.34+  Mn114  1  0.41579703  0.32842436  0.08133506  1
  Mn3.34+  Mn115  1  0.41871259  0.32812519  0.42119741  1
  Mn3.34+  Mn116  1  0.41871929  0.33003718  0.75251294  1
  Mn3.34+  Mn117  1  0.41708761  0.84049750  0.08653529  1
  Mn3.34+  Mn118  1  0.42319331  0.83617257  0.41592354  1
  Mn3.34+  Mn119  1  0.41685349  0.83831131  0.75309902  1
  Mn3.34+  Mn120  1  0.74931293  0.32462388  0.08833718  1
  Mn3.34+  Mn121  1  0.74505647  0.32860890  0.42344453  1
  Mn3.34+  Mn122  1  0.74738792  0.33164404  0.74447163  1
  Mn3.34+  Mn123  1  0.74666444  0.83974807  0.08872231  1
  Mn3.34+  Mn124  1  0.74963781  0.83839043  0.41588142  1
  Mn3.34+  Mn125  1  0.75208828  0.83297600  0.75182033  1
  Mn3.34+  Mn126  1  0.24945312  0.33207571  0.25450971  1
  Mn3.34+  Mn127  1  0.24604031  0.33136218  0.57630844  1
  Mn3.34+  Mn128  1  0.25023345  0.32882835  0.91510666  1
  Mn3.34+  Mn129  1  0.24449290  0.83358397  0.24237998  1
  Mn3.34+  Mn130  1  0.25294137  0.84071704  0.59110611  1
  Mn3.34+  Mn131  1  0.25330023  0.83629437  0.91618788  1
  Mn3.34+  Mn132  1  0.58398164  0.32730082  0.24869553  1
  Mn3.34+  Mn133  1  0.58598093  0.33548769  0.58058629  1
  Mn3.34+  Mn134  1  0.58528979  0.32901596  0.91263202  1
  Mn3.34+  Mn135  1  0.58480876  0.84366653  0.24773982  1
  Mn3.34+  Mn136  1  0.58355594  0.83532737  0.58237436  1
  Mn3.34+  Mn137  1  0.58200128  0.83392353  0.91645882  1
  Mn3.34+  Mn138  1  0.91663372  0.32536752  0.24552405  1
  Mn3.34+  Mn139  1  0.91566427  0.33146306  0.58305038  1
  Mn3.34+  Mn140  1  0.91532988  0.33131527  0.91917924  1
  Mn3.34+  Mn141  1  0.91630763  0.83824986  0.24531884  1
  Mn3.34+  Mn142  1  0.91458880  0.83542714  0.58176424  1
  Mn3.34+  Mn143  1  0.91732348  0.83521364  0.91778679  1
  Mn3.34+  Mn144  1  0.41295723  0.16060507  0.08674150  1
  Mn3.34+  Mn145  1  0.91427918  0.67319470  0.91336241  1
  Mn3.34+  Mn146  1  0.07791392  0.16136016  0.08865469  1
  Mn3.34+  Mn147  1  0.41775398  0.66801975  0.75482209  1
  Mn3.34+  Mn148  1  0.24863883  0.68324771  0.24689049  1
  Mn3.34+  Mn149  1  0.58500129  0.66385003  0.58260008  1
  Mn3.34+  Mn150  1  0.75673855  0.66618538  0.75103788  1
  Mn3.34+  Mn151  1  0.25333437  0.66994525  0.58097834  1
  Mn3.34+  Mn152  1  0.74975590  0.16464303  0.42085473  1
  Mn3.34+  Mn153  1  0.59056869  0.66493638  0.24354801  1
  Mn3.34+  Mn154  1  0.41841487  0.67278327  0.07029698  1
  Mn3.34+  Mn155  1  0.25006451  0.15855962  0.91064967  1
  Mn3.34+  Mn156  1  0.07810075  0.16961558  0.41177987  1
  Mn3.34+  Mn157  1  0.58475250  0.15812247  0.24845426  1
  Mn3.34+  Mn158  1  0.42756523  0.15584463  0.09024412  1
  Mn3.34+  Mn159  1  0.08466136  0.67953171  0.08308925  1
  Mn3.34+  Mn160  1  0.91612318  0.15797291  0.91891718  1
  Mn3.34+  Mn161  1  0.73909833  0.16053861  0.09002542  1
  Mn3.34+  Mn162  1  0.24086671  0.15752781  0.91680988  1
  Mn3.34+  Mn163  1  0.42015008  0.16684600  0.75219969  1
  Mn3.34+  Mn164  1  0.24280661  0.66581346  0.57771898  1
  Mn3.34+  Mn165  1  0.74811177  0.16604697  0.75122115  1
  Mn3.34+  Mn166  1  0.92149584  0.16038101  0.24658240  1
  Mn3.34+  Mn167  1  0.91325660  0.16246622  0.58184100  1
  Mn3.34+  Mn168  1  0.91634264  0.67337440  0.25233331  1
  Mn3.34+  Mn169  1  0.42148916  0.16379405  0.42129961  1
  Mn3.34+  Mn170  1  0.07784253  0.16521542  0.42229455  1
  Mn3.34+  Mn171  1  0.25067700  0.16582337  0.57696965  1
  Mn3.34+  Mn172  1  0.58124888  0.67060029  0.24569898  1
  Mn3.34+  Mn173  1  0.07420009  0.16149594  0.75158482  1
  Mn3.34+  Mn174  1  0.75342494  0.16564652  0.08912360  1
  Mn3.34+  Mn175  1  0.75470292  0.67048426  0.41757983  1
  Mn3.34+  Mn176  1  0.42135557  0.67289331  0.41921604  1
  Mn3.34+  Mn177  1  0.42764936  0.66323557  0.75800796  1
  Mn3.34+  Mn178  1  0.08725559  0.16825888  0.74825789  1
  Mn3.34+  Mn179  1  0.59385705  0.66982846  0.58383009  1
  Mn3.34+  Mn180  1  0.75344128  0.50166853  0.42050711  1
  Mn3.34+  Mn181  1  0.58422614  -0.00027006  0.26242350  1
  Mn3.34+  Mn182  1  0.08908187  0.00199724  0.76037145  1
  Mn3.34+  Mn183  1  0.25834999  0.50409032  0.91578124  1
  Mn3.34+  Mn184  1  0.43410564  -0.00398597  0.42064328  1
  Mn3.34+  Mn185  1  0.41336163  0.50364648  0.41622144  1
  Mn3.34+  Mn186  1  0.07787282  -0.00175158  0.76013340  1
  Mn3.34+  Mn187  1  0.91632398  0.50094405  0.24887925  1
  Mn3.34+  Mn188  1  0.57920633  -0.00425914  0.59216617  1
  Mn3.34+  Mn189  1  0.42270535  0.49814141  0.74507008  1
  Mn3.34+  Mn190  1  0.90261567  0.50584448  0.59256302  1
  Mn3.34+  Mn191  1  0.43425442  0.51081345  0.06760540  1
  Mn3.34+  Mn192  1  0.90884270  0.00026089  0.58504610  1
  Mn3.34+  Mn193  1  0.73750519  0.50063529  0.08744714  1
  Mn3.34+  Mn194  1  0.07647947  0.49777436  0.08783574  1
  Mn3.34+  Mn195  1  0.09121836  0.50350506  0.08813507  1
  Mn3.34+  Mn196  1  0.24763940  -0.00519143  0.26413714  1
  Mn3.34+  Mn197  1  0.59237007  0.49876989  0.24681577  1
  Mn3.34+  Mn198  1  0.91417088  0.49833062  0.59027591  1
  Mn3.34+  Mn199  1  0.08036132  0.50183238  0.42357603  1
  Mn3.34+  Mn200  1  0.24742885  0.00179725  0.93148820  1
  Mn3.34+  Mn201  1  0.91752540  0.50596877  0.91593297  1
  Mn3.34+  Mn202  1  0.08330234  0.50184357  0.74946599  1
  Mn3.34+  Mn203  1  0.92319915  -0.00074217  0.93064378  1
  Mn3.34+  Mn204  1  0.24234919  0.50266186  0.23833608  1
  Mn3.34+  Mn205  1  0.59632200  0.49895097  0.58808007  1
  Mn3.34+  Mn206  1  0.74497858  0.00038341  0.74532170  1
  Mn3.34+  Mn207  1  0.75116705  0.49377935  0.08855237  1
  Mn3.34+  Mn208  1  0.09375235  0.49495135  0.42243387  1
  Mn3.34+  Mn209  1  0.74119371  0.50539714  0.74634305  1
  Mn3.34+  Mn210  1  0.23483635  0.49716956  0.58776201  1
  Mn3.34+  Mn211  1  0.40144703  0.49925195  0.41470763  1
  Mn3.34+  Mn212  1  0.42475071  0.50510342  0.07305445  1
  Mn3.34+  Mn213  1  0.58389757  0.50177110  0.91059994  1
  Mn3.34+  Mn214  1  0.24554339  0.49696917  0.91340591  1
  Mn3.34+  Mn215  1  0.41556045  -0.00912236  0.72993736  1
  O2-  O216  1  -0.01314466  0.15582344  0.01012940  1
  O2-  O217  1  0.00236224  0.19696564  0.33188384  1
  O2-  O218  1  0.00025113  0.14057477  0.66161392  1
  O2-  O219  1  -0.00789174  0.66859282  0.01124862  1
  O2-  O220  1  0.00377416  0.66202132  0.32779675  1
  O2-  O221  1  -0.00193510  0.67303024  0.66297829  1
  O2-  O222  1  0.33826100  0.14746102  -0.00766910  1
  O2-  O223  1  0.33860079  0.14828538  0.34044118  1
  O2-  O224  1  0.33781208  0.14907506  0.66304067  1
  O2-  O225  1  0.33866281  0.66794471  0.00434711  1
  O2-  O226  1  0.32959644  0.65800346  0.33565172  1
  O2-  O227  1  0.33199323  0.64456233  0.66541304  1
  O2-  O228  1  0.66964775  0.19199776  0.00721313  1
  O2-  O229  1  0.67190841  0.15883357  0.32971361  1
  O2-  O230  1  0.66892779  0.16757275  0.67014098  1
  O2-  O231  1  0.66723414  0.67668677  -0.00203367  1
  O2-  O232  1  0.66670827  0.65053493  0.33019557  1
  O2-  O233  1  0.66701109  0.67257271  0.67070263  1
  O2-  O234  1  0.16288321  0.16397377  0.00026881  1
  O2-  O235  1  0.16960359  0.16477791  0.34381263  1
  O2-  O236  1  0.17053791  0.14436635  0.66949763  1
  O2-  O237  1  0.15451427  0.68571265  0.00032964  1
  O2-  O238  1  0.16587670  0.67599635  0.32678817  1
  O2-  O239  1  0.16215682  0.65004672  0.65577723  1
  O2-  O240  1  0.50486862  0.15420595  0.00493262  1
  O2-  O241  1  0.50460448  0.15910796  0.33568854  1
  O2-  O242  1  0.50232468  0.16189643  0.67650669  1
  O2-  O243  1  0.50505731  0.66351922  0.01393383  1
  O2-  O244  1  0.50225701  0.64599623  0.33022516  1
  O2-  O245  1  0.49795521  0.65538416  0.66527198  1
  O2-  O246  1  0.82046578  0.15486108  -0.00011260  1
  O2-  O247  1  0.84283991  0.15664267  0.33555153  1
  O2-  O248  1  0.82908384  0.14599123  0.66036252  1
  O2-  O249  1  0.82747947  0.65927831  -0.00710621  1
  O2-  O250  1  0.83605188  0.65233975  0.33229711  1
  O2-  O251  1  0.83395463  0.66286029  0.67102230  1
  O2-  O252  1  -0.00093407  0.34505145  0.00187338  1
  O2-  O253  1  -0.00731248  0.32996010  0.33630680  1
  O2-  O254  1  -0.00226183  0.34920954  0.66586519  1
  O2-  O255  1  0.00766945  0.83188265  -0.00151192  1
  O2-  O256  1  0.00242835  0.83898221  0.33272503  1
  O2-  O257  1  0.00203064  0.85305315  0.66327412  1
  O2-  O258  1  0.33365120  0.34373161  -0.00107882  1
  O2-  O259  1  0.33719678  0.34635364  0.33423790  1
  O2-  O260  1  0.33480175  0.34748518  0.67223905  1
  O2-  O261  1  0.33277738  0.84533159  0.00034539  1
  O2-  O262  1  0.32193999  0.84118552  0.33456198  1
  O2-  O263  1  0.33428406  0.84504884  0.67031899  1
  O2-  O264  1  0.66754652  0.33386901  0.00002045  1
  O2-  O265  1  0.66862295  0.33800177  0.32960421  1
  O2-  O266  1  0.65591873  0.32345576  0.67251775  1
  O2-  O267  1  0.66138527  0.84518229  0.00329312  1
  O2-  O268  1  0.67104063  0.84631146  0.32846196  1
  O2-  O269  1  0.66531538  0.83957813  0.67245289  1
  O2-  O270  1  0.16786078  0.34023632  -0.00073024  1
  O2-  O271  1  0.15849022  0.33017740  0.32828964  1
  O2-  O272  1  0.17134194  0.34177602  0.66898548  1
  O2-  O273  1  0.16948173  0.83923184  0.00703820  1
  O2-  O274  1  0.16674716  0.81706080  0.33347373  1
  O2-  O275  1  0.15908567  0.85023116  0.66139698  1
  O2-  O276  1  0.50358502  0.33412079  -0.00189922  1
  O2-  O277  1  0.50272145  0.34379679  0.33561502  1
  O2-  O278  1  0.49740109  0.34532113  0.66126432  1
  O2-  O279  1  0.49873671  0.84559797  -0.00344365  1
  O2-  O280  1  0.50023758  0.83946484  0.33237794  1
  O2-  O281  1  0.50368504  0.83022634  0.66738119  1
  O2-  O282  1  0.82851055  0.34964612  0.00261300  1
  O2-  O283  1  0.83377069  0.33630114  0.32963976  1
  O2-  O284  1  0.83522488  0.35110401  0.66889987  1
  O2-  O285  1  0.82730526  0.85405441  -0.00467344  1
  O2-  O286  1  0.83275744  0.84412785  0.33062101  1
  O2-  O287  1  0.83070344  0.85364819  0.66178507  1
  O2-  O288  1  -0.00208666  0.18412236  0.16916218  1
  O2-  O289  1  -0.00010367  0.18976074  0.49928052  1
  O2-  O290  1  -0.00011579  0.18329016  0.83332819  1
  O2-  O291  1  0.00316446  0.67906953  0.17120403  1
  O2-  O292  1  0.00448671  0.69062290  0.49387304  1
  O2-  O293  1  0.00044838  0.68354059  0.84740514  1
  O2-  O294  1  0.33444899  0.16983533  0.16563861  1
  O2-  O295  1  0.32914556  0.17847049  0.49343510  1
  O2-  O296  1  0.32665506  0.18454906  0.82872220  1
  O2-  O297  1  0.33904688  0.68699259  0.17834680  1
  O2-  O298  1  0.33429786  0.67991978  0.50317092  1
  O2-  O299  1  0.32775040  0.67378239  0.82309248  1
  O2-  O300  1  0.66649155  0.18968810  0.16983141  1
  O2-  O301  1  0.66897610  0.17567804  0.49641432  1
  O2-  O302  1  0.67052126  0.18013616  0.82993400  1
  O2-  O303  1  0.67433185  0.67923849  0.17242180  1
  O2-  O304  1  0.66379517  0.68448464  0.49376606  1
  O2-  O305  1  0.68149473  0.68157588  0.83363004  1
  O2-  O306  1  0.16521903  0.17378508  0.15796937  1
  O2-  O307  1  0.15818405  0.18696076  0.50234572  1
  O2-  O308  1  0.16480931  0.19201711  0.83434781  1
  O2-  O309  1  0.15891101  0.68504561  0.17298043  1
  O2-  O310  1  0.16976771  0.68571540  0.49506908  1
  O2-  O311  1  0.16640396  0.68235753  0.82483427  1
  O2-  O312  1  0.50000924  0.18997329  0.17477979  1
  O2-  O313  1  0.49783292  0.17818639  0.50136852  1
  O2-  O314  1  0.49291180  0.17539200  0.83700878  1
  O2-  O315  1  0.48831076  0.67744471  0.17868314  1
  O2-  O316  1  0.50067762  0.68747068  0.50750000  1
  O2-  O317  1  0.49960967  0.68304575  0.83672960  1
  O2-  O318  1  0.83115473  0.19399350  0.16823083  1
  O2-  O319  1  0.83265082  0.18072484  0.50220368  1
  O2-  O320  1  0.83941111  0.17096354  0.82984020  1
  O2-  O321  1  0.84145170  0.67709892  0.16775854  1
  O2-  O322  1  0.83499009  0.68331779  0.48821939  1
  O2-  O323  1  0.83572628  0.67642552  0.83520053  1
  O2-  O324  1  0.00398325  0.31797952  0.17079074  1
  O2-  O325  1  -0.00455323  0.31689899  0.49337892  1
  O2-  O326  1  -0.00438466  0.32619872  0.83075863  1
  O2-  O327  1  -0.00079575  0.81690176  0.16403624  1
  O2-  O328  1  0.00723082  0.82485904  0.50369174  1
  O2-  O329  1  -0.00647893  0.81958550  0.82942549  1
  O2-  O330  1  0.33564476  0.32826474  0.16936580  1
  O2-  O331  1  0.34398031  0.32004217  0.50972845  1
  O2-  O332  1  0.33773427  0.31447677  0.83913250  1
  O2-  O333  1  0.32689355  0.82217006  0.16237795  1
  O2-  O334  1  0.32520143  0.82752458  0.49644490  1
  O2-  O335  1  0.34179188  0.82964222  0.83931051  1
  O2-  O336  1  0.66172057  0.30743637  0.16485107  1
  O2-  O337  1  0.66396755  0.31167938  0.50207410  1
  O2-  O338  1  0.67527252  0.31845654  0.84000524  1
  O2-  O339  1  0.66594914  0.82121273  0.16855083  1
  O2-  O340  1  0.67375003  0.81693981  0.50826939  1
  O2-  O341  1  0.67282270  0.82384956  0.83731879  1
  O2-  O342  1  0.17047059  0.32376406  0.16646717  1
  O2-  O343  1  0.16890530  0.30770209  0.49243314  1
  O2-  O344  1  0.16359411  0.31559814  0.83793029  1
  O2-  O345  1  0.16347575  0.80674583  0.16323384  1
  O2-  O346  1  0.16507123  0.81679786  0.49762070  1
  O2-  O347  1  0.16160235  0.82924699  0.83908898  1
  O2-  O348  1  0.49460350  0.31825518  0.17103998  1
  O2-  O349  1  0.50199010  0.31173126  0.50342294  1
  O2-  O350  1  0.50581363  0.31343447  0.83043260  1
  O2-  O351  1  0.50569831  0.82842625  0.16127613  1
  O2-  O352  1  0.50312824  0.81625373  0.49927144  1
  O2-  O353  1  0.50535671  0.82091816  0.83035495  1
  O2-  O354  1  0.83667400  0.31168148  0.16344819  1
  O2-  O355  1  0.83884197  0.32352369  0.49358631  1
  O2-  O356  1  0.83293604  0.33130084  0.83270467  1
  O2-  O357  1  0.83035439  0.82927508  0.16941735  1
  O2-  O358  1  0.83529860  0.82202858  0.49953636  1
  O2-  O359  1  0.83264235  0.83750119  0.83648679  1
  O2-  O360  1  0.07712760  0.08236660  0.11236573  1
  O2-  O361  1  0.08317260  0.08359199  0.44453990  1
  O2-  O362  1  0.09127063  0.08345116  0.79313564  1
  O2-  O363  1  0.08223918  0.58466108  0.11537264  1
  O2-  O364  1  0.09235300  0.58120713  0.44741526  1
  O2-  O365  1  0.09153444  0.57674588  0.78611294  1
  O2-  O366  1  0.42872578  0.07659074  0.11759534  1
  O2-  O367  1  0.41290323  0.07946700  0.45242110  1
  O2-  O368  1  0.40049317  0.07538140  0.78874431  1
  O2-  O369  1  0.40748589  0.58695319  0.11138223  1
  O2-  O370  1  0.42089913  0.58425183  0.44927056  1
  O2-  O371  1  0.41182147  0.58102013  0.77114895  1
  O2-  O372  1  0.74661639  0.07937089  0.11877144  1
  O2-  O373  1  0.75867886  0.08287993  0.44043111  1
  O2-  O374  1  0.74446544  0.08033492  0.77833260  1
  O2-  O375  1  0.76716939  0.57921955  0.11203208  1
  O2-  O376  1  0.74469534  0.58355220  0.43751183  1
  O2-  O377  1  0.75340167  0.58208283  0.77710420  1
  O2-  O378  1  0.26455967  0.06857502  0.23121487  1
  O2-  O379  1  0.23698820  0.08435637  0.54352690  1
  O2-  O380  1  0.23946426  0.07112732  0.86544209  1
  O2-  O381  1  0.25007830  0.58834958  0.22752179  1
  O2-  O382  1  0.25229659  0.58059971  0.54361980  1
  O2-  O383  1  0.23145573  0.58320416  0.90078795  1
  O2-  O384  1  0.58904555  0.07107724  0.20798081  1
  O2-  O385  1  0.58031978  0.06705288  0.54399546  1
  O2-  O386  1  0.58536578  0.07085720  0.87486016  1
  O2-  O387  1  0.57455667  0.58202586  0.21942382  1
  O2-  O388  1  0.57348728  0.57929222  0.54695915  1
  O2-  O389  1  0.59873150  0.57559879  0.89212385  1
  O2-  O390  1  0.90388508  0.08197027  0.22404374  1
  O2-  O391  1  0.92461618  0.08108042  0.53639624  1
  O2-  O392  1  0.92240352  0.07101313  0.88268259  1
  O2-  O393  1  0.92922468  0.58402993  0.21776861  1
  O2-  O394  1  0.92611587  0.57839402  0.54859344  1
  O2-  O395  1  0.93200139  0.58677359  0.92461557  1
  O2-  O396  1  0.08655552  0.41644354  0.11628032  1
  O2-  O397  1  0.06232852  0.41502024  0.42627037  1
  O2-  O398  1  0.06704020  0.42311713  0.78571823  1
  O2-  O399  1  0.09451300  0.91509050  0.11013982  1
  O2-  O400  1  0.11077099  0.91670691  0.43754225  1
  O2-  O401  1  0.07024137  0.91765731  0.78575577  1
  O2-  O402  1  0.42391722  0.42505571  0.11712596  1
  O2-  O403  1  0.42501849  0.41827687  0.44895168  1
  O2-  O404  1  0.42521292  0.41515280  0.78067640  1
  O2-  O405  1  0.40988342  0.91976062  0.09090335  1
  O2-  O406  1  0.39638747  0.91762569  0.43631231  1
  O2-  O407  1  0.44024083  0.92197266  0.78531736  1
  O2-  O408  1  0.73239578  0.41560278  0.12798228  1
  O2-  O409  1  0.75796181  0.41518890  0.43404663  1
  O2-  O410  1  0.75092235  0.42276532  0.78314679  1
  O2-  O411  1  0.73302666  0.92158570  0.09798042  1
  O2-  O412  1  0.76121689  0.91607616  0.44033747  1
  O2-  O413  1  0.74127956  0.92270500  0.78098080  1
  O2-  O414  1  0.25983368  0.41880044  0.22348787  1
  O2-  O415  1  0.26465586  0.41513886  0.55482486  1
  O2-  O416  1  0.25465557  0.41863988  0.87805799  1
  O2-  O417  1  0.22245826  0.92143859  0.22515944  1
  O2-  O418  1  0.22540972  0.92165272  0.55252459  1
  O2-  O419  1  0.23996645  0.92553492  0.90467342  1
  O2-  O420  1  0.56460935  0.41714884  0.21680428  1
  O2-  O421  1  0.56822074  0.42065199  0.54308089  1
  O2-  O422  1  0.60213681  0.42133872  0.87792484  1
  O2-  O423  1  0.59251965  0.92808625  0.21520438  1
  O2-  O424  1  0.59733085  0.92013618  0.56589076  1
  O2-  O425  1  0.59828274  0.91656017  0.89345908  1
  O2-  O426  1  0.91779882  0.41647049  0.22497499  1
  O2-  O427  1  0.91510818  0.42504418  0.53846383  1
  O2-  O428  1  0.90300964  0.42455321  0.88461720  1
  O2-  O429  1  0.92025715  0.91756076  0.23766082  1
  O2-  O430  1  0.93877279  0.92069345  0.54616797  1
  O2-  O431  1  0.93238626  0.92475521  0.89090773  1
  O2-  O432  1  -0.00040062  -0.00259255  0.00084600  1
  O2-  O433  1  -0.01452235  -0.00362665  0.36226380  1
  O2-  O434  1  0.01095234  0.00368736  0.66020553  1
  O2-  O435  1  -0.00195093  0.48528568  0.00181545  1
  O2-  O436  1  0.00356440  0.50332536  0.33387107  1
  O2-  O437  1  0.00112127  0.49590667  0.66968474  1
  O2-  O438  1  0.35169388  0.01269998  -0.04147565  1
  O2-  O439  1  0.33160301  0.00473070  0.34823378  1
  O2-  O440  1  0.34314710  0.01717288  0.65397548  1
  O2-  O441  1  0.32792975  0.48682948  0.00889949  1
  O2-  O442  1  0.34307436  0.50564204  0.31102624  1
  O2-  O443  1  0.34191527  0.49132355  0.64917013  1
  O2-  O444  1  0.67248928  0.00210291  -0.01034927  1
  O2-  O445  1  0.67224178  0.00451428  0.31786134  1
  O2-  O446  1  0.67201591  0.01222191  0.65725271  1
  O2-  O447  1  0.66532734  0.48233905  -0.00433370  1
  O2-  O448  1  0.66212787  0.49173695  0.34601699  1
  O2-  O449  1  0.64872962  0.48312681  0.68792947  1
  O2-  O450  1  0.18852145  0.00190855  0.01835403  1
  O2-  O451  1  0.18081201  0.00318892  0.35279401  1
  O2-  O452  1  0.17290877  0.01404149  0.67890115  1
  O2-  O453  1  0.16475240  0.48851698  -0.00089201  1
  O2-  O454  1  0.16662419  0.51523974  0.33170429  1
  O2-  O455  1  0.19097342  0.50367247  0.70643938  1
  O2-  O456  1  0.50647933  0.00245269  -0.00189903  1
  O2-  O457  1  0.50564672  0.02406503  0.33266963  1
  O2-  O458  1  0.51008588  0.01950744  0.67814147  1
  O2-  O459  1  0.49706800  0.47605649  -0.01814910  1
  O2-  O460  1  0.49855570  0.49429407  0.33359832  1
  O2-  O461  1  0.48935210  0.49283473  0.64029171  1
  O2-  O462  1  0.82326063  0.00210955  -0.03170907  1
  O2-  O463  1  0.82721393  0.00073627  0.33063808  1
  O2-  O464  1  0.84199195  0.00132692  0.68436396  1
  O2-  O465  1  0.82764408  0.48820699  -0.00404696  1
  O2-  O466  1  0.83807124  0.48616725  0.33803483  1
  O2-  O467  1  0.84113689  0.48676846  0.68853412  1
  O2-  O468  1  0.58458060  0.75379106  0.93053923  1
  O2-  O469  1  0.76860825  0.24844890  0.73338538  1
  O2-  O470  1  0.89944710  0.75499318  0.93928153  1
  O2-  O471  1  0.40946918  0.24143444  0.05672875  1
  O2-  O472  1  0.25552585  0.25202443  0.26204263  1
  O2-  O473  1  0.76529775  0.75337179  0.73333382  1
  O2-  O474  1  0.08003836  0.24916821  0.06317690  1
  O2-  O475  1  0.75513410  0.24817743  0.39741903  1
  O2-  O476  1  0.91071165  0.24807236  0.93751000  1
  O2-  O477  1  0.57976311  0.75144636  0.27214053  1
  O2-  O478  1  0.40678378  0.74808133  0.72784463  1
  O2-  O479  1  0.74763258  0.75015414  0.38494130  1
  O2-  O480  1  0.08782506  0.75646197  0.72966206  1
  O2-  O481  1  0.25617067  0.24737996  0.60812568  1
  O2-  O482  1  0.75352410  0.75879733  0.06768540  1
  O2-  O483  1  0.07134301  0.24741844  0.71755799  1
  O2-  O484  1  0.91800786  0.75793638  0.60530444  1
  O2-  O485  1  0.42246074  0.75424280  0.06697875  1
  O2-  O486  1  0.41131085  0.24713879  0.39363437  1
  O2-  O487  1  0.25801169  0.75203043  0.61331087  1
  O2-  O488  1  0.41181537  0.24927576  0.72316892  1
  O2-  O489  1  0.40983185  0.75179650  0.39144488  1
  O2-  O490  1  0.91202787  0.24464749  0.61285250  1
  O2-  O491  1  0.91153583  0.75254929  0.27401530  1
  O2-  O492  1  0.25798635  0.75782456  0.92142098  1
