# generated using pymatgen
data_Ca108Mn108O277
_symmetry_space_group_name_H-M   'P 1'
_cell_length_a   16.01664533
_cell_length_b   22.29160743
_cell_length_c   16.37937247
_cell_angle_alpha   90.00029429
_cell_angle_beta   90.00078632
_cell_angle_gamma   89.99656023
_symmetry_Int_Tables_number   1
_chemical_formula_structural   Ca108Mn108O277
_chemical_formula_sum   'Ca108 Mn108 O277'
_cell_volume   5848.03823278
_cell_formula_units_Z   1
loop_
 _symmetry_equiv_pos_site_id
 _symmetry_equiv_pos_as_xyz
  1  'x, y, z'
loop_
 _atom_type_symbol
 _atom_type_oxidation_number
  Ca2+  2.0
  Mn3.34+  3.34
  O2-  -2.0
loop_
 _atom_site_type_symbol
 _atom_site_label
 _atom_site_symmetry_multiplicity
 _atom_site_fract_x
 _atom_site_fract_y
 _atom_site_fract_z
 _atom_site_occupancy
  Ca2+  Ca0  1  0.09589861  0.25492643  0.25773429  1
  Ca2+  Ca1  1  0.08398783  0.24258432  0.58439477  1
  Ca2+  Ca2  1  0.07474049  0.25096693  0.90229830  1
  Ca2+  Ca3  1  0.10498640  0.74581647  0.24761696  1
  Ca2+  Ca4  1  0.06225256  0.74121128  0.58712124  1
  Ca2+  Ca5  1  0.09216565  0.74536216  0.91996448  1
  Ca2+  Ca6  1  0.41588292  0.25192486  0.24251022  1
  Ca2+  Ca7  1  0.40365659  0.25016926  0.58939579  1
  Ca2+  Ca8  1  0.42970928  0.25299455  0.92211787  1
  Ca2+  Ca9  1  0.40627611  0.74825245  0.25651152  1
  Ca2+  Ca10  1  0.41562014  0.75177450  0.57422884  1
  Ca2+  Ca11  1  0.40858338  0.74556115  0.91862296  1
  Ca2+  Ca12  1  0.74212202  0.25675906  0.23092700  1
  Ca2+  Ca13  1  0.75997367  0.25225938  0.60093860  1
  Ca2+  Ca14  1  0.74643622  0.25342106  0.91656442  1
  Ca2+  Ca15  1  0.73873102  0.75576254  0.24414751  1
  Ca2+  Ca16  1  0.76658214  0.74677217  0.58863698  1
  Ca2+  Ca17  1  0.75005113  0.74888014  0.92194071  1
  Ca2+  Ca18  1  0.26285623  0.25849161  0.09335812  1
  Ca2+  Ca19  1  0.24381331  0.25163333  0.41368200  1
  Ca2+  Ca20  1  0.24879911  0.25693211  0.74679807  1
  Ca2+  Ca21  1  0.24218073  0.75861613  0.08308550  1
  Ca2+  Ca22  1  0.25496279  0.74087342  0.39779393  1
  Ca2+  Ca23  1  0.23970232  0.74037994  0.76989041  1
  Ca2+  Ca24  1  0.58216377  0.24728524  0.08005743  1
  Ca2+  Ca25  1  0.57352193  0.25715855  0.40119629  1
  Ca2+  Ca26  1  0.58364280  0.24999477  0.77186816  1
  Ca2+  Ca27  1  0.59316382  0.75959529  0.08076609  1
  Ca2+  Ca28  1  0.57646044  0.74749076  0.40774548  1
  Ca2+  Ca29  1  0.59492931  0.73855681  0.75542394  1
  Ca2+  Ca30  1  0.90158000  0.25388236  0.07458770  1
  Ca2+  Ca31  1  0.93564916  0.25257953  0.42236152  1
  Ca2+  Ca32  1  0.91311213  0.24873314  0.75392379  1
  Ca2+  Ca33  1  0.91390616  0.75314978  0.07537523  1
  Ca2+  Ca34  1  0.91575546  0.75196235  0.43724137  1
  Ca2+  Ca35  1  0.91723980  0.72894090  0.73707049  1
  Ca2+  Ca36  1  0.42465529  0.59816556  0.58518640  1
  Ca2+  Ca37  1  0.90852966  0.59605397  0.08035756  1
  Ca2+  Ca38  1  0.08057017  0.10964221  0.57802116  1
  Ca2+  Ca39  1  0.41002695  0.58829167  0.27126484  1
  Ca2+  Ca40  1  0.93999201  0.09348611  0.42544839  1
  Ca2+  Ca41  1  0.09620994  0.07553019  0.27454753  1
  Ca2+  Ca42  1  0.93128693  0.60259856  0.42364399  1
  Ca2+  Ca43  1  0.24289688  0.59923914  0.07927904  1
  Ca2+  Ca44  1  0.24639317  0.10305359  0.42361361  1
  Ca2+  Ca45  1  0.77275260  0.10304563  0.59265515  1
  Ca2+  Ca46  1  0.23963420  0.10743146  0.74535085  1
  Ca2+  Ca47  1  0.91519542  0.10626768  0.74549872  1
  Ca2+  Ca48  1  0.43194543  0.08729943  0.23807943  1
  Ca2+  Ca49  1  0.39568021  0.10824146  0.57729040  1
  Ca2+  Ca50  1  0.23395002  0.60229244  0.08338957  1
  Ca2+  Ca51  1  0.57051986  0.07863951  0.39206533  1
  Ca2+  Ca52  1  0.72530893  0.07302452  0.23920866  1
  Ca2+  Ca53  1  0.74693980  0.09031919  0.92722106  1
  Ca2+  Ca54  1  0.09321704  0.60053530  0.90606236  1
  Ca2+  Ca55  1  0.90702472  0.07414468  0.07055518  1
  Ca2+  Ca56  1  0.71320361  0.07342627  0.23551937  1
  Ca2+  Ca57  1  0.43670909  0.08757856  0.94011140  1
  Ca2+  Ca58  1  0.07421012  0.60166708  0.59467704  1
  Ca2+  Ca59  1  0.92142847  0.60500017  0.42655435  1
  Ca2+  Ca60  1  0.74560117  0.59844939  0.60806904  1
  Ca2+  Ca61  1  0.25341768  0.60433910  0.77117404  1
  Ca2+  Ca62  1  0.73797109  0.59542286  0.60250462  1
  Ca2+  Ca63  1  0.91762475  0.07386386  0.06983397  1
  Ca2+  Ca64  1  0.75579842  0.59707982  0.23807052  1
  Ca2+  Ca65  1  0.42526456  0.08849943  0.93892856  1
  Ca2+  Ca66  1  0.27363439  0.08530627  0.08932380  1
  Ca2+  Ca67  1  0.60550557  0.58851756  0.07460387  1
  Ca2+  Ca68  1  0.10308525  0.60071295  0.25211106  1
  Ca2+  Ca69  1  0.74421311  0.59633858  0.23900710  1
  Ca2+  Ca70  1  0.25992508  0.59523088  0.40700186  1
  Ca2+  Ca71  1  0.25116556  0.10830311  0.74427095  1
  Ca2+  Ca72  1  0.57674149  0.89411455  0.75196474  1
  Ca2+  Ca73  1  0.91128875  0.90935337  0.08279710  1
  Ca2+  Ca74  1  0.42443803  0.91278767  0.95023826  1
  Ca2+  Ca75  1  0.40707512  0.41472889  0.91523306  1
  Ca2+  Ca76  1  0.09068715  0.40337275  0.59122687  1
  Ca2+  Ca77  1  0.08395558  0.89491004  0.57298276  1
  Ca2+  Ca78  1  0.58807681  0.89439735  0.75251814  1
  Ca2+  Ca79  1  0.91356904  0.41007277  0.08581193  1
  Ca2+  Ca80  1  0.25975569  0.89076342  0.75291319  1
  Ca2+  Ca81  1  0.58057818  0.91059184  0.39882341  1
  Ca2+  Ca82  1  0.74176512  0.40915115  0.60010858  1
  Ca2+  Ca83  1  0.41990763  0.41497883  0.91523452  1
  Ca2+  Ca84  1  0.24656370  0.40834376  0.75187457  1
  Ca2+  Ca85  1  0.58994812  0.41145360  0.08371387  1
  Ca2+  Ca86  1  0.73019979  0.90958268  0.24257409  1
  Ca2+  Ca87  1  0.92166908  0.40554353  0.41022635  1
  Ca2+  Ca88  1  0.09497058  0.40636934  0.24922522  1
  Ca2+  Ca89  1  0.43394947  0.91177836  0.23549163  1
  Ca2+  Ca90  1  0.56096869  0.41473444  0.40794368  1
  Ca2+  Ca91  1  0.08279924  0.40759319  0.90758243  1
  Ca2+  Ca92  1  0.42432877  0.41125162  0.58781209  1
  Ca2+  Ca93  1  0.58299816  0.41857092  0.74641794  1
  Ca2+  Ca94  1  0.91108539  0.40113598  0.75295948  1
  Ca2+  Ca95  1  0.91520075  0.89224351  0.75767292  1
  Ca2+  Ca96  1  0.91938772  0.90096568  0.40859639  1
  Ca2+  Ca97  1  0.90086529  0.41237043  0.08530475  1
  Ca2+  Ca98  1  0.59534655  0.42018461  0.74869929  1
  Ca2+  Ca99  1  0.23873767  0.90805111  0.40508138  1
  Ca2+  Ca100  1  0.74130921  0.89689620  0.57537499  1
  Ca2+  Ca101  1  0.74320578  0.40598236  0.24667245  1
  Ca2+  Ca102  1  0.07928703  0.40413379  0.59096004  1
  Ca2+  Ca103  1  0.25041837  0.90725023  0.40489292  1
  Ca2+  Ca104  1  0.24860869  0.88961118  0.75501873  1
  Ca2+  Ca105  1  0.07089607  0.91205466  0.94752239  1
  Ca2+  Ca106  1  0.08476366  0.90720635  0.24323141  1
  Ca2+  Ca107  1  0.40905842  0.41115778  0.26082570  1
  Mn3.34+  Mn108  1  0.08660778  0.33386510  0.08332903  1
  Mn3.34+  Mn109  1  0.08880557  0.33499156  0.41720634  1
  Mn3.34+  Mn110  1  0.08397847  0.33551432  0.75438579  1
  Mn3.34+  Mn111  1  0.08012005  0.83608731  0.08818902  1
  Mn3.34+  Mn112  1  0.08329096  0.83154891  0.41599387  1
  Mn3.34+  Mn113  1  0.07837337  0.82816462  0.75390321  1
  Mn3.34+  Mn114  1  0.41706671  0.33614803  0.08734857  1
  Mn3.34+  Mn115  1  0.41036495  0.33885796  0.42218702  1
  Mn3.34+  Mn116  1  0.41738156  0.33579472  0.75251956  1
  Mn3.34+  Mn117  1  0.41861588  0.83968332  0.08645700  1
  Mn3.34+  Mn118  1  0.41736968  0.83156349  0.41776538  1
  Mn3.34+  Mn119  1  0.41844923  0.81843687  0.75029299  1
  Mn3.34+  Mn120  1  0.74702384  0.33691860  0.08295428  1
  Mn3.34+  Mn121  1  0.74884390  0.32828892  0.42020551  1
  Mn3.34+  Mn122  1  0.74748894  0.33514723  0.75403505  1
  Mn3.34+  Mn123  1  0.75007901  0.84073545  0.08262938  1
  Mn3.34+  Mn124  1  0.74838889  0.83121584  0.41535343  1
  Mn3.34+  Mn125  1  0.75300456  0.82749950  0.75417310  1
  Mn3.34+  Mn126  1  0.25241767  0.33334638  0.25047321  1
  Mn3.34+  Mn127  1  0.25372099  0.33041921  0.57862717  1
  Mn3.34+  Mn128  1  0.24768537  0.33185756  0.92066137  1
  Mn3.34+  Mn129  1  0.25367825  0.83181425  0.24226401  1
  Mn3.34+  Mn130  1  0.25002003  0.82399555  0.57948744  1
  Mn3.34+  Mn131  1  0.24983884  0.82916925  0.92529656  1
  Mn3.34+  Mn132  1  0.58069824  0.33446641  0.24822039  1
  Mn3.34+  Mn133  1  0.58220936  0.33009343  0.57632906  1
  Mn3.34+  Mn134  1  0.58766513  0.33788915  0.91920578  1
  Mn3.34+  Mn135  1  0.58065770  0.83593326  0.24556452  1
  Mn3.34+  Mn136  1  0.58107815  0.83111026  0.57674517  1
  Mn3.34+  Mn137  1  0.58621824  0.83189896  0.92371371  1
  Mn3.34+  Mn138  1  0.91768674  0.33353645  0.25039931  1
  Mn3.34+  Mn139  1  0.91354750  0.32824609  0.58140317  1
  Mn3.34+  Mn140  1  0.91337182  0.33297810  0.91534051  1
  Mn3.34+  Mn141  1  0.91620164  0.83101829  0.24776518  1
  Mn3.34+  Mn142  1  0.91506610  0.83130926  0.58428333  1
  Mn3.34+  Mn143  1  0.91384156  0.83235314  0.91823303  1
  Mn3.34+  Mn144  1  0.42182494  0.66063051  0.75200480  1
  Mn3.34+  Mn145  1  0.08798070  0.15475529  0.08129570  1
  Mn3.34+  Mn146  1  0.41917341  0.16730062  0.08726212  1
  Mn3.34+  Mn147  1  0.08822560  0.16801822  0.42279747  1
  Mn3.34+  Mn148  1  0.07881798  0.17281459  0.74893737  1
  Mn3.34+  Mn149  1  0.57946391  0.66998425  0.58394917  1
  Mn3.34+  Mn150  1  0.74753184  0.16424994  0.08246832  1
  Mn3.34+  Mn151  1  0.91863472  0.67148980  0.24807149  1
  Mn3.34+  Mn152  1  0.41834846  0.17197677  0.75602053  1
  Mn3.34+  Mn153  1  0.74934628  0.17009918  0.75500959  1
  Mn3.34+  Mn154  1  0.25159381  0.67124764  0.58456849  1
  Mn3.34+  Mn155  1  0.42526379  0.66188773  0.08318082  1
  Mn3.34+  Mn156  1  0.91645533  0.66887062  0.91329743  1
  Mn3.34+  Mn157  1  0.57611736  0.17055421  0.58450013  1
  Mn3.34+  Mn158  1  0.58568415  0.66365849  0.90996493  1
  Mn3.34+  Mn159  1  0.08967973  0.16697528  0.08028739  1
  Mn3.34+  Mn160  1  0.08171086  0.66124759  0.75221498  1
  Mn3.34+  Mn161  1  0.75351670  0.66058332  0.76031962  1
  Mn3.34+  Mn162  1  0.92673557  0.16756415  0.24654207  1
  Mn3.34+  Mn163  1  0.41663137  0.66797112  0.08253829  1
  Mn3.34+  Mn164  1  0.91653581  0.16448175  0.91266734  1
  Mn3.34+  Mn165  1  0.74942929  0.66885497  0.07681271  1
  Mn3.34+  Mn166  1  0.58193379  0.66716232  0.25273831  1
  Mn3.34+  Mn167  1  0.08964116  0.66977097  0.42015194  1
  Mn3.34+  Mn168  1  0.74649682  0.16912187  0.42138270  1
  Mn3.34+  Mn169  1  0.91595603  0.16235908  0.24603788  1
  Mn3.34+  Mn170  1  0.58780488  0.16444506  0.91640933  1
  Mn3.34+  Mn171  1  0.41516343  0.16836652  0.41674648  1
  Mn3.34+  Mn172  1  0.58498537  0.16448893  0.58294059  1
  Mn3.34+  Mn173  1  0.74441315  0.66929258  0.42116003  1
  Mn3.34+  Mn174  1  0.75567031  0.17493208  0.41934026  1
  Mn3.34+  Mn175  1  0.57926455  0.16846935  0.24730667  1
  Mn3.34+  Mn176  1  0.41748156  0.66333788  0.42029578  1
  Mn3.34+  Mn177  1  0.07798464  0.67027838  0.08366669  1
  Mn3.34+  Mn178  1  0.24977013  0.17228666  0.91673852  1
  Mn3.34+  Mn179  1  0.25294787  0.16590607  0.25049853  1
  Mn3.34+  Mn180  1  0.92265759  0.00310225  0.57670099  1
  Mn3.34+  Mn181  1  0.75287287  -0.00236104  0.75794047  1
  Mn3.34+  Mn182  1  0.90483357  0.50656734  0.91461747  1
  Mn3.34+  Mn183  1  0.91294132  -0.00191748  0.92035600  1
  Mn3.34+  Mn184  1  0.92423733  0.50170898  0.25447488  1
  Mn3.34+  Mn185  1  0.92161392  -0.00108726  0.25853964  1
  Mn3.34+  Mn186  1  0.90693852  0.49681550  0.58717797  1
  Mn3.34+  Mn187  1  0.58283401  0.00030687  0.57981685  1
  Mn3.34+  Mn188  1  0.08302991  0.00409916  0.75772256  1
  Mn3.34+  Mn189  1  0.24343940  0.00388835  0.57570526  1
  Mn3.34+  Mn190  1  0.89304591  0.50273882  0.91665365  1
  Mn3.34+  Mn191  1  0.59193969  -0.00160113  0.93507988  1
  Mn3.34+  Mn192  1  0.91201471  -0.00225027  0.57760804  1
  Mn3.34+  Mn193  1  0.08062666  0.50078869  0.08075244  1
  Mn3.34+  Mn194  1  0.75142444  0.49606004  0.42073889  1
  Mn3.34+  Mn195  1  0.74951179  0.00142174  0.41544693  1
  Mn3.34+  Mn196  1  0.41774113  -0.00137689  0.41552445  1
  Mn3.34+  Mn197  1  0.25074346  -0.00073166  0.25466684  1
  Mn3.34+  Mn198  1  0.25223512  0.49567864  0.26026202  1
  Mn3.34+  Mn199  1  0.07387626  -0.00076123  0.76980990  1
  Mn3.34+  Mn200  1  0.42978044  0.00486708  0.75525949  1
  Mn3.34+  Mn201  1  0.24914326  0.50449979  0.58661667  1
  Mn3.34+  Mn202  1  0.59350289  0.50514255  0.93487013  1
  Mn3.34+  Mn203  1  0.57564263  0.50104833  0.25523046  1
  Mn3.34+  Mn204  1  0.09078686  0.50054098  0.41640348  1
  Mn3.34+  Mn205  1  0.73949548  0.00413664  0.75733919  1
  Mn3.34+  Mn206  1  0.41513942  0.49768604  0.08050877  1
  Mn3.34+  Mn207  1  0.23277992  -0.00033925  0.93427577  1
  Mn3.34+  Mn208  1  0.26137549  0.49751215  0.58517723  1
  Mn3.34+  Mn209  1  0.73622448  0.50133656  0.42114459  1
  Mn3.34+  Mn210  1  0.24759264  0.50215718  0.92322164  1
  Mn3.34+  Mn211  1  0.92065310  0.50273846  0.59117786  1
  Mn3.34+  Mn212  1  0.25790212  -0.00212080  0.57704084  1
  Mn3.34+  Mn213  1  0.24316416  0.00065426  0.92740487  1
  Mn3.34+  Mn214  1  0.57924806  0.49989190  0.58587760  1
  Mn3.34+  Mn215  1  0.41599396  -0.00163773  0.75487470  1
  O2-  O216  1  0.00138961  0.15727683  0.00116547  1
  O2-  O217  1  0.00508255  0.15261909  0.33256102  1
  O2-  O218  1  0.00133113  0.16599884  0.66924069  1
  O2-  O219  1  -0.00261379  0.65505524  0.00073157  1
  O2-  O220  1  0.00086291  0.65871145  0.33276929  1
  O2-  O221  1  0.00588725  0.66518776  0.66802589  1
  O2-  O222  1  0.33671194  0.15890385  -0.00404215  1
  O2-  O223  1  0.33553144  0.15813356  0.33082958  1
  O2-  O224  1  0.33169631  0.16770996  0.67520208  1
  O2-  O225  1  0.33136819  0.65785613  0.00698206  1
  O2-  O226  1  0.33816090  0.65951411  0.33928264  1
  O2-  O227  1  0.33797093  0.67717355  0.66428880  1
  O2-  O228  1  0.67180367  0.16153502  -0.00414531  1
  O2-  O229  1  0.66650904  0.16027670  0.33593937  1
  O2-  O230  1  0.67077192  0.16495548  0.66331257  1
  O2-  O231  1  0.66300014  0.66277957  0.00264888  1
  O2-  O232  1  0.67391681  0.65671826  0.32727742  1
  O2-  O233  1  0.66378518  0.67161118  0.66398954  1
  O2-  O234  1  0.16935477  0.18354544  0.00059784  1
  O2-  O235  1  0.16808574  0.15634324  0.33114779  1
  O2-  O236  1  0.16432856  0.16592634  0.66970066  1
  O2-  O237  1  0.15774026  0.65726045  0.00440987  1
  O2-  O238  1  0.16929948  0.65919472  0.34098238  1
  O2-  O239  1  0.17123658  0.66701977  0.66768108  1
  O2-  O240  1  0.50094880  0.16150819  0.00129803  1
  O2-  O241  1  0.50039625  0.16656168  0.33506323  1
  O2-  O242  1  0.49268405  0.16080013  0.66488376  1
  O2-  O243  1  0.50147282  0.65881274  0.00020861  1
  O2-  O244  1  0.49900177  0.65948680  0.33123893  1
  O2-  O245  1  0.49653726  0.68461103  0.66481066  1
  O2-  O246  1  0.84087465  0.15054093  0.00392467  1
  O2-  O247  1  0.83411822  0.15190600  0.33726656  1
  O2-  O248  1  0.83254313  0.17009610  0.67544299  1
  O2-  O249  1  0.83836834  0.66487273  0.00517852  1
  O2-  O250  1  0.83625665  0.65294603  0.33484883  1
  O2-  O251  1  0.82218539  0.66373147  0.66553264  1
  O2-  O252  1  0.00053894  0.34282195  -0.00039609  1
  O2-  O253  1  0.00302167  0.34724233  0.33222263  1
  O2-  O254  1  -0.00081957  0.34126564  0.66463765  1
  O2-  O255  1  -0.00577325  0.84116404  0.00455412  1
  O2-  O256  1  0.00179259  0.84063175  0.33337465  1
  O2-  O257  1  0.00033083  0.84341826  0.66638305  1
  O2-  O258  1  0.33687709  0.33597834  -0.00413534  1
  O2-  O259  1  0.33834590  0.32854985  0.33276945  1
  O2-  O260  1  0.33292555  0.33544446  0.66557990  1
  O2-  O261  1  0.33766421  0.83666747  -0.00274557  1
  O2-  O262  1  0.33187326  0.84434669  0.33483277  1
  O2-  O263  1  0.32789541  0.82088648  0.67043050  1
  O2-  O264  1  0.66229967  0.33970732  0.00628910  1
  O2-  O265  1  0.66551594  0.33576641  0.33590168  1
  O2-  O266  1  0.66386669  0.33392580  0.66265970  1
  O2-  O267  1  0.66970352  0.83430802  -0.00123797  1
  O2-  O268  1  0.66573839  0.83965116  0.33509898  1
  O2-  O269  1  0.66326098  0.83776507  0.66566837  1
  O2-  O270  1  0.16267780  0.31168468  -0.00287630  1
  O2-  O271  1  0.16752316  0.34057039  0.32920835  1
  O2-  O272  1  0.16941314  0.33745593  0.66540857  1
  O2-  O273  1  0.16090800  0.84127000  -0.00267645  1
  O2-  O274  1  0.16831907  0.84074163  0.33443429  1
  O2-  O275  1  0.16827773  0.84009075  0.66728570  1
  O2-  O276  1  0.49565286  0.35108768  -0.00382583  1
  O2-  O277  1  0.49613025  0.33674077  0.33658385  1
  O2-  O278  1  0.50451351  0.34555106  0.66787250  1
  O2-  O279  1  0.49952128  0.83603041  -0.00149159  1
  O2-  O280  1  0.49769487  0.84186994  0.33479019  1
  O2-  O281  1  0.50666769  0.82226317  0.67091226  1
  O2-  O282  1  0.83794206  0.34245316  0.00656429  1
  O2-  O283  1  0.83137233  0.34178790  0.33546417  1
  O2-  O284  1  0.83344307  0.33453131  0.66635944  1
  O2-  O285  1  0.83806275  0.83797701  0.00503985  1
  O2-  O286  1  0.83527949  0.83626630  0.33406284  1
  O2-  O287  1  0.82948202  0.84488149  0.66418416  1
  O2-  O288  1  0.00646227  0.19413350  0.15588304  1
  O2-  O289  1  0.00421271  0.18071828  0.49648826  1
  O2-  O290  1  -0.00492452  0.17792201  0.82897699  1
  O2-  O291  1  -0.00159636  0.68196585  0.16859609  1
  O2-  O292  1  -0.00088011  0.67467372  0.49243745  1
  O2-  O293  1  0.00447222  0.67780901  0.83867722  1
  O2-  O294  1  0.33198711  0.17643821  0.16391610  1
  O2-  O295  1  0.33752374  0.18466680  0.49397709  1
  O2-  O296  1  0.32855335  0.18179318  0.83223458  1
  O2-  O297  1  0.33562436  0.66886100  0.16273228  1
  O2-  O298  1  0.33106783  0.68405212  0.50158223  1
  O2-  O299  1  0.34343398  0.68420370  0.82042017  1
  O2-  O300  1  0.67346488  0.16866616  0.17601314  1
  O2-  O301  1  0.66633761  0.18934226  0.50178970  1
  O2-  O302  1  0.66766780  0.17700964  0.83667804  1
  O2-  O303  1  0.66875613  0.67283099  0.16918545  1
  O2-  O304  1  0.67187018  0.68148548  0.50894224  1
  O2-  O305  1  0.67052037  0.67764013  0.83782747  1
  O2-  O306  1  0.16810270  0.17819503  0.16417086  1
  O2-  O307  1  0.16755339  0.18172469  0.49742239  1
  O2-  O308  1  0.17342743  0.18321617  0.82768509  1
  O2-  O309  1  0.16605201  0.67145082  0.15884872  1
  O2-  O310  1  0.16471178  0.68060113  0.50591763  1
  O2-  O311  1  0.16346486  0.67377295  0.83206485  1
  O2-  O312  1  0.49591049  0.17729074  0.17097970  1
  O2-  O313  1  0.49945950  0.18990340  0.49874750  1
  O2-  O314  1  0.49187573  0.17213176  0.84424592  1
  O2-  O315  1  0.50261080  0.67131414  0.16601481  1
  O2-  O316  1  0.49773595  0.68177470  0.50519512  1
  O2-  O317  1  0.50049798  0.68158417  0.82915032  1
  O2-  O318  1  0.83550837  0.17966640  0.16384555  1
  O2-  O319  1  0.83289800  0.18870861  0.50167999  1
  O2-  O320  1  0.83090750  0.17888678  0.83759339  1
  O2-  O321  1  0.82768414  0.67999586  0.17584147  1
  O2-  O322  1  0.83250538  0.66791448  0.49325051  1
  O2-  O323  1  0.83455282  0.68075323  0.83472833  1
  O2-  O324  1  -0.00366578  0.31967890  0.16127426  1
  O2-  O325  1  0.00159611  0.32173242  0.50651460  1
  O2-  O326  1  -0.00082604  0.32635128  0.83327645  1
  O2-  O327  1  -0.00006079  0.81432247  0.17106860  1
  O2-  O328  1  -0.00038635  0.82735990  0.49770948  1
  O2-  O329  1  0.00309206  0.82961941  0.83845641  1
  O2-  O330  1  0.33900538  0.32344381  0.17202343  1
  O2-  O331  1  0.33161838  0.30979063  0.49864206  1
  O2-  O332  1  0.33318880  0.32225959  0.83613276  1
  O2-  O333  1  0.33838327  0.82475407  0.16883963  1
  O2-  O334  1  0.32540733  0.82009802  0.49182645  1
  O2-  O335  1  0.33046845  0.82285452  0.82902911  1
  O2-  O336  1  0.66800719  0.32901530  0.16632654  1
  O2-  O337  1  0.66673003  0.30543173  0.50060184  1
  O2-  O338  1  0.65981615  0.32908868  0.82789905  1
  O2-  O339  1  0.66867937  0.82740950  0.16996767  1
  O2-  O340  1  0.67026284  0.81786838  0.50278036  1
  O2-  O341  1  0.65890158  0.82550372  0.82615417  1
  O2-  O342  1  0.16435359  0.31967300  0.16840816  1
  O2-  O343  1  0.16020807  0.31960734  0.51159709  1
  O2-  O344  1  0.16930773  0.32138069  0.83498004  1
  O2-  O345  1  0.16249189  0.82669452  0.17036579  1
  O2-  O346  1  0.16457549  0.81876489  0.50123332  1
  O2-  O347  1  0.17206896  0.82770253  0.82874669  1
  O2-  O348  1  0.50306770  0.32397851  0.16281831  1
  O2-  O349  1  0.49534852  0.31166172  0.50040829  1
  O2-  O350  1  0.49976831  0.33043552  0.83618979  1
  O2-  O351  1  0.49657649  0.82200655  0.17081088  1
  O2-  O352  1  0.50227090  0.81641570  0.49596067  1
  O2-  O353  1  0.50172325  0.82844947  0.83050352  1
  O2-  O354  1  0.83357065  0.32375838  0.16633650  1
  O2-  O355  1  0.83544374  0.31013069  0.49835661  1
  O2-  O356  1  0.83552643  0.32496763  0.82859197  1
  O2-  O357  1  0.83451700  0.81633321  0.16939632  1
  O2-  O358  1  0.83341266  0.82818810  0.49886335  1
  O2-  O359  1  0.83814723  0.82350062  0.83017102  1
  O2-  O360  1  0.05891726  0.07884097  0.12209321  1
  O2-  O361  1  0.08584796  0.08516016  0.44497621  1
  O2-  O362  1  0.09417467  0.08664439  0.77236939  1
  O2-  O363  1  0.08455748  0.58194412  0.11190011  1
  O2-  O364  1  0.07550339  0.58413706  0.44624424  1
  O2-  O365  1  0.09885668  0.58239403  0.76394186  1
  O2-  O366  1  0.41301767  0.08483373  0.09700662  1
  O2-  O367  1  0.42132791  0.07865714  0.44811846  1
  O2-  O368  1  0.40349508  0.08496846  0.78233672  1
  O2-  O369  1  0.41565588  0.57854549  0.11226370  1
  O2-  O370  1  0.40336502  0.58462153  0.44756898  1
  O2-  O371  1  0.40428867  0.58547560  0.74498610  1
  O2-  O372  1  0.77084453  0.07850857  0.11275308  1
  O2-  O373  1  0.75084732  0.08221374  0.45665551  1
  O2-  O374  1  0.75994540  0.08533133  0.77575089  1
  O2-  O375  1  0.75314323  0.58522417  0.10712998  1
  O2-  O376  1  0.74679518  0.58274145  0.44667460  1
  O2-  O377  1  0.74351002  0.58309711  0.74215160  1
  O2-  O378  1  0.24876852  0.07998904  0.22247975  1
  O2-  O379  1  0.25472899  0.08522802  0.56333481  1
  O2-  O380  1  0.25099206  0.07781294  0.87539140  1
  O2-  O381  1  0.24981937  0.56722270  0.21013925  1
  O2-  O382  1  0.25339508  0.58125100  0.55859013  1
  O2-  O383  1  0.24101088  0.57777926  0.90089540  1
  O2-  O384  1  0.57910232  0.08437073  0.24026348  1
  O2-  O385  1  0.58095344  0.08082295  0.54157990  1
  O2-  O386  1  0.57558270  0.07668191  0.89355587  1
  O2-  O387  1  0.59769599  0.57902493  0.22140987  1
  O2-  O388  1  0.59535429  0.58019040  0.56732809  1
  O2-  O389  1  0.58162114  0.57924382  0.90102007  1
  O2-  O390  1  0.91956724  0.07761022  0.21045753  1
  O2-  O391  1  0.91311351  0.08474289  0.55997038  1
  O2-  O392  1  0.91041663  0.07839394  0.88657395  1
  O2-  O393  1  0.90263393  0.58101349  0.22070395  1
  O2-  O394  1  0.91816240  0.58109619  0.56015386  1
  O2-  O395  1  0.91878969  0.58637448  0.89300888  1
  O2-  O396  1  0.05906859  0.42157462  0.11248101  1
  O2-  O397  1  0.07697409  0.41909043  0.45624475  1
  O2-  O398  1  0.09179004  0.41622543  0.76785113  1
  O2-  O399  1  0.06471355  0.91516218  0.10491883  1
  O2-  O400  1  0.10263323  0.91514968  0.43927416  1
  O2-  O401  1  0.09080352  0.91687379  0.77055238  1
  O2-  O402  1  0.42373090  0.41922867  0.11529120  1
  O2-  O403  1  0.42560692  0.41674507  0.44827817  1
  O2-  O404  1  0.41944129  0.41921105  0.77986497  1
  O2-  O405  1  0.41889907  0.91845231  0.09658024  1
  O2-  O406  1  0.40314612  0.91793353  0.43820461  1
  O2-  O407  1  0.41229731  0.91540587  0.76104188  1
  O2-  O408  1  0.76232048  0.41693101  0.11222954  1
  O2-  O409  1  0.74880424  0.41615132  0.45398947  1
  O2-  O410  1  0.73471419  0.41591435  0.75346933  1
  O2-  O411  1  0.76740291  0.91776458  0.11141800  1
  O2-  O412  1  0.75028329  0.91828101  0.43517086  1
  O2-  O413  1  0.73731204  0.91511542  0.76548898  1
  O2-  O414  1  0.25063590  0.41733832  0.23138353  1
  O2-  O415  1  0.24927689  0.42002767  0.55831025  1
  O2-  O416  1  0.25764551  0.42256793  0.88708281  1
  O2-  O417  1  0.24843442  0.91840508  0.24680612  1
  O2-  O418  1  0.24291538  0.91630743  0.56321066  1
  O2-  O419  1  0.25648116  0.92015850  0.88563015  1
  O2-  O420  1  0.58618097  0.41997349  0.22892279  1
  O2-  O421  1  0.58494562  0.42094417  0.54580368  1
  O2-  O422  1  0.57300085  0.43136113  0.88053169  1
  O2-  O423  1  0.58197995  0.91654304  0.24510299  1
  O2-  O424  1  0.59197467  0.91981635  0.55695280  1
  O2-  O425  1  0.57783921  0.92456816  0.88353236  1
  O2-  O426  1  0.91583543  0.41922144  0.22242357  1
  O2-  O427  1  0.91578788  0.41767467  0.55486409  1
  O2-  O428  1  0.92163829  0.42062771  0.88760057  1
  O2-  O429  1  0.92192540  0.92000556  0.23235907  1
  O2-  O430  1  0.92206486  0.91663375  0.55898531  1
  O2-  O431  1  0.92474603  0.91955127  0.89248514  1
  O2-  O432  1  -0.01208824  0.00049546  0.00288169  1
  O2-  O433  1  -0.00149953  0.00514682  0.33071353  1
  O2-  O434  1  0.00143683  0.00432459  0.66738497  1
  O2-  O435  1  0.00531473  0.49647540  -0.01215959  1
  O2-  O436  1  -0.01229643  0.50308077  0.35371447  1
  O2-  O437  1  0.01493830  0.48681104  0.64784148  1
  O2-  O438  1  0.33698839  0.01624600  -0.00898213  1
  O2-  O439  1  0.32740192  0.00367633  0.34398925  1
  O2-  O440  1  0.33121590  0.01266605  0.67058853  1
  O2-  O441  1  0.33935937  0.49362049  -0.01091583  1
  O2-  O442  1  0.33583749  0.50475981  0.32267173  1
  O2-  O443  1  0.34287350  0.49250578  0.65396251  1
  O2-  O444  1  0.68013759  0.01002552  -0.01340275  1
  O2-  O445  1  0.66932670  0.00953655  0.33107978  1
  O2-  O446  1  0.67154589  -0.00027943  0.65992091  1
  O2-  O447  1  0.65363725  0.49660033  0.02096321  1
  O2-  O448  1  0.67276127  0.49671166  0.32117440  1
  O2-  O449  1  0.66474597  0.49026116  0.65251557  1
  O2-  O450  1  0.15780683  0.00419992  0.00714810  1
  O2-  O451  1  0.16863546  -0.00178956  0.32796197  1
  O2-  O452  1  0.16923561  0.00690035  0.67177713  1
  O2-  O453  1  0.16979545  0.50513551  0.00545634  1
  O2-  O454  1  0.15510147  0.50598701  0.31483041  1
  O2-  O455  1  0.16221614  0.49152943  0.64743163  1
  O2-  O456  1  0.48832615  0.00073159  -0.02859925  1
  O2-  O457  1  0.49759172  -0.00061137  0.34226005  1
  O2-  O458  1  0.50308147  -0.00167575  0.66657528  1
  O2-  O459  1  0.49687050  0.48715326  -0.00592105  1
  O2-  O460  1  0.48996159  0.49250784  0.31927103  1
  O2-  O461  1  0.50389025  0.48312846  0.66166997  1
  O2-  O462  1  0.83492416  0.00885537  -0.00381061  1
  O2-  O463  1  0.82740519  0.01540687  0.32228327  1
  O2-  O464  1  0.83604510  0.00881879  0.66955432  1
  O2-  O465  1  0.85182007  0.49503913  0.02441906  1
  O2-  O466  1  0.82892164  0.50148986  0.33197574  1
  O2-  O467  1  0.82037675  0.49652566  0.65615745  1
  O2-  O468  1  0.07966448  0.25321347  0.73614854  1
  O2-  O469  1  0.91478978  0.25017645  0.27565116  1
  O2-  O470  1  0.91450846  0.75302054  0.59217749  1
  O2-  O471  1  0.58249868  0.74884050  0.92904099  1
  O2-  O472  1  0.41772883  0.75004999  0.06984076  1
  O2-  O473  1  0.58585866  0.74921125  0.26509085  1
  O2-  O474  1  0.58106305  0.25009120  0.92834955  1
  O2-  O475  1  0.74447884  0.25145110  0.74419586  1
  O2-  O476  1  0.75044450  0.74943242  0.73659786  1
  O2-  O477  1  0.08345192  0.25163111  0.39378438  1
  O2-  O478  1  0.08684379  0.75096446  0.06430911  1
  O2-  O479  1  0.92034203  0.75065636  0.93364465  1
  O2-  O480  1  0.24884361  0.24872222  0.26518713  1
  O2-  O481  1  0.41695411  0.75048800  0.39634629  1
  O2-  O482  1  0.58730566  0.25071388  0.25791845  1
  O2-  O483  1  0.42115062  0.25192589  0.06765173  1
  O2-  O484  1  0.24723468  0.75124186  0.93093934  1
  O2-  O485  1  0.42730099  0.25239326  0.73788128  1
  O2-  O486  1  0.74574651  0.75104954  0.06991612  1
  O2-  O487  1  0.74930089  0.25001966  0.06975920  1
  O2-  O488  1  0.25280109  0.75381635  0.25840782  1
  O2-  O489  1  0.08025888  0.75023963  0.39622271  1
  O2-  O490  1  0.08133969  0.75011710  0.73731507  1
  O2-  O491  1  0.91485708  0.24854034  0.93475200  1
  O2-  O492  1  0.75635033  0.74865433  0.39789873  1
