# generated using pymatgen
data_Ca108Mn108O277
_symmetry_space_group_name_H-M   'P 1'
_cell_length_a   16.03556501
_cell_length_b   22.31823950
_cell_length_c   16.39721904
_cell_angle_alpha   90.01125893
_cell_angle_beta   89.99688213
_cell_angle_gamma   90.00014113
_symmetry_Int_Tables_number   1
_chemical_formula_structural   Ca108Mn108O277
_chemical_formula_sum   'Ca108 Mn108 O277'
_cell_volume   5868.32813288
_cell_formula_units_Z   1
loop_
 _symmetry_equiv_pos_site_id
 _symmetry_equiv_pos_as_xyz
  1  'x, y, z'
loop_
 _atom_type_symbol
 _atom_type_oxidation_number
  Ca2+  2.0
  Mn3.34+  3.34
  O2-  -2.0
loop_
 _atom_site_type_symbol
 _atom_site_label
 _atom_site_symmetry_multiplicity
 _atom_site_fract_x
 _atom_site_fract_y
 _atom_site_fract_z
 _atom_site_occupancy
  Ca2+  Ca0  1  0.08325931  0.25809173  0.25096924  1
  Ca2+  Ca1  1  0.09045490  0.25488846  0.59387782  1
  Ca2+  Ca2  1  0.05761145  0.23270730  0.89132700  1
  Ca2+  Ca3  1  0.07985983  0.74746053  0.25331465  1
  Ca2+  Ca4  1  0.06558882  0.75264056  0.58087776  1
  Ca2+  Ca5  1  0.07493648  0.72250956  0.92043562  1
  Ca2+  Ca6  1  0.42581398  0.26185621  0.23818742  1
  Ca2+  Ca7  1  0.42039300  0.25374042  0.58163077  1
  Ca2+  Ca8  1  0.43032840  0.24395923  0.91702077  1
  Ca2+  Ca9  1  0.42170703  0.75193589  0.23717143  1
  Ca2+  Ca10  1  0.41422214  0.75942140  0.58819319  1
  Ca2+  Ca11  1  0.40168389  0.74374269  0.93095883  1
  Ca2+  Ca12  1  0.74798375  0.26777340  0.24352826  1
  Ca2+  Ca13  1  0.74210546  0.24285713  0.60404016  1
  Ca2+  Ca14  1  0.75027860  0.24757537  0.91286358  1
  Ca2+  Ca15  1  0.74456098  0.75072144  0.25294795  1
  Ca2+  Ca16  1  0.77696360  0.75092273  0.58050426  1
  Ca2+  Ca17  1  0.78670215  0.74537027  0.91936867  1
  Ca2+  Ca18  1  0.25999893  0.26081243  0.07169283  1
  Ca2+  Ca19  1  0.24724705  0.26068860  0.42580375  1
  Ca2+  Ca20  1  0.24089996  0.24131284  0.75213975  1
  Ca2+  Ca21  1  0.24412142  0.74572943  0.08237686  1
  Ca2+  Ca22  1  0.21468781  0.74302950  0.40976621  1
  Ca2+  Ca23  1  0.22241561  0.74699896  0.76840543  1
  Ca2+  Ca24  1  0.58790211  0.25016924  0.06338237  1
  Ca2+  Ca25  1  0.59586045  0.25553463  0.42365223  1
  Ca2+  Ca26  1  0.60780564  0.24593215  0.77057752  1
  Ca2+  Ca27  1  0.57548779  0.75051642  0.10827513  1
  Ca2+  Ca28  1  0.58308004  0.74969108  0.39147144  1
  Ca2+  Ca29  1  0.57392927  0.75436320  0.75432049  1
  Ca2+  Ca30  1  0.90074374  0.24898713  0.05939753  1
  Ca2+  Ca31  1  0.90442651  0.26402354  0.42002150  1
  Ca2+  Ca32  1  0.89503974  0.26326671  0.76458659  1
  Ca2+  Ca33  1  0.93363522  0.75183927  0.08216221  1
  Ca2+  Ca34  1  0.93598515  0.74927913  0.41904423  1
  Ca2+  Ca35  1  0.92745126  0.72599027  0.74405883  1
  Ca2+  Ca36  1  0.08893473  0.59962273  0.24316080  1
  Ca2+  Ca37  1  0.23681213  0.60112826  0.76167347  1
  Ca2+  Ca38  1  0.61517792  0.10632561  0.76681323  1
  Ca2+  Ca39  1  0.75411807  0.10868280  0.91233155  1
  Ca2+  Ca40  1  0.26036129  0.09070531  0.41568911  1
  Ca2+  Ca41  1  0.92467608  0.05180725  0.38963685  1
  Ca2+  Ca42  1  0.92084022  0.05595830  0.39736306  1
  Ca2+  Ca43  1  0.55530465  0.60336173  0.09939668  1
  Ca2+  Ca44  1  0.42240759  0.61002086  0.23267885  1
  Ca2+  Ca45  1  0.79830173  0.60682058  0.58029764  1
  Ca2+  Ca46  1  0.09731812  0.08809091  0.60558129  1
  Ca2+  Ca47  1  0.59596866  0.08562837  0.42279968  1
  Ca2+  Ca48  1  0.22629756  0.60250089  0.76119274  1
  Ca2+  Ca49  1  0.42469213  0.09549546  0.58412254  1
  Ca2+  Ca50  1  0.58744342  0.08868914  0.06665126  1
  Ca2+  Ca51  1  0.58728874  0.57740996  0.74023221  1
  Ca2+  Ca52  1  0.74891137  0.06607432  0.64922853  1
  Ca2+  Ca53  1  0.06681920  0.61533338  0.58400610  1
  Ca2+  Ca54  1  0.92454028  0.61210603  0.42317973  1
  Ca2+  Ca55  1  0.58440263  0.08550328  0.42112551  1
  Ca2+  Ca56  1  0.08978888  0.06413831  0.25919565  1
  Ca2+  Ca57  1  0.41014877  0.58114681  0.60352505  1
  Ca2+  Ca58  1  0.59696468  0.58897003  0.39154954  1
  Ca2+  Ca59  1  0.73419998  0.59818778  0.25297218  1
  Ca2+  Ca60  1  0.77229014  0.58180949  0.91257053  1
  Ca2+  Ca61  1  0.05934578  0.61973206  0.58040493  1
  Ca2+  Ca62  1  0.94237806  0.58421446  0.07192170  1
  Ca2+  Ca63  1  0.75757747  0.07429644  0.24954610  1
  Ca2+  Ca64  1  0.23242592  0.59455138  0.40794180  1
  Ca2+  Ca65  1  0.90035906  0.11341421  0.77596370  1
  Ca2+  Ca66  1  0.10863810  0.08848967  0.60602166  1
  Ca2+  Ca67  1  0.41419700  0.10113742  0.91602000  1
  Ca2+  Ca68  1  0.41181690  0.09585830  0.58388636  1
  Ca2+  Ca69  1  0.57497011  0.08993181  0.06610457  1
  Ca2+  Ca70  1  0.26739125  0.60205514  0.07860057  1
  Ca2+  Ca71  1  0.90884617  0.11770672  0.77815399  1
  Ca2+  Ca72  1  0.57257037  0.41415582  0.40846107  1
  Ca2+  Ca73  1  0.42549913  0.40901622  0.91502372  1
  Ca2+  Ca74  1  0.88338364  0.90859681  0.73798064  1
  Ca2+  Ca75  1  0.07328678  0.90628991  0.57307354  1
  Ca2+  Ca76  1  0.25879310  0.89741131  0.75189066  1
  Ca2+  Ca77  1  0.61533658  0.90675389  0.73327408  1
  Ca2+  Ca78  1  0.24741215  0.89882897  0.75075305  1
  Ca2+  Ca79  1  0.24693872  0.40181204  0.75219955  1
  Ca2+  Ca80  1  0.40587596  0.90310382  0.93336714  1
  Ca2+  Ca81  1  0.08167344  0.40776039  0.23444256  1
  Ca2+  Ca82  1  0.23840093  0.91180442  0.40463713  1
  Ca2+  Ca83  1  0.74393773  0.90089850  0.91576396  1
  Ca2+  Ca84  1  0.60385624  0.42057393  0.07695731  1
  Ca2+  Ca85  1  0.89360900  0.90544441  0.73718611  1
  Ca2+  Ca86  1  0.75037884  0.40797163  0.58451016  1
  Ca2+  Ca87  1  0.58447231  0.90301378  0.41122143  1
  Ca2+  Ca88  1  0.09062695  0.40952233  0.22969323  1
  Ca2+  Ca89  1  0.58524265  0.41454616  0.40863711  1
  Ca2+  Ca90  1  0.76351653  0.90607447  0.25275608  1
  Ca2+  Ca91  1  0.42862541  0.90185748  0.58028183  1
  Ca2+  Ca92  1  0.41505270  0.40911809  0.91649037  1
  Ca2+  Ca93  1  0.07970497  0.39979171  0.58954754  1
  Ca2+  Ca94  1  0.40516762  0.41353735  0.58877728  1
  Ca2+  Ca95  1  0.58982513  0.41352921  0.75556957  1
  Ca2+  Ca96  1  0.76153568  0.40781161  0.58353409  1
  Ca2+  Ca97  1  0.41693705  0.41655801  0.59117638  1
  Ca2+  Ca98  1  0.91321680  0.41194270  0.40951776  1
  Ca2+  Ca99  1  0.75692165  0.90110789  0.91543505  1
  Ca2+  Ca100  1  0.91078818  0.41543658  0.07745585  1
  Ca2+  Ca101  1  0.25028745  0.90188348  0.09110850  1
  Ca2+  Ca102  1  0.08238026  0.41426161  0.94562579  1
  Ca2+  Ca103  1  0.22869538  0.91539898  0.40648009  1
  Ca2+  Ca104  1  0.74774390  0.41857135  0.92291687  1
  Ca2+  Ca105  1  0.05083407  0.92237682  0.26853726  1
  Ca2+  Ca106  1  0.09378905  0.90559304  0.92739013  1
  Ca2+  Ca107  1  0.59339665  0.42084423  0.07708669  1
  Mn3.34+  Mn108  1  0.08334453  0.33292898  0.08026764  1
  Mn3.34+  Mn109  1  0.08377918  0.33506859  0.41708984  1
  Mn3.34+  Mn110  1  0.07888637  0.33588653  0.75878559  1
  Mn3.34+  Mn111  1  0.08307752  0.83353504  0.09103856  1
  Mn3.34+  Mn112  1  0.07568232  0.83594075  0.41350765  1
  Mn3.34+  Mn113  1  0.07679558  0.83296414  0.75341205  1
  Mn3.34+  Mn114  1  0.41594309  0.33651538  0.08626498  1
  Mn3.34+  Mn115  1  0.40865883  0.33776617  0.40993839  1
  Mn3.34+  Mn116  1  0.41788599  0.32977406  0.75220935  1
  Mn3.34+  Mn117  1  0.41964562  0.83928567  0.09042570  1
  Mn3.34+  Mn118  1  0.41587960  0.83242785  0.41289633  1
  Mn3.34+  Mn119  1  0.42312536  0.82966796  0.75419867  1
  Mn3.34+  Mn120  1  0.75232232  0.33804523  0.08277231  1
  Mn3.34+  Mn121  1  0.75030842  0.33423176  0.41072291  1
  Mn3.34+  Mn122  1  0.75195042  0.34180022  0.75561749  1
  Mn3.34+  Mn123  1  0.75195826  0.83345255  0.08965886  1
  Mn3.34+  Mn124  1  0.75306321  0.83341188  0.41823254  1
  Mn3.34+  Mn125  1  0.74663308  0.81872964  0.75062351  1
  Mn3.34+  Mn126  1  0.25881873  0.33949928  0.24833929  1
  Mn3.34+  Mn127  1  0.24900045  0.33437378  0.58142596  1
  Mn3.34+  Mn128  1  0.24588358  0.32988631  0.91452158  1
  Mn3.34+  Mn129  1  0.25254938  0.83032232  0.24647846  1
  Mn3.34+  Mn130  1  0.24875945  0.83026604  0.57573261  1
  Mn3.34+  Mn131  1  0.24680879  0.83103598  0.92230322  1
  Mn3.34+  Mn132  1  0.58267926  0.33584788  0.24387643  1
  Mn3.34+  Mn133  1  0.58184120  0.33251525  0.58172196  1
  Mn3.34+  Mn134  1  0.58506100  0.33577282  0.91266698  1
  Mn3.34+  Mn135  1  0.58373128  0.83468969  0.24858135  1
  Mn3.34+  Mn136  1  0.59213378  0.83070408  0.57574397  1
  Mn3.34+  Mn137  1  0.58204151  0.82496593  0.92350645  1
  Mn3.34+  Mn138  1  0.91444618  0.33670561  0.24338030  1
  Mn3.34+  Mn139  1  0.91775335  0.33322557  0.58651834  1
  Mn3.34+  Mn140  1  0.91523677  0.33628175  0.91512183  1
  Mn3.34+  Mn141  1  0.91517418  0.83360723  0.24890397  1
  Mn3.34+  Mn142  1  0.91197427  0.83259844  0.57592874  1
  Mn3.34+  Mn143  1  0.92620806  0.83277499  0.92077824  1
  Mn3.34+  Mn144  1  0.08367911  0.66237123  0.08380064  1
  Mn3.34+  Mn145  1  0.26292909  0.16423151  0.23917997  1
  Mn3.34+  Mn146  1  0.41352037  0.66804217  0.75322814  1
  Mn3.34+  Mn147  1  0.57564888  0.65428706  0.91397796  1
  Mn3.34+  Mn148  1  0.57368048  0.16240191  0.24520121  1
  Mn3.34+  Mn149  1  0.58735970  0.16822689  0.58392676  1
  Mn3.34+  Mn150  1  0.07759557  0.16333920  0.41564824  1
  Mn3.34+  Mn151  1  0.75068728  0.66518408  0.75783814  1
  Mn3.34+  Mn152  1  0.25175788  0.66574578  0.58057175  1
  Mn3.34+  Mn153  1  0.40667463  0.66984597  0.42070821  1
  Mn3.34+  Mn154  1  0.76026385  0.65832188  0.08570425  1
  Mn3.34+  Mn155  1  0.25028113  0.66480618  0.92327403  1
  Mn3.34+  Mn156  1  0.08890848  0.15867211  0.41644619  1
  Mn3.34+  Mn157  1  0.59383388  0.66877535  0.58194191  1
  Mn3.34+  Mn158  1  0.90349356  0.16106748  0.57370960  1
  Mn3.34+  Mn159  1  0.58767250  0.16816482  0.24733182  1
  Mn3.34+  Mn160  1  0.58551042  0.65976979  0.91384136  1
  Mn3.34+  Mn161  1  0.41449707  0.16997726  0.07778535  1
  Mn3.34+  Mn162  1  0.90885203  0.16017276  0.24218921  1
  Mn3.34+  Mn163  1  0.91643221  0.16752466  0.57648701  1
  Mn3.34+  Mn164  1  0.91971006  0.66624201  0.24893693  1
  Mn3.34+  Mn165  1  0.58356062  0.67395900  0.58234108  1
  Mn3.34+  Mn166  1  0.25411310  0.17331231  0.58447505  1
  Mn3.34+  Mn167  1  0.41744680  0.17207353  0.41526733  1
  Mn3.34+  Mn168  1  0.24960273  0.16808395  0.90768074  1
  Mn3.34+  Mn169  1  0.74940654  0.16811647  0.08143513  1
  Mn3.34+  Mn170  1  0.75430777  0.67052358  0.41580255  1
  Mn3.34+  Mn171  1  0.25239658  0.16016630  0.23557050  1
  Mn3.34+  Mn172  1  0.41999837  0.17089481  0.75283008  1
  Mn3.34+  Mn173  1  0.41999238  0.66345274  0.42324957  1
  Mn3.34+  Mn174  1  0.75003163  0.66273644  0.08275023  1
  Mn3.34+  Mn175  1  0.08062941  0.15622736  0.07779863  1
  Mn3.34+  Mn176  1  0.25021757  0.66847911  0.24593487  1
  Mn3.34+  Mn177  1  0.92137048  0.16536538  0.24401619  1
  Mn3.34+  Mn178  1  0.09087742  0.16109500  0.07963054  1
  Mn3.34+  Mn179  1  0.75079867  0.16257641  0.41562295  1
  Mn3.34+  Mn180  1  0.40591759  0.00550820  0.07886762  1
  Mn3.34+  Mn181  1  0.92088195  0.49633997  0.92632534  1
  Mn3.34+  Mn182  1  0.91799861  0.00473639  0.93657988  1
  Mn3.34+  Mn183  1  0.59104319  -0.00287798  0.59514874  1
  Mn3.34+  Mn184  1  0.26046615  -0.00503758  0.25323811  1
  Mn3.34+  Mn185  1  0.41604842  0.49681854  0.07392594  1
  Mn3.34+  Mn186  1  0.06936426  0.49809207  0.76347312  1
  Mn3.34+  Mn187  1  0.91201928  -0.00120616  0.58564006  1
  Mn3.34+  Mn188  1  0.09579158  -0.00620675  0.08628251  1
  Mn3.34+  Mn189  1  0.09339565  0.49559728  0.40741299  1
  Mn3.34+  Mn190  1  0.40552910  0.50353124  0.41070935  1
  Mn3.34+  Mn191  1  0.07611942  -0.00026385  0.75622583  1
  Mn3.34+  Mn192  1  0.58558919  -0.00006529  0.90913909  1
  Mn3.34+  Mn193  1  0.23647643  0.50007076  0.58805057  1
  Mn3.34+  Mn194  1  0.91939601  0.49835514  0.59121232  1
  Mn3.34+  Mn195  1  0.76227437  0.50366238  0.73989181  1
  Mn3.34+  Mn196  1  0.42736580  -0.00301046  0.75352132  1
  Mn3.34+  Mn197  1  0.41360708  0.50291231  0.74908844  1
  Mn3.34+  Mn198  1  0.90687185  0.50305529  0.25073806  1
  Mn3.34+  Mn199  1  0.59217127  0.50373698  0.58390630  1
  Mn3.34+  Mn200  1  0.57344221  -0.00404033  0.25470853  1
  Mn3.34+  Mn201  1  0.24881523  0.01145694  0.92657078  1
  Mn3.34+  Mn202  1  0.75312514  -0.00204432  0.08380559  1
  Mn3.34+  Mn203  1  0.06068613  0.50374814  0.75951501  1
  Mn3.34+  Mn204  1  0.57202197  -0.00702005  0.91060630  1
  Mn3.34+  Mn205  1  0.92694120  -0.00088668  0.93269438  1
  Mn3.34+  Mn206  1  0.08514665  0.00655541  0.75877858  1
  Mn3.34+  Mn207  1  0.57967949  0.49907161  0.25365444  1
  Mn3.34+  Mn208  1  0.24712292  0.49797695  0.93183776  1
  Mn3.34+  Mn209  1  0.41584782  -0.00419267  0.40741714  1
  Mn3.34+  Mn210  1  0.25913027  0.50389741  0.24512775  1
  Mn3.34+  Mn211  1  0.75420947  0.50551565  0.41553167  1
  Mn3.34+  Mn212  1  0.41270959  0.00289868  0.75577378  1
  Mn3.34+  Mn213  1  0.25547737  -0.00144755  0.58409190  1
  Mn3.34+  Mn214  1  0.74371101  -0.00365852  0.41620390  1
  Mn3.34+  Mn215  1  0.08013243  0.50220605  0.40839993  1
  O2-  O216  1  0.00514242  0.18671926  0.00526184  1
  O2-  O217  1  -0.00143738  0.13516556  0.32919151  1
  O2-  O218  1  -0.00215598  0.14439657  0.64790453  1
  O2-  O219  1  0.00310932  0.66023692  0.00937098  1
  O2-  O220  1  -0.00144607  0.64826576  0.32272059  1
  O2-  O221  1  0.00283510  0.67071962  0.66674637  1
  O2-  O222  1  0.33483802  0.15676864  -0.00045518  1
  O2-  O223  1  0.32420857  0.17122394  0.34209955  1
  O2-  O224  1  0.33985383  0.16293042  0.66314574  1
  O2-  O225  1  0.33248812  0.67066883  -0.00099545  1
  O2-  O226  1  0.33207488  0.64849083  0.33488766  1
  O2-  O227  1  0.33104261  0.65276685  0.66883286  1
  O2-  O228  1  0.66399171  0.15521168  0.00884970  1
  O2-  O229  1  0.66919507  0.14209331  0.32717701  1
  O2-  O230  1  0.66919687  0.15342304  0.65440211  1
  O2-  O231  1  0.66851939  0.64471351  -0.00636572  1
  O2-  O232  1  0.67037318  0.67004378  0.33997888  1
  O2-  O233  1  0.65871825  0.66829951  0.67920274  1
  O2-  O234  1  0.16913557  0.16186781  -0.00223154  1
  O2-  O235  1  0.16265536  0.15284228  0.31811401  1
  O2-  O236  1  0.16378636  0.16824867  0.65542463  1
  O2-  O237  1  0.17218419  0.65713628  0.00594944  1
  O2-  O238  1  0.16950179  0.65711240  0.32627022  1
  O2-  O239  1  0.17364080  0.66090146  0.66405469  1
  O2-  O240  1  0.49753736  0.15884852  0.00244614  1
  O2-  O241  1  0.50690753  0.15073190  0.33926814  1
  O2-  O242  1  0.49825782  0.15765088  0.66111505  1
  O2-  O243  1  0.51331834  0.68530766  0.00001194  1
  O2-  O244  1  0.49750031  0.64868910  0.34447512  1
  O2-  O245  1  0.50047871  0.65732752  0.66424105  1
  O2-  O246  1  0.82803307  0.16054591  0.00914169  1
  O2-  O247  1  0.84049668  0.13526740  0.34286378  1
  O2-  O248  1  0.83212357  0.14898644  0.66107646  1
  O2-  O249  1  0.83532092  0.64542464  0.00253675  1
  O2-  O250  1  0.83082751  0.65415888  0.32769144  1
  O2-  O251  1  0.81796850  0.67716951  0.67313517  1
  O2-  O252  1  -0.00666929  0.33959675  0.00535517  1
  O2-  O253  1  0.00694091  0.35653739  0.32625670  1
  O2-  O254  1  0.00732325  0.32873092  0.66276117  1
  O2-  O255  1  0.00392962  0.85047672  0.00046969  1
  O2-  O256  1  -0.00717492  0.84731259  0.33791089  1
  O2-  O257  1  -0.00289934  0.85449656  0.67259185  1
  O2-  O258  1  0.33812057  0.34996459  -0.00429269  1
  O2-  O259  1  0.33329377  0.30315189  0.33068790  1
  O2-  O260  1  0.33900409  0.34162250  0.66524150  1
  O2-  O261  1  0.33486125  0.83175518  0.00055977  1
  O2-  O262  1  0.32376662  0.84855303  0.34245984  1
  O2-  O263  1  0.33438707  0.84458189  0.66175929  1
  O2-  O264  1  0.66555712  0.35206602  -0.00400389  1
  O2-  O265  1  0.66103118  0.35032835  0.33388330  1
  O2-  O266  1  0.66860875  0.35577123  0.66344613  1
  O2-  O267  1  0.67088095  0.84076030  -0.00216611  1
  O2-  O268  1  0.66636552  0.82423183  0.33712442  1
  O2-  O269  1  0.66396958  0.80719175  0.66915031  1
  O2-  O270  1  0.16109867  0.33056102  -0.00456272  1
  O2-  O271  1  0.16806821  0.33688376  0.32629796  1
  O2-  O272  1  0.16482869  0.34115300  0.67076762  1
  O2-  O273  1  0.17015861  0.84823213  0.00641461  1
  O2-  O274  1  0.16146746  0.84830972  0.32898799  1
  O2-  O275  1  0.16899050  0.83625674  0.66777264  1
  O2-  O276  1  0.50421795  0.35215407  0.00149897  1
  O2-  O277  1  0.49840057  0.34628486  0.33309749  1
  O2-  O278  1  0.49625663  0.34716493  0.66275354  1
  O2-  O279  1  0.49517370  0.81836541  0.00203011  1
  O2-  O280  1  0.50236439  0.84470992  0.33634414  1
  O2-  O281  1  0.50868914  0.84029143  0.66752380  1
  O2-  O282  1  0.83308907  0.35480105  -0.00070115  1
  O2-  O283  1  0.83956958  0.34493923  0.33578120  1
  O2-  O284  1  0.83456163  0.35316231  0.66920322  1
  O2-  O285  1  0.83200835  0.84094563  -0.00689101  1
  O2-  O286  1  0.82287286  0.82749615  0.32683363  1
  O2-  O287  1  0.82690610  0.83276250  0.66744851  1
  O2-  O288  1  0.00879145  0.18590632  0.16577466  1
  O2-  O289  1  -0.00432059  0.18942278  0.49942565  1
  O2-  O290  1  -0.01850123  0.19275629  0.79614798  1
  O2-  O291  1  0.00159764  0.68003943  0.16776518  1
  O2-  O292  1  0.00369745  0.67757220  0.50015554  1
  O2-  O293  1  -0.00321068  0.66492714  0.83282172  1
  O2-  O294  1  0.33938788  0.19412531  0.16345905  1
  O2-  O295  1  0.34190180  0.18287384  0.50498078  1
  O2-  O296  1  0.33909419  0.18809408  0.83181430  1
  O2-  O297  1  0.33201054  0.68151576  0.16928796  1
  O2-  O298  1  0.33698290  0.68998882  0.50569026  1
  O2-  O299  1  0.32264037  0.67618112  0.82596519  1
  O2-  O300  1  0.66381164  0.18452797  0.16664302  1
  O2-  O301  1  0.65405562  0.17238807  0.48506005  1
  O2-  O302  1  0.67894376  0.17555238  0.83871421  1
  O2-  O303  1  0.66777241  0.67396270  0.15833089  1
  O2-  O304  1  0.67584198  0.69037665  0.50584261  1
  O2-  O305  1  0.66390471  0.69175476  0.83842192  1
  O2-  O306  1  0.16925164  0.19663351  0.15919318  1
  O2-  O307  1  0.17688185  0.17999328  0.49392754  1
  O2-  O308  1  0.17005195  0.18431180  0.83700532  1
  O2-  O309  1  0.16786700  0.68057359  0.16814135  1
  O2-  O310  1  0.16769898  0.68402981  0.51288013  1
  O2-  O311  1  0.16952376  0.67080519  0.83794849  1
  O2-  O312  1  0.50191182  0.18735193  0.16107300  1
  O2-  O313  1  0.49765715  0.18062719  0.50088684  1
  O2-  O314  1  0.50277642  0.18873061  0.81897644  1
  O2-  O315  1  0.49134306  0.67997099  0.16311590  1
  O2-  O316  1  0.50130702  0.69543049  0.50219211  1
  O2-  O317  1  0.49715726  0.68370933  0.83816397  1
  O2-  O318  1  0.82499699  0.18662209  0.17239305  1
  O2-  O319  1  0.82851604  0.18799303  0.49714642  1
  O2-  O320  1  0.82287906  0.18272319  0.83606015  1
  O2-  O321  1  0.83180069  0.68516529  0.16956997  1
  O2-  O322  1  0.83779053  0.68167384  0.48907374  1
  O2-  O323  1  0.82721544  0.67555468  0.83253446  1
  O2-  O324  1  0.00572858  0.31655016  0.16877603  1
  O2-  O325  1  -0.00678749  0.32152704  0.49883970  1
  O2-  O326  1  -0.00196265  0.31873782  0.83580321  1
  O2-  O327  1  0.00407060  0.81803829  0.17143575  1
  O2-  O328  1  0.00534378  0.82950810  0.50683356  1
  O2-  O329  1  -0.00470211  0.85116619  0.82915305  1
  O2-  O330  1  0.33485407  0.31898979  0.16493469  1
  O2-  O331  1  0.33947087  0.32052344  0.50172864  1
  O2-  O332  1  0.33303991  0.32330835  0.83050656  1
  O2-  O333  1  0.33217710  0.81406797  0.16213834  1
  O2-  O334  1  0.33535148  0.81421800  0.50139251  1
  O2-  O335  1  0.32507572  0.82562427  0.82843461  1
  O2-  O336  1  0.66257277  0.32115948  0.15903756  1
  O2-  O337  1  0.66614663  0.32935842  0.49931853  1
  O2-  O338  1  0.65912168  0.33417668  0.82545820  1
  O2-  O339  1  0.67150669  0.81676394  0.16935250  1
  O2-  O340  1  0.66925768  0.80770047  0.49575170  1
  O2-  O341  1  0.66991958  0.81180939  0.83870884  1
  O2-  O342  1  0.16316780  0.31857767  0.16613622  1
  O2-  O343  1  0.15965478  0.31931470  0.50586944  1
  O2-  O344  1  0.16902611  0.31338333  0.82835317  1
  O2-  O345  1  0.17208305  0.81544032  0.16527040  1
  O2-  O346  1  0.16594794  0.81699548  0.49718903  1
  O2-  O347  1  0.16707496  0.83153682  0.83352726  1
  O2-  O348  1  0.50692063  0.31825256  0.15832374  1
  O2-  O349  1  0.50084361  0.31489358  0.49471133  1
  O2-  O350  1  0.49496515  0.31967485  0.83700365  1
  O2-  O351  1  0.49936459  0.82721486  0.16768292  1
  O2-  O352  1  0.49916131  0.81860987  0.50175078  1
  O2-  O353  1  0.49892283  0.81473848  0.84232875  1
  O2-  O354  1  0.83714931  0.32064744  0.15861108  1
  O2-  O355  1  0.82555831  0.33027506  0.50646670  1
  O2-  O356  1  0.82142293  0.33307517  0.84436260  1
  O2-  O357  1  0.83348650  0.81319471  0.16584408  1
  O2-  O358  1  0.83952993  0.81481895  0.49097351  1
  O2-  O359  1  0.83504022  0.82206930  0.83231001  1
  O2-  O360  1  0.08774689  0.07622039  0.11989946  1
  O2-  O361  1  0.08628335  0.07789707  0.46793667  1
  O2-  O362  1  0.05296367  0.08483546  0.76481092  1
  O2-  O363  1  0.08229535  0.58362845  0.11026577  1
  O2-  O364  1  0.09706539  0.57456495  0.46074209  1
  O2-  O365  1  0.09170281  0.58324283  0.76224162  1
  O2-  O366  1  0.43494311  0.08544208  0.10530764  1
  O2-  O367  1  0.41507724  0.07623805  0.45028981  1
  O2-  O368  1  0.42686325  0.08333852  0.77562461  1
  O2-  O369  1  0.40819488  0.57020895  0.10971312  1
  O2-  O370  1  0.41499333  0.58451154  0.46474032  1
  O2-  O371  1  0.41993422  0.58453823  0.76621782  1
  O2-  O372  1  0.72780651  0.08154654  0.11491134  1
  O2-  O373  1  0.74125188  0.06980401  0.47168876  1
  O2-  O374  1  0.77479018  0.07379407  0.78590513  1
  O2-  O375  1  0.75148652  0.57894341  0.11604501  1
  O2-  O376  1  0.74420580  0.58330943  0.44871138  1
  O2-  O377  1  0.73924950  0.58331499  0.77298357  1
  O2-  O378  1  0.24768415  0.07508368  0.22077705  1
  O2-  O379  1  0.26370862  0.08501939  0.55792049  1
  O2-  O380  1  0.26416302  0.08411701  0.87848148  1
  O2-  O381  1  0.25520417  0.58327696  0.21241849  1
  O2-  O382  1  0.25498227  0.58033902  0.54878771  1
  O2-  O383  1  0.25493836  0.57738386  0.89531333  1
  O2-  O384  1  0.57849601  0.07878172  0.20486626  1
  O2-  O385  1  0.56309646  0.07948083  0.55332763  1
  O2-  O386  1  0.56444362  0.07956399  0.89228834  1
  O2-  O387  1  0.58461976  0.57721689  0.23135671  1
  O2-  O388  1  0.57951483  0.58557342  0.54395444  1
  O2-  O389  1  0.59338493  0.57733893  0.87359726  1
  O2-  O390  1  0.91215015  0.08172872  0.21413627  1
  O2-  O391  1  0.91677344  0.07707016  0.53128110  1
  O2-  O392  1  0.92187580  0.08442593  0.90531883  1
  O2-  O393  1  0.90849305  0.58164738  0.21252479  1
  O2-  O394  1  0.93181288  0.57521128  0.55486154  1
  O2-  O395  1  0.91841570  0.55482282  0.86288447  1
  O2-  O396  1  0.07692562  0.41451953  0.09955172  1
  O2-  O397  1  0.07903210  0.42192335  0.45871181  1
  O2-  O398  1  0.08902461  0.42012880  0.79804057  1
  O2-  O399  1  0.09699592  0.91792517  0.12897635  1
  O2-  O400  1  0.10021118  0.91993860  0.44362090  1
  O2-  O401  1  0.11206197  0.92109903  0.77075469  1
  O2-  O402  1  0.43131794  0.41995257  0.11032441  1
  O2-  O403  1  0.43363272  0.42362521  0.45714744  1
  O2-  O404  1  0.41261114  0.42192188  0.77863072  1
  O2-  O405  1  0.39287153  0.92406915  0.08790729  1
  O2-  O406  1  0.41280256  0.91760044  0.44588370  1
  O2-  O407  1  0.41932798  0.91592296  0.78485978  1
  O2-  O408  1  0.74032533  0.41853903  0.10431559  1
  O2-  O409  1  0.73985792  0.42549591  0.45050574  1
  O2-  O410  1  0.74870896  0.42659947  0.78131949  1
  O2-  O411  1  0.75177905  0.91516896  0.11156075  1
  O2-  O412  1  0.72753975  0.91704234  0.42654966  1
  O2-  O413  1  0.75056096  0.91260600  0.77968557  1
  O2-  O414  1  0.22602634  0.42440171  0.22269400  1
  O2-  O415  1  0.26329246  0.41634621  0.56243734  1
  O2-  O416  1  0.25248157  0.41945304  0.88758827  1
  O2-  O417  1  0.26054865  0.91480022  0.22594730  1
  O2-  O418  1  0.24761814  0.91861535  0.54501682  1
  O2-  O419  1  0.25872190  0.92852750  0.88046451  1
  O2-  O420  1  0.58100286  0.41980671  0.21794811  1
  O2-  O421  1  0.57449880  0.42039241  0.54481991  1
  O2-  O422  1  0.55738530  0.42156569  0.88871601  1
  O2-  O423  1  0.61423417  0.91752888  0.25096935  1
  O2-  O424  1  0.57969365  0.91830563  0.55583958  1
  O2-  O425  1  0.60337145  0.91486858  0.88006919  1
  O2-  O426  1  0.93791468  0.42513829  0.21013929  1
  O2-  O427  1  0.91093193  0.41964548  0.55409113  1
  O2-  O428  1  0.93475514  0.42558463  0.88703610  1
  O2-  O429  1  0.90677323  0.91218015  0.23182659  1
  O2-  O430  1  0.90730777  0.91707919  0.58283701  1
  O2-  O431  1  0.89344635  0.92547839  0.87852962  1
  O2-  O432  1  0.01528265  -0.01619265  0.00240606  1
  O2-  O433  1  0.00668183  0.00707760  0.32536156  1
  O2-  O434  1  0.02720927  0.00016199  0.63809944  1
  O2-  O435  1  -0.01522072  0.49520593  0.00976528  1
  O2-  O436  1  0.00453664  0.49040640  0.32084223  1
  O2-  O437  1  0.02209420  0.49085400  0.64679602  1
  O2-  O438  1  0.35542188  0.00625227  -0.03135851  1
  O2-  O439  1  0.30550037  0.00033979  0.37408802  1
  O2-  O440  1  0.32351546  -0.01927091  0.68322830  1
  O2-  O441  1  0.35700661  0.49038613  -0.02418562  1
  O2-  O442  1  0.32119551  0.52094214  0.33810028  1
  O2-  O443  1  0.34244233  0.49526489  0.65139334  1
  O2-  O444  1  0.66016241  0.00722671  0.00086008  1
  O2-  O445  1  0.66617348  0.02665315  0.33463827  1
  O2-  O446  1  0.64156175  0.00796589  0.69884057  1
  O2-  O447  1  0.66832956  0.48752099  0.00009824  1
  O2-  O448  1  0.66335699  0.49925168  0.34243728  1
  O2-  O449  1  0.65311109  0.49467982  0.68871274  1
  O2-  O450  1  0.18248672  -0.02043052  0.00937910  1
  O2-  O451  1  0.16528729  -0.01147203  0.31320052  1
  O2-  O452  1  0.17423008  0.01852931  0.67822304  1
  O2-  O453  1  0.15515692  0.49647459  -0.01733893  1
  O2-  O454  1  0.15902038  0.51457138  0.31401286  1
  O2-  O455  1  0.18304266  0.49644437  0.70514701  1
  O2-  O456  1  0.50576138  0.00109436  0.00951573  1
  O2-  O457  1  0.52581484  -0.00075802  0.37567611  1
  O2-  O458  1  0.47330196  0.00360363  0.64205067  1
  O2-  O459  1  0.51901918  0.50154342  0.03313715  1
  O2-  O460  1  0.51071058  0.49827384  0.35143594  1
  O2-  O461  1  0.49081682  0.49393947  0.65450231  1
  O2-  O462  1  0.80920038  -0.00822973  -0.02557921  1
  O2-  O463  1  0.82462213  0.00386704  0.33299055  1
  O2-  O464  1  0.86250942  0.00334057  0.69140554  1
  O2-  O465  1  0.82739941  0.49766450  -0.02232062  1
  O2-  O466  1  0.85206065  0.50124669  0.35712572  1
  O2-  O467  1  0.80405170  0.50328139  0.61733811  1
  O2-  O468  1  0.41930025  0.25427627  0.05416897  1
  O2-  O469  1  0.58310330  0.25063398  0.28188041  1
  O2-  O470  1  0.91893628  0.24249064  0.28392883  1
  O2-  O471  1  0.89866876  0.25069732  0.60857678  1
  O2-  O472  1  0.92586095  0.74702268  0.27632502  1
  O2-  O473  1  0.59277104  0.25080959  0.60858948  1
  O2-  O474  1  0.75133388  0.74416810  0.05363360  1
  O2-  O475  1  0.25365659  0.75030299  0.27795780  1
  O2-  O476  1  0.57275502  0.75364853  0.25576986  1
  O2-  O477  1  0.59322747  0.25705811  0.92883997  1
  O2-  O478  1  0.07471049  0.24680771  0.38718595  1
  O2-  O479  1  0.90192122  0.25838824  0.92616384  1
  O2-  O480  1  0.92409946  0.75773189  0.60260176  1
  O2-  O481  1  0.07196833  0.75516808  0.75024449  1
  O2-  O482  1  0.74923251  0.26248996  0.73416791  1
  O2-  O483  1  0.74646077  0.24992732  0.38569194  1
  O2-  O484  1  0.42085863  0.74769819  0.38029882  1
  O2-  O485  1  0.41650798  0.74884847  0.72567130  1
  O2-  O486  1  0.08472112  0.75309314  0.05933123  1
  O2-  O487  1  0.25182962  0.25337341  0.60515294  1
  O2-  O488  1  0.23959651  0.74947614  0.92854159  1
  O2-  O489  1  0.26645143  0.25076226  0.93784437  1
  O2-  O490  1  0.93291036  0.75387560  0.93074770  1
  O2-  O491  1  0.74600159  0.25268737  0.05682610  1
  O2-  O492  1  0.07647419  0.75686555  0.39274395  1
