# generated using pymatgen
data_Ca108Mn108O277
_symmetry_space_group_name_H-M   'P 1'
_cell_length_a   16.02468307
_cell_length_b   22.30406832
_cell_length_c   16.38749113
_cell_angle_alpha   89.99507187
_cell_angle_beta   89.99949881
_cell_angle_gamma   90.00273637
_symmetry_Int_Tables_number   1
_chemical_formula_structural   Ca108Mn108O277
_chemical_formula_sum   'Ca108 Mn108 O277'
_cell_volume   5857.14537203
_cell_formula_units_Z   1
loop_
 _symmetry_equiv_pos_site_id
 _symmetry_equiv_pos_as_xyz
  1  'x, y, z'
loop_
 _atom_type_symbol
 _atom_type_oxidation_number
  Ca2+  2.0
  Mn3.34+  3.34
  O2-  -2.0
loop_
 _atom_site_type_symbol
 _atom_site_label
 _atom_site_symmetry_multiplicity
 _atom_site_fract_x
 _atom_site_fract_y
 _atom_site_fract_z
 _atom_site_occupancy
  Ca2+  Ca0  1  0.08094979  0.24725029  0.23409631  1
  Ca2+  Ca1  1  0.07837181  0.27325701  0.58979913  1
  Ca2+  Ca2  1  0.09606807  0.25318002  0.93494339  1
  Ca2+  Ca3  1  0.07704941  0.75032170  0.24994278  1
  Ca2+  Ca4  1  0.08435278  0.75156752  0.58559912  1
  Ca2+  Ca5  1  0.06925881  0.73499243  0.91884242  1
  Ca2+  Ca6  1  0.42880076  0.24718170  0.25591101  1
  Ca2+  Ca7  1  0.42897374  0.25365614  0.57939969  1
  Ca2+  Ca8  1  0.40248336  0.26223596  0.92256320  1
  Ca2+  Ca9  1  0.41170722  0.75589003  0.22725862  1
  Ca2+  Ca10  1  0.40866869  0.75080760  0.59291190  1
  Ca2+  Ca11  1  0.42497794  0.74435732  0.92547696  1
  Ca2+  Ca12  1  0.73967041  0.25528399  0.25154232  1
  Ca2+  Ca13  1  0.74214866  0.26374264  0.58919772  1
  Ca2+  Ca14  1  0.75636854  0.26254028  0.91036509  1
  Ca2+  Ca15  1  0.76542685  0.74365867  0.22671944  1
  Ca2+  Ca16  1  0.75000169  0.75459815  0.59259293  1
  Ca2+  Ca17  1  0.74851023  0.74277729  0.92531250  1
  Ca2+  Ca18  1  0.23812783  0.24589555  0.08056140  1
  Ca2+  Ca19  1  0.25475181  0.25724964  0.40935056  1
  Ca2+  Ca20  1  0.25127604  0.25690037  0.76606488  1
  Ca2+  Ca21  1  0.25966003  0.74434222  0.07464225  1
  Ca2+  Ca22  1  0.23236345  0.74932075  0.41866699  1
  Ca2+  Ca23  1  0.24465989  0.74810058  0.75663806  1
  Ca2+  Ca24  1  0.57308992  0.24278091  0.10373600  1
  Ca2+  Ca25  1  0.56382470  0.24160657  0.40859799  1
  Ca2+  Ca26  1  0.58779192  0.24558585  0.74464308  1
  Ca2+  Ca27  1  0.60324955  0.73295207  0.05773016  1
  Ca2+  Ca28  1  0.60618192  0.74493692  0.41900998  1
  Ca2+  Ca29  1  0.59187380  0.73607512  0.77696854  1
  Ca2+  Ca30  1  0.94289142  0.25185157  0.08753062  1
  Ca2+  Ca31  1  0.91568277  0.25741916  0.40532663  1
  Ca2+  Ca32  1  0.92331740  0.26238825  0.75133336  1
  Ca2+  Ca33  1  0.89673526  0.73993724  0.06959402  1
  Ca2+  Ca34  1  0.91682706  0.74675186  0.40782105  1
  Ca2+  Ca35  1  0.90737596  0.73876440  0.77569567  1
  Ca2+  Ca36  1  0.91500560  0.59601099  0.05074223  1
  Ca2+  Ca37  1  0.92191971  0.59162957  0.05505163  1
  Ca2+  Ca38  1  0.07219957  0.58037257  0.58565616  1
  Ca2+  Ca39  1  0.29990437  0.10222090  0.40054857  1
  Ca2+  Ca40  1  0.91925962  0.09015968  0.39012770  1
  Ca2+  Ca41  1  0.41962242  0.59420332  0.92054395  1
  Ca2+  Ca42  1  0.72148264  0.09463834  0.91597351  1
  Ca2+  Ca43  1  0.59187802  0.59658370  0.06143430  1
  Ca2+  Ca44  1  0.24916978  0.58296294  0.40850240  1
  Ca2+  Ca45  1  0.23659429  0.58215572  0.40868405  1
  Ca2+  Ca46  1  0.73222258  0.60678058  0.55533922  1
  Ca2+  Ca47  1  0.76497555  0.60336955  0.91467885  1
  Ca2+  Ca48  1  0.38666087  0.57044490  0.22978250  1
  Ca2+  Ca49  1  0.44870604  0.10623814  0.24628836  1
  Ca2+  Ca50  1  0.24046840  0.08849309  0.76901961  1
  Ca2+  Ca51  1  0.71036947  0.07841750  0.24499214  1
  Ca2+  Ca52  1  0.73281632  0.09159054  0.60188329  1
  Ca2+  Ca53  1  0.89689990  0.08978923  0.74567594  1
  Ca2+  Ca54  1  0.25732915  0.59323785  0.75358577  1
  Ca2+  Ca55  1  0.90968112  0.09053863  0.74493413  1
  Ca2+  Ca56  1  0.37465691  0.57124718  0.22502823  1
  Ca2+  Ca57  1  0.40227337  0.09555589  0.92290853  1
  Ca2+  Ca58  1  0.75645354  0.59669471  0.27041411  1
  Ca2+  Ca59  1  0.88980972  0.59236621  0.41148863  1
  Ca2+  Ca60  1  0.54264396  0.08769345  0.39695091  1
  Ca2+  Ca61  1  0.43744898  0.09471998  0.57015372  1
  Ca2+  Ca62  1  0.07640342  0.08290133  0.59330485  1
  Ca2+  Ca63  1  0.09729672  0.58883561  0.24898749  1
  Ca2+  Ca64  1  0.41609350  0.57975155  0.62066737  1
  Ca2+  Ca65  1  0.28817233  0.10269987  0.39659820  1
  Ca2+  Ca66  1  0.41422565  0.09483883  0.92344982  1
  Ca2+  Ca67  1  0.73370637  0.09578971  0.91366769  1
  Ca2+  Ca68  1  0.59571901  0.10205969  0.74783208  1
  Ca2+  Ca69  1  0.75577373  0.60587478  0.91818081  1
  Ca2+  Ca70  1  0.25295840  0.08850126  0.76692294  1
  Ca2+  Ca71  1  0.08323411  0.58361576  0.59019625  1
  Ca2+  Ca72  1  0.73787478  0.91342413  0.24985342  1
  Ca2+  Ca73  1  0.91547412  0.41203862  0.06414453  1
  Ca2+  Ca74  1  0.08164720  0.90153073  0.24861540  1
  Ca2+  Ca75  1  0.57001987  0.40344750  0.08246769  1
  Ca2+  Ca76  1  0.10539216  0.90699135  0.91576353  1
  Ca2+  Ca77  1  0.26716190  0.41190891  0.74621928  1
  Ca2+  Ca78  1  0.41754226  0.40961831  0.59104583  1
  Ca2+  Ca79  1  0.90898291  0.41135208  0.43263890  1
  Ca2+  Ca80  1  0.40726625  0.90589193  0.91189939  1
  Ca2+  Ca81  1  0.25087802  0.90741725  0.06431238  1
  Ca2+  Ca82  1  0.90415630  0.90974350  0.08719366  1
  Ca2+  Ca83  1  0.10053436  0.40164449  0.25231334  1
  Ca2+  Ca84  1  0.57803921  0.40104866  0.74859909  1
  Ca2+  Ca85  1  0.42835113  0.90497615  0.58848254  1
  Ca2+  Ca86  1  0.90684684  0.90028911  0.74053856  1
  Ca2+  Ca87  1  0.58461538  0.90586853  0.08875697  1
  Ca2+  Ca88  1  0.25783721  0.90077898  0.75861415  1
  Ca2+  Ca89  1  0.91828197  0.89908226  0.73954491  1
  Ca2+  Ca90  1  0.74633321  0.91383004  0.25612685  1
  Ca2+  Ca91  1  0.74294877  0.90708608  0.91760568  1
  Ca2+  Ca92  1  0.56965918  0.92728791  0.40443838  1
  Ca2+  Ca93  1  0.75239413  0.40706210  0.25741696  1
  Ca2+  Ca94  1  0.27945460  0.90568192  0.41809666  1
  Ca2+  Ca95  1  0.26853969  0.90129721  0.41531109  1
  Ca2+  Ca96  1  0.43426731  0.91875802  0.26137578  1
  Ca2+  Ca97  1  0.58539822  0.39501761  0.42129662  1
  Ca2+  Ca98  1  0.55798874  0.40143660  0.08447801  1
  Ca2+  Ca99  1  0.07799130  0.41105122  0.92377184  1
  Ca2+  Ca100  1  0.57921720  0.92144924  0.40641418  1
  Ca2+  Ca101  1  0.27839074  0.41545045  0.74866146  1
  Ca2+  Ca102  1  0.90216153  0.41147989  0.74541351  1
  Ca2+  Ca103  1  0.89851255  0.41396116  0.43475635  1
  Ca2+  Ca104  1  0.58088326  0.89476417  0.75019021  1
  Ca2+  Ca105  1  0.91691294  0.91006368  0.08716071  1
  Ca2+  Ca106  1  0.27648676  0.42180345  0.08691636  1
  Ca2+  Ca107  1  0.07456782  0.89946827  0.58558575  1
  Mn3.34+  Mn108  1  0.08837508  0.33787667  0.08681646  1
  Mn3.34+  Mn109  1  0.08662613  0.33421369  0.41726240  1
  Mn3.34+  Mn110  1  0.08429629  0.33565619  0.75373998  1
  Mn3.34+  Mn111  1  0.08296759  0.83371311  0.08240941  1
  Mn3.34+  Mn112  1  0.07996862  0.83373805  0.41765779  1
  Mn3.34+  Mn113  1  0.08497019  0.82967102  0.75175973  1
  Mn3.34+  Mn114  1  0.40851715  0.33221996  0.08879429  1
  Mn3.34+  Mn115  1  0.41016326  0.34173169  0.41468635  1
  Mn3.34+  Mn116  1  0.42138870  0.33229235  0.75237598  1
  Mn3.34+  Mn117  1  0.41800162  0.83314648  0.08208041  1
  Mn3.34+  Mn118  1  0.42417504  0.82717009  0.41958707  1
  Mn3.34+  Mn119  1  0.41957967  0.82800773  0.75151947  1
  Mn3.34+  Mn120  1  0.75003714  0.33384895  0.08228934  1
  Mn3.34+  Mn121  1  0.74819364  0.33603100  0.42019564  1
  Mn3.34+  Mn122  1  0.74686799  0.34096864  0.75388626  1
  Mn3.34+  Mn123  1  0.74830403  0.83528498  0.08290036  1
  Mn3.34+  Mn124  1  0.75334064  0.83586441  0.42364970  1
  Mn3.34+  Mn125  1  0.74708629  0.82867041  0.74887326  1
  Mn3.34+  Mn126  1  0.25729433  0.34119039  0.24988835  1
  Mn3.34+  Mn127  1  0.24948981  0.33493678  0.57858079  1
  Mn3.34+  Mn128  1  0.25108621  0.34105332  0.92058280  1
  Mn3.34+  Mn129  1  0.24996633  0.83140221  0.24331898  1
  Mn3.34+  Mn130  1  0.25015754  0.82879987  0.58603908  1
  Mn3.34+  Mn131  1  0.25200288  0.83021503  0.91398800  1
  Mn3.34+  Mn132  1  0.58092119  0.32883927  0.25282837  1
  Mn3.34+  Mn133  1  0.58370987  0.33081167  0.58064303  1
  Mn3.34+  Mn134  1  0.58363720  0.32602946  0.91394162  1
  Mn3.34+  Mn135  1  0.58325664  0.83483406  0.24790841  1
  Mn3.34+  Mn136  1  0.58687536  0.83113789  0.57903890  1
  Mn3.34+  Mn137  1  0.58217709  0.83313626  0.91729421  1
  Mn3.34+  Mn138  1  0.91620375  0.33177363  0.24542156  1
  Mn3.34+  Mn139  1  0.91447930  0.33848206  0.58785906  1
  Mn3.34+  Mn140  1  0.91787531  0.34150835  0.91276782  1
  Mn3.34+  Mn141  1  0.91744512  0.83326866  0.25204704  1
  Mn3.34+  Mn142  1  0.91127393  0.83100833  0.57449618  1
  Mn3.34+  Mn143  1  0.91791165  0.83064167  0.91487618  1
  Mn3.34+  Mn144  1  0.24880037  0.66613773  0.58314847  1
  Mn3.34+  Mn145  1  0.73946824  0.16843536  0.41424510  1
  Mn3.34+  Mn146  1  0.24758916  0.66592791  0.91871027  1
  Mn3.34+  Mn147  1  0.41717138  0.66148382  0.07955677  1
  Mn3.34+  Mn148  1  0.91811242  0.66581809  0.58633081  1
  Mn3.34+  Mn149  1  0.08540900  0.17008667  0.41193195  1
  Mn3.34+  Mn150  1  0.75455746  0.16449575  0.09117490  1
  Mn3.34+  Mn151  1  0.25646366  0.17383391  0.58340384  1
  Mn3.34+  Mn152  1  0.24322737  0.16737115  0.92564563  1
  Mn3.34+  Mn153  1  0.08270025  0.66683259  0.75840089  1
  Mn3.34+  Mn154  1  0.74640913  0.66258080  0.75127154  1
  Mn3.34+  Mn155  1  0.92091612  0.66877069  0.24447387  1
  Mn3.34+  Mn156  1  0.91801145  0.17174405  0.92243697  1
  Mn3.34+  Mn157  1  0.92505356  0.17119385  0.57732348  1
  Mn3.34+  Mn158  1  0.91438542  0.16615506  0.57503970  1
  Mn3.34+  Mn159  1  0.58166282  0.66470113  0.24948561  1
  Mn3.34+  Mn160  1  0.41339139  0.17238053  0.08927680  1
  Mn3.34+  Mn161  1  0.92248698  0.16812396  0.24273678  1
  Mn3.34+  Mn162  1  0.75033538  0.15958661  0.41678122  1
  Mn3.34+  Mn163  1  0.57775989  0.17712451  0.91893245  1
  Mn3.34+  Mn164  1  0.58150570  0.67374085  0.58922379  1
  Mn3.34+  Mn165  1  0.41863170  0.66212565  0.75595444  1
  Mn3.34+  Mn166  1  0.59017764  0.67118495  0.24950170  1
  Mn3.34+  Mn167  1  0.25049069  0.17280272  0.24246385  1
  Mn3.34+  Mn168  1  0.41850774  0.16841868  0.74876190  1
  Mn3.34+  Mn169  1  0.90914659  0.65972060  0.58394822  1
  Mn3.34+  Mn170  1  0.58252570  0.16783517  0.58198154  1
  Mn3.34+  Mn171  1  0.42692140  0.66104774  0.42598332  1
  Mn3.34+  Mn172  1  0.08010577  0.66582141  0.41368813  1
  Mn3.34+  Mn173  1  0.74429192  0.15971059  0.09189169  1
  Mn3.34+  Mn174  1  0.92874967  0.16745722  0.92033679  1
  Mn3.34+  Mn175  1  0.09001561  0.66316520  0.08577101  1
  Mn3.34+  Mn176  1  0.24207755  0.16808707  0.58065990  1
  Mn3.34+  Mn177  1  0.08759835  0.16884711  0.75380736  1
  Mn3.34+  Mn178  1  0.41739813  0.66658202  0.42290775  1
  Mn3.34+  Mn179  1  0.24721239  0.66961907  0.24330768  1
  Mn3.34+  Mn180  1  0.58909283  0.49790350  0.90784771  1
  Mn3.34+  Mn181  1  0.74320162  -0.00306785  0.75043646  1
  Mn3.34+  Mn182  1  0.59429391  0.50004772  0.57841803  1
  Mn3.34+  Mn183  1  0.41286479  0.49919899  0.41202650  1
  Mn3.34+  Mn184  1  0.24660745  0.00378566  0.58204714  1
  Mn3.34+  Mn185  1  0.90805339  0.00006696  0.57722119  1
  Mn3.34+  Mn186  1  0.58062349  0.49676222  0.25996195  1
  Mn3.34+  Mn187  1  0.07207058  0.50549409  0.75667681  1
  Mn3.34+  Mn188  1  0.40787179  0.00709797  0.08347182  1
  Mn3.34+  Mn189  1  0.59101857  0.50150561  0.26199125  1
  Mn3.34+  Mn190  1  0.74744193  0.49866345  0.07862666  1
  Mn3.34+  Mn191  1  0.23743946  0.00074807  0.23505844  1
  Mn3.34+  Mn192  1  0.08785642  0.49570238  0.40774468  1
  Mn3.34+  Mn193  1  0.42176278  0.00200711  0.08667927  1
  Mn3.34+  Mn194  1  0.92678344  -0.00261820  0.92066711  1
  Mn3.34+  Mn195  1  0.26222041  -0.00019071  0.58529948  1
  Mn3.34+  Mn196  1  0.91778775  0.00652395  0.24362238  1
  Mn3.34+  Mn197  1  0.58233988  -0.00139050  0.91544162  1
  Mn3.34+  Mn198  1  0.58665450  0.00048356  0.58586916  1
  Mn3.34+  Mn199  1  0.07245594  -0.00220606  0.41630463  1
  Mn3.34+  Mn200  1  0.08592657  0.00444127  0.41471361  1
  Mn3.34+  Mn201  1  0.09558802  0.00315927  0.07346677  1
  Mn3.34+  Mn202  1  0.42680184  0.00027938  0.74812111  1
  Mn3.34+  Mn203  1  0.58133680  0.50215766  0.57595201  1
  Mn3.34+  Mn204  1  0.25220629  0.00428665  0.24004821  1
  Mn3.34+  Mn205  1  0.91127951  0.50360390  0.24684869  1
  Mn3.34+  Mn206  1  0.06207568  0.50031775  0.75415305  1
  Mn3.34+  Mn207  1  0.75645318  0.50192437  0.73569501  1
  Mn3.34+  Mn208  1  0.25454858  0.50468696  0.93417569  1
  Mn3.34+  Mn209  1  0.75444853  -0.00067976  0.41407269  1
  Mn3.34+  Mn210  1  0.91555752  0.00219713  0.92199088  1
  Mn3.34+  Mn211  1  0.07884225  0.00062043  0.75546598  1
  Mn3.34+  Mn212  1  0.57341678  0.49862347  0.90866255  1
  Mn3.34+  Mn213  1  0.92541920  0.49758111  0.24465311  1
  Mn3.34+  Mn214  1  0.25323767  0.49708384  0.58655930  1
  Mn3.34+  Mn215  1  0.08548847  0.50057650  0.07722296  1
  O2-  O216  1  0.00131867  0.16519526  0.00356770  1
  O2-  O217  1  -0.00441990  0.16730795  0.33819013  1
  O2-  O218  1  0.00276877  0.14795474  0.66652994  1
  O2-  O219  1  0.00380260  0.67223081  0.01427498  1
  O2-  O220  1  0.00299023  0.64935064  0.33202096  1
  O2-  O221  1  0.00439512  0.65038748  0.66229032  1
  O2-  O222  1  0.33492340  0.16088661  -0.00388719  1
  O2-  O223  1  0.33343494  0.17999714  0.32700922  1
  O2-  O224  1  0.33152704  0.13956603  0.66595988  1
  O2-  O225  1  0.33770548  0.65937648  -0.00509522  1
  O2-  O226  1  0.33872351  0.64908802  0.33291417  1
  O2-  O227  1  0.33295791  0.66256582  0.66467233  1
  O2-  O228  1  0.66399309  0.17495042  0.00603532  1
  O2-  O229  1  0.65901591  0.14519953  0.34268173  1
  O2-  O230  1  0.66468160  0.16381565  0.66597097  1
  O2-  O231  1  0.67404650  0.65447016  -0.00511545  1
  O2-  O232  1  0.67412870  0.67378605  0.32704222  1
  O2-  O233  1  0.66106774  0.67068609  0.67004531  1
  O2-  O234  1  0.16545109  0.16835957  -0.00404333  1
  O2-  O235  1  0.17811605  0.17314619  0.34083483  1
  O2-  O236  1  0.16995369  0.14282022  0.66444547  1
  O2-  O237  1  0.16619592  0.67838444  0.00196701  1
  O2-  O238  1  0.17291170  0.65395309  0.33538829  1
  O2-  O239  1  0.16492922  0.64375160  0.66152707  1
  O2-  O240  1  0.49106320  0.15936402  -0.00581396  1
  O2-  O241  1  0.48792421  0.17128588  0.34150284  1
  O2-  O242  1  0.50120378  0.15226737  0.66869093  1
  O2-  O243  1  0.49931779  0.66169665  0.00676408  1
  O2-  O244  1  0.50751486  0.65552103  0.33779404  1
  O2-  O245  1  0.49077677  0.68194171  0.66786784  1
  O2-  O246  1  0.82170112  0.15660344  -0.00330366  1
  O2-  O247  1  0.82498489  0.15512836  0.32900696  1
  O2-  O248  1  0.83606076  0.15245468  0.66386290  1
  O2-  O249  1  0.83400040  0.66062131  0.00636229  1
  O2-  O250  1  0.84086083  0.66544181  0.32586590  1
  O2-  O251  1  0.82230740  0.64976957  0.65908456  1
  O2-  O252  1  0.00092969  0.34693602  0.00222887  1
  O2-  O253  1  -0.00146011  0.34093349  0.33186456  1
  O2-  O254  1  -0.00484119  0.34276556  0.67608936  1
  O2-  O255  1  0.00039434  0.85187982  -0.00166039  1
  O2-  O256  1  0.00435199  0.84286532  0.32922191  1
  O2-  O257  1  0.00139046  0.83928607  0.67037091  1
  O2-  O258  1  0.33011977  0.34459558  0.00562100  1
  O2-  O259  1  0.33698217  0.31393703  0.32984863  1
  O2-  O260  1  0.33534905  0.34493435  0.66777864  1
  O2-  O261  1  0.33526979  0.84415025  -0.00302127  1
  O2-  O262  1  0.34421091  0.84478310  0.32962378  1
  O2-  O263  1  0.33651139  0.83228743  0.66699091  1
  O2-  O264  1  0.66261917  0.31715631  0.00212127  1
  O2-  O265  1  0.66961541  0.34625203  0.32933685  1
  O2-  O266  1  0.66259447  0.33300563  0.67257277  1
  O2-  O267  1  0.66357656  0.85157661  0.00379452  1
  O2-  O268  1  0.66353873  0.84233019  0.33736934  1
  O2-  O269  1  0.66105763  0.83312397  0.67059423  1
  O2-  O270  1  0.16503707  0.35069731  0.00043592  1
  O2-  O271  1  0.16618964  0.32075285  0.32911441  1
  O2-  O272  1  0.17358096  0.35436405  0.67507916  1
  O2-  O273  1  0.16778870  0.83670254  0.00139794  1
  O2-  O274  1  0.17514971  0.85298268  0.33754314  1
  O2-  O275  1  0.16666197  0.85297181  0.66993070  1
  O2-  O276  1  0.50350919  0.33568542  0.00082919  1
  O2-  O277  1  0.50229432  0.33478824  0.33933548  1
  O2-  O278  1  0.49998562  0.34324332  0.66372989  1
  O2-  O279  1  0.49877504  0.85014503  -0.00096919  1
  O2-  O280  1  0.50690317  0.85012984  0.33954198  1
  O2-  O281  1  0.49874621  0.82973772  0.66208039  1
  O2-  O282  1  0.83441470  0.33486457  0.00263185  1
  O2-  O283  1  0.83932458  0.34699002  0.33725467  1
  O2-  O284  1  0.82925618  0.33172176  0.67157937  1
  O2-  O285  1  0.83439399  0.85133087  -0.00129607  1
  O2-  O286  1  0.82273160  0.84191622  0.32466073  1
  O2-  O287  1  0.83148585  0.83960002  0.66489186  1
  O2-  O288  1  -0.00186255  0.17920259  0.17091915  1
  O2-  O289  1  0.00414704  0.19072463  0.49585123  1
  O2-  O290  1  -0.01434145  0.17318563  0.81638673  1
  O2-  O291  1  0.00930566  0.68506217  0.16922568  1
  O2-  O292  1  0.00259346  0.68051866  0.50378348  1
  O2-  O293  1  0.00389400  0.68035202  0.82855169  1
  O2-  O294  1  0.33410539  0.19073226  0.16717233  1
  O2-  O295  1  0.32956471  0.18040487  0.49520710  1
  O2-  O296  1  0.33460661  0.17331496  0.82991599  1
  O2-  O297  1  0.33837053  0.67340227  0.17304686  1
  O2-  O298  1  0.32835957  0.68759431  0.49678996  1
  O2-  O299  1  0.32935454  0.67889624  0.82511251  1
  O2-  O300  1  0.67242523  0.18008005  0.17348476  1
  O2-  O301  1  0.67342379  0.18009997  0.50645652  1
  O2-  O302  1  0.66763296  0.18016930  0.84760844  1
  O2-  O303  1  0.66542378  0.67694336  0.16484037  1
  O2-  O304  1  0.66576441  0.69158838  0.51666278  1
  O2-  O305  1  0.67721516  0.67223467  0.83675703  1
  O2-  O306  1  0.17217166  0.19040462  0.17417138  1
  O2-  O307  1  0.16349832  0.18663206  0.49947513  1
  O2-  O308  1  0.17774058  0.17682260  0.82665245  1
  O2-  O309  1  0.16764782  0.68752078  0.16860649  1
  O2-  O310  1  0.16628528  0.67213135  0.49786038  1
  O2-  O311  1  0.17070587  0.67978011  0.83121273  1
  O2-  O312  1  0.49347535  0.17775475  0.16471082  1
  O2-  O313  1  0.50028940  0.17775665  0.50625001  1
  O2-  O314  1  0.49947694  0.17891764  0.83229283  1
  O2-  O315  1  0.49555063  0.67373571  0.17416667  1
  O2-  O316  1  0.50141660  0.69272107  0.50400250  1
  O2-  O317  1  0.48605789  0.68427525  0.83215405  1
  O2-  O318  1  0.83582012  0.18873417  0.16221194  1
  O2-  O319  1  0.83553560  0.18649121  0.48812375  1
  O2-  O320  1  0.83440230  0.17485989  0.84283127  1
  O2-  O321  1  0.84433614  0.67572865  0.16556270  1
  O2-  O322  1  0.83621529  0.67678787  0.49925342  1
  O2-  O323  1  0.82682378  0.67017878  0.83052017  1
  O2-  O324  1  0.00179699  0.32529732  0.16862375  1
  O2-  O325  1  -0.00555661  0.32077751  0.49377836  1
  O2-  O326  1  0.00708704  0.31800107  0.83870737  1
  O2-  O327  1  -0.00549639  0.82655030  0.15880646  1
  O2-  O328  1  0.00642720  0.81904736  0.50573206  1
  O2-  O329  1  -0.00329278  0.81951606  0.82813821  1
  O2-  O330  1  0.32901785  0.31804847  0.16689039  1
  O2-  O331  1  0.33646111  0.31451172  0.50153996  1
  O2-  O332  1  0.33180686  0.32813272  0.82859025  1
  O2-  O333  1  0.32831689  0.82144193  0.15918462  1
  O2-  O334  1  0.33174033  0.81253625  0.49081016  1
  O2-  O335  1  0.33476620  0.81859728  0.83023862  1
  O2-  O336  1  0.66125481  0.32046368  0.16161940  1
  O2-  O337  1  0.66256360  0.31864520  0.49502518  1
  O2-  O338  1  0.66489502  0.31014298  0.82965538  1
  O2-  O339  1  0.67388348  0.82695071  0.17465925  1
  O2-  O340  1  0.66981331  0.81302220  0.50008495  1
  O2-  O341  1  0.67038891  0.82858753  0.83609465  1
  O2-  O342  1  0.16840877  0.32264116  0.17140084  1
  O2-  O343  1  0.16696677  0.31374103  0.49854873  1
  O2-  O344  1  0.17034312  0.32956857  0.83265127  1
  O2-  O345  1  0.15684066  0.81628948  0.16858120  1
  O2-  O346  1  0.17213164  0.83039208  0.49604481  1
  O2-  O347  1  0.16638618  0.82254408  0.83321477  1
  O2-  O348  1  0.50242205  0.32138533  0.16376437  1
  O2-  O349  1  0.50101775  0.31768129  0.49731812  1
  O2-  O350  1  0.50281950  0.31092587  0.83017393  1
  O2-  O351  1  0.49971078  0.83273853  0.16970281  1
  O2-  O352  1  0.50244459  0.80760680  0.50069954  1
  O2-  O353  1  0.50264520  0.81913009  0.83088822  1
  O2-  O354  1  0.82735401  0.31827846  0.16923962  1
  O2-  O355  1  0.83589339  0.32049104  0.49663454  1
  O2-  O356  1  0.83701250  0.32254594  0.82798165  1
  O2-  O357  1  0.83710277  0.82645735  0.16312841  1
  O2-  O358  1  0.83537189  0.80473044  0.49133902  1
  O2-  O359  1  0.83808909  0.82863928  0.82765426  1
  O2-  O360  1  0.10048769  0.06269132  0.13231207  1
  O2-  O361  1  0.07794508  0.08317102  0.45159945  1
  O2-  O362  1  0.10000860  0.08309440  0.78188507  1
  O2-  O363  1  0.06406152  0.57796723  0.11470656  1
  O2-  O364  1  0.10114716  0.57240251  0.45462258  1
  O2-  O365  1  0.09282858  0.58397180  0.78240308  1
  O2-  O366  1  0.40494789  0.08735366  0.11091993  1
  O2-  O367  1  0.40545290  0.06783265  0.44896783  1
  O2-  O368  1  0.41342969  0.07975060  0.78920543  1
  O2-  O369  1  0.42793733  0.57989676  0.10139687  1
  O2-  O370  1  0.40396992  0.57863196  0.47041977  1
  O2-  O371  1  0.41109860  0.58449191  0.76936369  1
  O2-  O372  1  0.73865040  0.07680862  0.10120555  1
  O2-  O373  1  0.76799818  0.07874587  0.45570705  1
  O2-  O374  1  0.76602505  0.07551600  0.79179194  1
  O2-  O375  1  0.75759814  0.56450262  0.13426522  1
  O2-  O376  1  0.75869139  0.57474219  0.43515055  1
  O2-  O377  1  0.74379084  0.57520971  0.77861702  1
  O2-  O378  1  0.26625499  0.08602249  0.25431132  1
  O2-  O379  1  0.24621043  0.08243638  0.53452721  1
  O2-  O380  1  0.26869463  0.08170759  0.89714981  1
  O2-  O381  1  0.24329436  0.58616419  0.22290879  1
  O2-  O382  1  0.24687641  0.57711607  0.54687894  1
  O2-  O383  1  0.26117938  0.57950339  0.89114166  1
  O2-  O384  1  0.57319056  0.06700421  0.24844341  1
  O2-  O385  1  0.58682150  0.08221759  0.54904780  1
  O2-  O386  1  0.58635735  0.08127224  0.88808027  1
  O2-  O387  1  0.59219799  0.57895122  0.21183774  1
  O2-  O388  1  0.58116122  0.58574084  0.55917237  1
  O2-  O389  1  0.56493359  0.58004163  0.89889356  1
  O2-  O390  1  0.90138907  0.08605332  0.23767445  1
  O2-  O391  1  0.92607365  0.08357329  0.53784630  1
  O2-  O392  1  0.91742048  0.08296942  0.88704167  1
  O2-  O393  1  0.91938328  0.58310786  0.21243951  1
  O2-  O394  1  0.93582188  0.58164563  0.54495028  1
  O2-  O395  1  0.88845131  0.57373785  0.92472847  1
  O2-  O396  1  0.08125736  0.42377300  0.11848088  1
  O2-  O397  1  0.05280643  0.42111425  0.43051174  1
  O2-  O398  1  0.07567398  0.41983086  0.78237526  1
  O2-  O399  1  0.07187374  0.93143216  0.12042464  1
  O2-  O400  1  0.08965764  0.91926210  0.44859680  1
  O2-  O401  1  0.06735203  0.91637958  0.77541654  1
  O2-  O402  1  0.42548438  0.41364879  0.10764719  1
  O2-  O403  1  0.44077434  0.42330051  0.45295517  1
  O2-  O404  1  0.41751435  0.41442730  0.76531807  1
  O2-  O405  1  0.41318155  0.92163951  0.11718594  1
  O2-  O406  1  0.41256604  0.91426013  0.45338308  1
  O2-  O407  1  0.41625288  0.91831014  0.76950987  1
  O2-  O408  1  0.72654476  0.42319241  0.11310956  1
  O2-  O409  1  0.75925181  0.41484481  0.43619994  1
  O2-  O410  1  0.74515633  0.42942523  0.77865137  1
  O2-  O411  1  0.76476216  0.92309500  0.11992292  1
  O2-  O412  1  0.72494087  0.92146268  0.43984401  1
  O2-  O413  1  0.76341625  0.91581053  0.76980197  1
  O2-  O414  1  0.24157345  0.41901220  0.22616519  1
  O2-  O415  1  0.26597868  0.41760402  0.56377705  1
  O2-  O416  1  0.24348955  0.43212576  0.87835090  1
  O2-  O417  1  0.23955042  0.91899731  0.20792066  1
  O2-  O418  1  0.26960198  0.91740919  0.55628303  1
  O2-  O419  1  0.24950475  0.91240327  0.89192196  1
  O2-  O420  1  0.58403440  0.41778693  0.21849695  1
  O2-  O421  1  0.58452231  0.41575937  0.55628006  1
  O2-  O422  1  0.58889565  0.41506022  0.88899818  1
  O2-  O423  1  0.59810591  0.91846197  0.22963734  1
  O2-  O424  1  0.56797858  0.92099948  0.54264371  1
  O2-  O425  1  0.57449339  0.91941311  0.88525453  1
  O2-  O426  1  0.90599488  0.41796476  0.21391824  1
  O2-  O427  1  0.91289573  0.41767240  0.56600568  1
  O2-  O428  1  0.92986125  0.41895940  0.88890247  1
  O2-  O429  1  0.92131129  0.92225116  0.22144902  1
  O2-  O430  1  0.92992141  0.91665373  0.58510647  1
  O2-  O431  1  0.92270030  0.91910811  0.87692107  1
  O2-  O432  1  0.00206072  -0.00657595  0.01065122  1
  O2-  O433  1  -0.01429946  0.00690365  0.34123255  1
  O2-  O434  1  -0.00647919  0.01903779  0.67276674  1
  O2-  O435  1  -0.01264930  0.49924946  0.03063353  1
  O2-  O436  1  0.01001523  0.51469074  0.32334658  1
  O2-  O437  1  0.00662683  0.51303178  0.65611239  1
  O2-  O438  1  0.34924091  -0.00549301  -0.01492230  1
  O2-  O439  1  0.31063957  -0.01643446  0.34226437  1
  O2-  O440  1  0.31924594  0.01126183  0.68817493  1
  O2-  O441  1  0.33627374  0.49963107  -0.00247343  1
  O2-  O442  1  0.32833877  0.52484935  0.33803698  1
  O2-  O443  1  0.32499305  0.50213915  0.67214569  1
  O2-  O444  1  0.69438347  0.00130741  -0.05678212  1
  O2-  O445  1  0.66758516  -0.00121055  0.34186116  1
  O2-  O446  1  0.65580839  0.01883378  0.67813237  1
  O2-  O447  1  0.67793684  0.51124962  -0.01470910  1
  O2-  O448  1  0.69102815  0.49315766  0.31033298  1
  O2-  O449  1  0.66617859  0.50107591  0.66772760  1
  O2-  O450  1  0.16860077  -0.01895627  0.00577387  1
  O2-  O451  1  0.14999625  -0.00626861  0.31765900  1
  O2-  O452  1  0.16437538  0.00338675  0.66630553  1
  O2-  O453  1  0.16699336  0.48587901  0.00063940  1
  O2-  O454  1  0.16841434  0.51231979  0.33688053  1
  O2-  O455  1  0.16514485  0.50803924  0.67221730  1
  O2-  O456  1  0.50796160  0.00550670  0.00446469  1
  O2-  O457  1  0.49685595  -0.00973936  0.34326924  1
  O2-  O458  1  0.48503150  -0.00196632  0.64737341  1
  O2-  O459  1  0.51743250  0.49050364  0.00525199  1
  O2-  O460  1  0.47977554  0.51769671  0.30971741  1
  O2-  O461  1  0.48920131  0.49524012  0.64118805  1
  O2-  O462  1  0.83992079  -0.01862278  0.00202119  1
  O2-  O463  1  0.81740735  -0.00652257  0.30667653  1
  O2-  O464  1  0.83459191  0.01431954  0.67473750  1
  O2-  O465  1  0.83762812  0.49670720  0.02581452  1
  O2-  O466  1  0.85351583  0.49436257  0.34628428  1
  O2-  O467  1  0.84550732  0.49852708  0.68446465  1
  O2-  O468  1  0.91054832  0.75355794  0.93118817  1
  O2-  O469  1  0.74943366  0.25063175  0.38913490  1
  O2-  O470  1  0.91954061  0.74583607  0.61420915  1
  O2-  O471  1  0.25818520  0.74987792  0.27905029  1
  O2-  O472  1  0.92200235  0.75178308  0.26970366  1
  O2-  O473  1  0.25114992  0.25216842  0.92901922  1
  O2-  O474  1  0.23156811  0.74768514  0.60644467  1
  O2-  O475  1  0.58936001  0.75480054  0.92878266  1
  O2-  O476  1  0.74789954  0.75708513  0.06572173  1
  O2-  O477  1  0.91907205  0.25453406  0.93412370  1
  O2-  O478  1  0.91788729  0.25147897  0.61027076  1
  O2-  O479  1  0.58762138  0.25168705  0.26828434  1
  O2-  O480  1  0.08808417  0.75299135  0.39359853  1
  O2-  O481  1  0.26141028  0.74903605  0.93349628  1
  O2-  O482  1  0.58049211  0.24990938  0.60529898  1
  O2-  O483  1  0.41635948  0.74975406  0.07128785  1
  O2-  O484  1  0.08554422  0.25894705  0.06970251  1
  O2-  O485  1  0.24356178  0.25286563  0.62161441  1
  O2-  O486  1  0.75848855  0.74737015  0.73543153  1
  O2-  O487  1  0.08791968  0.25069971  0.72657385  1
  O2-  O488  1  0.91256396  0.25108339  0.26927707  1
  O2-  O489  1  0.41899681  0.25101937  0.05955626  1
  O2-  O490  1  0.09356038  0.74820387  0.72426772  1
  O2-  O491  1  0.40852781  0.24782990  0.72078953  1
  O2-  O492  1  0.56443147  0.75395819  0.27219920  1
