# generated using pymatgen
data_Ca108Mn108O277
_symmetry_space_group_name_H-M   'P 1'
_cell_length_a   16.02775483
_cell_length_b   22.30801333
_cell_length_c   16.38960182
_cell_angle_alpha   89.99615871
_cell_angle_beta   90.00120228
_cell_angle_gamma   89.99715921
_symmetry_Int_Tables_number   1
_chemical_formula_structural   Ca108Mn108O277
_chemical_formula_sum   'Ca108 Mn108 O277'
_cell_volume   5860.05897479
_cell_formula_units_Z   1
loop_
 _symmetry_equiv_pos_site_id
 _symmetry_equiv_pos_as_xyz
  1  'x, y, z'
loop_
 _atom_type_symbol
 _atom_type_oxidation_number
  Ca2+  2.0
  Mn3.34+  3.34
  O2-  -2.0
loop_
 _atom_site_type_symbol
 _atom_site_label
 _atom_site_symmetry_multiplicity
 _atom_site_fract_x
 _atom_site_fract_y
 _atom_site_fract_z
 _atom_site_occupancy
  Ca2+  Ca0  1  0.08308577  0.26213865  0.24376686  1
  Ca2+  Ca1  1  0.09564879  0.24260512  0.57179814  1
  Ca2+  Ca2  1  0.08358160  0.25312120  0.92822439  1
  Ca2+  Ca3  1  0.10833746  0.74012784  0.22890832  1
  Ca2+  Ca4  1  0.08566435  0.75256221  0.58974502  1
  Ca2+  Ca5  1  0.07273712  0.74457973  0.92643300  1
  Ca2+  Ca6  1  0.41849040  0.24874636  0.25364618  1
  Ca2+  Ca7  1  0.43716420  0.23468539  0.59003554  1
  Ca2+  Ca8  1  0.42502186  0.24141544  0.91441598  1
  Ca2+  Ca9  1  0.40358518  0.74570794  0.22863664  1
  Ca2+  Ca10  1  0.40375832  0.76466578  0.57906582  1
  Ca2+  Ca11  1  0.42193639  0.75594893  0.93820352  1
  Ca2+  Ca12  1  0.74873765  0.26315982  0.25863139  1
  Ca2+  Ca13  1  0.72531407  0.25009444  0.60069575  1
  Ca2+  Ca14  1  0.74593418  0.24396834  0.88440245  1
  Ca2+  Ca15  1  0.74398223  0.75796651  0.24075658  1
  Ca2+  Ca16  1  0.76368168  0.75401351  0.58238353  1
  Ca2+  Ca17  1  0.76143722  0.74530800  0.93534867  1
  Ca2+  Ca18  1  0.24933392  0.24926528  0.08143239  1
  Ca2+  Ca19  1  0.25631522  0.24306227  0.42867072  1
  Ca2+  Ca20  1  0.26447227  0.24385617  0.74567571  1
  Ca2+  Ca21  1  0.25693609  0.74767518  0.08604816  1
  Ca2+  Ca22  1  0.25726513  0.74891472  0.39772303  1
  Ca2+  Ca23  1  0.24325067  0.75446727  0.74955779  1
  Ca2+  Ca24  1  0.56808228  0.24450594  0.07569596  1
  Ca2+  Ca25  1  0.58068780  0.24035325  0.44009850  1
  Ca2+  Ca26  1  0.59276644  0.25260937  0.73650599  1
  Ca2+  Ca27  1  0.56766585  0.75297727  0.07988933  1
  Ca2+  Ca28  1  0.56994031  0.75779891  0.40680172  1
  Ca2+  Ca29  1  0.58159596  0.76727085  0.77095063  1
  Ca2+  Ca30  1  0.93134372  0.25374391  0.07686053  1
  Ca2+  Ca31  1  0.91298479  0.25776236  0.41691682  1
  Ca2+  Ca32  1  0.89504276  0.25533114  0.75243385  1
  Ca2+  Ca33  1  0.92938278  0.74179884  0.06698030  1
  Ca2+  Ca34  1  0.91551459  0.76192603  0.41908913  1
  Ca2+  Ca35  1  0.92747282  0.74630729  0.77138071  1
  Ca2+  Ca36  1  0.78955405  0.59724017  0.92843516  1
  Ca2+  Ca37  1  0.93815982  0.60233084  0.77227077  1
  Ca2+  Ca38  1  0.59471596  0.61490444  0.08101312  1
  Ca2+  Ca39  1  0.41970414  0.58222502  0.58504506  1
  Ca2+  Ca40  1  0.94529703  0.07456793  0.05565566  1
  Ca2+  Ca41  1  0.96167210  0.08391201  0.41530636  1
  Ca2+  Ca42  1  0.24596731  0.10555100  0.44499623  1
  Ca2+  Ca43  1  0.23461891  0.07661137  0.05596834  1
  Ca2+  Ca44  1  0.59541075  0.10708195  0.75085663  1
  Ca2+  Ca45  1  0.40677246  0.08212039  0.91384998  1
  Ca2+  Ca46  1  0.92978460  0.58718591  0.42317648  1
  Ca2+  Ca47  1  0.39336604  0.61023719  0.23134544  1
  Ca2+  Ca48  1  0.59361531  0.57105707  0.74895127  1
  Ca2+  Ca49  1  0.08486915  0.06925628  0.93855334  1
  Ca2+  Ca50  1  0.06558182  0.60674236  0.90900939  1
  Ca2+  Ca51  1  0.57099184  0.08429860  0.06721480  1
  Ca2+  Ca52  1  0.75567146  0.56222239  0.61227327  1
  Ca2+  Ca53  1  0.41205288  0.60358990  0.94800357  1
  Ca2+  Ca54  1  0.21907551  0.60858770  0.75937736  1
  Ca2+  Ca55  1  0.58007371  0.58586145  0.40875877  1
  Ca2+  Ca56  1  0.58687905  0.10954545  0.74589540  1
  Ca2+  Ca57  1  0.39504134  0.09467276  0.58868862  1
  Ca2+  Ca58  1  0.86583215  0.09482149  0.77380206  1
  Ca2+  Ca59  1  0.23215566  0.59702961  0.34718649  1
  Ca2+  Ca60  1  0.72449109  0.11181153  0.58960932  1
  Ca2+  Ca61  1  0.40692930  0.58231229  0.58451638  1
  Ca2+  Ca62  1  0.95413061  0.08846856  0.41159615  1
  Ca2+  Ca63  1  0.07625582  0.59499923  0.59913514  1
  Ca2+  Ca64  1  0.08527016  0.07884316  0.25037633  1
  Ca2+  Ca65  1  0.27052000  0.07730858  0.72481459  1
  Ca2+  Ca66  1  0.08728254  0.59419417  0.59781110  1
  Ca2+  Ca67  1  0.93417704  0.59286620  0.04758276  1
  Ca2+  Ca68  1  0.22872966  0.60305174  0.09774898  1
  Ca2+  Ca69  1  0.13318562  0.09895827  0.57604940  1
  Ca2+  Ca70  1  0.74252950  0.61280661  0.22428681  1
  Ca2+  Ca71  1  0.73840712  0.09232531  0.25776282  1
  Ca2+  Ca72  1  0.42677583  0.41253392  0.59438936  1
  Ca2+  Ca73  1  0.74888380  0.89906524  0.58865973  1
  Ca2+  Ca74  1  0.08234839  0.90311585  0.24479035  1
  Ca2+  Ca75  1  0.58512492  0.39540430  0.08064214  1
  Ca2+  Ca76  1  0.92582949  0.91867946  0.06594720  1
  Ca2+  Ca77  1  0.08922764  0.92110628  0.93238814  1
  Ca2+  Ca78  1  0.93936041  0.91431214  0.40202728  1
  Ca2+  Ca79  1  0.93634018  0.91862527  0.06599056  1
  Ca2+  Ca80  1  0.42250481  0.40349542  0.90960548  1
  Ca2+  Ca81  1  0.73731071  0.89877542  0.58830697  1
  Ca2+  Ca82  1  0.24543614  0.40973737  0.39845583  1
  Ca2+  Ca83  1  0.92775549  0.41005156  0.06922805  1
  Ca2+  Ca84  1  0.23416911  0.41120494  0.39697382  1
  Ca2+  Ca85  1  0.24759871  0.40055349  0.74933680  1
  Ca2+  Ca86  1  0.10293762  0.91702839  0.58567917  1
  Ca2+  Ca87  1  0.40957854  0.40422890  0.91073709  1
  Ca2+  Ca88  1  0.39414712  0.92606610  0.60265575  1
  Ca2+  Ca89  1  0.43943208  0.41341514  0.59396024  1
  Ca2+  Ca90  1  0.07182743  0.41354632  0.92543647  1
  Ca2+  Ca91  1  0.24633228  0.91630058  0.06240817  1
  Ca2+  Ca92  1  0.07535135  0.40997643  0.58395298  1
  Ca2+  Ca93  1  0.08829404  0.41041505  0.58460269  1
  Ca2+  Ca94  1  0.89372281  0.42357153  0.75598077  1
  Ca2+  Ca95  1  0.59783079  0.39494788  0.08144542  1
  Ca2+  Ca96  1  0.75231625  0.90107010  0.91713476  1
  Ca2+  Ca97  1  0.25831199  0.92153174  0.74694224  1
  Ca2+  Ca98  1  0.40414798  0.40360953  0.25080688  1
  Ca2+  Ca99  1  0.26966827  0.92353988  0.74946089  1
  Ca2+  Ca100  1  0.88236492  0.42620871  0.75957796  1
  Ca2+  Ca101  1  0.92127338  0.90329710  0.76843615  1
  Ca2+  Ca102  1  0.41893186  0.89681865  0.24459742  1
  Ca2+  Ca103  1  0.59775141  0.39824856  0.42227425  1
  Ca2+  Ca104  1  0.23247035  0.40864811  0.09542572  1
  Ca2+  Ca105  1  0.57387486  0.90147826  0.41245295  1
  Ca2+  Ca106  1  0.24406449  0.90973802  0.42505074  1
  Ca2+  Ca107  1  0.90828670  0.40314378  0.41276131  1
  Mn3.34+  Mn108  1  0.08251981  0.33407127  0.08620868  1
  Mn3.34+  Mn109  1  0.08102346  0.32789069  0.41821492  1
  Mn3.34+  Mn110  1  0.07862166  0.33137876  0.75733130  1
  Mn3.34+  Mn111  1  0.08577499  0.83161361  0.08530178  1
  Mn3.34+  Mn112  1  0.08713811  0.83757658  0.41876395  1
  Mn3.34+  Mn113  1  0.08605941  0.83516400  0.75927256  1
  Mn3.34+  Mn114  1  0.41189406  0.32782600  0.08562069  1
  Mn3.34+  Mn115  1  0.41840448  0.32823381  0.41826398  1
  Mn3.34+  Mn116  1  0.41971983  0.32919363  0.75093977  1
  Mn3.34+  Mn117  1  0.41645877  0.83620654  0.08081943  1
  Mn3.34+  Mn118  1  0.41375948  0.83818323  0.41802435  1
  Mn3.34+  Mn119  1  0.41913149  0.83737327  0.75708377  1
  Mn3.34+  Mn120  1  0.75532901  0.32260768  0.08054999  1
  Mn3.34+  Mn121  1  0.75146000  0.33157840  0.41928422  1
  Mn3.34+  Mn122  1  0.74112120  0.34176553  0.75035988  1
  Mn3.34+  Mn123  1  0.74630061  0.83925023  0.08913589  1
  Mn3.34+  Mn124  1  0.75112844  0.83426743  0.41018604  1
  Mn3.34+  Mn125  1  0.75123554  0.83175630  0.75709174  1
  Mn3.34+  Mn126  1  0.24740583  0.33419181  0.24742489  1
  Mn3.34+  Mn127  1  0.25094454  0.33087982  0.57957921  1
  Mn3.34+  Mn128  1  0.24604590  0.33353205  0.91400309  1
  Mn3.34+  Mn129  1  0.25128754  0.83441657  0.24726006  1
  Mn3.34+  Mn130  1  0.24787736  0.83313670  0.58049938  1
  Mn3.34+  Mn131  1  0.24921565  0.84037307  0.91263545  1
  Mn3.34+  Mn132  1  0.58380173  0.32784802  0.25198781  1
  Mn3.34+  Mn133  1  0.58919533  0.33688330  0.58366475  1
  Mn3.34+  Mn134  1  0.58803819  0.32974517  0.91026667  1
  Mn3.34+  Mn135  1  0.58390406  0.83179082  0.24311638  1
  Mn3.34+  Mn136  1  0.57683871  0.82965004  0.58501616  1
  Mn3.34+  Mn137  1  0.58245564  0.83752779  0.92269015  1
  Mn3.34+  Mn138  1  0.91355720  0.33552460  0.24610773  1
  Mn3.34+  Mn139  1  0.91082415  0.33897687  0.58538272  1
  Mn3.34+  Mn140  1  0.91015457  0.33884047  0.91449236  1
  Mn3.34+  Mn141  1  0.91386869  0.83357522  0.24494316  1
  Mn3.34+  Mn142  1  0.92431650  0.83105015  0.58398867  1
  Mn3.34+  Mn143  1  0.91752171  0.83259396  0.91695238  1
  Mn3.34+  Mn144  1  0.40788625  0.66983274  0.75709793  1
  Mn3.34+  Mn145  1  0.25080763  0.15971349  0.91254544  1
  Mn3.34+  Mn146  1  0.91598917  0.66962653  0.24643298  1
  Mn3.34+  Mn147  1  0.74609064  0.65839768  0.41926809  1
  Mn3.34+  Mn148  1  0.25072691  0.66993721  0.57793677  1
  Mn3.34+  Mn149  1  0.91827832  0.16175682  0.91655084  1
  Mn3.34+  Mn150  1  0.57977144  0.16487374  0.91494156  1
  Mn3.34+  Mn151  1  0.58979223  0.66838726  0.91793499  1
  Mn3.34+  Mn152  1  0.24081383  0.66594523  0.91877407  1
  Mn3.34+  Mn153  1  0.74237917  0.16286434  0.08170585  1
  Mn3.34+  Mn154  1  0.57825905  0.67122260  0.24620896  1
  Mn3.34+  Mn155  1  0.07587480  0.16993519  0.75719725  1
  Mn3.34+  Mn156  1  0.25991468  0.15970049  0.24818323  1
  Mn3.34+  Mn157  1  0.74786697  0.66652894  0.75138757  1
  Mn3.34+  Mn158  1  0.75269376  0.16729075  0.07946182  1
  Mn3.34+  Mn159  1  0.92369429  0.16633759  0.58294548  1
  Mn3.34+  Mn160  1  0.90933273  0.16694773  0.24619008  1
  Mn3.34+  Mn161  1  0.08647773  0.16630368  0.08229215  1
  Mn3.34+  Mn162  1  0.42089358  0.66346731  0.76020830  1
  Mn3.34+  Mn163  1  0.41154324  0.16334106  0.75331486  1
  Mn3.34+  Mn164  1  0.41655717  0.67262129  0.41488707  1
  Mn3.34+  Mn165  1  0.92952527  0.66295987  0.24537756  1
  Mn3.34+  Mn166  1  0.41566365  0.16162470  0.08562973  1
  Mn3.34+  Mn167  1  0.08323955  0.66910216  0.41991468  1
  Mn3.34+  Mn168  1  0.75631796  0.66010259  0.75326030  1
  Mn3.34+  Mn169  1  0.91888238  0.66777894  0.58462575  1
  Mn3.34+  Mn170  1  0.58695148  0.66557963  0.57978498  1
  Mn3.34+  Mn171  1  0.24660205  0.16603264  0.25044710  1
  Mn3.34+  Mn172  1  0.08984808  0.16472420  0.75918550  1
  Mn3.34+  Mn173  1  0.42048671  0.16496733  0.42201502  1
  Mn3.34+  Mn174  1  0.57791810  0.67145399  0.58269825  1
  Mn3.34+  Mn175  1  0.74583442  0.17021902  0.41821504  1
  Mn3.34+  Mn176  1  0.92301304  0.16076655  0.24315202  1
  Mn3.34+  Mn177  1  0.75993757  0.66408766  0.41691984  1
  Mn3.34+  Mn178  1  0.91338478  0.17146264  0.58400174  1
  Mn3.34+  Mn179  1  0.57907664  0.16729741  0.25010191  1
  Mn3.34+  Mn180  1  0.08711184  0.49693021  0.75312412  1
  Mn3.34+  Mn181  1  0.92250674  0.50285558  0.25296406  1
  Mn3.34+  Mn182  1  0.41737746  0.50079969  0.74898635  1
  Mn3.34+  Mn183  1  0.41963607  0.00172563  0.42025640  1
  Mn3.34+  Mn184  1  0.58820471  0.50370445  0.24602254  1
  Mn3.34+  Mn185  1  0.74646065  0.49452091  0.08229408  1
  Mn3.34+  Mn186  1  0.40876209  0.50397589  0.41085085  1
  Mn3.34+  Mn187  1  0.42286366  0.50540251  0.08832792  1
  Mn3.34+  Mn188  1  0.58068937  0.00189994  0.24236935  1
  Mn3.34+  Mn189  1  0.26596235  0.00401870  0.25546299  1
  Mn3.34+  Mn190  1  0.24616008  0.50130605  0.56951215  1
  Mn3.34+  Mn191  1  0.74022610  -0.00489493  0.74925203  1
  Mn3.34+  Mn192  1  0.57733082  0.00439786  0.58183854  1
  Mn3.34+  Mn193  1  0.91096373  0.49875689  0.58757754  1
  Mn3.34+  Mn194  1  0.90939426  -0.00072783  0.24635336  1
  Mn3.34+  Mn195  1  0.08361008  0.49873514  0.07473032  1
  Mn3.34+  Mn196  1  0.57698977  -0.00049859  0.56722790  1
  Mn3.34+  Mn197  1  0.74907831  0.00070329  0.07467694  1
  Mn3.34+  Mn198  1  0.91696843  0.00284453  0.58913298  1
  Mn3.34+  Mn199  1  0.08726145  0.50191034  0.40873653  1
  Mn3.34+  Mn200  1  0.93158976  -0.00204789  0.58580861  1
  Mn3.34+  Mn201  1  0.90968557  0.49697175  0.25269369  1
  Mn3.34+  Mn202  1  0.25442643  -0.00326110  0.25229517  1
  Mn3.34+  Mn203  1  0.58192823  -0.00385178  0.92190389  1
  Mn3.34+  Mn204  1  0.08476125  0.00246393  0.75843082  1
  Mn3.34+  Mn205  1  0.24663625  0.50173253  0.91433781  1
  Mn3.34+  Mn206  1  0.76036926  0.49896027  0.08831859  1
  Mn3.34+  Mn207  1  0.41354486  -0.00040128  0.07360034  1
  Mn3.34+  Mn208  1  0.73459715  0.00156778  0.41645281  1
  Mn3.34+  Mn209  1  0.58891417  0.49996832  0.91529954  1
  Mn3.34+  Mn210  1  0.41971131  0.49880301  0.41250402  1
  Mn3.34+  Mn211  1  0.60214785  0.49754648  0.24857395  1
  Mn3.34+  Mn212  1  0.56989427  -0.00225169  0.24111951  1
  Mn3.34+  Mn213  1  0.40844543  0.49921859  0.08942298  1
  Mn3.34+  Mn214  1  0.74872936  0.00738478  0.41835632  1
  Mn3.34+  Mn215  1  0.75105358  0.49755972  0.42443713  1
  O2-  O216  1  0.00096718  0.16611345  -0.00001901  1
  O2-  O217  1  0.00487521  0.15483227  0.32679462  1
  O2-  O218  1  0.00301934  0.13985575  0.66470305  1
  O2-  O219  1  -0.00141536  0.66807296  -0.00624932  1
  O2-  O220  1  -0.00601065  0.65738524  0.34105583  1
  O2-  O221  1  -0.00060503  0.66232831  0.66316200  1
  O2-  O222  1  0.32797422  0.15377673  0.00012865  1
  O2-  O223  1  0.33075980  0.15078777  0.33731882  1
  O2-  O224  1  0.33052174  0.16613764  0.67619611  1
  O2-  O225  1  0.32444106  0.67828744  -0.01119612  1
  O2-  O226  1  0.33743974  0.65939682  0.34137898  1
  O2-  O227  1  0.33315530  0.64396036  0.67056160  1
  O2-  O228  1  0.65789808  0.16006198  0.00237615  1
  O2-  O229  1  0.67384193  0.16893031  0.32452386  1
  O2-  O230  1  0.66080749  0.17015387  0.67343465  1
  O2-  O231  1  0.67634118  0.66389656  -0.01311017  1
  O2-  O232  1  0.66780023  0.65196671  0.33510949  1
  O2-  O233  1  0.66785394  0.65251999  0.66600312  1
  O2-  O234  1  0.16861865  0.16348759  -0.00332105  1
  O2-  O235  1  0.16718514  0.14729784  0.32629630  1
  O2-  O236  1  0.16931436  0.16212835  0.67953562  1
  O2-  O237  1  0.16271409  0.65961470  -0.00845007  1
  O2-  O238  1  0.15858214  0.68316430  0.34190265  1
  O2-  O239  1  0.16590306  0.66263463  0.65808843  1
  O2-  O240  1  0.49414216  0.15123889  -0.00241103  1
  O2-  O241  1  0.50429002  0.18201074  0.33181710  1
  O2-  O242  1  0.49087350  0.15217342  0.67388653  1
  O2-  O243  1  0.51007347  0.66187811  -0.00378620  1
  O2-  O244  1  0.50306742  0.65201767  0.33822404  1
  O2-  O245  1  0.49809285  0.64830998  0.66894462  1
  O2-  O246  1  0.83750806  0.17935998  0.00075560  1
  O2-  O247  1  0.84082962  0.13990728  0.33623679  1
  O2-  O248  1  0.83589943  0.15360953  0.66279787  1
  O2-  O249  1  0.83967319  0.67100480  0.00803388  1
  O2-  O250  1  0.83776313  0.63892884  0.32561311  1
  O2-  O251  1  0.83211539  0.64406354  0.66402773  1
  O2-  O252  1  -0.00239313  0.33846274  -0.00154498  1
  O2-  O253  1  -0.00369240  0.33177531  0.34211553  1
  O2-  O254  1  -0.00530454  0.36360557  0.67752073  1
  O2-  O255  1  0.00123391  0.84300876  -0.00078822  1
  O2-  O256  1  0.00478602  0.84020598  0.33411107  1
  O2-  O257  1  0.00547691  0.83200105  0.67071320  1
  O2-  O258  1  0.33058220  0.34862029  -0.00024597  1
  O2-  O259  1  0.33070048  0.34627050  0.33760719  1
  O2-  O260  1  0.33355858  0.34398058  0.66410905  1
  O2-  O261  1  0.32634122  0.83338387  -0.00072122  1
  O2-  O262  1  0.32946302  0.85448319  0.33583935  1
  O2-  O263  1  0.32853034  0.84605116  0.66595381  1
  O2-  O264  1  0.66461704  0.33073267  0.00214965  1
  O2-  O265  1  0.66124686  0.32635893  0.33751310  1
  O2-  O266  1  0.66777491  0.33968104  0.66391654  1
  O2-  O267  1  0.67737372  0.82652902  -0.00162724  1
  O2-  O268  1  0.66136628  0.84000974  0.33636986  1
  O2-  O269  1  0.66858843  0.83367348  0.66666309  1
  O2-  O270  1  0.16534859  0.34101436  -0.00227651  1
  O2-  O271  1  0.16571394  0.33417427  0.33544649  1
  O2-  O272  1  0.16290493  0.34256509  0.65888362  1
  O2-  O273  1  0.16624529  0.84566325  -0.00295675  1
  O2-  O274  1  0.16930860  0.84093462  0.33597089  1
  O2-  O275  1  0.16772342  0.83983195  0.67102421  1
  O2-  O276  1  0.49708125  0.34421848  0.00391079  1
  O2-  O277  1  0.49529857  0.34315169  0.32977915  1
  O2-  O278  1  0.50065901  0.34705073  0.66746510  1
  O2-  O279  1  0.50383000  0.83828475  0.00572437  1
  O2-  O280  1  0.49827783  0.84456327  0.33423934  1
  O2-  O281  1  0.49479312  0.83291608  0.66395042  1
  O2-  O282  1  0.83760091  0.31120678  -0.00150230  1
  O2-  O283  1  0.83218900  0.34393177  0.33141037  1
  O2-  O284  1  0.83670760  0.35253660  0.67475621  1
  O2-  O285  1  0.83680705  0.83955227  0.00391993  1
  O2-  O286  1  0.84310111  0.85054029  0.33969958  1
  O2-  O287  1  0.83530326  0.85045067  0.66578662  1
  O2-  O288  1  0.00092806  0.18347229  0.16474094  1
  O2-  O289  1  -0.00464244  0.18257619  0.49568162  1
  O2-  O290  1  0.00448608  0.18585630  0.84074467  1
  O2-  O291  1  0.00154297  0.68126145  0.16495405  1
  O2-  O292  1  0.00192351  0.68419158  0.50427798  1
  O2-  O293  1  0.01226610  0.68108092  0.82957054  1
  O2-  O294  1  0.33265341  0.18312468  0.16674965  1
  O2-  O295  1  0.34034090  0.17881719  0.50095988  1
  O2-  O296  1  0.33293548  0.18550594  0.84122706  1
  O2-  O297  1  0.31869622  0.67557377  0.16154119  1
  O2-  O298  1  0.34587785  0.67586505  0.51116680  1
  O2-  O299  1  0.32608604  0.68442615  0.83502378  1
  O2-  O300  1  0.66782231  0.19275417  0.16521708  1
  O2-  O301  1  0.67860842  0.18565706  0.50062287  1
  O2-  O302  1  0.65346366  0.17722556  0.83392600  1
  O2-  O303  1  0.66039289  0.68475479  0.16922337  1
  O2-  O304  1  0.66898111  0.69369963  0.50311222  1
  O2-  O305  1  0.66379736  0.68634134  0.82575607  1
  O2-  O306  1  0.16844355  0.18262391  0.16777551  1
  O2-  O307  1  0.17114406  0.18212983  0.50017372  1
  O2-  O308  1  0.16980499  0.19413709  0.83958277  1
  O2-  O309  1  0.18325373  0.67778807  0.16383293  1
  O2-  O310  1  0.16272966  0.68157310  0.50502810  1
  O2-  O311  1  0.17181032  0.68828277  0.83589817  1
  O2-  O312  1  0.50081490  0.18508495  0.16601400  1
  O2-  O313  1  0.49657088  0.17378618  0.49751388  1
  O2-  O314  1  0.49915678  0.17298970  0.83391737  1
  O2-  O315  1  0.49735716  0.67492534  0.17403354  1
  O2-  O316  1  0.49937308  0.69421793  0.50124666  1
  O2-  O317  1  0.50119720  0.68089745  0.83585503  1
  O2-  O318  1  0.82976516  0.18455430  0.16652931  1
  O2-  O319  1  0.83973761  0.17604338  0.49313501  1
  O2-  O320  1  0.84577712  0.18128492  0.83744896  1
  O2-  O321  1  0.83284415  0.68301979  0.17197583  1
  O2-  O322  1  0.84073223  0.67382187  0.49577011  1
  O2-  O323  1  0.83760039  0.67261025  0.83144586  1
  O2-  O324  1  -0.00228086  0.32107999  0.16416140  1
  O2-  O325  1  0.00971809  0.32142541  0.51161096  1
  O2-  O326  1  -0.00430818  0.31091334  0.84013570  1
  O2-  O327  1  -0.00373786  0.81853654  0.16384351  1
  O2-  O328  1  0.00400511  0.81448361  0.49762058  1
  O2-  O329  1  -0.00040496  0.82185027  0.83392746  1
  O2-  O330  1  0.33444779  0.32316091  0.17003667  1
  O2-  O331  1  0.33324465  0.32627614  0.49989290  1
  O2-  O332  1  0.33385069  0.31672177  0.83687561  1
  O2-  O333  1  0.33339108  0.82807656  0.16691420  1
  O2-  O334  1  0.32829464  0.82635824  0.49695169  1
  O2-  O335  1  0.32608430  0.81892835  0.82848707  1
  O2-  O336  1  0.66095945  0.31594014  0.15949767  1
  O2-  O337  1  0.66525474  0.32003045  0.49695938  1
  O2-  O338  1  0.66061767  0.31772629  0.82833433  1
  O2-  O339  1  0.66089506  0.81369118  0.16052089  1
  O2-  O340  1  0.67031840  0.81992156  0.50863020  1
  O2-  O341  1  0.67651245  0.81997571  0.84050548  1
  O2-  O342  1  0.17261210  0.32095420  0.16149265  1
  O2-  O343  1  0.16957606  0.31163498  0.49611851  1
  O2-  O344  1  0.16943728  0.31428949  0.82941319  1
  O2-  O345  1  0.16439695  0.82667933  0.17028553  1
  O2-  O346  1  0.16643195  0.81266318  0.49878315  1
  O2-  O347  1  0.16530172  0.81034272  0.83807772  1
  O2-  O348  1  0.50330477  0.31859047  0.16432144  1
  O2-  O349  1  0.49736530  0.32159744  0.50054468  1
  O2-  O350  1  0.48984057  0.32620314  0.84574463  1
  O2-  O351  1  0.49270930  0.82181598  0.17354367  1
  O2-  O352  1  0.50240907  0.81860379  0.49586636  1
  O2-  O353  1  0.49604429  0.82527373  0.83973545  1
  O2-  O354  1  0.83340959  0.30867071  0.16071166  1
  O2-  O355  1  0.84069118  0.32452445  0.49550472  1
  O2-  O356  1  0.83285513  0.32592654  0.83330189  1
  O2-  O357  1  0.83131737  0.81506439  0.16360815  1
  O2-  O358  1  0.82835725  0.82913913  0.50550564  1
  O2-  O359  1  0.83786261  0.82170477  0.83109532  1
  O2-  O360  1  0.08533268  0.08615962  0.10215625  1
  O2-  O361  1  0.06124407  0.05814894  0.47843558  1
  O2-  O362  1  0.08667095  0.08355243  0.79366876  1
  O2-  O363  1  0.08257186  0.57004464  0.10907803  1
  O2-  O364  1  0.07719649  0.57864133  0.45687454  1
  O2-  O365  1  0.08368531  0.57812906  0.76572988  1
  O2-  O366  1  0.42110305  0.07717523  0.11386048  1
  O2-  O367  1  0.40728167  0.08084002  0.44698172  1
  O2-  O368  1  0.40908419  0.08355527  0.77709943  1
  O2-  O369  1  0.41231661  0.58561975  0.09401310  1
  O2-  O370  1  0.42530044  0.58341662  0.44904578  1
  O2-  O371  1  0.41243745  0.58264127  0.79267557  1
  O2-  O372  1  0.74519275  0.07947643  0.12086315  1
  O2-  O373  1  0.73644413  0.08657570  0.44833219  1
  O2-  O374  1  0.72615675  0.07500763  0.76606999  1
  O2-  O375  1  0.74596611  0.57969616  0.10016021  1
  O2-  O376  1  0.74423736  0.58013402  0.46762792  1
  O2-  O377  1  0.74078771  0.58159301  0.78467752  1
  O2-  O378  1  0.24463646  0.07835374  0.20057741  1
  O2-  O379  1  0.26081224  0.06830578  0.56659393  1
  O2-  O380  1  0.24788514  0.08229064  0.88762419  1
  O2-  O381  1  0.26509949  0.57127075  0.22084691  1
  O2-  O382  1  0.25491701  0.58504831  0.55481204  1
  O2-  O383  1  0.24629073  0.58396235  0.89182293  1
  O2-  O384  1  0.59383354  0.08227259  0.20814758  1
  O2-  O385  1  0.58900559  0.08399848  0.57665644  1
  O2-  O386  1  0.57414683  0.07716172  0.88319185  1
  O2-  O387  1  0.59748161  0.58407514  0.21759198  1
  O2-  O388  1  0.55711141  0.58555664  0.54154297  1
  O2-  O389  1  0.58899516  0.58147439  0.88988994  1
  O2-  O390  1  0.91036133  0.08213794  0.20210089  1
  O2-  O391  1  0.90430908  0.08044328  0.54393059  1
  O2-  O392  1  0.92965973  0.08305754  0.90098102  1
  O2-  O393  1  0.91234154  0.58014818  0.20200870  1
  O2-  O394  1  0.93601661  0.58212721  0.55910179  1
  O2-  O395  1  0.92784294  0.57544052  0.89958802  1
  O2-  O396  1  0.08255317  0.41975029  0.10681262  1
  O2-  O397  1  0.09616533  0.41993316  0.44454811  1
  O2-  O398  1  0.09922888  0.41691052  0.78614388  1
  O2-  O399  1  0.06783501  0.91581366  0.10884844  1
  O2-  O400  1  0.08535140  0.91596952  0.44566263  1
  O2-  O401  1  0.07826797  0.92286369  0.78751637  1
  O2-  O402  1  0.42880836  0.41870897  0.11443095  1
  O2-  O403  1  0.41543498  0.41777117  0.44773846  1
  O2-  O404  1  0.40628404  0.41610219  0.77598892  1
  O2-  O405  1  0.40516742  0.92327892  0.11059103  1
  O2-  O406  1  0.42797229  0.92277131  0.46011759  1
  O2-  O407  1  0.40485829  0.91602926  0.76524133  1
  O2-  O408  1  0.73719045  0.41391807  0.10221409  1
  O2-  O409  1  0.74602280  0.41411759  0.43644386  1
  O2-  O410  1  0.75482823  0.42168686  0.78328303  1
  O2-  O411  1  0.76801798  0.92197478  0.10188682  1
  O2-  O412  1  0.73644516  0.92333368  0.45599679  1
  O2-  O413  1  0.76097752  0.91579158  0.77457505  1
  O2-  O414  1  0.25012937  0.41458512  0.23681688  1
  O2-  O415  1  0.22877177  0.41894213  0.54059134  1
  O2-  O416  1  0.26876581  0.42203519  0.88098340  1
  O2-  O417  1  0.24685900  0.92070495  0.21195985  1
  O2-  O418  1  0.24100764  0.91453311  0.56239966  1
  O2-  O419  1  0.23568154  0.91981615  0.88102551  1
  O2-  O420  1  0.58297295  0.41778102  0.21397527  1
  O2-  O421  1  0.56305351  0.41930772  0.54808842  1
  O2-  O422  1  0.56764155  0.41629419  0.91163414  1
  O2-  O423  1  0.57758681  0.91541604  0.22194157  1
  O2-  O424  1  0.59210072  0.91865173  0.55276530  1
  O2-  O425  1  0.60860382  0.91867075  0.90000514  1
  O2-  O426  1  0.91158244  0.42160641  0.20599831  1
  O2-  O427  1  0.94020789  0.42328867  0.54115867  1
  O2-  O428  1  0.93413037  0.41992180  0.88602464  1
  O2-  O429  1  0.92778055  0.91706447  0.21668437  1
  O2-  O430  1  0.92397588  0.91840349  0.54832681  1
  O2-  O431  1  0.90993390  0.91654138  0.90569014  1
  O2-  O432  1  0.00871441  -0.00730146  0.00057250  1
  O2-  O433  1  -0.00419239  0.01525344  0.32636146  1
  O2-  O434  1  0.00880267  -0.00534437  0.66964559  1
  O2-  O435  1  -0.00075791  0.49226058  0.01231867  1
  O2-  O436  1  -0.01368751  0.49715573  0.35405990  1
  O2-  O437  1  0.01042783  0.49480499  0.65750354  1
  O2-  O438  1  0.31998544  0.00264545  0.01910405  1
  O2-  O439  1  0.32364699  -0.01188200  0.35351473  1
  O2-  O440  1  0.32501350  -0.00765012  0.68081178  1
  O2-  O441  1  0.33727823  0.49631661  -0.00592906  1
  O2-  O442  1  0.33987151  0.48489108  0.32512088  1
  O2-  O443  1  0.33719169  0.49395787  0.64845437  1
  O2-  O444  1  0.66014443  0.01065202  0.00742652  1
  O2-  O445  1  0.67434668  0.00853588  0.31631196  1
  O2-  O446  1  0.67753827  -0.01238912  0.64595138  1
  O2-  O447  1  0.65695823  0.49169533  0.01527304  1
  O2-  O448  1  0.65809627  0.50957543  0.34970658  1
  O2-  O449  1  0.65535159  0.51680775  0.66333907  1
  O2-  O450  1  0.16144880  -0.00293719  -0.00002718  1
  O2-  O451  1  0.15623548  0.00340987  0.31009815  1
  O2-  O452  1  0.17139754  -0.00476737  0.69237484  1
  O2-  O453  1  0.16607038  0.48651885  0.00118046  1
  O2-  O454  1  0.19968504  0.50475349  0.39226748  1
  O2-  O455  1  0.15907007  0.50102295  0.65355084  1
  O2-  O456  1  0.48975761  0.01274783  -0.00818290  1
  O2-  O457  1  0.50239495  -0.01036088  0.33692874  1
  O2-  O458  1  0.48063329  0.00390906  0.63835726  1
  O2-  O459  1  0.49552352  0.50128468  -0.00609416  1
  O2-  O460  1  0.50453487  0.50089046  0.33022503  1
  O2-  O461  1  0.48533484  0.50845146  0.64872758  1
  O2-  O462  1  0.85549301  0.00326726  0.04132105  1
  O2-  O463  1  0.83745072  0.00648781  0.34464268  1
  O2-  O464  1  0.83996843  0.00249115  0.67878139  1
  O2-  O465  1  0.84008923  0.50686627  0.01023282  1
  O2-  O466  1  0.83144597  0.51280304  0.33710832  1
  O2-  O467  1  0.84688693  0.50422478  0.68386902  1
  O2-  O468  1  0.41717067  0.74830408  0.72412541  1
  O2-  O469  1  0.91638012  0.75265281  0.92693263  1
  O2-  O470  1  0.91638214  0.24623523  0.27634242  1
  O2-  O471  1  0.58011948  0.75072067  0.27434800  1
  O2-  O472  1  0.76167172  0.74672878  0.72363365  1
  O2-  O473  1  0.41634613  0.75574897  0.07661386  1
  O2-  O474  1  0.25861203  0.75665226  0.26117900  1
  O2-  O475  1  0.40390109  0.24988122  0.39477488  1
  O2-  O476  1  0.42670773  0.24994348  0.73157564  1
  O2-  O477  1  0.90264367  0.74836763  0.60560810  1
  O2-  O478  1  0.76377612  0.74477294  0.38805671  1
  O2-  O479  1  0.92198673  0.25357438  0.61526789  1
  O2-  O480  1  0.57146145  0.24800357  0.93678862  1
  O2-  O481  1  0.09172188  0.75340739  0.06922977  1
  O2-  O482  1  0.76987518  0.24892807  0.39426758  1
  O2-  O483  1  0.75376029  0.25853677  0.73743588  1
  O2-  O484  1  0.57871291  0.25661211  0.59673979  1
  O2-  O485  1  0.40989650  0.75400388  0.39001964  1
  O2-  O486  1  0.41043386  0.24663950  0.05572293  1
  O2-  O487  1  0.08712553  0.25181908  0.06723393  1
  O2-  O488  1  0.07085098  0.24899580  0.71581622  1
  O2-  O489  1  0.25627539  0.24955368  0.27437770  1
  O2-  O490  1  0.26063611  0.74966052  0.60861499  1
  O2-  O491  1  0.90880182  0.74975234  0.28159493  1
  O2-  O492  1  0.57631319  0.75226568  0.92907493  1
