# generated using pymatgen
data_Ca108Mn108O277
_symmetry_space_group_name_H-M   'P 1'
_cell_length_a   16.00380504
_cell_length_b   22.27275236
_cell_length_c   16.37057332
_cell_angle_alpha   89.99916107
_cell_angle_beta   89.99878595
_cell_angle_gamma   89.99953924
_symmetry_Int_Tables_number   1
_chemical_formula_structural   Ca108Mn108O277
_chemical_formula_sum   'Ca108 Mn108 O277'
_cell_volume   5835.27099054
_cell_formula_units_Z   1
loop_
 _symmetry_equiv_pos_site_id
 _symmetry_equiv_pos_as_xyz
  1  'x, y, z'
loop_
 _atom_type_symbol
 _atom_type_oxidation_number
  Ca2+  2.0
  Mn3.34+  3.34
  O2-  -2.0
loop_
 _atom_site_type_symbol
 _atom_site_label
 _atom_site_symmetry_multiplicity
 _atom_site_fract_x
 _atom_site_fract_y
 _atom_site_fract_z
 _atom_site_occupancy
  Ca2+  Ca0  1  0.09209556  0.25437577  0.26515918  1
  Ca2+  Ca1  1  0.07920331  0.25175642  0.58281359  1
  Ca2+  Ca2  1  0.10761632  0.24939218  0.90164869  1
  Ca2+  Ca3  1  0.06562970  0.75718166  0.25252386  1
  Ca2+  Ca4  1  0.09245195  0.74580100  0.57997143  1
  Ca2+  Ca5  1  0.08917375  0.75054737  0.91210649  1
  Ca2+  Ca6  1  0.41687798  0.25352465  0.24628281  1
  Ca2+  Ca7  1  0.43588686  0.25298734  0.59317540  1
  Ca2+  Ca8  1  0.40040972  0.25008278  0.90723192  1
  Ca2+  Ca9  1  0.42824589  0.74928610  0.23957711  1
  Ca2+  Ca10  1  0.42592566  0.74096062  0.58752737  1
  Ca2+  Ca11  1  0.41306684  0.74181797  0.92086631  1
  Ca2+  Ca12  1  0.74223583  0.25873676  0.24880040  1
  Ca2+  Ca13  1  0.73236211  0.24919831  0.58881372  1
  Ca2+  Ca14  1  0.74356485  0.25403287  0.91174884  1
  Ca2+  Ca15  1  0.75645300  0.75283934  0.24376280  1
  Ca2+  Ca16  1  0.73542404  0.75853121  0.58286429  1
  Ca2+  Ca17  1  0.74799523  0.75010048  0.92400135  1
  Ca2+  Ca18  1  0.26190553  0.25453950  0.07288138  1
  Ca2+  Ca19  1  0.24462048  0.25919352  0.40956025  1
  Ca2+  Ca20  1  0.25462544  0.25208607  0.76727108  1
  Ca2+  Ca21  1  0.26382503  0.75125256  0.06834089  1
  Ca2+  Ca22  1  0.24922019  0.73988052  0.42907940  1
  Ca2+  Ca23  1  0.25934066  0.74064637  0.75734086  1
  Ca2+  Ca24  1  0.58102402  0.25015164  0.09176303  1
  Ca2+  Ca25  1  0.58542351  0.25676918  0.43128734  1
  Ca2+  Ca26  1  0.57863258  0.24363729  0.73130378  1
  Ca2+  Ca27  1  0.57750405  0.74586835  0.08002288  1
  Ca2+  Ca28  1  0.57930707  0.75313595  0.42283340  1
  Ca2+  Ca29  1  0.57391094  0.74665283  0.74547713  1
  Ca2+  Ca30  1  0.90414918  0.25754540  0.08897844  1
  Ca2+  Ca31  1  0.92238569  0.25489325  0.42007613  1
  Ca2+  Ca32  1  0.91619474  0.24794973  0.74089163  1
  Ca2+  Ca33  1  0.90798667  0.75087398  0.08755195  1
  Ca2+  Ca34  1  0.91945331  0.75262272  0.40256870  1
  Ca2+  Ca35  1  0.91706113  0.75340499  0.76047006  1
  Ca2+  Ca36  1  0.25153340  0.10011408  0.76359493  1
  Ca2+  Ca37  1  0.24721905  0.59821087  0.76320258  1
  Ca2+  Ca38  1  0.23805840  0.08068735  0.42330207  1
  Ca2+  Ca39  1  0.06633697  0.59577209  0.26634173  1
  Ca2+  Ca40  1  0.57454010  0.09517316  0.07781705  1
  Ca2+  Ca41  1  0.07816147  0.08467231  0.26686497  1
  Ca2+  Ca42  1  0.58188618  0.60448203  0.07670408  1
  Ca2+  Ca43  1  0.09923573  0.09589684  0.91045587  1
  Ca2+  Ca44  1  0.73455367  0.09365982  0.59203064  1
  Ca2+  Ca45  1  0.43008197  0.59953853  0.24221372  1
  Ca2+  Ca46  1  0.22610400  0.08371034  0.42400772  1
  Ca2+  Ca47  1  0.73437865  0.09215559  0.90308237  1
  Ca2+  Ca48  1  0.41511199  0.60649011  0.57718336  1
  Ca2+  Ca49  1  0.41781611  0.60094270  0.91238660  1
  Ca2+  Ca50  1  0.24894775  0.09201382  0.07761525  1
  Ca2+  Ca51  1  0.92474388  0.59735456  0.41368589  1
  Ca2+  Ca52  1  0.74581259  0.59301601  0.58248118  1
  Ca2+  Ca53  1  0.41392482  0.09706030  0.90782776  1
  Ca2+  Ca54  1  0.09475869  0.59856513  0.57654337  1
  Ca2+  Ca55  1  0.93336675  0.08709644  0.42333654  1
  Ca2+  Ca56  1  0.76322404  0.09245465  0.25012170  1
  Ca2+  Ca57  1  0.74304430  0.59608036  0.92649948  1
  Ca2+  Ca58  1  0.41957533  0.59784736  0.24410152  1
  Ca2+  Ca59  1  0.26066237  0.09185450  0.07845742  1
  Ca2+  Ca60  1  0.41481358  0.09368784  0.24623024  1
  Ca2+  Ca61  1  0.40292783  0.09871923  0.90919790  1
  Ca2+  Ca62  1  0.75377253  0.60319205  0.23828594  1
  Ca2+  Ca63  1  0.75007623  0.09185072  0.24963677  1
  Ca2+  Ca64  1  0.92261355  0.08784446  0.08808222  1
  Ca2+  Ca65  1  0.74723823  0.09136558  0.90298529  1
  Ca2+  Ca66  1  0.89740867  0.60432212  0.08710904  1
  Ca2+  Ca67  1  0.57273194  0.60362013  0.42372136  1
  Ca2+  Ca68  1  0.93478935  0.59948412  0.41639578  1
  Ca2+  Ca69  1  0.93402778  0.58929769  0.76496473  1
  Ca2+  Ca70  1  0.26955278  0.59560717  0.06628077  1
  Ca2+  Ca71  1  0.07671269  0.59383814  0.26956321  1
  Ca2+  Ca72  1  0.40052133  0.40811005  0.24974690  1
  Ca2+  Ca73  1  0.41970639  0.90267695  0.91755155  1
  Ca2+  Ca74  1  0.08255911  0.91083233  0.57547202  1
  Ca2+  Ca75  1  0.57591443  0.40670823  0.75528678  1
  Ca2+  Ca76  1  0.92402117  0.90097404  0.09306769  1
  Ca2+  Ca77  1  0.74073685  0.41200269  0.91068672  1
  Ca2+  Ca78  1  0.24291310  0.40800109  0.42108236  1
  Ca2+  Ca79  1  0.92987508  0.41454487  0.75044235  1
  Ca2+  Ca80  1  0.08722276  0.40815592  0.25491140  1
  Ca2+  Ca81  1  0.75338880  0.41347365  0.91272587  1
  Ca2+  Ca82  1  0.58590473  0.90541045  0.75156064  1
  Ca2+  Ca83  1  0.42357704  0.90189013  0.24137936  1
  Ca2+  Ca84  1  0.42702475  0.90798077  0.57984815  1
  Ca2+  Ca85  1  0.25156650  0.40794767  0.08730197  1
  Ca2+  Ca86  1  0.25810042  0.90694696  0.75342311  1
  Ca2+  Ca87  1  0.08308319  0.41394351  0.90551123  1
  Ca2+  Ca88  1  0.24267332  0.90266930  0.08389072  1
  Ca2+  Ca89  1  0.41214485  0.40861381  0.25011609  1
  Ca2+  Ca90  1  0.91307433  0.90561777  0.41981585  1
  Ca2+  Ca91  1  0.91089857  0.40940745  0.41942630  1
  Ca2+  Ca92  1  0.75203909  0.89968882  0.91113429  1
  Ca2+  Ca93  1  0.41236083  0.90236007  0.24164661  1
  Ca2+  Ca94  1  0.75223987  0.41139041  0.26953645  1
  Ca2+  Ca95  1  0.57275669  0.41111366  0.07822072  1
  Ca2+  Ca96  1  0.24417985  0.91127240  0.42129198  1
  Ca2+  Ca97  1  0.41840135  0.40841240  0.90679431  1
  Ca2+  Ca98  1  0.58428315  0.41127109  0.07906525  1
  Ca2+  Ca99  1  0.41653476  0.91033770  0.58181680  1
  Ca2+  Ca100  1  0.23219029  0.90947869  0.42305587  1
  Ca2+  Ca101  1  0.91791617  0.40682659  0.08604954  1
  Ca2+  Ca102  1  0.91801656  0.41334622  0.75157720  1
  Ca2+  Ca103  1  0.91333433  0.90210568  0.75535770  1
  Ca2+  Ca104  1  0.08766541  0.41154868  0.58554424  1
  Ca2+  Ca105  1  0.09548818  0.41352464  0.90221726  1
  Ca2+  Ca106  1  0.75126549  0.40701045  0.56750103  1
  Ca2+  Ca107  1  0.24668050  0.90675986  0.75343092  1
  Mn3.34+  Mn108  1  0.08396254  0.32531512  0.08425341  1
  Mn3.34+  Mn109  1  0.08335025  0.33184103  0.42131911  1
  Mn3.34+  Mn110  1  0.08903214  0.33377920  0.74518194  1
  Mn3.34+  Mn111  1  0.08156933  0.83556028  0.08437615  1
  Mn3.34+  Mn112  1  0.07848600  0.83785033  0.41658554  1
  Mn3.34+  Mn113  1  0.08096728  0.82832205  0.75112999  1
  Mn3.34+  Mn114  1  0.41526700  0.33269316  0.08073355  1
  Mn3.34+  Mn115  1  0.41765927  0.33382819  0.42483116  1
  Mn3.34+  Mn116  1  0.41371797  0.33466933  0.74505940  1
  Mn3.34+  Mn117  1  0.42018314  0.82883022  0.07996762  1
  Mn3.34+  Mn118  1  0.41899239  0.82879788  0.41578052  1
  Mn3.34+  Mn119  1  0.42003523  0.83060477  0.75300302  1
  Mn3.34+  Mn120  1  0.74985387  0.33191935  0.08633418  1
  Mn3.34+  Mn121  1  0.74851853  0.33831061  0.41958093  1
  Mn3.34+  Mn122  1  0.74758258  0.33003542  0.74663362  1
  Mn3.34+  Mn123  1  0.74729694  0.83133748  0.08545983  1
  Mn3.34+  Mn124  1  0.74740890  0.83668687  0.41582072  1
  Mn3.34+  Mn125  1  0.74977579  0.83547633  0.74848883  1
  Mn3.34+  Mn126  1  0.24817493  0.33512300  0.24865019  1
  Mn3.34+  Mn127  1  0.25576400  0.33894284  0.58589075  1
  Mn3.34+  Mn128  1  0.25202866  0.33235960  0.91359483  1
  Mn3.34+  Mn129  1  0.24325283  0.83329247  0.24809253  1
  Mn3.34+  Mn130  1  0.24934323  0.83151663  0.58248278  1
  Mn3.34+  Mn131  1  0.24680105  0.82938603  0.91815187  1
  Mn3.34+  Mn132  1  0.58347050  0.33521104  0.25577521  1
  Mn3.34+  Mn133  1  0.58079988  0.33208709  0.58236975  1
  Mn3.34+  Mn134  1  0.58070963  0.33386304  0.91260572  1
  Mn3.34+  Mn135  1  0.59307546  0.83054758  0.24920850  1
  Mn3.34+  Mn136  1  0.58791415  0.83269258  0.57948793  1
  Mn3.34+  Mn137  1  0.58537177  0.83013681  0.91818839  1
  Mn3.34+  Mn138  1  0.91809769  0.33245150  0.25128396  1
  Mn3.34+  Mn139  1  0.91586101  0.33076862  0.58193243  1
  Mn3.34+  Mn140  1  0.91859886  0.33187911  0.91563624  1
  Mn3.34+  Mn141  1  0.91261445  0.83119314  0.24956745  1
  Mn3.34+  Mn142  1  0.91328631  0.83415928  0.58241327  1
  Mn3.34+  Mn143  1  0.91897783  0.83025121  0.91910932  1
  Mn3.34+  Mn144  1  0.58252447  0.17083397  0.91143926  1
  Mn3.34+  Mn145  1  0.75199130  0.16848912  0.42197448  1
  Mn3.34+  Mn146  1  0.42364805  0.16786830  0.74636400  1
  Mn3.34+  Mn147  1  0.25141696  0.16817303  0.25292701  1
  Mn3.34+  Mn148  1  0.91314287  0.16806350  0.91179943  1
  Mn3.34+  Mn149  1  0.24561893  0.16595965  0.58781670  1
  Mn3.34+  Mn150  1  0.07920701  0.16596815  0.42164653  1
  Mn3.34+  Mn151  1  0.91282440  0.66203210  0.91563325  1
  Mn3.34+  Mn152  1  0.24489690  0.66844366  0.25451366  1
  Mn3.34+  Mn153  1  0.92161056  0.15978389  0.58823693  1
  Mn3.34+  Mn154  1  0.58212120  0.16854374  0.24622917  1
  Mn3.34+  Mn155  1  0.42032364  0.16856637  0.42317307  1
  Mn3.34+  Mn156  1  0.74888645  0.16842083  0.08312416  1
  Mn3.34+  Mn157  1  0.08188493  0.16990537  0.74907616  1
  Mn3.34+  Mn158  1  0.74155827  0.16372798  0.42220468  1
  Mn3.34+  Mn159  1  0.91819822  0.17166629  0.25205039  1
  Mn3.34+  Mn160  1  0.43133868  0.16208909  0.42293168  1
  Mn3.34+  Mn161  1  0.74235440  0.66282337  0.41958247  1
  Mn3.34+  Mn162  1  0.42087600  0.66313403  0.74927643  1
  Mn3.34+  Mn163  1  0.75083130  0.66839686  0.74910183  1
  Mn3.34+  Mn164  1  0.74604712  0.16630743  0.74109569  1
  Mn3.34+  Mn165  1  0.74034596  0.66422857  0.74752630  1
  Mn3.34+  Mn166  1  0.25205252  0.66620887  0.57772841  1
  Mn3.34+  Mn167  1  0.08335386  0.17627307  0.08386387  1
  Mn3.34+  Mn168  1  0.57993395  0.66138475  0.91899786  1
  Mn3.34+  Mn169  1  0.41744484  0.16742099  0.08414202  1
  Mn3.34+  Mn170  1  0.09053295  0.66611166  0.07468220  1
  Mn3.34+  Mn171  1  0.08358756  0.17625992  0.08369815  1
  Mn3.34+  Mn172  1  0.92235217  0.67093764  0.58645002  1
  Mn3.34+  Mn173  1  0.07802671  0.67049326  0.07851191  1
  Mn3.34+  Mn174  1  0.08529711  0.65769428  0.75464353  1
  Mn3.34+  Mn175  1  0.92131415  0.17465937  0.91207766  1
  Mn3.34+  Mn176  1  0.75457164  0.66761228  0.41589208  1
  Mn3.34+  Mn177  1  0.25411593  0.15959772  0.58817772  1
  Mn3.34+  Mn178  1  0.58370170  0.66889501  0.24561762  1
  Mn3.34+  Mn179  1  0.25684194  0.66102007  0.25666424  1
  Mn3.34+  Mn180  1  0.74323207  -0.00527834  0.08520624  1
  Mn3.34+  Mn181  1  0.42208704  0.00099400  0.41783947  1
  Mn3.34+  Mn182  1  0.74698253  -0.00351029  0.41788735  1
  Mn3.34+  Mn183  1  0.57995284  0.00036327  0.24946207  1
  Mn3.34+  Mn184  1  0.74731733  0.50515291  0.08092263  1
  Mn3.34+  Mn185  1  0.58012845  -0.00198482  0.91583516  1
  Mn3.34+  Mn186  1  0.08751749  0.00426095  0.74679945  1
  Mn3.34+  Mn187  1  0.24726993  -0.00102833  0.91955330  1
  Mn3.34+  Mn188  1  0.59399503  0.50182463  0.26209929  1
  Mn3.34+  Mn189  1  0.57155928  0.49780146  0.58246874  1
  Mn3.34+  Mn190  1  0.92018575  -0.00456401  0.26456812  1
  Mn3.34+  Mn191  1  0.08652060  0.49681257  0.08047169  1
  Mn3.34+  Mn192  1  0.07196639  0.50280778  0.08037360  1
  Mn3.34+  Mn193  1  0.41393724  0.50069334  0.74527268  1
  Mn3.34+  Mn194  1  0.92346870  0.50176898  0.59343417  1
  Mn3.34+  Mn195  1  0.41949049  0.49793940  0.41891463  1
  Mn3.34+  Mn196  1  0.92566810  -0.00321662  0.91783738  1
  Mn3.34+  Mn197  1  0.40733431  0.50491443  0.41798902  1
  Mn3.34+  Mn198  1  0.09310588  0.49975024  0.40980590  1
  Mn3.34+  Mn199  1  0.24698900  0.50227516  0.60127016  1
  Mn3.34+  Mn200  1  0.91279171  -0.00038094  0.58732234  1
  Mn3.34+  Mn201  1  0.58530681  0.00424106  0.59205580  1
  Mn3.34+  Mn202  1  0.07669604  -0.00026945  0.74716290  1
  Mn3.34+  Mn203  1  0.41982928  0.50303760  0.07207332  1
  Mn3.34+  Mn204  1  0.41583272  0.00257086  0.73779205  1
  Mn3.34+  Mn205  1  0.58746032  0.50031421  0.58248917  1
  Mn3.34+  Mn206  1  0.42145017  -0.00174323  0.07984309  1
  Mn3.34+  Mn207  1  0.90932796  0.50158512  0.25663206  1
  Mn3.34+  Mn208  1  0.24216879  -0.00011458  0.25465507  1
  Mn3.34+  Mn209  1  0.08268620  -0.00285875  0.07975781  1
  Mn3.34+  Mn210  1  0.74913519  0.50088550  0.74878718  1
  Mn3.34+  Mn211  1  0.25441686  0.50342305  0.91497962  1
  Mn3.34+  Mn212  1  0.75786444  0.50028945  0.08197617  1
  Mn3.34+  Mn213  1  0.59320797  -0.00621808  0.24912978  1
  Mn3.34+  Mn214  1  0.75211201  -0.00034406  0.73867099  1
  Mn3.34+  Mn215  1  0.75420546  -0.00048165  0.08632999  1
  O2-  O216  1  -0.00238733  0.16923733  0.00058834  1
  O2-  O217  1  0.00066732  0.16788426  0.33266458  1
  O2-  O218  1  -0.00033812  0.18131421  0.66615268  1
  O2-  O219  1  -0.00479306  0.66513022  -0.00106888  1
  O2-  O220  1  0.00132158  0.65738475  0.33557310  1
  O2-  O221  1  0.00400742  0.67672167  0.66924241  1
  O2-  O222  1  0.33526278  0.15750680  0.00473594  1
  O2-  O223  1  0.33769551  0.16076372  0.33941978  1
  O2-  O224  1  0.33139671  0.17001524  0.67323325  1
  O2-  O225  1  0.33446756  0.66616145  -0.00055523  1
  O2-  O226  1  0.34185630  0.66847772  0.32947639  1
  O2-  O227  1  0.33167827  0.66341774  0.66839203  1
  O2-  O228  1  0.66638390  0.16596138  -0.00642945  1
  O2-  O229  1  0.67356406  0.16196599  0.32310465  1
  O2-  O230  1  0.67091918  0.16741793  0.66455031  1
  O2-  O231  1  0.66380488  0.66855465  -0.00361857  1
  O2-  O232  1  0.66493107  0.66184175  0.33179534  1
  O2-  O233  1  0.67261157  0.66654539  0.66078707  1
  O2-  O234  1  0.17138109  0.16378841  0.00398372  1
  O2-  O235  1  0.16771775  0.16140402  0.33805251  1
  O2-  O236  1  0.16607983  0.17120749  0.67063673  1
  O2-  O237  1  0.17301198  0.66726640  0.00530717  1
  O2-  O238  1  0.16011550  0.66790314  0.32912067  1
  O2-  O239  1  0.16372191  0.66968804  0.66943518  1
  O2-  O240  1  0.49960970  0.16538922  -0.00235653  1
  O2-  O241  1  0.49739147  0.16445474  0.32496682  1
  O2-  O242  1  0.49876549  0.17300717  0.66990866  1
  O2-  O243  1  0.49958308  0.66477713  -0.00346578  1
  O2-  O244  1  0.49949939  0.66272321  0.32502711  1
  O2-  O245  1  0.49252246  0.66841217  0.66524854  1
  O2-  O246  1  0.83360545  0.16518142  -0.00055898  1
  O2-  O247  1  0.82942542  0.16425369  0.33284064  1
  O2-  O248  1  0.83275656  0.17449069  0.66172023  1
  O2-  O249  1  0.83426084  0.66812575  -0.00431531  1
  O2-  O250  1  0.83566808  0.66015931  0.33840587  1
  O2-  O251  1  0.83482736  0.66653310  0.66685787  1
  O2-  O252  1  -0.00021423  0.32493611  0.00091314  1
  O2-  O253  1  0.00111694  0.33014120  0.33301504  1
  O2-  O254  1  -0.00367538  0.33341955  0.66869413  1
  O2-  O255  1  -0.00365320  0.83108562  0.00467130  1
  O2-  O256  1  -0.00190540  0.82606008  0.33638713  1
  O2-  O257  1  0.00034007  0.82272236  0.66537517  1
  O2-  O258  1  0.33052150  0.33769800  0.00005563  1
  O2-  O259  1  0.33497470  0.33768445  0.32956419  1
  O2-  O260  1  0.33193120  0.31930884  0.66627841  1
  O2-  O261  1  0.33246405  0.83863889  0.00050254  1
  O2-  O262  1  0.33336448  0.83589767  0.33402230  1
  O2-  O263  1  0.33419459  0.84368213  0.66681486  1
  O2-  O264  1  0.66437736  0.33447773  -0.00167758  1
  O2-  O265  1  0.67288239  0.33203358  0.32937228  1
  O2-  O266  1  0.66624155  0.33709672  0.66630846  1
  O2-  O267  1  0.67190847  0.82566353  -0.00295743  1
  O2-  O268  1  0.66670863  0.82552194  0.33427921  1
  O2-  O269  1  0.66155224  0.83235916  0.67121095  1
  O2-  O270  1  0.16436535  0.33310608  -0.00132064  1
  O2-  O271  1  0.16582809  0.33654986  0.33344753  1
  O2-  O272  1  0.16503647  0.32537610  0.65858954  1
  O2-  O273  1  0.16994133  0.83226649  0.00516852  1
  O2-  O274  1  0.17054015  0.82925538  0.34245032  1
  O2-  O275  1  0.16866836  0.83572549  0.66946874  1
  O2-  O276  1  0.50641938  0.33444451  0.00429240  1
  O2-  O277  1  0.48887552  0.33620908  0.32519433  1
  O2-  O278  1  0.50476140  0.33259557  0.67249178  1
  O2-  O279  1  0.49664638  0.83353190  -0.00536935  1
  O2-  O280  1  0.49262233  0.83070607  0.32584868  1
  O2-  O281  1  0.49610599  0.84023913  0.66377389  1
  O2-  O282  1  0.83189046  0.33391819  -0.00391096  1
  O2-  O283  1  0.83431536  0.32815226  0.33235289  1
  O2-  O284  1  0.83881044  0.33402961  0.67044123  1
  O2-  O285  1  0.83204000  0.82914699  0.00043573  1
  O2-  O286  1  0.83753495  0.83162516  0.33851998  1
  O2-  O287  1  0.83748598  0.82559513  0.67032844  1
  O2-  O288  1  -0.00228658  0.17591087  0.16662620  1
  O2-  O289  1  -0.00541454  0.17673744  0.49885221  1
  O2-  O290  1  0.00302049  0.17458609  0.83227117  1
  O2-  O291  1  0.00790899  0.66546327  0.16398485  1
  O2-  O292  1  -0.00538588  0.67516811  0.50176389  1
  O2-  O293  1  -0.00209965  0.67608861  0.82550036  1
  O2-  O294  1  0.33194541  0.16576482  0.16362510  1
  O2-  O295  1  0.32765868  0.17429467  0.49701968  1
  O2-  O296  1  0.34143491  0.16574137  0.83321981  1
  O2-  O297  1  0.33182747  0.66613413  0.17113908  1
  O2-  O298  1  0.33582734  0.67646591  0.50618743  1
  O2-  O299  1  0.33846927  0.66841123  0.82760971  1
  O2-  O300  1  0.66844272  0.16498972  0.16835664  1
  O2-  O301  1  0.66821080  0.17064493  0.50442820  1
  O2-  O302  1  0.67376701  0.17319518  0.83945141  1
  O2-  O303  1  0.66445813  0.67084057  0.17004228  1
  O2-  O304  1  0.66791787  0.66793255  0.49907754  1
  O2-  O305  1  0.66932619  0.66997103  0.83674955  1
  O2-  O306  1  0.16884447  0.16954507  0.16625542  1
  O2-  O307  1  0.17055196  0.17550908  0.49736512  1
  O2-  O308  1  0.16119044  0.16791399  0.83028362  1
  O2-  O309  1  0.16591266  0.66535721  0.16972908  1
  O2-  O310  1  0.16618324  0.67551810  0.50649669  1
  O2-  O311  1  0.16163328  0.67891223  0.82303830  1
  O2-  O312  1  0.49999653  0.16738084  0.16300212  1
  O2-  O313  1  0.50371382  0.17440693  0.50360393  1
  O2-  O314  1  0.49526813  0.17248248  0.83965427  1
  O2-  O315  1  0.49956980  0.66636995  0.17090426  1
  O2-  O316  1  0.49731076  0.67430008  0.49658447  1
  O2-  O317  1  0.49757491  0.67205212  0.83402950  1
  O2-  O318  1  0.83433248  0.17161993  0.17113189  1
  O2-  O319  1  0.83818291  0.17366066  0.50169716  1
  O2-  O320  1  0.82556363  0.17193970  0.83577185  1
  O2-  O321  1  0.83174615  0.67351709  0.16432458  1
  O2-  O322  1  0.83526150  0.67083696  0.50218596  1
  O2-  O323  1  0.83097874  0.66967467  0.82869511  1
  O2-  O324  1  -0.00082001  0.31802409  0.16647332  1
  O2-  O325  1  -0.00033771  0.32574079  0.50133155  1
  O2-  O326  1  -0.00051214  0.32836905  0.83448511  1
  O2-  O327  1  -0.00360392  0.82863390  0.16385793  1
  O2-  O328  1  0.00211687  0.82065564  0.50006686  1
  O2-  O329  1  -0.00296359  0.82347211  0.82981466  1
  O2-  O330  1  0.33615948  0.33303130  0.16891110  1
  O2-  O331  1  0.32655826  0.32238197  0.49582209  1
  O2-  O332  1  0.33782161  0.33008858  0.83760582  1
  O2-  O333  1  0.33510624  0.83504821  0.17067809  1
  O2-  O334  1  0.33221678  0.83057326  0.49716406  1
  O2-  O335  1  0.33118901  0.83623331  0.82887183  1
  O2-  O336  1  0.66058313  0.33587939  0.16361955  1
  O2-  O337  1  0.67095369  0.32788436  0.50378911  1
  O2-  O338  1  0.67174630  0.32853267  0.83930269  1
  O2-  O339  1  0.66699491  0.81623395  0.16410442  1
  O2-  O340  1  0.66655139  0.82391310  0.49775529  1
  O2-  O341  1  0.66774871  0.83327795  0.83266311  1
  O2-  O342  1  0.16725541  0.32520405  0.16553125  1
  O2-  O343  1  0.16775422  0.32671048  0.50080083  1
  O2-  O344  1  0.15997881  0.33339156  0.84007609  1
  O2-  O345  1  0.17015718  0.82859730  0.16250533  1
  O2-  O346  1  0.16731922  0.82761273  0.49637960  1
  O2-  O347  1  0.17286159  0.82760873  0.82609705  1
  O2-  O348  1  0.50010896  0.33742132  0.16563752  1
  O2-  O349  1  0.50128647  0.32287308  0.49916588  1
  O2-  O350  1  0.49985319  0.32630748  0.83545286  1
  O2-  O351  1  0.49213533  0.83148229  0.17190485  1
  O2-  O352  1  0.49220338  0.82780024  0.50509108  1
  O2-  O353  1  0.50081823  0.83422259  0.83258043  1
  O2-  O354  1  0.83599408  0.32621826  0.16903669  1
  O2-  O355  1  0.83476877  0.32472963  0.50035566  1
  O2-  O356  1  0.83298212  0.32981218  0.83522141  1
  O2-  O357  1  0.83548826  0.82309539  0.16101744  1
  O2-  O358  1  0.83853245  0.82166913  0.49796827  1
  O2-  O359  1  0.83310058  0.83271299  0.83243117  1
  O2-  O360  1  0.08503022  0.08004749  0.10710170  1
  O2-  O361  1  0.08967750  0.08378111  0.42302437  1
  O2-  O362  1  0.08442587  0.08542247  0.76562770  1
  O2-  O363  1  0.08645875  0.58199200  0.10253523  1
  O2-  O364  1  0.06818144  0.57725330  0.43337541  1
  O2-  O365  1  0.08187371  0.58080701  0.75436105  1
  O2-  O366  1  0.41302237  0.08139570  0.10089983  1
  O2-  O367  1  0.40356090  0.08205359  0.42695100  1
  O2-  O368  1  0.41281462  0.08092787  0.77192088  1
  O2-  O369  1  0.41306328  0.57759381  0.10816246  1
  O2-  O370  1  0.42414717  0.58317732  0.43101198  1
  O2-  O371  1  0.41039964  0.57917781  0.76859133  1
  O2-  O372  1  0.75333797  0.08261634  0.10318323  1
  O2-  O373  1  0.75686286  0.08059714  0.43259788  1
  O2-  O374  1  0.75071317  0.08033173  0.77012852  1
  O2-  O375  1  0.75039226  0.58510686  0.09799673  1
  O2-  O376  1  0.75641309  0.58025082  0.43605260  1
  O2-  O377  1  0.75668797  0.58217829  0.76454733  1
  O2-  O378  1  0.25056547  0.08169839  0.22858703  1
  O2-  O379  1  0.25011227  0.07617760  0.55468061  1
  O2-  O380  1  0.25681691  0.08009783  0.90341810  1
  O2-  O381  1  0.24911594  0.58074907  0.23119579  1
  O2-  O382  1  0.25074857  0.57958300  0.56882028  1
  O2-  O383  1  0.26265556  0.57996269  0.90070035  1
  O2-  O384  1  0.58896796  0.08224848  0.23069680  1
  O2-  O385  1  0.59201332  0.07578177  0.56483113  1
  O2-  O386  1  0.59158351  0.08082092  0.90311414  1
  O2-  O387  1  0.57542667  0.58082183  0.23440671  1
  O2-  O388  1  0.58483745  0.58033409  0.56179294  1
  O2-  O389  1  0.58466947  0.58309143  0.91415372  1
  O2-  O390  1  0.90642489  0.07613698  0.22663977  1
  O2-  O391  1  0.90778969  0.07742909  0.55819893  1
  O2-  O392  1  0.90949983  0.08050703  0.90339826  1
  O2-  O393  1  0.92760543  0.57875624  0.23100498  1
  O2-  O394  1  0.91591599  0.57979747  0.55858451  1
  O2-  O395  1  0.90460965  0.58386847  0.89990422  1
  O2-  O396  1  0.08159081  0.41489816  0.09849255  1
  O2-  O397  1  0.08268691  0.41746515  0.43196893  1
  O2-  O398  1  0.06573879  0.41996872  0.77154096  1
  O2-  O399  1  0.08481023  0.91772836  0.09379067  1
  O2-  O400  1  0.09576422  0.92151162  0.43792316  1
  O2-  O401  1  0.08545514  0.91720999  0.75866364  1
  O2-  O402  1  0.42216744  0.42141035  0.10190141  1
  O2-  O403  1  0.40970886  0.41746008  0.41936348  1
  O2-  O404  1  0.42816948  0.41993372  0.77102339  1
  O2-  O405  1  0.40965414  0.91817893  0.10244645  1
  O2-  O406  1  0.40470943  0.92018178  0.43627597  1
  O2-  O407  1  0.41290484  0.92041008  0.76382708  1
  O2-  O408  1  0.74802354  0.41730804  0.09461985  1
  O2-  O409  1  0.76344413  0.41833888  0.42682840  1
  O2-  O410  1  0.75524927  0.41793485  0.77255697  1
  O2-  O411  1  0.75671698  0.91430742  0.08894471  1
  O2-  O412  1  0.76319217  0.91716099  0.42818629  1
  O2-  O413  1  0.75178833  0.92064086  0.76701423  1
  O2-  O414  1  0.26030275  0.41806284  0.23217476  1
  O2-  O415  1  0.24076974  0.42667766  0.56010369  1
  O2-  O416  1  0.23452227  0.41911068  0.90859198  1
  O2-  O417  1  0.26138686  0.91829763  0.24137379  1
  O2-  O418  1  0.25451945  0.91756400  0.56010837  1
  O2-  O419  1  0.25610015  0.91841010  0.89580709  1
  O2-  O420  1  0.57778741  0.42259561  0.22882306  1
  O2-  O421  1  0.59035592  0.41636342  0.57753461  1
  O2-  O422  1  0.59828259  0.42001686  0.90342546  1
  O2-  O423  1  0.57120351  0.91342721  0.23979228  1
  O2-  O424  1  0.56382095  0.92182377  0.57154346  1
  O2-  O425  1  0.58380482  0.91730589  0.90024154  1
  O2-  O426  1  0.91840858  0.42033700  0.23159411  1
  O2-  O427  1  0.91777468  0.42044338  0.56967931  1
  O2-  O428  1  0.91578041  0.42216907  0.88580138  1
  O2-  O429  1  0.91608508  0.91835080  0.23621229  1
  O2-  O430  1  0.92938640  0.92013503  0.56542742  1
  O2-  O431  1  0.90944845  0.91593951  0.90250041  1
  O2-  O432  1  -0.00452581  0.00877935  0.00900422  1
  O2-  O433  1  -0.00155187  0.00942471  0.33368037  1
  O2-  O434  1  -0.00074321  -0.00142849  0.66429046  1
  O2-  O435  1  -0.00200630  0.49296378  -0.00274395  1
  O2-  O436  1  -0.00096164  0.50425472  0.33354140  1
  O2-  O437  1  -0.00403003  0.49627162  0.67221792  1
  O2-  O438  1  0.33185503  0.00817314  0.00334428  1
  O2-  O439  1  0.33247484  0.00268916  0.33599441  1
  O2-  O440  1  0.32940156  -0.00962568  0.67756804  1
  O2-  O441  1  0.33085860  0.49826030  0.00403969  1
  O2-  O442  1  0.34006101  0.49848431  0.32473767  1
  O2-  O443  1  0.33400863  0.50624620  0.66467591  1
  O2-  O444  1  0.67041671  0.00943491  -0.00678260  1
  O2-  O445  1  0.67522593  0.01113002  0.32684670  1
  O2-  O446  1  0.66624588  0.00181099  0.66653688  1
  O2-  O447  1  0.66482136  0.49346923  0.00108971  1
  O2-  O448  1  0.67738522  0.50491173  0.32286194  1
  O2-  O449  1  0.67034938  0.49968275  0.66116085  1
  O2-  O450  1  0.17398765  0.01094013  0.01095710  1
  O2-  O451  1  0.17642305  0.00550703  0.34636548  1
  O2-  O452  1  0.17558189  -0.00422583  0.67627550  1
  O2-  O453  1  0.16858738  0.49897092  -0.00179379  1
  O2-  O454  1  0.15598713  0.50264595  0.32352299  1
  O2-  O455  1  0.15855597  0.50339471  0.65563138  1
  O2-  O456  1  0.49459266  0.01079655  -0.00876441  1
  O2-  O457  1  0.49100132  0.00131979  0.32305404  1
  O2-  O458  1  0.49738072  -0.00574878  0.66166233  1
  O2-  O459  1  0.50814177  0.49314415  0.01229423  1
  O2-  O460  1  0.49853219  0.50125180  0.32763498  1
  O2-  O461  1  0.50144016  0.50137042  0.66849146  1
  O2-  O462  1  0.83123206  0.00559138  -0.00425796  1
  O2-  O463  1  0.83162008  0.01121193  0.33301687  1
  O2-  O464  1  0.83473662  0.00259059  0.66727374  1
  O2-  O465  1  0.83064892  0.49362599  -0.00560265  1
  O2-  O466  1  0.83778136  0.50494335  0.33403007  1
  O2-  O467  1  0.83561405  0.49781017  0.66841957  1
  O2-  O468  1  0.58443420  0.25326354  0.58607144  1
  O2-  O469  1  0.57889585  0.75021649  0.25402284  1
  O2-  O470  1  0.25052869  0.75077361  0.58878991  1
  O2-  O471  1  0.75196242  0.24881300  0.75062283  1
  O2-  O472  1  0.41446325  0.75080887  0.08257374  1
  O2-  O473  1  0.91594431  0.74897321  0.91633669  1
  O2-  O474  1  0.41468724  0.75025750  0.74578431  1
  O2-  O475  1  0.25061276  0.74985389  0.25067375  1
  O2-  O476  1  0.08371765  0.75299799  0.08459620  1
  O2-  O477  1  0.58338025  0.75041094  0.91516234  1
  O2-  O478  1  0.74864510  0.25017552  0.08105705  1
  O2-  O479  1  0.41643053  0.25083996  0.75137476  1
  O2-  O480  1  0.58404239  0.25018320  0.24639975  1
  O2-  O481  1  0.74887609  0.25097093  0.41072904  1
  O2-  O482  1  0.41672462  0.24875222  0.08430679  1
  O2-  O483  1  0.25218621  0.25104512  0.25512095  1
  O2-  O484  1  0.25080894  0.25280340  0.91880291  1
  O2-  O485  1  0.41512445  0.25011174  0.40740353  1
  O2-  O486  1  0.75115680  0.75102748  0.75010525  1
  O2-  O487  1  0.58265369  0.75359218  0.58474406  1
  O2-  O488  1  0.25192684  0.75126464  0.92067720  1
  O2-  O489  1  0.75024510  0.74993180  0.41314896  1
  O2-  O490  1  0.08499936  0.24959434  0.41090173  1
  O2-  O491  1  0.91637441  0.75153363  0.25150344  1
  O2-  O492  1  0.08284909  0.25161580  0.75183657  1
