# generated using pymatgen
data_Ca108Mn108O277
_symmetry_space_group_name_H-M   'P 1'
_cell_length_a   16.03354446
_cell_length_b   22.31358192
_cell_length_c   16.39334468
_cell_angle_alpha   90.00112857
_cell_angle_beta   90.00065219
_cell_angle_gamma   89.99725088
_symmetry_Int_Tables_number   1
_chemical_formula_structural   Ca108Mn108O277
_chemical_formula_sum   'Ca108 Mn108 O277'
_cell_volume   5864.97819563
_cell_formula_units_Z   1
loop_
 _symmetry_equiv_pos_site_id
 _symmetry_equiv_pos_as_xyz
  1  'x, y, z'
loop_
 _atom_type_symbol
 _atom_type_oxidation_number
  Ca2+  2.0
  Mn3.34+  3.34
  O2-  -2.0
loop_
 _atom_site_type_symbol
 _atom_site_label
 _atom_site_symmetry_multiplicity
 _atom_site_fract_x
 _atom_site_fract_y
 _atom_site_fract_z
 _atom_site_occupancy
  Ca2+  Ca0  1  0.09635017  0.25031817  0.23961408  1
  Ca2+  Ca1  1  0.07006727  0.26108333  0.58062149  1
  Ca2+  Ca2  1  0.05516552  0.25093857  0.92795581  1
  Ca2+  Ca3  1  0.07582219  0.75468440  0.24483052  1
  Ca2+  Ca4  1  0.11098193  0.74297707  0.59320395  1
  Ca2+  Ca5  1  0.10262130  0.74587452  0.91136268  1
  Ca2+  Ca6  1  0.40630899  0.24411173  0.25114003  1
  Ca2+  Ca7  1  0.43326356  0.26017842  0.57735597  1
  Ca2+  Ca8  1  0.44072530  0.25386753  0.92049647  1
  Ca2+  Ca9  1  0.44009183  0.74850392  0.24920515  1
  Ca2+  Ca10  1  0.42111610  0.72871784  0.58943403  1
  Ca2+  Ca11  1  0.40769024  0.74531554  0.90974300  1
  Ca2+  Ca12  1  0.75965381  0.26869129  0.24523046  1
  Ca2+  Ca13  1  0.74669733  0.25117396  0.59996963  1
  Ca2+  Ca14  1  0.74595277  0.25225977  0.90422059  1
  Ca2+  Ca15  1  0.73586696  0.74853486  0.23877957  1
  Ca2+  Ca16  1  0.71734410  0.73073185  0.59776901  1
  Ca2+  Ca17  1  0.74073306  0.74848588  0.91554934  1
  Ca2+  Ca18  1  0.25115066  0.25152176  0.09900458  1
  Ca2+  Ca19  1  0.26118008  0.25055331  0.40281795  1
  Ca2+  Ca20  1  0.25968884  0.26806603  0.74679957  1
  Ca2+  Ca21  1  0.25309492  0.73590691  0.05953196  1
  Ca2+  Ca22  1  0.26401244  0.74822175  0.44184944  1
  Ca2+  Ca23  1  0.25855466  0.73029550  0.75068481  1
  Ca2+  Ca24  1  0.57683416  0.25719428  0.06200619  1
  Ca2+  Ca25  1  0.57887722  0.25731994  0.42626173  1
  Ca2+  Ca26  1  0.60029569  0.26016850  0.75417602  1
  Ca2+  Ca27  1  0.58051014  0.72977468  0.08935899  1
  Ca2+  Ca28  1  0.57211717  0.74739198  0.42257571  1
  Ca2+  Ca29  1  0.57766690  0.73429766  0.74372502  1
  Ca2+  Ca30  1  0.92278597  0.24387690  0.06408563  1
  Ca2+  Ca31  1  0.91598437  0.26677192  0.42548995  1
  Ca2+  Ca32  1  0.88922657  0.25872197  0.75025199  1
  Ca2+  Ca33  1  0.90733605  0.74607733  0.08354504  1
  Ca2+  Ca34  1  0.91602345  0.76664646  0.41290018  1
  Ca2+  Ca35  1  0.91536527  0.73877481  0.76446692  1
  Ca2+  Ca36  1  0.45928303  0.58271256  0.22608904  1
  Ca2+  Ca37  1  0.08295601  0.59201967  0.23824166  1
  Ca2+  Ca38  1  0.11280424  0.09411178  0.23699604  1
  Ca2+  Ca39  1  0.24883039  0.59280544  0.06617380  1
  Ca2+  Ca40  1  0.43648146  0.11441227  0.93468168  1
  Ca2+  Ca41  1  0.07118919  0.09499899  0.58686501  1
  Ca2+  Ca42  1  0.91352144  0.09426042  0.41884960  1
  Ca2+  Ca43  1  0.13077956  0.57625901  0.58730625  1
  Ca2+  Ca44  1  0.25316620  0.58902954  0.73706516  1
  Ca2+  Ca45  1  0.10341627  0.09102973  0.23933220  1
  Ca2+  Ca46  1  0.70775825  0.59220973  0.23452868  1
  Ca2+  Ca47  1  0.71824242  0.59153300  0.23534919  1
  Ca2+  Ca48  1  0.10309382  0.60872387  0.92585451  1
  Ca2+  Ca49  1  0.72443383  0.58236436  0.91662840  1
  Ca2+  Ca50  1  0.52898777  0.10619337  0.42931396  1
  Ca2+  Ca51  1  0.73907936  0.07632758  0.27493382  1
  Ca2+  Ca52  1  0.58902805  0.58437270  0.41967283  1
  Ca2+  Ca53  1  0.54838874  0.11726770  0.07556638  1
  Ca2+  Ca54  1  0.46463528  0.58511169  0.23431830  1
  Ca2+  Ca55  1  0.94048101  0.60304898  0.08148127  1
  Ca2+  Ca56  1  0.25764035  0.07912120  0.74966285  1
  Ca2+  Ca57  1  0.88204357  0.11756648  0.77206581  1
  Ca2+  Ca58  1  0.26432369  0.58942126  0.43747448  1
  Ca2+  Ca59  1  0.94366775  0.09772749  0.06413528  1
  Ca2+  Ca60  1  0.43524275  0.58379052  0.92806421  1
  Ca2+  Ca61  1  0.74591324  0.09972121  0.58494284  1
  Ca2+  Ca62  1  0.59627808  0.58283651  0.73715605  1
  Ca2+  Ca63  1  0.42487262  0.58451634  0.92682631  1
  Ca2+  Ca64  1  0.75079922  0.07606417  0.27415167  1
  Ca2+  Ca65  1  0.39842752  0.58932455  0.58985748  1
  Ca2+  Ca66  1  0.06540522  0.10877573  0.93515976  1
  Ca2+  Ca67  1  0.10957387  0.60523151  0.91932811  1
  Ca2+  Ca68  1  0.91692845  0.56284444  0.40861681  1
  Ca2+  Ca69  1  0.26690313  0.10957320  0.09365840  1
  Ca2+  Ca70  1  0.58079006  0.58643952  0.41392365  1
  Ca2+  Ca71  1  0.61393002  0.11880651  0.76453480  1
  Ca2+  Ca72  1  0.56801173  0.43430294  0.06845755  1
  Ca2+  Ca73  1  0.77321888  0.91134896  0.25668064  1
  Ca2+  Ca74  1  0.59616426  0.41774573  0.75236590  1
  Ca2+  Ca75  1  0.42722526  0.41635294  0.92421131  1
  Ca2+  Ca76  1  0.24941651  0.42288221  0.71974134  1
  Ca2+  Ca77  1  0.25611426  0.40888388  0.42920510  1
  Ca2+  Ca78  1  0.91682757  0.40091409  0.08075807  1
  Ca2+  Ca79  1  0.74079221  0.90057785  0.57863709  1
  Ca2+  Ca80  1  0.75344435  0.89975579  0.57909190  1
  Ca2+  Ca81  1  0.74960176  0.41798341  0.58769204  1
  Ca2+  Ca82  1  0.90975186  0.89614076  0.74744605  1
  Ca2+  Ca83  1  0.73489301  0.41313352  0.90972761  1
  Ca2+  Ca84  1  0.58158634  0.91424722  0.40933957  1
  Ca2+  Ca85  1  0.40852445  0.90628621  0.25517422  1
  Ca2+  Ca86  1  0.92256907  0.89679213  0.74696371  1
  Ca2+  Ca87  1  0.58195967  0.89099316  0.08739351  1
  Ca2+  Ca88  1  0.41690260  0.41660079  0.92247393  1
  Ca2+  Ca89  1  0.10249099  0.41496715  0.27154015  1
  Ca2+  Ca90  1  0.24080491  0.90423638  0.08863306  1
  Ca2+  Ca91  1  0.92539862  0.90645373  0.08514015  1
  Ca2+  Ca92  1  0.71280817  0.42799274  0.29018801  1
  Ca2+  Ca93  1  0.26339857  0.90161135  0.75120638  1
  Ca2+  Ca94  1  0.08210825  0.91003722  0.25211181  1
  Ca2+  Ca95  1  0.09103872  0.41454839  0.27130234  1
  Ca2+  Ca96  1  0.70311009  0.43017828  0.28689589  1
  Ca2+  Ca97  1  0.09282708  0.90613092  0.91772133  1
  Ca2+  Ca98  1  0.07863655  0.41512774  0.57581175  1
  Ca2+  Ca99  1  0.42925831  0.90477855  0.58254191  1
  Ca2+  Ca100  1  0.25319486  0.90432636  0.08860619  1
  Ca2+  Ca101  1  0.57411424  0.89480344  0.75569787  1
  Ca2+  Ca102  1  0.76156632  0.90989991  0.25662119  1
  Ca2+  Ca103  1  0.24761990  0.90865776  0.40451559  1
  Ca2+  Ca104  1  0.92797903  0.39984211  0.07930051  1
  Ca2+  Ca105  1  0.42531435  0.40525150  0.24863092  1
  Ca2+  Ca106  1  0.41787579  0.90451962  0.58283594  1
  Ca2+  Ca107  1  0.08003854  0.90683471  0.91859166  1
  Mn3.34+  Mn108  1  0.09280413  0.33502757  0.07985500  1
  Mn3.34+  Mn109  1  0.08762053  0.33914636  0.42336866  1
  Mn3.34+  Mn110  1  0.07953741  0.33792961  0.75637058  1
  Mn3.34+  Mn111  1  0.08262429  0.82357404  0.08525655  1
  Mn3.34+  Mn112  1  0.08413956  0.83231305  0.42093409  1
  Mn3.34+  Mn113  1  0.08862056  0.82743850  0.74556164  1
  Mn3.34+  Mn114  1  0.41334854  0.33919936  0.08687681  1
  Mn3.34+  Mn115  1  0.42083767  0.33696175  0.41930450  1
  Mn3.34+  Mn116  1  0.41904121  0.33713872  0.74668677  1
  Mn3.34+  Mn117  1  0.41833112  0.82711753  0.07951276  1
  Mn3.34+  Mn118  1  0.41668047  0.83095371  0.41347759  1
  Mn3.34+  Mn119  1  0.41795474  0.82933687  0.75506426  1
  Mn3.34+  Mn120  1  0.74226291  0.34127951  0.08427882  1
  Mn3.34+  Mn121  1  0.74658740  0.33853791  0.42549705  1
  Mn3.34+  Mn122  1  0.75163145  0.34649600  0.74939357  1
  Mn3.34+  Mn123  1  0.75011075  0.83021493  0.07937451  1
  Mn3.34+  Mn124  1  0.75132300  0.82971335  0.41651591  1
  Mn3.34+  Mn125  1  0.74422183  0.82590699  0.75534390  1
  Mn3.34+  Mn126  1  0.25614108  0.33325571  0.24898980  1
  Mn3.34+  Mn127  1  0.24938486  0.33497941  0.57969034  1
  Mn3.34+  Mn128  1  0.24434994  0.33027294  0.91708827  1
  Mn3.34+  Mn129  1  0.24870469  0.83071447  0.25203255  1
  Mn3.34+  Mn130  1  0.25007867  0.83127317  0.58430901  1
  Mn3.34+  Mn131  1  0.25660679  0.83263557  0.91093165  1
  Mn3.34+  Mn132  1  0.57726132  0.32963884  0.24412773  1
  Mn3.34+  Mn133  1  0.58361342  0.33735769  0.58307114  1
  Mn3.34+  Mn134  1  0.58475375  0.33816555  0.91295439  1
  Mn3.34+  Mn135  1  0.58378817  0.83353929  0.25052604  1
  Mn3.34+  Mn136  1  0.58242667  0.82900049  0.58164105  1
  Mn3.34+  Mn137  1  0.58060892  0.82837386  0.91957027  1
  Mn3.34+  Mn138  1  0.91823461  0.33165493  0.25159870  1
  Mn3.34+  Mn139  1  0.91530198  0.33939947  0.58631915  1
  Mn3.34+  Mn140  1  0.91300435  0.33159152  0.90639315  1
  Mn3.34+  Mn141  1  0.91914414  0.83275548  0.24976930  1
  Mn3.34+  Mn142  1  0.92429439  0.83066751  0.57589530  1
  Mn3.34+  Mn143  1  0.91120441  0.83013530  0.91975964  1
  Mn3.34+  Mn144  1  0.76190468  0.66015048  0.42201538  1
  Mn3.34+  Mn145  1  0.74248651  0.16463153  0.07854026  1
  Mn3.34+  Mn146  1  0.75141441  0.66342929  0.07758607  1
  Mn3.34+  Mn147  1  0.08249424  0.66224312  0.75150232  1
  Mn3.34+  Mn148  1  0.90705973  0.64728253  0.59071926  1
  Mn3.34+  Mn149  1  0.90908418  0.16131533  0.24514073  1
  Mn3.34+  Mn150  1  0.74883516  0.17324736  0.42207689  1
  Mn3.34+  Mn151  1  0.42635526  0.15981029  0.74606570  1
  Mn3.34+  Mn152  1  0.91676524  0.66896302  0.24659979  1
  Mn3.34+  Mn153  1  0.91443107  0.66625859  0.91553807  1
  Mn3.34+  Mn154  1  0.24451897  0.17413421  0.91519472  1
  Mn3.34+  Mn155  1  0.41419805  0.16698654  0.74283784  1
  Mn3.34+  Mn156  1  0.41887019  0.66230624  0.41745724  1
  Mn3.34+  Mn157  1  0.26253163  0.16631652  0.25217950  1
  Mn3.34+  Mn158  1  0.07676588  0.18398945  0.74837293  1
  Mn3.34+  Mn159  1  0.26462503  0.17026010  0.56826303  1
  Mn3.34+  Mn160  1  0.75180232  0.16998759  0.07535754  1
  Mn3.34+  Mn161  1  0.26039062  0.66885289  0.25105334  1
  Mn3.34+  Mn162  1  0.58480660  0.17050315  0.58002791  1
  Mn3.34+  Mn163  1  0.91488423  0.17227177  0.57872885  1
  Mn3.34+  Mn164  1  0.41631469  0.66332664  0.08193220  1
  Mn3.34+  Mn165  1  0.08623585  0.16654840  0.41970088  1
  Mn3.34+  Mn166  1  0.41961067  0.66226042  0.75321395  1
  Mn3.34+  Mn167  1  0.07422862  0.66256699  0.42015534  1
  Mn3.34+  Mn168  1  0.08635848  0.17860174  0.74980519  1
  Mn3.34+  Mn169  1  0.92197111  0.16784857  0.24753025  1
  Mn3.34+  Mn170  1  0.74672908  0.65842598  0.75698966  1
  Mn3.34+  Mn171  1  0.75154977  0.66510859  0.41943108  1
  Mn3.34+  Mn172  1  0.25447531  0.18319815  0.91722850  1
  Mn3.34+  Mn173  1  0.25574077  0.17595551  0.57219109  1
  Mn3.34+  Mn174  1  0.91686154  0.65322441  0.58826660  1
  Mn3.34+  Mn175  1  0.57739251  0.17343258  0.24852729  1
  Mn3.34+  Mn176  1  0.58395030  0.66536651  0.91614045  1
  Mn3.34+  Mn177  1  0.24632922  0.66291097  0.25019152  1
  Mn3.34+  Mn178  1  0.08420607  0.65729739  0.42110995  1
  Mn3.34+  Mn179  1  0.58683222  0.17922677  0.24960273  1
  Mn3.34+  Mn180  1  0.56901910  -0.00660897  0.91155068  1
  Mn3.34+  Mn181  1  0.24487259  0.00112959  0.57445630  1
  Mn3.34+  Mn182  1  0.08546162  -0.00514813  0.07870157  1
  Mn3.34+  Mn183  1  0.74367333  0.49840139  0.06807130  1
  Mn3.34+  Mn184  1  0.42449221  -0.00148100  0.75215900  1
  Mn3.34+  Mn185  1  0.41565879  0.49966103  0.74146745  1
  Mn3.34+  Mn186  1  0.41403156  0.00573690  0.09955224  1
  Mn3.34+  Mn187  1  0.07303590  0.01111639  0.75428457  1
  Mn3.34+  Mn188  1  0.07933642  0.49948376  0.74302615  1
  Mn3.34+  Mn189  1  0.74281643  0.00045631  0.07325385  1
  Mn3.34+  Mn190  1  0.91384034  0.49580497  0.60263509  1
  Mn3.34+  Mn191  1  0.75516070  -0.00194136  0.41825259  1
  Mn3.34+  Mn192  1  0.24172817  0.49291281  0.91632413  1
  Mn3.34+  Mn193  1  0.56975051  0.00318173  0.24872558  1
  Mn3.34+  Mn194  1  0.91301958  0.50144008  0.23608745  1
  Mn3.34+  Mn195  1  0.25747965  0.50252850  0.24599050  1
  Mn3.34+  Mn196  1  0.40391556  0.00344018  0.40132771  1
  Mn3.34+  Mn197  1  0.92781594  0.49597822  0.90336154  1
  Mn3.34+  Mn198  1  0.58293376  0.49036917  0.59423721  1
  Mn3.34+  Mn199  1  0.58025212  0.00720901  0.58534643  1
  Mn3.34+  Mn200  1  0.58103685  0.00043612  0.90931281  1
  Mn3.34+  Mn201  1  0.41941384  0.49932847  0.41127969  1
  Mn3.34+  Mn202  1  0.42458115  0.00095908  0.09800193  1
  Mn3.34+  Mn203  1  0.91519905  -0.00055536  0.91552068  1
  Mn3.34+  Mn204  1  0.91408311  0.00338738  0.58173426  1
  Mn3.34+  Mn205  1  0.25797902  0.00819196  0.57557128  1
  Mn3.34+  Mn206  1  0.75476896  0.00232111  0.76286089  1
  Mn3.34+  Mn207  1  0.75473510  0.00780908  0.07251590  1
  Mn3.34+  Mn208  1  0.07164124  -0.00292043  0.40866451  1
  Mn3.34+  Mn209  1  0.74421157  -0.00371389  0.76205828  1
  Mn3.34+  Mn210  1  0.91495799  0.49879506  0.25216757  1
  Mn3.34+  Mn211  1  0.91610572  0.50068735  0.90188645  1
  Mn3.34+  Mn212  1  0.08598016  0.00368975  0.75462324  1
  Mn3.34+  Mn213  1  0.08858362  0.49685527  0.07903708  1
  Mn3.34+  Mn214  1  0.26161865  0.00106709  0.92055916  1
  Mn3.34+  Mn215  1  0.08538996  0.00311807  0.40868397  1
  O2-  O216  1  0.00392666  0.17549631  0.00620205  1
  O2-  O217  1  0.00247919  0.14837716  0.33549104  1
  O2-  O218  1  0.00143323  0.15900706  0.66421715  1
  O2-  O219  1  0.00399887  0.65863684  -0.01042480  1
  O2-  O220  1  -0.00269077  0.64441476  0.33581042  1
  O2-  O221  1  -0.00317036  0.66572797  0.66958435  1
  O2-  O222  1  0.33042346  0.17651741  -0.00029909  1
  O2-  O223  1  0.33336133  0.17434949  0.33342999  1
  O2-  O224  1  0.32682044  0.14790505  0.67164084  1
  O2-  O225  1  0.34136706  0.64888692  -0.00193393  1
  O2-  O226  1  0.33857954  0.64024798  0.32510429  1
  O2-  O227  1  0.33743533  0.65588091  0.67619937  1
  O2-  O228  1  0.66023283  0.15043958  0.00498019  1
  O2-  O229  1  0.66995235  0.16422547  0.32911178  1
  O2-  O230  1  0.66840694  0.16216290  0.65560356  1
  O2-  O231  1  0.67169969  0.65571023  -0.00397311  1
  O2-  O232  1  0.66588181  0.64955685  0.33720601  1
  O2-  O233  1  0.66690533  0.65706500  0.67876060  1
  O2-  O234  1  0.17033949  0.16633100  -0.00035391  1
  O2-  O235  1  0.16040337  0.16066803  0.33113333  1
  O2-  O236  1  0.16952029  0.18062587  0.66515702  1
  O2-  O237  1  0.16769979  0.66804473  0.00377112  1
  O2-  O238  1  0.17117512  0.63731833  0.33568803  1
  O2-  O239  1  0.16045572  0.65294396  0.67232641  1
  O2-  O240  1  0.49321110  0.18544016  0.00321676  1
  O2-  O241  1  0.50265787  0.18025177  0.33436376  1
  O2-  O242  1  0.50299848  0.14311718  0.66214576  1
  O2-  O243  1  0.50278076  0.65279954  0.00401730  1
  O2-  O244  1  0.50151357  0.64233583  0.33466920  1
  O2-  O245  1  0.49822408  0.64878546  0.67318131  1
  O2-  O246  1  0.83307458  0.14220001  0.00760338  1
  O2-  O247  1  0.82818116  0.15347649  0.32647001  1
  O2-  O248  1  0.83460010  0.15909580  0.65227558  1
  O2-  O249  1  0.83924770  0.64722678  0.00187844  1
  O2-  O250  1  0.83299150  0.63868682  0.33349084  1
  O2-  O251  1  0.83301428  0.67086944  0.67252013  1
  O2-  O252  1  -0.00125548  0.33540647  0.00151078  1
  O2-  O253  1  0.01435544  0.33613304  0.32909230  1
  O2-  O254  1  0.01057558  0.34203176  0.65936987  1
  O2-  O255  1  0.00661653  0.84489682  -0.00341976  1
  O2-  O256  1  0.00483711  0.84070837  0.32665978  1
  O2-  O257  1  -0.00404669  0.83609891  0.67046841  1
  O2-  O258  1  0.33643828  0.32066134  0.00011355  1
  O2-  O259  1  0.33765304  0.33670791  0.33177971  1
  O2-  O260  1  0.32776511  0.33947500  0.66625598  1
  O2-  O261  1  0.32853407  0.85011220  0.00230494  1
  O2-  O262  1  0.33112243  0.84781347  0.33505079  1
  O2-  O263  1  0.33949232  0.85012689  0.66313501  1
  O2-  O264  1  0.65690562  0.35726892  0.00559620  1
  O2-  O265  1  0.66503789  0.32280080  0.33133383  1
  O2-  O266  1  0.66911446  0.35040627  0.66261364  1
  O2-  O267  1  0.66849733  0.84480910  0.00049804  1
  O2-  O268  1  0.67126726  0.85507680  0.32970586  1
  O2-  O269  1  0.66669701  0.84911976  0.66651651  1
  O2-  O270  1  0.16756446  0.29994440  0.00104727  1
  O2-  O271  1  0.17272110  0.34013766  0.33847728  1
  O2-  O272  1  0.16827755  0.31461656  0.66375287  1
  O2-  O273  1  0.16760446  0.84242257  0.00054999  1
  O2-  O274  1  0.16234450  0.84930826  0.33037087  1
  O2-  O275  1  0.17173301  0.84864349  0.67039758  1
  O2-  O276  1  0.49478585  0.34183448  -0.00136415  1
  O2-  O277  1  0.49546876  0.31515197  0.32657324  1
  O2-  O278  1  0.50785668  0.35280224  0.67270455  1
  O2-  O279  1  0.49809485  0.84629314  -0.00115116  1
  O2-  O280  1  0.49961547  0.85202107  0.33189670  1
  O2-  O281  1  0.49954445  0.84597378  0.66476644  1
  O2-  O282  1  0.82906046  0.35854075  -0.00141574  1
  O2-  O283  1  0.82439011  0.33821556  0.33328455  1
  O2-  O284  1  0.83217068  0.34796128  0.66413736  1
  O2-  O285  1  0.84143536  0.84811678  0.00979343  1
  O2-  O286  1  0.83771207  0.84686583  0.33729775  1
  O2-  O287  1  0.83216630  0.83673295  0.66548322  1
  O2-  O288  1  0.00472606  0.17407584  0.17246092  1
  O2-  O289  1  0.00441641  0.18870814  0.49632664  1
  O2-  O290  1  -0.00545973  0.18183781  0.82664362  1
  O2-  O291  1  -0.00519575  0.68425558  0.17056623  1
  O2-  O292  1  -0.00671223  0.68451086  0.50457227  1
  O2-  O293  1  0.00483982  0.68226511  0.84129452  1
  O2-  O294  1  0.32886946  0.18285124  0.16858853  1
  O2-  O295  1  0.34408698  0.20367852  0.50128401  1
  O2-  O296  1  0.33444974  0.18853902  0.83342974  1
  O2-  O297  1  0.32717178  0.68438182  0.15992493  1
  O2-  O298  1  0.33903789  0.67289348  0.49466183  1
  O2-  O299  1  0.34366414  0.66835121  0.83631443  1
  O2-  O300  1  0.66661081  0.19107638  0.16262829  1
  O2-  O301  1  0.67048141  0.19075772  0.50067377  1
  O2-  O302  1  0.67268979  0.19120344  0.82802252  1
  O2-  O303  1  0.67441543  0.67489478  0.16192495  1
  O2-  O304  1  0.66324533  0.67521824  0.49156916  1
  O2-  O305  1  0.66514871  0.68043307  0.83831788  1
  O2-  O306  1  0.16723487  0.17435371  0.17346473  1
  O2-  O307  1  0.16789045  0.19447213  0.49581713  1
  O2-  O308  1  0.16499319  0.19400600  0.83598624  1
  O2-  O309  1  0.16433619  0.68473417  0.18002150  1
  O2-  O310  1  0.16676037  0.67287126  0.49734328  1
  O2-  O311  1  0.16268675  0.67213864  0.83082851  1
  O2-  O312  1  0.50367485  0.19044162  0.16689989  1
  O2-  O313  1  0.50740553  0.18654137  0.50057817  1
  O2-  O314  1  0.50160790  0.18082790  0.82488414  1
  O2-  O315  1  0.48842563  0.67467313  0.16981362  1
  O2-  O316  1  0.50405049  0.67064429  0.48709479  1
  O2-  O317  1  0.49916985  0.68081690  0.84115060  1
  O2-  O318  1  0.82800032  0.19082448  0.16037838  1
  O2-  O319  1  0.84264026  0.18607532  0.48790791  1
  O2-  O320  1  0.82256748  0.19103738  0.83040501  1
  O2-  O321  1  0.82992727  0.67652080  0.17080008  1
  O2-  O322  1  0.83388834  0.69096366  0.50668329  1
  O2-  O323  1  0.82806923  0.68183092  0.84149449  1
  O2-  O324  1  -0.00182014  0.31324988  0.15649395  1
  O2-  O325  1  0.00229638  0.32567331  0.49835619  1
  O2-  O326  1  -0.00633158  0.30795875  0.82490999  1
  O2-  O327  1  -0.00753584  0.81551466  0.15880920  1
  O2-  O328  1  0.00748638  0.80598046  0.50477971  1
  O2-  O329  1  -0.00072553  0.82493139  0.83150331  1
  O2-  O330  1  0.33728855  0.31901078  0.16936325  1
  O2-  O331  1  0.32808605  0.32234099  0.49547962  1
  O2-  O332  1  0.33556899  0.31509948  0.83802903  1
  O2-  O333  1  0.33257992  0.82485009  0.16578181  1
  O2-  O334  1  0.34237123  0.82638478  0.50517778  1
  O2-  O335  1  0.32464440  0.81874418  0.82035605  1
  O2-  O336  1  0.66486163  0.31588694  0.16912686  1
  O2-  O337  1  0.66886809  0.31463899  0.50400210  1
  O2-  O338  1  0.66388199  0.33446919  0.83097630  1
  O2-  O339  1  0.66731637  0.82431931  0.16686330  1
  O2-  O340  1  0.66839736  0.81817263  0.50192983  1
  O2-  O341  1  0.65959032  0.81919469  0.82987169  1
  O2-  O342  1  0.16264163  0.32723849  0.17388578  1
  O2-  O343  1  0.16732756  0.31181071  0.49898594  1
  O2-  O344  1  0.16240947  0.30987957  0.83507492  1
  O2-  O345  1  0.16998196  0.81124508  0.16166382  1
  O2-  O346  1  0.17650397  0.81933507  0.49504296  1
  O2-  O347  1  0.15749481  0.82827868  0.84060571  1
  O2-  O348  1  0.49731604  0.31131893  0.16157347  1
  O2-  O349  1  0.50240928  0.32218025  0.49842672  1
  O2-  O350  1  0.49579302  0.32537986  0.83587752  1
  O2-  O351  1  0.50292285  0.81850649  0.16441515  1
  O2-  O352  1  0.50030650  0.83115064  0.49907798  1
  O2-  O353  1  0.50191915  0.81335042  0.83026976  1
  O2-  O354  1  0.83944400  0.32887941  0.15644532  1
  O2-  O355  1  0.82808750  0.32136319  0.50341794  1
  O2-  O356  1  0.82301520  0.33063319  0.83794431  1
  O2-  O357  1  0.82534046  0.82164823  0.17621298  1
  O2-  O358  1  0.82935338  0.81840981  0.50674481  1
  O2-  O359  1  0.83891734  0.82009299  0.82532937  1
  O2-  O360  1  0.07709298  0.07408903  0.10623740  1
  O2-  O361  1  0.07975620  0.07830328  0.45856250  1
  O2-  O362  1  0.11048151  0.09007764  0.77992240  1
  O2-  O363  1  0.08143038  0.57439717  0.10635353  1
  O2-  O364  1  0.07109535  0.57807824  0.45399407  1
  O2-  O365  1  0.07176987  0.57741607  0.78743999  1
  O2-  O366  1  0.41395590  0.08785518  0.09464048  1
  O2-  O367  1  0.40458895  0.06246659  0.46714034  1
  O2-  O368  1  0.40079967  0.08201317  0.79133358  1
  O2-  O369  1  0.40399553  0.58046391  0.10865181  1
  O2-  O370  1  0.41594046  0.57663465  0.45160704  1
  O2-  O371  1  0.42133786  0.57510500  0.78566150  1
  O2-  O372  1  0.74237101  0.08018395  0.13470378  1
  O2-  O373  1  0.76344674  0.08165252  0.43160172  1
  O2-  O374  1  0.74325232  0.08157128  0.78604045  1
  O2-  O375  1  0.76588248  0.57537648  0.10816151  1
  O2-  O376  1  0.74771734  0.58013539  0.44771574  1
  O2-  O377  1  0.73928574  0.58125451  0.78259342  1
  O2-  O378  1  0.24632669  0.08392018  0.22381972  1
  O2-  O379  1  0.22401390  0.08786636  0.55789767  1
  O2-  O380  1  0.25273824  0.08676543  0.88906721  1
  O2-  O381  1  0.24753679  0.58311044  0.20535968  1
  O2-  O382  1  0.26187208  0.56329620  0.56062187  1
  O2-  O383  1  0.22935766  0.56638572  0.87095345  1
  O2-  O384  1  0.60393057  0.08718454  0.21960928  1
  O2-  O385  1  0.60259880  0.08642237  0.54458903  1
  O2-  O386  1  0.56057948  0.07851211  0.88157494  1
  O2-  O387  1  0.58911461  0.56992850  0.20075266  1
  O2-  O388  1  0.56494539  0.55734224  0.54351344  1
  O2-  O389  1  0.57443567  0.58567089  0.88634561  1
  O2-  O390  1  0.89455250  0.08369636  0.20742244  1
  O2-  O391  1  0.92604102  0.08493199  0.55219222  1
  O2-  O392  1  0.94428686  0.07335438  0.88246236  1
  O2-  O393  1  0.92840784  0.58268951  0.21735957  1
  O2-  O394  1  0.91048952  0.56762208  0.54203035  1
  O2-  O395  1  0.92054426  0.58297539  0.88780755  1
  O2-  O396  1  0.06607398  0.42209791  0.12682920  1
  O2-  O397  1  0.10430916  0.41930569  0.42891386  1
  O2-  O398  1  0.10651375  0.42041533  0.76394632  1
  O2-  O399  1  0.09606421  0.91538610  0.11460438  1
  O2-  O400  1  0.08535263  0.92234726  0.45402150  1
  O2-  O401  1  0.06491986  0.92229140  0.77948263  1
  O2-  O402  1  0.42665080  0.41857689  0.10705451  1
  O2-  O403  1  0.40165373  0.42195766  0.42864889  1
  O2-  O404  1  0.40727073  0.42393283  0.78382294  1
  O2-  O405  1  0.41882502  0.91832033  0.11661205  1
  O2-  O406  1  0.41909150  0.93237103  0.45327518  1
  O2-  O407  1  0.41839197  0.91439925  0.77966381  1
  O2-  O408  1  0.75061162  0.43234233  0.13916235  1
  O2-  O409  1  0.73429724  0.41799919  0.42625747  1
  O2-  O410  1  0.73960365  0.42549197  0.77427736  1
  O2-  O411  1  0.75455277  0.92396466  0.12016982  1
  O2-  O412  1  0.74395589  0.91778966  0.44770813  1
  O2-  O413  1  0.76871882  0.91434613  0.76972982  1
  O2-  O414  1  0.24878278  0.41876266  0.23720215  1
  O2-  O415  1  0.22564440  0.41331988  0.57015020  1
  O2-  O416  1  0.27145940  0.41694844  0.88752469  1
  O2-  O417  1  0.24354599  0.91300227  0.22053729  1
  O2-  O418  1  0.26788099  0.92084240  0.55036382  1
  O2-  O419  1  0.23074182  0.92119365  0.88015948  1
  O2-  O420  1  0.57917720  0.41549001  0.22784898  1
  O2-  O421  1  0.59765428  0.42010934  0.55015389  1
  O2-  O422  1  0.56384926  0.41936385  0.89053497  1
  O2-  O423  1  0.58367194  0.92116278  0.21668042  1
  O2-  O424  1  0.59463373  0.92161995  0.54852251  1
  O2-  O425  1  0.58524547  0.91367534  0.89009405  1
  O2-  O426  1  0.93194890  0.41765555  0.21817727  1
  O2-  O427  1  0.92152350  0.42354070  0.55569676  1
  O2-  O428  1  0.93172851  0.41460908  0.88966012  1
  O2-  O429  1  0.91225349  0.91395719  0.22034187  1
  O2-  O430  1  0.89250132  0.92051025  0.57920820  1
  O2-  O431  1  0.92482988  0.91861427  0.87994272  1
  O2-  O432  1  0.01073891  -0.01532002  -0.01277770  1
  O2-  O433  1  -0.00538811  0.02529967  0.33225716  1
  O2-  O434  1  -0.00053810  0.00361660  0.66442516  1
  O2-  O435  1  -0.01572738  0.49412307  0.01462279  1
  O2-  O436  1  0.00681059  0.49937548  0.31943660  1
  O2-  O437  1  0.02009295  0.50233906  0.63845453  1
  O2-  O438  1  0.31867431  -0.00666649  0.03134207  1
  O2-  O439  1  0.33295437  -0.01924697  0.33210139  1
  O2-  O440  1  0.32123344  0.00052782  0.67836252  1
  O2-  O441  1  0.33333832  0.50766912  -0.02972719  1
  O2-  O442  1  0.33392186  0.50846439  0.33122270  1
  O2-  O443  1  0.32813804  0.50538003  0.68384063  1
  O2-  O444  1  0.66217711  0.00662411  -0.00650106  1
  O2-  O445  1  0.66854914  -0.00213850  0.32810656  1
  O2-  O446  1  0.67519319  -0.00814238  0.66265885  1
  O2-  O447  1  0.66681633  0.49175334  -0.00587736  1
  O2-  O448  1  0.66685088  0.51942100  0.31967187  1
  O2-  O449  1  0.66240415  0.49575048  0.66149292  1
  O2-  O450  1  0.16749704  -0.02078469  -0.00096934  1
  O2-  O451  1  0.15175901  -0.00186958  0.31337881  1
  O2-  O452  1  0.16282013  0.00805957  0.66381583  1
  O2-  O453  1  0.16288230  0.51854120  -0.00619306  1
  O2-  O454  1  0.15324150  0.50512446  0.28599143  1
  O2-  O455  1  0.17160868  0.50908667  0.68886928  1
  O2-  O456  1  0.49321609  0.00952093  0.00081080  1
  O2-  O457  1  0.50186640  0.00029791  0.35017787  1
  O2-  O458  1  0.48934080  -0.01946708  0.65324341  1
  O2-  O459  1  0.48270614  0.49666408  -0.02968276  1
  O2-  O460  1  0.50248893  0.51862748  0.33888398  1
  O2-  O461  1  0.50886369  0.49986350  0.67890127  1
  O2-  O462  1  0.85538385  0.00152603  0.01959244  1
  O2-  O463  1  0.81802792  -0.00326184  0.31231929  1
  O2-  O464  1  0.83510173  0.01130896  0.67306845  1
  O2-  O465  1  0.82623742  0.48900959  -0.01682652  1
  O2-  O466  1  0.82263583  0.50114879  0.31798571  1
  O2-  O467  1  0.82341866  0.49628699  0.65098560  1
  O2-  O468  1  0.08775761  0.74066221  0.38323257  1
  O2-  O469  1  0.41941621  0.24848446  0.71661336  1
  O2-  O470  1  0.57724901  0.25370450  0.61372875  1
  O2-  O471  1  0.91122057  0.74773312  0.27930227  1
  O2-  O472  1  0.58716388  0.75655348  0.27962031  1
  O2-  O473  1  0.75880812  0.74703649  0.05794028  1
  O2-  O474  1  0.25494548  0.75473361  0.92607327  1
  O2-  O475  1  0.24160860  0.25254371  0.26455117  1
  O2-  O476  1  0.91028060  0.24630723  0.28110659  1
  O2-  O477  1  0.25286618  0.74705746  0.29314011  1
  O2-  O478  1  0.59505662  0.25839435  0.92632650  1
  O2-  O479  1  0.74007958  0.74857831  0.73285396  1
  O2-  O480  1  0.91770819  0.25406231  0.60721945  1
  O2-  O481  1  0.41199144  0.74731250  0.05294854  1
  O2-  O482  1  0.89786172  0.25580035  0.93254583  1
  O2-  O483  1  0.75188509  0.25311892  0.05100217  1
  O2-  O484  1  0.91004115  0.74937706  0.94284661  1
  O2-  O485  1  0.41788742  0.74757911  0.72738821  1
  O2-  O486  1  0.25496803  0.75399253  0.60448341  1
  O2-  O487  1  0.41885193  0.74430404  0.38838413  1
  O2-  O488  1  0.58587579  0.74927002  0.94935951  1
  O2-  O489  1  0.75657197  0.74416229  0.38167349  1
  O2-  O490  1  0.09085484  0.74706704  0.73233519  1
  O2-  O491  1  0.74662617  0.26179121  0.73550562  1
  O2-  O492  1  0.57486619  0.75172372  0.60264524  1
