# generated using pymatgen
data_Ca108Mn108O277
_symmetry_space_group_name_H-M   'P 1'
_cell_length_a   16.01976647
_cell_length_b   22.29530553
_cell_length_c   16.38279133
_cell_angle_alpha   90.00407110
_cell_angle_beta   89.99929279
_cell_angle_gamma   90.00426468
_symmetry_Int_Tables_number   1
_chemical_formula_structural   Ca108Mn108O277
_chemical_formula_sum   'Ca108 Mn108 O277'
_cell_volume   5851.36926589
_cell_formula_units_Z   1
loop_
 _symmetry_equiv_pos_site_id
 _symmetry_equiv_pos_as_xyz
  1  'x, y, z'
loop_
 _atom_type_symbol
 _atom_type_oxidation_number
  Ca2+  2.0
  Mn3.34+  3.34
  O2-  -2.0
loop_
 _atom_site_type_symbol
 _atom_site_label
 _atom_site_symmetry_multiplicity
 _atom_site_fract_x
 _atom_site_fract_y
 _atom_site_fract_z
 _atom_site_occupancy
  Ca2+  Ca0  1  0.09196897  0.25831129  0.24434249  1
  Ca2+  Ca1  1  0.06989660  0.25577205  0.58890895  1
  Ca2+  Ca2  1  0.08969834  0.27431817  0.91656466  1
  Ca2+  Ca3  1  0.07866929  0.72375144  0.25385437  1
  Ca2+  Ca4  1  0.08419543  0.74631192  0.57089552  1
  Ca2+  Ca5  1  0.07851583  0.74953023  0.92852129  1
  Ca2+  Ca6  1  0.41772672  0.24863566  0.24090067  1
  Ca2+  Ca7  1  0.42082453  0.24712423  0.60785768  1
  Ca2+  Ca8  1  0.41954481  0.24982532  0.89533567  1
  Ca2+  Ca9  1  0.39550387  0.75214660  0.25870837  1
  Ca2+  Ca10  1  0.39451778  0.73861115  0.59732275  1
  Ca2+  Ca11  1  0.40066209  0.74148328  0.88493646  1
  Ca2+  Ca12  1  0.74039605  0.24741983  0.26661783  1
  Ca2+  Ca13  1  0.76223853  0.24093254  0.57957496  1
  Ca2+  Ca14  1  0.73519211  0.25512070  0.90652609  1
  Ca2+  Ca15  1  0.76963760  0.74879003  0.24183094  1
  Ca2+  Ca16  1  0.77395357  0.74498361  0.59544356  1
  Ca2+  Ca17  1  0.76310598  0.75555447  0.91642637  1
  Ca2+  Ca18  1  0.25466464  0.26369965  0.07721628  1
  Ca2+  Ca19  1  0.25865292  0.25243474  0.41872446  1
  Ca2+  Ca20  1  0.26610042  0.25446735  0.75009940  1
  Ca2+  Ca21  1  0.23335071  0.74494003  0.09419835  1
  Ca2+  Ca22  1  0.23819457  0.73378483  0.41877047  1
  Ca2+  Ca23  1  0.25849089  0.74796952  0.73963576  1
  Ca2+  Ca24  1  0.56276942  0.24887681  0.08040508  1
  Ca2+  Ca25  1  0.59144468  0.25124045  0.42366472  1
  Ca2+  Ca26  1  0.56848196  0.25021331  0.74545415  1
  Ca2+  Ca27  1  0.60136688  0.74984036  0.09539136  1
  Ca2+  Ca28  1  0.58182688  0.75745493  0.41269571  1
  Ca2+  Ca29  1  0.56861511  0.74641739  0.74509850  1
  Ca2+  Ca30  1  0.92165582  0.26491802  0.07922512  1
  Ca2+  Ca31  1  0.90494114  0.24770671  0.43943665  1
  Ca2+  Ca32  1  0.91641205  0.25654408  0.73114572  1
  Ca2+  Ca33  1  0.92467069  0.75056832  0.09094352  1
  Ca2+  Ca34  1  0.93667347  0.74639545  0.42018982  1
  Ca2+  Ca35  1  0.91031993  0.75007848  0.73556322  1
  Ca2+  Ca36  1  0.77271374  0.60092095  0.60020212  1
  Ca2+  Ca37  1  0.26810740  0.10630121  0.72718670  1
  Ca2+  Ca38  1  0.44353383  0.11095727  0.24121964  1
  Ca2+  Ca39  1  0.58390892  0.10002934  0.74820078  1
  Ca2+  Ca40  1  0.25628657  0.08852448  0.42729691  1
  Ca2+  Ca41  1  0.74821802  0.59025505  0.91296684  1
  Ca2+  Ca42  1  0.75912865  0.58987271  0.24135488  1
  Ca2+  Ca43  1  0.93350990  0.59969443  0.41966069  1
  Ca2+  Ca44  1  0.58938363  0.57141932  0.06528880  1
  Ca2+  Ca45  1  0.40342323  0.58365372  0.90836383  1
  Ca2+  Ca46  1  0.42061973  0.11132649  0.91189881  1
  Ca2+  Ca47  1  0.27420748  0.59712981  0.73821800  1
  Ca2+  Ca48  1  0.56310727  0.58703238  0.74439609  1
  Ca2+  Ca49  1  0.09070826  0.59996184  0.57744122  1
  Ca2+  Ca50  1  0.94332552  0.59559457  0.09199650  1
  Ca2+  Ca51  1  0.27914085  0.10853014  0.08757470  1
  Ca2+  Ca52  1  0.08625462  0.09026686  0.58629120  1
  Ca2+  Ca53  1  0.26661068  0.10773598  0.08645834  1
  Ca2+  Ca54  1  0.93324764  0.59412837  0.09395782  1
  Ca2+  Ca55  1  0.26198071  0.10034355  0.72910273  1
  Ca2+  Ca56  1  0.59480897  0.10027978  0.74828859  1
  Ca2+  Ca57  1  0.21782324  0.58711995  0.08862695  1
  Ca2+  Ca58  1  0.07565665  0.07973474  0.90939173  1
  Ca2+  Ca59  1  0.90956151  0.10185044  0.42557491  1
  Ca2+  Ca60  1  0.90694915  0.08201459  0.09160726  1
  Ca2+  Ca61  1  0.55998173  0.11928760  0.10158053  1
  Ca2+  Ca62  1  0.75689765  0.59130446  0.91865165  1
  Ca2+  Ca63  1  0.77153616  0.59088838  0.24086902  1
  Ca2+  Ca64  1  0.59107972  0.09850811  0.40992147  1
  Ca2+  Ca65  1  0.06323805  0.07669508  0.90761366  1
  Ca2+  Ca66  1  0.73954234  0.09655881  0.25970878  1
  Ca2+  Ca67  1  0.38225059  0.59490925  0.26181524  1
  Ca2+  Ca68  1  0.39459473  0.59404855  0.26398655  1
  Ca2+  Ca69  1  0.57275460  0.58555017  0.41672762  1
  Ca2+  Ca70  1  0.40884321  0.10077658  0.58901385  1
  Ca2+  Ca71  1  0.90157763  0.60835641  0.73518750  1
  Ca2+  Ca72  1  0.74795569  0.41330965  0.93123010  1
  Ca2+  Ca73  1  0.58048239  0.40918311  0.74305544  1
  Ca2+  Ca74  1  0.58120148  0.42524516  0.05788958  1
  Ca2+  Ca75  1  0.92468007  0.90571242  0.41651476  1
  Ca2+  Ca76  1  0.56808218  0.90947843  0.41895418  1
  Ca2+  Ca77  1  0.24010387  0.41614949  0.07723303  1
  Ca2+  Ca78  1  0.41638761  0.41790784  0.92421710  1
  Ca2+  Ca79  1  0.41045663  0.40685683  0.24939799  1
  Ca2+  Ca80  1  0.76543515  0.91504393  0.24899072  1
  Ca2+  Ca81  1  0.06484528  0.90401022  0.90504060  1
  Ca2+  Ca82  1  0.41291865  0.90393914  0.57462458  1
  Ca2+  Ca83  1  0.25150146  0.90168382  0.42380135  1
  Ca2+  Ca84  1  0.25138515  0.88957847  0.08479545  1
  Ca2+  Ca85  1  0.75361871  0.90168538  0.59465241  1
  Ca2+  Ca86  1  0.91595182  0.90616358  0.06812609  1
  Ca2+  Ca87  1  0.41647432  0.91197519  0.27638126  1
  Ca2+  Ca88  1  0.60293982  0.90672617  0.74720568  1
  Ca2+  Ca89  1  0.59208098  0.90349653  0.74310072  1
  Ca2+  Ca90  1  0.57050434  0.41091923  0.74016226  1
  Ca2+  Ca91  1  0.58127070  0.90137536  0.08839793  1
  Ca2+  Ca92  1  0.57820876  0.40483269  0.44010945  1
  Ca2+  Ca93  1  0.24544535  0.40951184  0.41758402  1
  Ca2+  Ca94  1  0.06634602  0.90264147  0.25310039  1
  Ca2+  Ca95  1  0.08410273  0.40799035  0.24577198  1
  Ca2+  Ca96  1  0.08008196  0.41855251  0.60927329  1
  Ca2+  Ca97  1  0.91029961  0.40427564  0.42051234  1
  Ca2+  Ca98  1  0.41319292  0.88886647  0.91394445  1
  Ca2+  Ca99  1  0.08836778  0.90290840  0.59335666  1
  Ca2+  Ca100  1  0.92322497  0.40446833  0.42025092  1
  Ca2+  Ca101  1  0.77712397  0.91240825  0.24625328  1
  Ca2+  Ca102  1  0.93153673  0.41313831  0.08196771  1
  Ca2+  Ca103  1  0.23718321  0.41157949  0.75357950  1
  Ca2+  Ca104  1  0.75596439  0.40336896  0.24915095  1
  Ca2+  Ca105  1  0.59221700  0.42482527  0.05879255  1
  Ca2+  Ca106  1  0.59419654  0.90188640  0.08899846  1
  Ca2+  Ca107  1  0.25788811  0.40759321  0.41926293  1
  Mn3.34+  Mn108  1  0.08368547  0.34119780  0.08129295  1
  Mn3.34+  Mn109  1  0.08438169  0.33047543  0.42034811  1
  Mn3.34+  Mn110  1  0.08017253  0.34025333  0.75331094  1
  Mn3.34+  Mn111  1  0.08190537  0.83026386  0.08308283  1
  Mn3.34+  Mn112  1  0.08629681  0.83431947  0.41834726  1
  Mn3.34+  Mn113  1  0.08356325  0.84050866  0.75228927  1
  Mn3.34+  Mn114  1  0.41907748  0.34195336  0.08615295  1
  Mn3.34+  Mn115  1  0.41941349  0.33335321  0.42076563  1
  Mn3.34+  Mn116  1  0.41223985  0.33462271  0.75021352  1
  Mn3.34+  Mn117  1  0.41649742  0.82358931  0.08417576  1
  Mn3.34+  Mn118  1  0.41223486  0.83564937  0.42190106  1
  Mn3.34+  Mn119  1  0.41240868  0.83102846  0.74630081  1
  Mn3.34+  Mn120  1  0.74736001  0.33420243  0.08913852  1
  Mn3.34+  Mn121  1  0.74701854  0.33396352  0.42021830  1
  Mn3.34+  Mn122  1  0.75171761  0.32998397  0.74829769  1
  Mn3.34+  Mn123  1  0.75588462  0.83183533  0.07801382  1
  Mn3.34+  Mn124  1  0.75137656  0.83398562  0.42054771  1
  Mn3.34+  Mn125  1  0.75957568  0.83987871  0.75622562  1
  Mn3.34+  Mn126  1  0.25116945  0.33493943  0.24506032  1
  Mn3.34+  Mn127  1  0.25015241  0.33639188  0.58404111  1
  Mn3.34+  Mn128  1  0.24942412  0.33902729  0.91497833  1
  Mn3.34+  Mn129  1  0.24488066  0.82847771  0.25235811  1
  Mn3.34+  Mn130  1  0.24826801  0.82955670  0.58655285  1
  Mn3.34+  Mn131  1  0.24448629  0.82599046  0.91199793  1
  Mn3.34+  Mn132  1  0.58232131  0.32826536  0.24602723  1
  Mn3.34+  Mn133  1  0.58435636  0.33519815  0.58399258  1
  Mn3.34+  Mn134  1  0.58311868  0.33558599  0.91090298  1
  Mn3.34+  Mn135  1  0.58446332  0.83172586  0.25371275  1
  Mn3.34+  Mn136  1  0.58357807  0.83222020  0.57861880  1
  Mn3.34+  Mn137  1  0.58766955  0.83038895  0.91380894  1
  Mn3.34+  Mn138  1  0.91701567  0.32763631  0.24697290  1
  Mn3.34+  Mn139  1  0.91343626  0.33426277  0.58784861  1
  Mn3.34+  Mn140  1  0.91436590  0.33204274  0.91070100  1
  Mn3.34+  Mn141  1  0.92068116  0.83083454  0.24885507  1
  Mn3.34+  Mn142  1  0.92044744  0.83008951  0.58477237  1
  Mn3.34+  Mn143  1  0.91606769  0.83552833  0.90971686  1
  Mn3.34+  Mn144  1  0.58882640  0.16715085  0.58187688  1
  Mn3.34+  Mn145  1  0.74671936  0.66796821  0.41770844  1
  Mn3.34+  Mn146  1  0.07412474  0.16167517  0.74586479  1
  Mn3.34+  Mn147  1  0.75226428  0.17583033  0.08751872  1
  Mn3.34+  Mn148  1  0.75673275  0.66269033  0.41900528  1
  Mn3.34+  Mn149  1  0.07893421  0.17027515  0.41656918  1
  Mn3.34+  Mn150  1  0.57131300  0.65916534  0.58187034  1
  Mn3.34+  Mn151  1  0.40985887  0.66553326  0.08277374  1
  Mn3.34+  Mn152  1  0.07072704  0.16746198  0.08777539  1
  Mn3.34+  Mn153  1  0.24847380  0.17073451  0.91246721  1
  Mn3.34+  Mn154  1  0.24449304  0.66348241  0.91439138  1
  Mn3.34+  Mn155  1  0.58818525  0.66229946  0.91030519  1
  Mn3.34+  Mn156  1  0.07906307  0.66372636  0.75567406  1
  Mn3.34+  Mn157  1  0.58184000  0.67067903  0.24944095  1
  Mn3.34+  Mn158  1  0.08421994  0.16704769  0.74516693  1
  Mn3.34+  Mn159  1  0.08658158  0.66520249  0.08604212  1
  Mn3.34+  Mn160  1  0.89980887  0.15939025  0.91036050  1
  Mn3.34+  Mn161  1  0.25267028  0.17094013  0.25035469  1
  Mn3.34+  Mn162  1  0.41163721  0.16734987  0.42057926  1
  Mn3.34+  Mn163  1  0.41920491  0.66004863  0.08496279  1
  Mn3.34+  Mn164  1  0.57829058  0.66762792  0.91162764  1
  Mn3.34+  Mn165  1  0.75020344  0.17050589  0.41950741  1
  Mn3.34+  Mn166  1  0.58388732  0.17300730  0.91379824  1
  Mn3.34+  Mn167  1  0.74360941  0.16970734  0.08894285  1
  Mn3.34+  Mn168  1  0.08767337  0.65749856  0.75640143  1
  Mn3.34+  Mn169  1  0.58398362  0.66391479  0.58522560  1
  Mn3.34+  Mn170  1  0.91699503  0.15822737  0.25204712  1
  Mn3.34+  Mn171  1  0.75162521  0.66288646  0.08636054  1
  Mn3.34+  Mn172  1  0.75573088  0.15706524  0.74707849  1
  Mn3.34+  Mn173  1  0.08833832  0.66386378  0.41436917  1
  Mn3.34+  Mn174  1  0.08184333  0.17182682  0.08522089  1
  Mn3.34+  Mn175  1  0.91281967  0.16587342  0.91082781  1
  Mn3.34+  Mn176  1  0.41184722  0.66608358  0.42274320  1
  Mn3.34+  Mn177  1  0.42251424  0.16254702  0.42046700  1
  Mn3.34+  Mn178  1  0.09292674  0.16990374  0.41284785  1
  Mn3.34+  Mn179  1  0.91758252  0.66956934  0.91467126  1
  Mn3.34+  Mn180  1  0.25969609  -0.00145130  0.90451635  1
  Mn3.34+  Mn181  1  0.24089490  -0.00122979  0.59474228  1
  Mn3.34+  Mn182  1  0.59077469  0.00023365  0.91408121  1
  Mn3.34+  Mn183  1  0.08732576  0.50079223  0.41738017  1
  Mn3.34+  Mn184  1  0.41088297  0.50108461  0.42345816  1
  Mn3.34+  Mn185  1  0.24535564  0.50252293  0.93375029  1
  Mn3.34+  Mn186  1  0.74884149  -0.00062550  0.42660608  1
  Mn3.34+  Mn187  1  0.08645989  -0.00315486  0.09015789  1
  Mn3.34+  Mn188  1  0.57282187  0.49669020  0.24614097  1
  Mn3.34+  Mn189  1  0.94330786  0.50028382  0.91621404  1
  Mn3.34+  Mn190  1  0.58356575  0.50174749  0.24677078  1
  Mn3.34+  Mn191  1  0.90880295  0.00432421  0.60979838  1
  Mn3.34+  Mn192  1  0.74944527  0.49990492  0.42145352  1
  Mn3.34+  Mn193  1  0.24418624  0.50403163  0.59586144  1
  Mn3.34+  Mn194  1  0.40865252  -0.00577192  0.75243202  1
  Mn3.34+  Mn195  1  0.42605642  0.00279927  0.08955673  1
  Mn3.34+  Mn196  1  0.23968035  0.50069912  0.25435935  1
  Mn3.34+  Mn197  1  0.76439302  0.49260825  0.75299408  1
  Mn3.34+  Mn198  1  0.41549776  0.49758565  0.73047606  1
  Mn3.34+  Mn199  1  0.59272187  0.00289816  0.59028037  1
  Mn3.34+  Mn200  1  0.92422490  0.49757675  0.25833573  1
  Mn3.34+  Mn201  1  0.92956556  0.49813442  0.91285730  1
  Mn3.34+  Mn202  1  0.91923506  -0.00331211  0.60934162  1
  Mn3.34+  Mn203  1  0.24557748  -0.00760473  0.90652630  1
  Mn3.34+  Mn204  1  0.07449597  0.00180875  0.08915998  1
  Mn3.34+  Mn205  1  0.75156051  0.49909270  0.74628111  1
  Mn3.34+  Mn206  1  0.57708430  0.00100867  0.25538205  1
  Mn3.34+  Mn207  1  0.24042537  -0.00229645  0.25309441  1
  Mn3.34+  Mn208  1  0.41155302  -0.00346385  0.08946800  1
  Mn3.34+  Mn209  1  0.75608378  0.00262235  0.06510841  1
  Mn3.34+  Mn210  1  0.42337337  0.00034287  0.75232498  1
  Mn3.34+  Mn211  1  0.92530450  0.50148817  0.59305962  1
  Mn3.34+  Mn212  1  0.75988157  0.00380710  0.42462317  1
  Mn3.34+  Mn213  1  0.25454690  0.00351304  0.25595173  1
  Mn3.34+  Mn214  1  0.60246586  0.00449639  0.91730725  1
  Mn3.34+  Mn215  1  0.07350849  -0.00073350  0.41137813  1
  O2-  O216  1  -0.00486243  0.14477807  -0.00328474  1
  O2-  O217  1  -0.00095902  0.18645550  0.33412601  1
  O2-  O218  1  0.00260229  0.16078736  0.66006784  1
  O2-  O219  1  -0.00346532  0.65938826  -0.00022282  1
  O2-  O220  1  -0.00194879  0.66706547  0.34374894  1
  O2-  O221  1  0.00617259  0.66607165  0.66987126  1
  O2-  O222  1  0.32864387  0.16400879  -0.00461358  1
  O2-  O223  1  0.33583031  0.15080232  0.33183807  1
  O2-  O224  1  0.33179409  0.16743021  0.66285396  1
  O2-  O225  1  0.33668195  0.65354093  -0.00536389  1
  O2-  O226  1  0.34230089  0.67137529  0.33492139  1
  O2-  O227  1  0.32903733  0.67244402  0.67443461  1
  O2-  O228  1  0.66526783  0.16996361  0.00292989  1
  O2-  O229  1  0.66964062  0.16720370  0.33641250  1
  O2-  O230  1  0.66728548  0.16620227  0.66829711  1
  O2-  O231  1  0.66577746  0.65079079  0.00000341  1
  O2-  O232  1  0.66866843  0.64400708  0.33798297  1
  O2-  O233  1  0.66235473  0.65944235  0.66314227  1
  O2-  O234  1  0.16095770  0.14103671  -0.00608518  1
  O2-  O235  1  0.16985518  0.16229439  0.33418882  1
  O2-  O236  1  0.16797355  0.16067999  0.66440584  1
  O2-  O237  1  0.16949096  0.66219564  0.00234979  1
  O2-  O238  1  0.16463530  0.66482339  0.33748681  1
  O2-  O239  1  0.16642568  0.66429797  0.67670653  1
  O2-  O240  1  0.50091637  0.16675380  -0.00813417  1
  O2-  O241  1  0.50424156  0.16420928  0.34282795  1
  O2-  O242  1  0.50865603  0.15340640  0.66265777  1
  O2-  O243  1  0.50189918  0.65430218  0.00174589  1
  O2-  O244  1  0.49852295  0.66643266  0.33149479  1
  O2-  O245  1  0.49708746  0.65861924  0.66539374  1
  O2-  O246  1  0.83677976  0.16008232  0.01267631  1
  O2-  O247  1  0.83432223  0.16498634  0.33254269  1
  O2-  O248  1  0.82617971  0.18621291  0.67817167  1
  O2-  O249  1  0.83416577  0.64613464  0.00208905  1
  O2-  O250  1  0.82984023  0.65124540  0.33012062  1
  O2-  O251  1  0.82819673  0.67440008  0.67288708  1
  O2-  O252  1  -0.00518211  0.34116927  0.00285271  1
  O2-  O253  1  0.00097297  0.32996022  0.33351577  1
  O2-  O254  1  0.00191914  0.33870396  0.66254592  1
  O2-  O255  1  0.00222893  0.83926876  -0.00050531  1
  O2-  O256  1  -0.00172794  0.84288474  0.33676511  1
  O2-  O257  1  0.00576317  0.83041594  0.66597487  1
  O2-  O258  1  0.33769986  0.33771637  0.00290726  1
  O2-  O259  1  0.32928969  0.34746123  0.33405236  1
  O2-  O260  1  0.32840315  0.33102587  0.67005867  1
  O2-  O261  1  0.33487957  0.83303901  0.00141390  1
  O2-  O262  1  0.33378408  0.83730627  0.33333899  1
  O2-  O263  1  0.33966277  0.84089060  0.65864302  1
  O2-  O264  1  0.66531019  0.34038784  0.00001880  1
  O2-  O265  1  0.66658205  0.33592406  0.33034447  1
  O2-  O266  1  0.65683298  0.33398311  0.67810439  1
  O2-  O267  1  0.66282278  0.84305059  0.00446992  1
  O2-  O268  1  0.66948088  0.85758947  0.33271151  1
  O2-  O269  1  0.66797002  0.83629380  0.66974666  1
  O2-  O270  1  0.17235355  0.34428517  0.00447077  1
  O2-  O271  1  0.16543038  0.34203787  0.33443442  1
  O2-  O272  1  0.16647763  0.33031609  0.66289994  1
  O2-  O273  1  0.16344723  0.84210176  -0.00199857  1
  O2-  O274  1  0.16506915  0.85311874  0.33313091  1
  O2-  O275  1  0.16329608  0.83169609  0.66816634  1
  O2-  O276  1  0.50309204  0.34393998  0.00224814  1
  O2-  O277  1  0.49820802  0.33900602  0.32920272  1
  O2-  O278  1  0.49939628  0.33946033  0.67181886  1
  O2-  O279  1  0.50289665  0.84180804  0.00216755  1
  O2-  O280  1  0.49615647  0.83134436  0.33611861  1
  O2-  O281  1  0.50403237  0.84898743  0.66767252  1
  O2-  O282  1  0.82900513  0.33408292  0.00463895  1
  O2-  O283  1  0.83718843  0.33528609  0.33266523  1
  O2-  O284  1  0.82690665  0.32390666  0.66366084  1
  O2-  O285  1  0.83571558  0.83833232  -0.00065241  1
  O2-  O286  1  0.83303516  0.84762612  0.33189871  1
  O2-  O287  1  0.83081846  0.83067271  0.66548367  1
  O2-  O288  1  -0.00818298  0.19088008  0.17258138  1
  O2-  O289  1  0.00287746  0.17835643  0.49415713  1
  O2-  O290  1  0.00942677  0.17069213  0.84235898  1
  O2-  O291  1  -0.00303086  0.67541909  0.15530325  1
  O2-  O292  1  0.00629519  0.67255201  0.49689764  1
  O2-  O293  1  -0.00374537  0.68577997  0.82703181  1
  O2-  O294  1  0.32760369  0.17952264  0.16560687  1
  O2-  O295  1  0.33078280  0.17703670  0.49542643  1
  O2-  O296  1  0.32553610  0.17468891  0.83373564  1
  O2-  O297  1  0.33564227  0.68276389  0.16630628  1
  O2-  O298  1  0.34035755  0.68945546  0.49298537  1
  O2-  O299  1  0.32308888  0.66848600  0.83459368  1
  O2-  O300  1  0.66401653  0.18333942  0.16724038  1
  O2-  O301  1  0.66320680  0.17879683  0.49572698  1
  O2-  O302  1  0.66289691  0.18439036  0.82210821  1
  O2-  O303  1  0.67339382  0.67142987  0.17314892  1
  O2-  O304  1  0.66272251  0.68054136  0.49822566  1
  O2-  O305  1  0.67018141  0.67978711  0.83401684  1
  O2-  O306  1  0.17341246  0.17790237  0.16161195  1
  O2-  O307  1  0.16682151  0.18831046  0.49620237  1
  O2-  O308  1  0.16285024  0.17206457  0.83054868  1
  O2-  O309  1  0.16518797  0.67344603  0.15954483  1
  O2-  O310  1  0.15693676  0.67476773  0.50312448  1
  O2-  O311  1  0.16159836  0.68438712  0.83462080  1
  O2-  O312  1  0.49457385  0.18764714  0.16830008  1
  O2-  O313  1  0.50001374  0.17712528  0.50478709  1
  O2-  O314  1  0.50815371  0.16963281  0.83070908  1
  O2-  O315  1  0.49870170  0.69137553  0.15982016  1
  O2-  O316  1  0.50642066  0.68149532  0.49136588  1
  O2-  O317  1  0.49619357  0.67068560  0.83328374  1
  O2-  O318  1  0.82878068  0.19160324  0.17172394  1
  O2-  O319  1  0.83339816  0.17359469  0.49379121  1
  O2-  O320  1  0.82283715  0.18410174  0.83332034  1
  O2-  O321  1  0.83330007  0.67014575  0.16113131  1
  O2-  O322  1  0.83382023  0.67662500  0.49786124  1
  O2-  O323  1  0.82767105  0.67442911  0.84916133  1
  O2-  O324  1  0.00247505  0.31989088  0.16850132  1
  O2-  O325  1  -0.00394262  0.32480286  0.49399893  1
  O2-  O326  1  -0.00232081  0.32093120  0.83215643  1
  O2-  O327  1  -0.00063439  0.82621886  0.16445080  1
  O2-  O328  1  0.00091312  0.83121454  0.49948484  1
  O2-  O329  1  0.00375374  0.81696504  0.83231889  1
  O2-  O330  1  0.33762932  0.32066542  0.16477102  1
  O2-  O331  1  0.32654504  0.32190972  0.49585368  1
  O2-  O332  1  0.33533260  0.32828781  0.83665461  1
  O2-  O333  1  0.33304646  0.81852090  0.16621044  1
  O2-  O334  1  0.32979420  0.82441589  0.49828900  1
  O2-  O335  1  0.33413469  0.82214800  0.83408220  1
  O2-  O336  1  0.66548056  0.30581377  0.16584829  1
  O2-  O337  1  0.66368502  0.32655526  0.49723413  1
  O2-  O338  1  0.66410621  0.31977189  0.83052677  1
  O2-  O339  1  0.66955583  0.83243235  0.16575278  1
  O2-  O340  1  0.66317453  0.82234986  0.49546677  1
  O2-  O341  1  0.66774188  0.81654372  0.82502282  1
  O2-  O342  1  0.16669315  0.32420736  0.16599507  1
  O2-  O343  1  0.16934382  0.31488252  0.49755488  1
  O2-  O344  1  0.17199500  0.32635169  0.82626598  1
  O2-  O345  1  0.16717395  0.82818218  0.16457923  1
  O2-  O346  1  0.16650010  0.82845421  0.50100212  1
  O2-  O347  1  0.16071654  0.81456097  0.83330587  1
  O2-  O348  1  0.49772139  0.31370606  0.16515296  1
  O2-  O349  1  0.50514207  0.32337633  0.49521654  1
  O2-  O350  1  0.50127227  0.33046499  0.83086598  1
  O2-  O351  1  0.50772164  0.81930494  0.16072281  1
  O2-  O352  1  0.49733854  0.82070363  0.49776635  1
  O2-  O353  1  0.50420434  0.82521790  0.83013491  1
  O2-  O354  1  0.83003273  0.31395563  0.16940965  1
  O2-  O355  1  0.83916501  0.33152919  0.49416568  1
  O2-  O356  1  0.82841549  0.31184281  0.83320578  1
  O2-  O357  1  0.83074523  0.82715377  0.16846050  1
  O2-  O358  1  0.83405035  0.82736469  0.50146110  1
  O2-  O359  1  0.83702889  0.81360812  0.82930766  1
  O2-  O360  1  0.07483683  0.08177443  0.12057460  1
  O2-  O361  1  0.08775408  0.08050172  0.44481110  1
  O2-  O362  1  0.09048121  0.07895030  0.77598970  1
  O2-  O363  1  0.07612393  0.58370872  0.10247756  1
  O2-  O364  1  0.07568871  0.58017515  0.43852016  1
  O2-  O365  1  0.07863720  0.57853162  0.76953422  1
  O2-  O366  1  0.41052592  0.08420216  0.10895989  1
  O2-  O367  1  0.41611836  0.08111426  0.44721723  1
  O2-  O368  1  0.40765454  0.08009660  0.77955009  1
  O2-  O369  1  0.42381771  0.58007237  0.13160956  1
  O2-  O370  1  0.42693833  0.58304905  0.42106233  1
  O2-  O371  1  0.41410660  0.56871056  0.77731061  1
  O2-  O372  1  0.75267178  0.08141497  0.11440020  1
  O2-  O373  1  0.75178803  0.08643679  0.42451675  1
  O2-  O374  1  0.72745957  0.08229557  0.77085290  1
  O2-  O375  1  0.74891887  0.57925199  0.10869783  1
  O2-  O376  1  0.74286988  0.58082782  0.46031753  1
  O2-  O377  1  0.75661993  0.57764062  0.77842648  1
  O2-  O378  1  0.25414735  0.08219653  0.21854496  1
  O2-  O379  1  0.24900372  0.07391308  0.55622629  1
  O2-  O380  1  0.24296196  0.07975250  0.88057571  1
  O2-  O381  1  0.26478465  0.57417726  0.21351185  1
  O2-  O382  1  0.24295763  0.57431033  0.56219513  1
  O2-  O383  1  0.24745317  0.57655091  0.88887475  1
  O2-  O384  1  0.58333892  0.07791165  0.22577706  1
  O2-  O385  1  0.58690103  0.08230290  0.55468983  1
  O2-  O386  1  0.58998942  0.08658984  0.89342217  1
  O2-  O387  1  0.57352165  0.58410167  0.22487055  1
  O2-  O388  1  0.58221117  0.57995069  0.55404413  1
  O2-  O389  1  0.59692200  0.58013776  0.88791498  1
  O2-  O390  1  0.89604445  0.08231482  0.22449466  1
  O2-  O391  1  0.92589452  0.07074133  0.55166420  1
  O2-  O392  1  0.92522178  0.07888786  0.89034675  1
  O2-  O393  1  0.90229614  0.57344582  0.21837106  1
  O2-  O394  1  0.91278515  0.57178621  0.54995240  1
  O2-  O395  1  0.91663869  0.58283713  0.87775804  1
  O2-  O396  1  0.07965734  0.41850531  0.11152622  1
  O2-  O397  1  0.08460521  0.42031019  0.45293053  1
  O2-  O398  1  0.09533251  0.41767088  0.75250039  1
  O2-  O399  1  0.08441220  0.91545043  0.10602596  1
  O2-  O400  1  0.08421242  0.92130873  0.44591810  1
  O2-  O401  1  0.08653995  0.91796403  0.76865119  1
  O2-  O402  1  0.43542257  0.41932320  0.11322345  1
  O2-  O403  1  0.39996694  0.41854079  0.43879891  1
  O2-  O404  1  0.42508080  0.42146781  0.77690355  1
  O2-  O405  1  0.43020119  0.91546752  0.10583736  1
  O2-  O406  1  0.41997153  0.91689344  0.43532712  1
  O2-  O407  1  0.42504330  0.91491104  0.77749178  1
  O2-  O408  1  0.73251810  0.41644679  0.11354046  1
  O2-  O409  1  0.76700224  0.41667086  0.42107177  1
  O2-  O410  1  0.73612818  0.41657814  0.77847564  1
  O2-  O411  1  0.73813171  0.92476812  0.11438918  1
  O2-  O412  1  0.75131745  0.91851223  0.45203140  1
  O2-  O413  1  0.73707682  0.91762236  0.76298886  1
  O2-  O414  1  0.25187661  0.42027584  0.21757270  1
  O2-  O415  1  0.23940451  0.42860098  0.54947538  1
  O2-  O416  1  0.25635923  0.42573817  0.89389802  1
  O2-  O417  1  0.26115884  0.91867998  0.22273915  1
  O2-  O418  1  0.25042645  0.92062442  0.56152643  1
  O2-  O419  1  0.25832624  0.91124235  0.90654961  1
  O2-  O420  1  0.58573437  0.41675932  0.21243425  1
  O2-  O421  1  0.58372455  0.41550952  0.57766005  1
  O2-  O422  1  0.58818244  0.41736363  0.89082041  1
  O2-  O423  1  0.57532239  0.92037884  0.22167317  1
  O2-  O424  1  0.58930709  0.91990743  0.56034605  1
  O2-  O425  1  0.58327376  0.91837004  0.88862141  1
  O2-  O426  1  0.91608493  0.41777681  0.22486983  1
  O2-  O427  1  0.92733815  0.42400122  0.55318722  1
  O2-  O428  1  0.90214881  0.41628024  0.89991119  1
  O2-  O429  1  0.91048948  0.91760958  0.21944115  1
  O2-  O430  1  0.91400595  0.92339589  0.56436479  1
  O2-  O431  1  0.92673579  0.91390389  0.90882481  1
  O2-  O432  1  0.01936725  0.00481756  -0.01647580  1
  O2-  O433  1  -0.01637779  -0.00623473  0.35477272  1
  O2-  O434  1  0.02487759  0.00060075  0.63745375  1
  O2-  O435  1  -0.02792739  0.50417998  0.02886710  1
  O2-  O436  1  -0.01285246  0.48506831  0.35584062  1
  O2-  O437  1  0.00951200  0.50856501  0.65114594  1
  O2-  O438  1  0.33096200  0.01280135  0.00183330  1
  O2-  O439  1  0.33671885  -0.00013125  0.33064951  1
  O2-  O440  1  0.33272793  0.01323577  0.66542833  1
  O2-  O441  1  0.34497024  0.50174087  -0.02286085  1
  O2-  O442  1  0.34239302  0.49961082  0.32057260  1
  O2-  O443  1  0.31157860  0.49485185  0.68359779  1
  O2-  O444  1  0.64511521  -0.00674823  0.02724652  1
  O2-  O445  1  0.66206551  0.00104148  0.33891689  1
  O2-  O446  1  0.63051891  -0.00194151  0.70285917  1
  O2-  O447  1  0.66303834  0.49828948  0.00786713  1
  O2-  O448  1  0.66813228  0.50969951  0.32816109  1
  O2-  O449  1  0.66647874  0.51047408  0.67853534  1
  O2-  O450  1  0.17313352  0.01032816  0.00304150  1
  O2-  O451  1  0.16889914  -0.00014937  0.34437429  1
  O2-  O452  1  0.17703749  0.02223218  0.67463903  1
  O2-  O453  1  0.18457087  0.49962150  0.02001883  1
  O2-  O454  1  0.17486474  0.47711514  0.34486133  1
  O2-  O455  1  0.15996101  0.49924154  0.65635253  1
  O2-  O456  1  0.49163883  0.00298887  -0.01282161  1
  O2-  O457  1  0.49784217  -0.00251739  0.32434082  1
  O2-  O458  1  0.48454663  -0.00208647  0.65054555  1
  O2-  O459  1  0.50979952  0.49921921  0.01461469  1
  O2-  O460  1  0.50651367  0.49322612  0.34579933  1
  O2-  O461  1  0.52206082  0.49782205  0.70250181  1
  O2-  O462  1  0.86531625  -0.00243981  0.04545689  1
  O2-  O463  1  0.81989113  -0.01102010  0.32683200  1
  O2-  O464  1  0.80479600  -0.00455597  0.64039768  1
  O2-  O465  1  0.81634735  0.50776784  -0.04084428  1
  O2-  O466  1  0.82657090  0.50672130  0.32383475  1
  O2-  O467  1  0.83654056  0.51188389  0.66234961  1
  O2-  O468  1  0.24941651  0.25256728  0.27249966  1
  O2-  O469  1  0.75218133  0.25260385  0.40872228  1
  O2-  O470  1  0.23931463  0.25151107  0.93257043  1
  O2-  O471  1  0.08680789  0.25446709  0.05712992  1
  O2-  O472  1  0.91464641  0.74899659  0.94272120  1
  O2-  O473  1  0.07829358  0.25008722  0.73958027  1
  O2-  O474  1  0.58187419  0.74683613  0.94291378  1
  O2-  O475  1  0.25366004  0.74658368  0.93692134  1
  O2-  O476  1  0.92027504  0.75261170  0.58713776  1
  O2-  O477  1  0.91941105  0.24560118  0.93802948  1
  O2-  O478  1  0.74418352  0.74591436  0.06595230  1
  O2-  O479  1  0.57934949  0.74729855  0.60234529  1
  O2-  O480  1  0.57671350  0.25362143  0.93027412  1
  O2-  O481  1  0.74381468  0.75104081  0.38870340  1
  O2-  O482  1  0.92030306  0.25483571  0.58747035  1
  O2-  O483  1  0.41881366  0.75259584  0.73845481  1
  O2-  O484  1  0.24035114  0.75209305  0.26617710  1
  O2-  O485  1  0.41015911  0.24925721  0.39382873  1
  O2-  O486  1  0.57569772  0.24906939  0.59891165  1
  O2-  O487  1  0.41892398  0.25441627  0.74796090  1
  O2-  O488  1  0.24786550  0.75141062  0.59663532  1
  O2-  O489  1  0.08487186  0.75323795  0.40526496  1
  O2-  O490  1  0.08302540  0.75059518  0.06737069  1
  O2-  O491  1  0.91305830  0.75302000  0.26360731  1
  O2-  O492  1  0.60620140  0.75093961  0.26992142  1
