# generated using pymatgen
data_Ca108Mn108O277
_symmetry_space_group_name_H-M   'P 1'
_cell_length_a   16.03867092
_cell_length_b   22.31994471
_cell_length_c   16.39747615
_cell_angle_alpha   90.00363647
_cell_angle_beta   89.99994706
_cell_angle_gamma   90.00364348
_symmetry_Int_Tables_number   1
_chemical_formula_structural   Ca108Mn108O277
_chemical_formula_sum   'Ca108 Mn108 O277'
_cell_volume   5870.00535458
_cell_formula_units_Z   1
loop_
 _symmetry_equiv_pos_site_id
 _symmetry_equiv_pos_as_xyz
  1  'x, y, z'
loop_
 _atom_type_symbol
 _atom_type_oxidation_number
  Ca2+  2.0
  Mn3.34+  3.34
  O2-  -2.0
loop_
 _atom_site_type_symbol
 _atom_site_label
 _atom_site_symmetry_multiplicity
 _atom_site_fract_x
 _atom_site_fract_y
 _atom_site_fract_z
 _atom_site_occupancy
  Ca2+  Ca0  1  0.08810027  0.25662572  0.24342443  1
  Ca2+  Ca1  1  0.11235422  0.24803985  0.58594668  1
  Ca2+  Ca2  1  0.08151038  0.24292827  0.91859609  1
  Ca2+  Ca3  1  0.08064676  0.75530363  0.25604663  1
  Ca2+  Ca4  1  0.07232707  0.75056419  0.57713290  1
  Ca2+  Ca5  1  0.09628425  0.76215890  0.91318614  1
  Ca2+  Ca6  1  0.43557171  0.23315999  0.26573309  1
  Ca2+  Ca7  1  0.41890805  0.24003357  0.58161398  1
  Ca2+  Ca8  1  0.41119081  0.25089801  0.90112699  1
  Ca2+  Ca9  1  0.41542788  0.76334001  0.24663768  1
  Ca2+  Ca10  1  0.42124839  0.74702714  0.58603572  1
  Ca2+  Ca11  1  0.42410290  0.75368170  0.91163335  1
  Ca2+  Ca12  1  0.72876697  0.24747302  0.24325532  1
  Ca2+  Ca13  1  0.73115262  0.25993147  0.57711631  1
  Ca2+  Ca14  1  0.74373166  0.25508820  0.92221600  1
  Ca2+  Ca15  1  0.74970258  0.75432678  0.25320243  1
  Ca2+  Ca16  1  0.76280322  0.73441133  0.58668781  1
  Ca2+  Ca17  1  0.72830338  0.74941385  0.91165693  1
  Ca2+  Ca18  1  0.24443521  0.26498397  0.08105263  1
  Ca2+  Ca19  1  0.26220019  0.24924661  0.41783329  1
  Ca2+  Ca20  1  0.26628828  0.24093550  0.74103992  1
  Ca2+  Ca21  1  0.25941042  0.75158356  0.08689084  1
  Ca2+  Ca22  1  0.24652127  0.75541785  0.41477685  1
  Ca2+  Ca23  1  0.26014690  0.75126585  0.75242292  1
  Ca2+  Ca24  1  0.59120854  0.25821683  0.08975044  1
  Ca2+  Ca25  1  0.58570381  0.24704802  0.41974968  1
  Ca2+  Ca26  1  0.57252730  0.24387899  0.74155087  1
  Ca2+  Ca27  1  0.57199718  0.74488657  0.07196211  1
  Ca2+  Ca28  1  0.59334214  0.76852951  0.42048315  1
  Ca2+  Ca29  1  0.58160252  0.73779320  0.76696331  1
  Ca2+  Ca30  1  0.90531333  0.25027785  0.07412538  1
  Ca2+  Ca31  1  0.90521527  0.26765124  0.41742794  1
  Ca2+  Ca32  1  0.91365203  0.25913463  0.75231495  1
  Ca2+  Ca33  1  0.91719981  0.75243351  0.09533806  1
  Ca2+  Ca34  1  0.91057431  0.74755041  0.43092234  1
  Ca2+  Ca35  1  0.90262944  0.75311954  0.74004106  1
  Ca2+  Ca36  1  0.25476966  0.59632295  0.74811332  1
  Ca2+  Ca37  1  0.91421466  0.06753979  0.40877219  1
  Ca2+  Ca38  1  0.27663454  0.57325739  0.06902266  1
  Ca2+  Ca39  1  0.44583582  0.60005510  0.92469558  1
  Ca2+  Ca40  1  0.41497376  0.59253980  0.24339772  1
  Ca2+  Ca41  1  0.59456577  0.58576273  0.06946865  1
  Ca2+  Ca42  1  0.94139107  0.08477656  0.03161440  1
  Ca2+  Ca43  1  0.93179786  0.10821938  0.79786661  1
  Ca2+  Ca44  1  0.11608217  0.08688622  0.60280821  1
  Ca2+  Ca45  1  0.58395065  0.60914245  0.42741851  1
  Ca2+  Ca46  1  0.43872151  0.59489997  0.92177728  1
  Ca2+  Ca47  1  0.57361529  0.60977616  0.42561037  1
  Ca2+  Ca48  1  0.68675196  0.07904604  0.58331078  1
  Ca2+  Ca49  1  0.42053302  0.10260835  0.88583706  1
  Ca2+  Ca50  1  0.08269916  0.57898402  0.92318310  1
  Ca2+  Ca51  1  0.75870977  0.08689043  0.93552558  1
  Ca2+  Ca52  1  0.03232047  0.59229539  0.55771172  1
  Ca2+  Ca53  1  0.93505858  0.08986097  0.02770423  1
  Ca2+  Ca54  1  0.75785442  0.59542988  0.24872939  1
  Ca2+  Ca55  1  0.87574346  0.57040127  0.69179334  1
  Ca2+  Ca56  1  0.59023980  0.10192703  0.10804095  1
  Ca2+  Ca57  1  0.23587520  0.59184690  0.40854928  1
  Ca2+  Ca58  1  0.10676661  0.08423094  0.60599873  1
  Ca2+  Ca59  1  0.59625030  0.10595866  0.10155507  1
  Ca2+  Ca60  1  0.88780188  0.58021742  0.07749872  1
  Ca2+  Ca61  1  0.72216085  0.59523296  0.89641700  1
  Ca2+  Ca62  1  0.30027714  0.11190906  0.43635637  1
  Ca2+  Ca63  1  0.71668153  0.59670898  0.90497961  1
  Ca2+  Ca64  1  0.29305382  0.09765549  0.73512638  1
  Ca2+  Ca65  1  0.54251849  0.10317417  0.43619706  1
  Ca2+  Ca66  1  0.88482941  0.57211302  0.68786614  1
  Ca2+  Ca67  1  0.07889117  0.57614366  0.28642690  1
  Ca2+  Ca68  1  0.89797818  0.58322972  0.07598719  1
  Ca2+  Ca69  1  0.22193999  0.09450407  0.06501709  1
  Ca2+  Ca70  1  0.40569382  0.59714681  0.24823303  1
  Ca2+  Ca71  1  0.51224280  0.08338531  0.69123861  1
  Ca2+  Ca72  1  0.57876027  0.91601081  0.75019494  1
  Ca2+  Ca73  1  0.73900171  0.90394521  0.57544167  1
  Ca2+  Ca74  1  0.91107886  0.41098828  0.08049119  1
  Ca2+  Ca75  1  0.07944513  0.90627627  0.58191723  1
  Ca2+  Ca76  1  0.41292611  0.41756311  0.94518044  1
  Ca2+  Ca77  1  0.58856010  0.90363444  0.07713456  1
  Ca2+  Ca78  1  0.58017603  0.41011714  0.07573871  1
  Ca2+  Ca79  1  0.06667666  0.91537336  0.92329312  1
  Ca2+  Ca80  1  0.75014698  0.90411446  0.57572235  1
  Ca2+  Ca81  1  0.90956712  0.41578782  0.75330869  1
  Ca2+  Ca82  1  0.91656366  0.91157319  0.07139973  1
  Ca2+  Ca83  1  0.24639442  0.90570318  0.07811720  1
  Ca2+  Ca84  1  0.24597149  0.40468142  0.40967112  1
  Ca2+  Ca85  1  0.75077446  0.90343787  0.92429809  1
  Ca2+  Ca86  1  0.77445436  0.42209162  0.60821913  1
  Ca2+  Ca87  1  0.41645148  0.40143162  0.24566622  1
  Ca2+  Ca88  1  0.07967264  0.90838204  0.25851430  1
  Ca2+  Ca89  1  0.90486671  0.91507527  0.07222176  1
  Ca2+  Ca90  1  0.40410903  0.40022992  0.24378547  1
  Ca2+  Ca91  1  0.60462664  0.40403831  0.75201752  1
  Ca2+  Ca92  1  0.06332442  0.41552827  0.58843740  1
  Ca2+  Ca93  1  0.25633087  0.91598665  0.74366998  1
  Ca2+  Ca94  1  0.45489576  0.93176213  0.59611700  1
  Ca2+  Ca95  1  0.57693382  0.39612107  0.41983877  1
  Ca2+  Ca96  1  0.26524643  0.91855689  0.74793305  1
  Ca2+  Ca97  1  0.07589482  0.41775800  0.58852346  1
  Ca2+  Ca98  1  0.93732022  0.42072760  0.41140787  1
  Ca2+  Ca99  1  0.09022738  0.40070687  0.91924824  1
  Ca2+  Ca100  1  0.44466417  0.93179301  0.59782099  1
  Ca2+  Ca101  1  0.08321563  0.41099514  0.25586676  1
  Ca2+  Ca102  1  0.74992508  0.41843498  0.93060415  1
  Ca2+  Ca103  1  0.25115235  0.90500269  0.41304272  1
  Ca2+  Ca104  1  0.89887790  0.40893952  0.08169219  1
  Ca2+  Ca105  1  0.41903561  0.91257028  0.91387641  1
  Ca2+  Ca106  1  0.74688708  0.90781129  0.25097274  1
  Ca2+  Ca107  1  0.24847941  0.39395854  0.75732561  1
  Mn3.34+  Mn108  1  0.07996129  0.33512253  0.08592410  1
  Mn3.34+  Mn109  1  0.08342266  0.33540971  0.42095003  1
  Mn3.34+  Mn110  1  0.08390347  0.33095130  0.75335952  1
  Mn3.34+  Mn111  1  0.08557199  0.83209943  0.08503130  1
  Mn3.34+  Mn112  1  0.07837465  0.83849320  0.42017649  1
  Mn3.34+  Mn113  1  0.08074531  0.83731539  0.74988474  1
  Mn3.34+  Mn114  1  0.41603065  0.33645872  0.08485224  1
  Mn3.34+  Mn115  1  0.41587154  0.33304105  0.42395236  1
  Mn3.34+  Mn116  1  0.42044211  0.33632389  0.74932412  1
  Mn3.34+  Mn117  1  0.41766048  0.83324510  0.08308436  1
  Mn3.34+  Mn118  1  0.41941072  0.84008420  0.42102730  1
  Mn3.34+  Mn119  1  0.41734154  0.83473098  0.75132544  1
  Mn3.34+  Mn120  1  0.74527057  0.33752411  0.08565915  1
  Mn3.34+  Mn121  1  0.74972340  0.34018903  0.41517328  1
  Mn3.34+  Mn122  1  0.75067792  0.33511588  0.75352452  1
  Mn3.34+  Mn123  1  0.74780143  0.82653962  0.08470974  1
  Mn3.34+  Mn124  1  0.75205953  0.83567587  0.41289399  1
  Mn3.34+  Mn125  1  0.74831165  0.83304450  0.75336010  1
  Mn3.34+  Mn126  1  0.24619465  0.32896761  0.24920999  1
  Mn3.34+  Mn127  1  0.25586350  0.33062271  0.58165339  1
  Mn3.34+  Mn128  1  0.25290928  0.32905358  0.91640461  1
  Mn3.34+  Mn129  1  0.25370551  0.83546270  0.24846545  1
  Mn3.34+  Mn130  1  0.24931902  0.83259680  0.57885513  1
  Mn3.34+  Mn131  1  0.25033178  0.83443560  0.91625642  1
  Mn3.34+  Mn132  1  0.58567042  0.33002061  0.25167758  1
  Mn3.34+  Mn133  1  0.58154259  0.33288342  0.58386546  1
  Mn3.34+  Mn134  1  0.58084337  0.32805402  0.91392969  1
  Mn3.34+  Mn135  1  0.58004692  0.83323767  0.25012353  1
  Mn3.34+  Mn136  1  0.58360013  0.83205101  0.58518200  1
  Mn3.34+  Mn137  1  0.58101134  0.83401289  0.91456149  1
  Mn3.34+  Mn138  1  0.91091388  0.33158455  0.25226798  1
  Mn3.34+  Mn139  1  0.91344187  0.33072212  0.58262925  1
  Mn3.34+  Mn140  1  0.91646328  0.33097370  0.91205563  1
  Mn3.34+  Mn141  1  0.91616580  0.83406642  0.25241980  1
  Mn3.34+  Mn142  1  0.91564471  0.83339523  0.58400792  1
  Mn3.34+  Mn143  1  0.91302161  0.83361180  0.91101280  1
  Mn3.34+  Mn144  1  0.24718107  0.67037893  0.24971070  1
  Mn3.34+  Mn145  1  0.91475355  0.66621856  0.90874682  1
  Mn3.34+  Mn146  1  0.25090562  0.67048807  0.57928060  1
  Mn3.34+  Mn147  1  0.58189861  0.16692183  0.91201796  1
  Mn3.34+  Mn148  1  0.08382197  0.17415625  0.08334235  1
  Mn3.34+  Mn149  1  0.24650944  0.16863425  0.90876954  1
  Mn3.34+  Mn150  1  0.58541367  0.67088019  0.59574859  1
  Mn3.34+  Mn151  1  0.75343625  0.67092441  0.42076281  1
  Mn3.34+  Mn152  1  0.41682670  0.66922010  0.74788699  1
  Mn3.34+  Mn153  1  0.58586881  0.67186044  0.24437872  1
  Mn3.34+  Mn154  1  0.08602895  0.66307985  0.74923659  1
  Mn3.34+  Mn155  1  0.25089989  0.66568519  0.91672751  1
  Mn3.34+  Mn156  1  0.74216510  0.15571769  0.41383040  1
  Mn3.34+  Mn157  1  0.74783834  0.66770901  0.08743293  1
  Mn3.34+  Mn158  1  0.07827646  0.16468450  0.41003825  1
  Mn3.34+  Mn159  1  0.07820860  0.66238832  0.08363573  1
  Mn3.34+  Mn160  1  0.91947109  0.16806405  0.58248507  1
  Mn3.34+  Mn161  1  0.75251995  0.16260896  0.75380622  1
  Mn3.34+  Mn162  1  0.09337396  0.65952083  0.09080068  1
  Mn3.34+  Mn163  1  0.75061988  0.17017306  0.08342216  1
  Mn3.34+  Mn164  1  0.08847229  0.16753495  0.75721187  1
  Mn3.34+  Mn165  1  0.08278678  0.66402014  0.41880411  1
  Mn3.34+  Mn166  1  0.90749236  0.16090154  0.57910872  1
  Mn3.34+  Mn167  1  0.91610217  0.66862678  0.25765834  1
  Mn3.34+  Mn168  1  0.41191521  0.66983011  0.42197678  1
  Mn3.34+  Mn169  1  0.90878640  0.15745534  0.24147055  1
  Mn3.34+  Mn170  1  0.07566433  0.66826634  0.74765853  1
  Mn3.34+  Mn171  1  0.25034852  0.16979440  0.24408332  1
  Mn3.34+  Mn172  1  0.41777526  0.66667026  0.08642732  1
  Mn3.34+  Mn173  1  0.08734567  0.15894288  0.41243402  1
  Mn3.34+  Mn174  1  0.74769642  0.66895754  0.74887335  1
  Mn3.34+  Mn175  1  0.75164097  0.16130532  0.41103706  1
  Mn3.34+  Mn176  1  0.92122913  0.16392231  0.24516004  1
  Mn3.34+  Mn177  1  0.41567610  0.17360313  0.07848175  1
  Mn3.34+  Mn178  1  0.40624256  0.16833428  0.08161032  1
  Mn3.34+  Mn179  1  0.74256559  0.16798005  0.75238313  1
  Mn3.34+  Mn180  1  0.09256311  0.49976647  0.08264910  1
  Mn3.34+  Mn181  1  0.25108840  0.49903420  0.91330098  1
  Mn3.34+  Mn182  1  0.59610827  0.50646530  0.59341081  1
  Mn3.34+  Mn183  1  0.07342499  -0.00193964  0.74696935  1
  Mn3.34+  Mn184  1  0.75560828  -0.00248718  0.74916936  1
  Mn3.34+  Mn185  1  0.08462510  0.50062245  0.75141998  1
  Mn3.34+  Mn186  1  0.60367043  0.49602499  0.24824150  1
  Mn3.34+  Mn187  1  0.91528038  0.00221762  0.25085882  1
  Mn3.34+  Mn188  1  0.41600761  0.50360255  0.41601798  1
  Mn3.34+  Mn189  1  0.25594438  0.50458638  0.57800275  1
  Mn3.34+  Mn190  1  0.25840377  -0.00448026  0.57915639  1
  Mn3.34+  Mn191  1  0.58353665  0.49977582  0.59071001  1
  Mn3.34+  Mn192  1  0.59404016  0.50040226  0.24971274  1
  Mn3.34+  Mn193  1  0.92035608  0.50362840  0.91372314  1
  Mn3.34+  Mn194  1  0.41072952  0.00314083  0.09534571  1
  Mn3.34+  Mn195  1  0.58511522  0.00476092  0.91930194  1
  Mn3.34+  Mn196  1  0.58136606  0.49402762  0.91601784  1
  Mn3.34+  Mn197  1  0.73920662  0.00013441  0.39875096  1
  Mn3.34+  Mn198  1  0.42265033  -0.00229275  0.40886539  1
  Mn3.34+  Mn199  1  0.42499754  0.50195614  0.75767819  1
  Mn3.34+  Mn200  1  0.57289587  -0.01237892  0.26924641  1
  Mn3.34+  Mn201  1  0.42501285  -0.00266641  0.09512256  1
  Mn3.34+  Mn202  1  0.08715210  -0.00031610  0.09090128  1
  Mn3.34+  Mn203  1  0.92158798  -0.00141935  0.57732839  1
  Mn3.34+  Mn204  1  0.08478328  0.00066387  0.41153020  1
  Mn3.34+  Mn205  1  0.25037196  0.01071005  0.25484568  1
  Mn3.34+  Mn206  1  0.76632275  0.00210200  0.75016368  1
  Mn3.34+  Mn207  1  0.24837953  0.00570895  0.92225836  1
  Mn3.34+  Mn208  1  0.74548894  0.00242612  0.09483201  1
  Mn3.34+  Mn209  1  0.76316535  0.50653466  0.43398351  1
  Mn3.34+  Mn210  1  0.24984913  0.49959016  0.24811990  1
  Mn3.34+  Mn211  1  0.26715237  0.49945053  0.58028906  1
  Mn3.34+  Mn212  1  0.41457260  0.49661986  0.75620254  1
  Mn3.34+  Mn213  1  0.77157832  0.51320766  0.43338238  1
  Mn3.34+  Mn214  1  0.26074509  0.00540952  0.25549687  1
  Mn3.34+  Mn215  1  0.91891956  0.49916586  0.25425815  1
  O2-  O216  1  -0.00375640  0.18443564  0.00942325  1
  O2-  O217  1  -0.00708768  0.14166406  0.33660256  1
  O2-  O218  1  0.01185142  0.15710328  0.65471983  1
  O2-  O219  1  -0.00488260  0.64423686  0.00129145  1
  O2-  O220  1  0.00979126  0.66401200  0.32744911  1
  O2-  O221  1  -0.00772797  0.64164438  0.67753424  1
  O2-  O222  1  0.32881984  0.14836995  -0.00038217  1
  O2-  O223  1  0.33041073  0.16588682  0.32040039  1
  O2-  O224  1  0.35628765  0.17557040  0.67433071  1
  O2-  O225  1  0.34160656  0.64632161  -0.00060428  1
  O2-  O226  1  0.33197211  0.65090796  0.33527232  1
  O2-  O227  1  0.32542272  0.65799741  0.67033604  1
  O2-  O228  1  0.66599468  0.14858841  0.00102389  1
  O2-  O229  1  0.66016358  0.14766088  0.33875584  1
  O2-  O230  1  0.65744195  0.14422149  0.68538878  1
  O2-  O231  1  0.67344938  0.65661972  0.00140832  1
  O2-  O232  1  0.66353847  0.64727600  0.32707691  1
  O2-  O233  1  0.67051947  0.65332249  0.66453562  1
  O2-  O234  1  0.16064277  0.16921626  -0.00510205  1
  O2-  O235  1  0.16372254  0.14765218  0.32730350  1
  O2-  O236  1  0.17095895  0.15981228  0.67528999  1
  O2-  O237  1  0.16940164  0.63926558  0.00475871  1
  O2-  O238  1  0.16636702  0.66171820  0.33108855  1
  O2-  O239  1  0.15703877  0.64030694  0.65638832  1
  O2-  O240  1  0.49877026  0.14755841  0.00094702  1
  O2-  O241  1  0.49608724  0.17919567  0.35739815  1
  O2-  O242  1  0.47916289  0.18354668  0.68078428  1
  O2-  O243  1  0.50624279  0.65353589  0.01542972  1
  O2-  O244  1  0.49628008  0.65119465  0.32703134  1
  O2-  O245  1  0.49498601  0.65877354  0.66391690  1
  O2-  O246  1  0.83592403  0.15799654  0.00739957  1
  O2-  O247  1  0.83224855  0.13671219  0.33286554  1
  O2-  O248  1  0.83565049  0.13790859  0.67278942  1
  O2-  O249  1  0.83694382  0.66137227  0.00380157  1
  O2-  O250  1  0.82932598  0.65338867  0.33348861  1
  O2-  O251  1  0.83419921  0.66663486  0.67779988  1
  O2-  O252  1  -0.00705062  0.32999236  0.00367283  1
  O2-  O253  1  0.00357887  0.33738479  0.33331309  1
  O2-  O254  1  0.00142417  0.33635100  0.66780187  1
  O2-  O255  1  -0.00563512  0.84079488  0.00299108  1
  O2-  O256  1  0.00610880  0.83845874  0.32765913  1
  O2-  O257  1  0.00325373  0.84727446  0.66364593  1
  O2-  O258  1  0.34034248  0.33612382  -0.00295209  1
  O2-  O259  1  0.33358548  0.33201825  0.33248903  1
  O2-  O260  1  0.33246926  0.34437385  0.66869175  1
  O2-  O261  1  0.33458520  0.85093683  -0.00196489  1
  O2-  O262  1  0.33304356  0.83881043  0.33884474  1
  O2-  O263  1  0.33720161  0.85301565  0.66005580  1
  O2-  O264  1  0.66642603  0.34997090  -0.00428192  1
  O2-  O265  1  0.66491411  0.35329644  0.33050673  1
  O2-  O266  1  0.67714254  0.35032562  0.65832034  1
  O2-  O267  1  0.66894067  0.84081973  -0.00236103  1
  O2-  O268  1  0.66579226  0.84606366  0.33092905  1
  O2-  O269  1  0.66643538  0.85614974  0.67199441  1
  O2-  O270  1  0.15783104  0.33052967  -0.00314237  1
  O2-  O271  1  0.16332210  0.34680739  0.33223061  1
  O2-  O272  1  0.16009652  0.34647819  0.65958437  1
  O2-  O273  1  0.15992296  0.85227484  -0.00723104  1
  O2-  O274  1  0.16497537  0.83946727  0.33488642  1
  O2-  O275  1  0.17302139  0.85956445  0.67024244  1
  O2-  O276  1  0.50225463  0.34206260  0.00389605  1
  O2-  O277  1  0.49400380  0.34086441  0.33062268  1
  O2-  O278  1  0.51167025  0.34340772  0.67688708  1
  O2-  O279  1  0.49891980  0.85155225  -0.00228048  1
  O2-  O280  1  0.49461189  0.82403122  0.33687946  1
  O2-  O281  1  0.49929708  0.85090964  0.66883943  1
  O2-  O282  1  0.83432596  0.33982316  -0.00306918  1
  O2-  O283  1  0.84475608  0.35262898  0.34648458  1
  O2-  O284  1  0.84179043  0.34676862  0.67601144  1
  O2-  O285  1  0.83411066  0.81537646  0.00145959  1
  O2-  O286  1  0.82959021  0.84737413  0.32634177  1
  O2-  O287  1  0.82624567  0.84711627  0.66559172  1
  O2-  O288  1  0.00445811  0.18995361  0.17143240  1
  O2-  O289  1  -0.00061428  0.19194762  0.49172216  1
  O2-  O290  1  0.00178696  0.19412354  0.81946869  1
  O2-  O291  1  -0.00449794  0.67940090  0.16325684  1
  O2-  O292  1  0.00791654  0.68271843  0.49339814  1
  O2-  O293  1  0.00475931  0.69335913  0.83967599  1
  O2-  O294  1  0.33433379  0.19922266  0.16028123  1
  O2-  O295  1  0.34982359  0.19356873  0.48440505  1
  O2-  O296  1  0.33175685  0.17753646  0.83634542  1
  O2-  O297  1  0.33454569  0.67701646  0.17062510  1
  O2-  O298  1  0.33334382  0.69419731  0.49654987  1
  O2-  O299  1  0.33047595  0.68087949  0.83475047  1
  O2-  O300  1  0.66262751  0.18105509  0.15583276  1
  O2-  O301  1  0.66987126  0.17267488  0.50025319  1
  O2-  O302  1  0.67227750  0.18622698  0.84213321  1
  O2-  O303  1  0.66233281  0.68813498  0.16094442  1
  O2-  O304  1  0.65780306  0.68464904  0.49198442  1
  O2-  O305  1  0.66939726  0.67408323  0.83391676  1
  O2-  O306  1  0.17194633  0.18935591  0.15480904  1
  O2-  O307  1  0.16621957  0.18114154  0.49094417  1
  O2-  O308  1  0.16942374  0.19316265  0.83097929  1
  O2-  O309  1  0.16677219  0.69022284  0.16961340  1
  O2-  O310  1  0.16969965  0.68532896  0.49170683  1
  O2-  O311  1  0.16684214  0.68370031  0.82594503  1
  O2-  O312  1  0.50330671  0.18454776  0.15291600  1
  O2-  O313  1  0.48470744  0.19051384  0.47931760  1
  O2-  O314  1  0.50088391  0.18334180  0.84154068  1
  O2-  O315  1  0.49084520  0.68070381  0.17647791  1
  O2-  O316  1  0.50597097  0.68890608  0.48579122  1
  O2-  O317  1  0.48590731  0.67611081  0.83810670  1
  O2-  O318  1  0.82969435  0.18758717  0.16582944  1
  O2-  O319  1  0.83591815  0.18225475  0.48865727  1
  O2-  O320  1  0.83370164  0.18482568  0.82763363  1
  O2-  O321  1  0.83101180  0.68203422  0.16839787  1
  O2-  O322  1  0.82979563  0.67917041  0.49381185  1
  O2-  O323  1  0.82654538  0.68853637  0.84134187  1
  O2-  O324  1  -0.00480578  0.31302684  0.16591766  1
  O2-  O325  1  0.00225918  0.31261052  0.50427777  1
  O2-  O326  1  0.00339234  0.31533463  0.83716285  1
  O2-  O327  1  -0.00003251  0.81838949  0.16546219  1
  O2-  O328  1  -0.00210514  0.82018263  0.49975175  1
  O2-  O329  1  0.00192626  0.82167801  0.83961473  1
  O2-  O330  1  0.33497224  0.32126515  0.16999045  1
  O2-  O331  1  0.32903844  0.32129649  0.49486471  1
  O2-  O332  1  0.33198993  0.31442793  0.82352175  1
  O2-  O333  1  0.33240242  0.81942548  0.16000343  1
  O2-  O334  1  0.32839914  0.81689613  0.49691136  1
  O2-  O335  1  0.33219218  0.81927178  0.83166403  1
  O2-  O336  1  0.65991682  0.32923953  0.16137915  1
  O2-  O337  1  0.65916325  0.32486719  0.49076841  1
  O2-  O338  1  0.66151088  0.31628341  0.82802109  1
  O2-  O339  1  0.66586347  0.81705479  0.16237370  1
  O2-  O340  1  0.67396331  0.82129953  0.51302263  1
  O2-  O341  1  0.66408141  0.82154904  0.83365370  1
  O2-  O342  1  0.16190856  0.32484908  0.16784720  1
  O2-  O343  1  0.16863881  0.31476813  0.49449824  1
  O2-  O344  1  0.16975087  0.31919144  0.82915195  1
  O2-  O345  1  0.16866573  0.82056157  0.16419123  1
  O2-  O346  1  0.16082111  0.81531802  0.50181333  1
  O2-  O347  1  0.17221009  0.82128953  0.82641096  1
  O2-  O348  1  0.49379940  0.31432358  0.17050906  1
  O2-  O349  1  0.50186114  0.31846203  0.49700339  1
  O2-  O350  1  0.49922257  0.31130543  0.83245341  1
  O2-  O351  1  0.50376244  0.81545384  0.15859119  1
  O2-  O352  1  0.49708597  0.81720517  0.50757700  1
  O2-  O353  1  0.49789016  0.82478288  0.83246446  1
  O2-  O354  1  0.83521992  0.32284327  0.15901988  1
  O2-  O355  1  0.82734476  0.32059769  0.50780194  1
  O2-  O356  1  0.83161938  0.31226843  0.83712303  1
  O2-  O357  1  0.83318426  0.81721643  0.16453880  1
  O2-  O358  1  0.82621277  0.82152107  0.50580254  1
  O2-  O359  1  0.82870255  0.81327300  0.83732255  1
  O2-  O360  1  0.07375363  0.08339557  0.08912891  1
  O2-  O361  1  0.07307267  0.07784906  0.46573786  1
  O2-  O362  1  0.06537414  0.07996386  0.76406851  1
  O2-  O363  1  0.09030634  0.57981635  0.13731778  1
  O2-  O364  1  0.09354378  0.58408444  0.43339943  1
  O2-  O365  1  0.09122670  0.58123040  0.78666122  1
  O2-  O366  1  0.42244792  0.08453002  0.11774100  1
  O2-  O367  1  0.41345500  0.05953297  0.47064958  1
  O2-  O368  1  0.40604188  0.05730563  0.77612153  1
  O2-  O369  1  0.41488793  0.58059599  0.11391786  1
  O2-  O370  1  0.43744668  0.58322696  0.44690568  1
  O2-  O371  1  0.40457904  0.58276459  0.78785536  1
  O2-  O372  1  0.73375688  0.08477267  0.11208828  1
  O2-  O373  1  0.76231078  0.07455162  0.46000248  1
  O2-  O374  1  0.75607652  0.07986938  0.79890057  1
  O2-  O375  1  0.75552869  0.57918614  0.11422630  1
  O2-  O376  1  0.72158459  0.58854420  0.45064848  1
  O2-  O377  1  0.76559398  0.58484264  0.77600344  1
  O2-  O378  1  0.25820953  0.08535055  0.20041183  1
  O2-  O379  1  0.23681130  0.07393560  0.55026116  1
  O2-  O380  1  0.24786272  0.08468079  0.88320212  1
  O2-  O381  1  0.25675525  0.58116939  0.21616012  1
  O2-  O382  1  0.26260884  0.58403838  0.54214460  1
  O2-  O383  1  0.23773531  0.57902156  0.88187762  1
  O2-  O384  1  0.55301536  0.05462821  0.20813815  1
  O2-  O385  1  0.55999422  0.06930342  0.56019015  1
  O2-  O386  1  0.57859055  0.08353682  0.88282438  1
  O2-  O387  1  0.58891250  0.58100100  0.20657483  1
  O2-  O388  1  0.58067023  0.58490295  0.55805110  1
  O2-  O389  1  0.57772262  0.57404021  0.88557902  1
  O2-  O390  1  0.92401755  0.08251091  0.19302367  1
  O2-  O391  1  0.92876516  0.08316600  0.54527020  1
  O2-  O392  1  0.89711415  0.06852812  0.90874155  1
  O2-  O393  1  0.91186542  0.57929720  0.21602130  1
  O2-  O394  1  0.90197000  0.55988726  0.55899660  1
  O2-  O395  1  0.92136445  0.58062173  0.86995697  1
  O2-  O396  1  0.04894671  0.42088179  0.10958239  1
  O2-  O397  1  0.08105718  0.42144162  0.45523272  1
  O2-  O398  1  0.08675652  0.42075740  0.78217782  1
  O2-  O399  1  0.08057628  0.91866108  0.11956858  1
  O2-  O400  1  0.09813884  0.92329556  0.44725103  1
  O2-  O401  1  0.09731815  0.92231893  0.78902304  1
  O2-  O402  1  0.43050955  0.42172365  0.11519781  1
  O2-  O403  1  0.40591129  0.42092750  0.41723891  1
  O2-  O404  1  0.41414354  0.41974267  0.80160363  1
  O2-  O405  1  0.41613264  0.91663642  0.11505246  1
  O2-  O406  1  0.40245946  0.92609440  0.46206778  1
  O2-  O407  1  0.39942193  0.91452454  0.77994539  1
  O2-  O408  1  0.76086591  0.41829765  0.09281733  1
  O2-  O409  1  0.75283954  0.42688865  0.46540404  1
  O2-  O410  1  0.75305531  0.41066512  0.79207677  1
  O2-  O411  1  0.76367593  0.91812054  0.10223347  1
  O2-  O412  1  0.74411620  0.92122760  0.44224804  1
  O2-  O413  1  0.75391489  0.91864845  0.79152824  1
  O2-  O414  1  0.26542069  0.41673203  0.23637172  1
  O2-  O415  1  0.24112781  0.41906794  0.54684725  1
  O2-  O416  1  0.25436762  0.41581378  0.89411539  1
  O2-  O417  1  0.24853806  0.92480489  0.21550958  1
  O2-  O418  1  0.23686281  0.91748349  0.54739913  1
  O2-  O419  1  0.25599971  0.92403601  0.88450245  1
  O2-  O420  1  0.56043123  0.41771874  0.22191077  1
  O2-  O421  1  0.57299726  0.42376122  0.54869596  1
  O2-  O422  1  0.57399799  0.41423787  0.89007619  1
  O2-  O423  1  0.59034830  0.91824272  0.21187199  1
  O2-  O424  1  0.58599684  0.91287883  0.55799389  1
  O2-  O425  1  0.58421164  0.92304283  0.89019871  1
  O2-  O426  1  0.91831759  0.42157955  0.21472533  1
  O2-  O427  1  0.93018209  0.41121489  0.55544015  1
  O2-  O428  1  0.93194787  0.42055158  0.90113015  1
  O2-  O429  1  0.91701740  0.91956823  0.20775041  1
  O2-  O430  1  0.89665432  0.91900404  0.55481346  1
  O2-  O431  1  0.89828984  0.91374175  0.92621738  1
  O2-  O432  1  -0.00419165  -0.01178969  0.02303283  1
  O2-  O433  1  -0.00388876  0.00155866  0.33951072  1
  O2-  O434  1  0.03218801  0.00109058  0.62759219  1
  O2-  O435  1  -0.00594624  0.52306792  0.01166488  1
  O2-  O436  1  0.01106209  0.48864773  0.31073372  1
  O2-  O437  1  0.00114582  0.49562162  0.67703603  1
  O2-  O438  1  0.34029069  -0.00173973  0.00120484  1
  O2-  O439  1  0.31714057  0.00372847  0.36009962  1
  O2-  O440  1  0.33581288  -0.02384733  0.65427779  1
  O2-  O441  1  0.35809891  0.51583429  -0.04679349  1
  O2-  O442  1  0.35723456  0.50875196  0.30304679  1
  O2-  O443  1  0.31618078  0.50458623  0.68940807  1
  O2-  O444  1  0.67644943  0.00001236  -0.00296918  1
  O2-  O445  1  0.68063697  -0.00792443  0.30098540  1
  O2-  O446  1  0.67787849  -0.00932655  0.66413048  1
  O2-  O447  1  0.68124654  0.50757351  -0.03385151  1
  O2-  O448  1  0.68102100  0.50322415  0.33807820  1
  O2-  O449  1  0.66954183  0.48026416  0.66999988  1
  O2-  O450  1  0.17938497  -0.00490916  0.01996854  1
  O2-  O451  1  0.15644957  -0.01017657  0.31916137  1
  O2-  O452  1  0.18478526  0.00709417  0.68574221  1
  O2-  O453  1  0.15577180  0.49752950  -0.02136501  1
  O2-  O454  1  0.17820143  0.49972656  0.33055289  1
  O2-  O455  1  0.15817496  0.49200936  0.64761440  1
  O2-  O456  1  0.50874822  -0.00104449  0.01219634  1
  O2-  O457  1  0.52374237  0.01372985  0.36397988  1
  O2-  O458  1  0.51053447  -0.01574471  0.68424563  1
  O2-  O459  1  0.51156649  0.50405654  -0.00177295  1
  O2-  O460  1  0.51344023  0.51473167  0.33429163  1
  O2-  O461  1  0.50308937  0.49891879  0.67418268  1
  O2-  O462  1  0.85080521  0.00833145  0.05227647  1
  O2-  O463  1  0.83383368  0.00195860  0.33821442  1
  O2-  O464  1  0.83686593  0.00632882  0.65734245  1
  O2-  O465  1  0.84546029  0.49960752  0.00670430  1
  O2-  O466  1  0.84820502  0.50420405  0.34633254  1
  O2-  O467  1  0.83901705  0.48181172  0.69072844  1
  O2-  O468  1  0.25241701  0.25352962  0.60369503  1
  O2-  O469  1  0.90326107  0.24077685  0.28454876  1
  O2-  O470  1  0.59053962  0.25514977  0.60216178  1
  O2-  O471  1  0.74465938  0.25191516  0.05926020  1
  O2-  O472  1  0.91829557  0.75487424  0.60351949  1
  O2-  O473  1  0.26290590  0.24828288  0.94363170  1
  O2-  O474  1  0.25740020  0.74994973  0.27368357  1
  O2-  O475  1  0.59077543  0.25330905  0.27423534  1
  O2-  O476  1  0.74917067  0.24833532  0.71434176  1
  O2-  O477  1  0.58788191  0.24804302  0.95080247  1
  O2-  O478  1  0.73852664  0.75280750  0.72562060  1
  O2-  O479  1  0.24291279  0.75270510  0.61529919  1
  O2-  O480  1  0.41366428  0.74941665  0.05391014  1
  O2-  O481  1  0.59041413  0.74845627  0.27981203  1
  O2-  O482  1  0.58316399  0.75135894  0.62074485  1
  O2-  O483  1  0.75179762  0.24608184  0.38692069  1
  O2-  O484  1  0.08881129  0.74959386  0.71632606  1
  O2-  O485  1  0.08571156  0.74449580  0.05094719  1
  O2-  O486  1  0.22773527  0.24987237  0.27849534  1
  O2-  O487  1  0.41351460  0.75206318  0.72561499  1
  O2-  O488  1  0.74939375  0.75138110  0.39047857  1
  O2-  O489  1  0.89561715  0.24554116  0.61338736  1
  O2-  O490  1  0.24363888  0.74943855  0.94757144  1
  O2-  O491  1  0.57697348  0.75559508  0.93407264  1
  O2-  O492  1  0.91607162  0.75128470  0.27629138  1
