# generated using pymatgen
data_Ca108Mn108O277
_symmetry_space_group_name_H-M   'P 1'
_cell_length_a   16.03059891
_cell_length_b   22.31203981
_cell_length_c   16.39205673
_cell_angle_alpha   90.00322528
_cell_angle_beta   89.99826105
_cell_angle_gamma   90.00319543
_symmetry_Int_Tables_number   1
_chemical_formula_structural   Ca108Mn108O277
_chemical_formula_sum   'Ca108 Mn108 O277'
_cell_volume   5863.03478883
_cell_formula_units_Z   1
loop_
 _symmetry_equiv_pos_site_id
 _symmetry_equiv_pos_as_xyz
  1  'x, y, z'
loop_
 _atom_type_symbol
 _atom_type_oxidation_number
  Ca2+  2.0
  Mn3.34+  3.34
  O2-  -2.0
loop_
 _atom_site_type_symbol
 _atom_site_label
 _atom_site_symmetry_multiplicity
 _atom_site_fract_x
 _atom_site_fract_y
 _atom_site_fract_z
 _atom_site_occupancy
  Ca2+  Ca0  1  0.10175782  0.26159020  0.25818363  1
  Ca2+  Ca1  1  0.10426347  0.25719422  0.58200914  1
  Ca2+  Ca2  1  0.09382333  0.25576944  0.91001214  1
  Ca2+  Ca3  1  0.07020907  0.74076451  0.24462368  1
  Ca2+  Ca4  1  0.06569362  0.73621092  0.58517075  1
  Ca2+  Ca5  1  0.07182579  0.74433583  0.91644894  1
  Ca2+  Ca6  1  0.40582324  0.24253562  0.25531809  1
  Ca2+  Ca7  1  0.41436154  0.24673715  0.58137563  1
  Ca2+  Ca8  1  0.41493429  0.24324767  0.92671887  1
  Ca2+  Ca9  1  0.42666107  0.75615052  0.25171072  1
  Ca2+  Ca10  1  0.41716980  0.75400461  0.58083644  1
  Ca2+  Ca11  1  0.42050132  0.75750200  0.92497151  1
  Ca2+  Ca12  1  0.74904741  0.24802066  0.24058881  1
  Ca2+  Ca13  1  0.72809350  0.25228962  0.58966995  1
  Ca2+  Ca14  1  0.73851601  0.25429397  0.91479939  1
  Ca2+  Ca15  1  0.74731855  0.75367917  0.25226207  1
  Ca2+  Ca16  1  0.75652119  0.75321380  0.57746015  1
  Ca2+  Ca17  1  0.74657710  0.75892730  0.91680241  1
  Ca2+  Ca18  1  0.27469253  0.24233359  0.11027793  1
  Ca2+  Ca19  1  0.24984248  0.23649479  0.40915715  1
  Ca2+  Ca20  1  0.25678067  0.24839897  0.74252996  1
  Ca2+  Ca21  1  0.26797890  0.75276477  0.08019534  1
  Ca2+  Ca22  1  0.26203955  0.75004886  0.43209287  1
  Ca2+  Ca23  1  0.25910906  0.75413482  0.74453125  1
  Ca2+  Ca24  1  0.55653317  0.23924984  0.09345575  1
  Ca2+  Ca25  1  0.56004662  0.24300746  0.41732379  1
  Ca2+  Ca26  1  0.57118428  0.24307200  0.74319914  1
  Ca2+  Ca27  1  0.55562040  0.74324659  0.08098935  1
  Ca2+  Ca28  1  0.57016702  0.75141790  0.41490266  1
  Ca2+  Ca29  1  0.57168268  0.76319160  0.75070546  1
  Ca2+  Ca30  1  0.91026610  0.25720280  0.10771106  1
  Ca2+  Ca31  1  0.93745176  0.25480636  0.40713625  1
  Ca2+  Ca32  1  0.91086690  0.26186057  0.74936607  1
  Ca2+  Ca33  1  0.91717590  0.74873504  0.08254149  1
  Ca2+  Ca34  1  0.91618282  0.74849015  0.42856609  1
  Ca2+  Ca35  1  0.92433977  0.75247277  0.74474380  1
  Ca2+  Ca36  1  0.72340259  0.09085861  0.92288624  1
  Ca2+  Ca37  1  0.97630124  0.59307248  0.09366411  1
  Ca2+  Ca38  1  0.91074372  0.09118920  0.74880339  1
  Ca2+  Ca39  1  0.73503654  0.08905382  0.92684099  1
  Ca2+  Ca40  1  0.27570656  0.08614552  0.73704399  1
  Ca2+  Ca41  1  0.23556976  0.57902613  0.71323437  1
  Ca2+  Ca42  1  0.41965467  0.58888412  0.93647426  1
  Ca2+  Ca43  1  0.42289558  0.09049748  0.92812663  1
  Ca2+  Ca44  1  0.75315828  0.58508070  0.92265556  1
  Ca2+  Ca45  1  0.94091077  0.58775115  0.74077796  1
  Ca2+  Ca46  1  0.93158334  0.58475459  0.73710909  1
  Ca2+  Ca47  1  0.43114411  0.58856808  0.93697878  1
  Ca2+  Ca48  1  0.09723125  0.10786685  0.57437594  1
  Ca2+  Ca49  1  0.93720446  0.58643967  0.41313725  1
  Ca2+  Ca50  1  0.12682611  0.11563480  0.28562189  1
  Ca2+  Ca51  1  0.44121158  0.61361041  0.22143684  1
  Ca2+  Ca52  1  0.56226684  0.09081349  0.41470820  1
  Ca2+  Ca53  1  0.10622494  0.10587807  0.56941872  1
  Ca2+  Ca54  1  0.23024575  0.58663340  0.09128001  1
  Ca2+  Ca55  1  0.07992111  0.55973227  0.27466025  1
  Ca2+  Ca56  1  0.09157760  0.58595657  0.57185311  1
  Ca2+  Ca57  1  0.97598161  0.59907898  0.08759099  1
  Ca2+  Ca58  1  0.10171594  0.10924069  0.89643131  1
  Ca2+  Ca59  1  0.91881608  0.08080189  0.40430581  1
  Ca2+  Ca60  1  0.57022602  0.59568710  0.38160181  1
  Ca2+  Ca61  1  0.54034774  0.09948789  0.09350380  1
  Ca2+  Ca62  1  0.70853627  0.10078730  0.24264629  1
  Ca2+  Ca63  1  0.30283366  0.09959909  0.08504756  1
  Ca2+  Ca64  1  0.56997659  0.59481475  0.75133928  1
  Ca2+  Ca65  1  0.89786040  0.09363590  0.09078012  1
  Ca2+  Ca66  1  0.92366111  0.09181007  0.74787309  1
  Ca2+  Ca67  1  0.38893162  0.59264482  0.57286547  1
  Ca2+  Ca68  1  0.22043427  0.58437270  0.09311931  1
  Ca2+  Ca69  1  0.93145964  0.08259184  0.40537129  1
  Ca2+  Ca70  1  0.42299871  0.10648226  0.24791421  1
  Ca2+  Ca71  1  0.78082440  0.59141138  0.58005797  1
  Ca2+  Ca72  1  0.73941389  0.91083234  0.57271182  1
  Ca2+  Ca73  1  0.42122426  0.91557416  0.59861558  1
  Ca2+  Ca74  1  0.91469960  0.89152714  0.08670869  1
  Ca2+  Ca75  1  0.58718718  0.39563265  0.75681874  1
  Ca2+  Ca76  1  0.73641276  0.91443123  0.26128216  1
  Ca2+  Ca77  1  0.92597403  0.41108962  0.74855660  1
  Ca2+  Ca78  1  0.75456292  0.40317343  0.58326969  1
  Ca2+  Ca79  1  0.76744440  0.41291821  0.25821252  1
  Ca2+  Ca80  1  0.95096745  0.42555263  0.39737921  1
  Ca2+  Ca81  1  0.22899595  0.40778777  0.09341607  1
  Ca2+  Ca82  1  0.72871507  0.90848384  0.57140414  1
  Ca2+  Ca83  1  0.23891355  0.40907588  0.08917273  1
  Ca2+  Ca84  1  0.23293971  0.42467203  0.40511476  1
  Ca2+  Ca85  1  0.09406444  0.90382888  0.57296829  1
  Ca2+  Ca86  1  0.94886829  0.41742416  0.08950836  1
  Ca2+  Ca87  1  0.41363931  0.92131647  0.93700733  1
  Ca2+  Ca88  1  0.55989439  0.91288701  0.07908143  1
  Ca2+  Ca89  1  0.75464214  0.41387838  0.25919129  1
  Ca2+  Ca90  1  0.09362678  0.89205592  0.91999325  1
  Ca2+  Ca91  1  0.08118056  0.90328381  0.57307716  1
  Ca2+  Ca92  1  0.90990677  0.90833421  0.41209758  1
  Ca2+  Ca93  1  0.73233855  0.90736048  0.91727819  1
  Ca2+  Ca94  1  0.58378194  0.40439009  0.41415292  1
  Ca2+  Ca95  1  0.93754625  0.41396952  0.08623581  1
  Ca2+  Ca96  1  0.57618728  0.39797751  0.08099272  1
  Ca2+  Ca97  1  0.39829089  0.41644973  0.25400707  1
  Ca2+  Ca98  1  0.08930178  0.40838123  0.92111859  1
  Ca2+  Ca99  1  0.90575095  0.90398081  0.75389872  1
  Ca2+  Ca100  1  0.41440009  0.40360532  0.92399057  1
  Ca2+  Ca101  1  0.10659898  0.41703864  0.58842785  1
  Ca2+  Ca102  1  0.57722540  0.90617727  0.41578203  1
  Ca2+  Ca103  1  0.08592516  0.88662909  0.25083983  1
  Ca2+  Ca104  1  0.75005094  0.40472310  0.91968457  1
  Ca2+  Ca105  1  0.57121257  0.40311715  0.41543052  1
  Ca2+  Ca106  1  0.27156106  0.91312371  0.75448578  1
  Ca2+  Ca107  1  0.25875777  0.89893609  0.41424137  1
  Mn3.34+  Mn108  1  0.08516287  0.32911574  0.08183167  1
  Mn3.34+  Mn109  1  0.09084194  0.34015683  0.42308667  1
  Mn3.34+  Mn110  1  0.09010798  0.33679468  0.75091029  1
  Mn3.34+  Mn111  1  0.08925637  0.82494612  0.08645719  1
  Mn3.34+  Mn112  1  0.08516540  0.82443096  0.41667128  1
  Mn3.34+  Mn113  1  0.08750341  0.83135144  0.75380685  1
  Mn3.34+  Mn114  1  0.41498233  0.33273716  0.08639505  1
  Mn3.34+  Mn115  1  0.40753038  0.33473154  0.42172958  1
  Mn3.34+  Mn116  1  0.41386823  0.32940200  0.74890178  1
  Mn3.34+  Mn117  1  0.41062205  0.83672994  0.08788529  1
  Mn3.34+  Mn118  1  0.41692558  0.83492069  0.41690828  1
  Mn3.34+  Mn119  1  0.41970903  0.84076636  0.75747910  1
  Mn3.34+  Mn120  1  0.74810805  0.32933229  0.08376641  1
  Mn3.34+  Mn121  1  0.75281993  0.33011951  0.42258745  1
  Mn3.34+  Mn122  1  0.75134805  0.33241092  0.75043529  1
  Mn3.34+  Mn123  1  0.74540528  0.83567915  0.08680097  1
  Mn3.34+  Mn124  1  0.74792099  0.83733959  0.41317794  1
  Mn3.34+  Mn125  1  0.74477133  0.83905949  0.75219950  1
  Mn3.34+  Mn126  1  0.25015952  0.33736645  0.25642942  1
  Mn3.34+  Mn127  1  0.25840787  0.34087231  0.58258647  1
  Mn3.34+  Mn128  1  0.25239558  0.33384253  0.90965125  1
  Mn3.34+  Mn129  1  0.25257975  0.82571938  0.24790089  1
  Mn3.34+  Mn130  1  0.25433473  0.83376403  0.58572895  1
  Mn3.34+  Mn131  1  0.25384964  0.83309951  0.91749306  1
  Mn3.34+  Mn132  1  0.58246405  0.33179575  0.24408459  1
  Mn3.34+  Mn133  1  0.57618995  0.33039609  0.58485412  1
  Mn3.34+  Mn134  1  0.58041446  0.33048736  0.91347444  1
  Mn3.34+  Mn135  1  0.57890823  0.83863973  0.24343147  1
  Mn3.34+  Mn136  1  0.57770162  0.83322773  0.58735081  1
  Mn3.34+  Mn137  1  0.57923851  0.83464271  0.91786924  1
  Mn3.34+  Mn138  1  0.92315897  0.33756418  0.25469588  1
  Mn3.34+  Mn139  1  0.92056575  0.33529845  0.57962889  1
  Mn3.34+  Mn140  1  0.91878145  0.33594320  0.91508467  1
  Mn3.34+  Mn141  1  0.91354506  0.82523034  0.25141070  1
  Mn3.34+  Mn142  1  0.91654373  0.83399237  0.58367849  1
  Mn3.34+  Mn143  1  0.91346566  0.82915330  0.91623228  1
  Mn3.34+  Mn144  1  0.91356422  0.16828500  0.24930554  1
  Mn3.34+  Mn145  1  0.73846119  0.66399935  0.75156493  1
  Mn3.34+  Mn146  1  0.23739081  0.66071484  0.91034993  1
  Mn3.34+  Mn147  1  0.24029612  0.66957866  0.25804369  1
  Mn3.34+  Mn148  1  0.24835659  0.66546664  0.91198864  1
  Mn3.34+  Mn149  1  0.91501984  0.17252347  0.57895774  1
  Mn3.34+  Mn150  1  0.90408488  0.16762167  0.57651032  1
  Mn3.34+  Mn151  1  0.74864960  0.66874360  0.08903621  1
  Mn3.34+  Mn152  1  0.92284702  0.17441535  0.91838920  1
  Mn3.34+  Mn153  1  0.73940863  0.16709383  0.74664019  1
  Mn3.34+  Mn154  1  0.75729896  0.66779749  0.41262217  1
  Mn3.34+  Mn155  1  0.08822408  0.66326873  0.41785732  1
  Mn3.34+  Mn156  1  0.09360551  0.16121185  0.08748167  1
  Mn3.34+  Mn157  1  0.91894978  0.66206123  0.24999474  1
  Mn3.34+  Mn158  1  0.41931112  0.16141753  0.75201548  1
  Mn3.34+  Mn159  1  0.41516927  0.66904551  0.74601365  1
  Mn3.34+  Mn160  1  0.57357873  0.15870068  0.58781576  1
  Mn3.34+  Mn161  1  0.91597074  0.66557943  0.91528780  1
  Mn3.34+  Mn162  1  0.91437015  0.18032334  0.92113580  1
  Mn3.34+  Mn163  1  0.58079114  0.67067340  0.91542074  1
  Mn3.34+  Mn164  1  0.24612302  0.66776784  0.57951340  1
  Mn3.34+  Mn165  1  0.25468650  0.16472585  0.90608362  1
  Mn3.34+  Mn166  1  0.08321228  0.16622300  0.08620419  1
  Mn3.34+  Mn167  1  0.74293932  0.66202089  0.41363443  1
  Mn3.34+  Mn168  1  0.74428939  0.16796974  0.41751758  1
  Mn3.34+  Mn169  1  0.73765085  0.66435806  0.08987851  1
  Mn3.34+  Mn170  1  0.08437329  0.66792632  0.74576844  1
  Mn3.34+  Mn171  1  0.25976581  0.17039965  0.58322381  1
  Mn3.34+  Mn172  1  0.57591490  0.16744347  0.91037694  1
  Mn3.34+  Mn173  1  0.41692975  0.66787249  0.41999231  1
  Mn3.34+  Mn174  1  0.40936425  0.16370955  0.41796618  1
  Mn3.34+  Mn175  1  0.74212115  0.16991037  0.08741450  1
  Mn3.34+  Mn176  1  0.75239612  0.66985197  0.75034539  1
  Mn3.34+  Mn177  1  0.25079803  0.66110225  0.25870972  1
  Mn3.34+  Mn178  1  0.74014995  0.15671329  0.42197357  1
  Mn3.34+  Mn179  1  0.57971660  0.66575428  0.58023140  1
  Mn3.34+  Mn180  1  0.24041500  0.50076384  0.91812161  1
  Mn3.34+  Mn181  1  0.39528421  0.48820661  0.73929580  1
  Mn3.34+  Mn182  1  0.92088305  0.49462440  0.58652105  1
  Mn3.34+  Mn183  1  0.57582706  -0.00158116  0.91283256  1
  Mn3.34+  Mn184  1  0.40475662  0.49390673  0.74439976  1
  Mn3.34+  Mn185  1  0.41257746  0.50021720  0.40711203  1
  Mn3.34+  Mn186  1  0.90020373  0.00090709  0.59059472  1
  Mn3.34+  Mn187  1  0.58450498  0.50622529  0.58303113  1
  Mn3.34+  Mn188  1  0.75258306  0.49795021  0.41636858  1
  Mn3.34+  Mn189  1  0.09934287  0.00049558  0.08352427  1
  Mn3.34+  Mn190  1  0.73541740  0.00377344  0.74386198  1
  Mn3.34+  Mn191  1  0.58013864  -0.00153731  0.26436397  1
  Mn3.34+  Mn192  1  0.08584916  -0.00613256  0.08549790  1
  Mn3.34+  Mn193  1  0.41342313  0.00063147  0.41438014  1
  Mn3.34+  Mn194  1  0.74925370  0.50531287  0.08225249  1
  Mn3.34+  Mn195  1  0.09493433  0.00181200  0.74715299  1
  Mn3.34+  Mn196  1  0.91535709  0.00235958  0.91916415  1
  Mn3.34+  Mn197  1  0.26329661  0.00172625  0.58118594  1
  Mn3.34+  Mn198  1  0.26123841  -0.00250250  0.23229172  1
  Mn3.34+  Mn199  1  0.93061612  0.50307325  0.92478175  1
  Mn3.34+  Mn200  1  0.58480130  0.50051220  0.24681081  1
  Mn3.34+  Mn201  1  0.24869103  0.00208644  0.91966837  1
  Mn3.34+  Mn202  1  0.25638287  -0.00745273  0.24514467  1
  Mn3.34+  Mn203  1  0.91021313  -0.00275620  0.24441542  1
  Mn3.34+  Mn204  1  0.10250163  -0.00017888  0.40729648  1
  Mn3.34+  Mn205  1  0.92198476  -0.00638892  0.24459358  1
  Mn3.34+  Mn206  1  0.58229008  0.50062101  0.90858202  1
  Mn3.34+  Mn207  1  0.08087342  -0.00491443  0.74640720  1
  Mn3.34+  Mn208  1  0.58100547  0.00606902  0.60101843  1
  Mn3.34+  Mn209  1  0.73530807  0.49951595  0.08171218  1
  Mn3.34+  Mn210  1  0.09516063  0.49756253  0.74763270  1
  Mn3.34+  Mn211  1  0.74983131  0.49780646  0.75027589  1
  Mn3.34+  Mn212  1  0.73499421  -0.00164117  0.08142189  1
  Mn3.34+  Mn213  1  0.93007376  -0.00303715  0.92224251  1
  Mn3.34+  Mn214  1  0.41537314  0.49935057  0.07832542  1
  Mn3.34+  Mn215  1  0.57104985  0.49948702  0.58366765  1
  O2-  O216  1  0.00294591  0.14544748  0.00331411  1
  O2-  O217  1  -0.01390325  0.15372842  0.33333490  1
  O2-  O218  1  0.00246319  0.14567433  0.65752147  1
  O2-  O219  1  -0.00262896  0.66575998  -0.00341428  1
  O2-  O220  1  0.01020558  0.66101068  0.32822810  1
  O2-  O221  1  0.00757018  0.65157247  0.66428347  1
  O2-  O222  1  0.33107872  0.16689176  -0.01240372  1
  O2-  O223  1  0.33460722  0.15936669  0.33892593  1
  O2-  O224  1  0.33831416  0.15700093  0.66824677  1
  O2-  O225  1  0.31799657  0.64053180  0.00042132  1
  O2-  O226  1  0.32634420  0.66861138  0.34187760  1
  O2-  O227  1  0.32493315  0.65340806  0.67447619  1
  O2-  O228  1  0.66442961  0.16336074  -0.00246750  1
  O2-  O229  1  0.66624913  0.18335221  0.33530250  1
  O2-  O230  1  0.66716560  0.16238975  0.66159307  1
  O2-  O231  1  0.67221232  0.65259602  -0.00703622  1
  O2-  O232  1  0.66266133  0.67409913  0.33739628  1
  O2-  O233  1  0.67032414  0.64221965  0.66030272  1
  O2-  O234  1  0.16992068  0.16077301  -0.00077171  1
  O2-  O235  1  0.14232818  0.19770981  0.34587399  1
  O2-  O236  1  0.17495499  0.15841299  0.66522050  1
  O2-  O237  1  0.16295562  0.66033012  -0.00115100  1
  O2-  O238  1  0.16607178  0.69387302  0.33772038  1
  O2-  O239  1  0.16262691  0.65834636  0.66226198  1
  O2-  O240  1  0.50227215  0.16756518  -0.00609381  1
  O2-  O241  1  0.49865388  0.16309823  0.34467933  1
  O2-  O242  1  0.50395604  0.15551521  0.67387155  1
  O2-  O243  1  0.49683494  0.66267589  -0.01036581  1
  O2-  O244  1  0.49173305  0.67050868  0.33674580  1
  O2-  O245  1  0.49173756  0.64370576  0.66037179  1
  O2-  O246  1  0.82996121  0.14862040  -0.00528405  1
  O2-  O247  1  0.82066966  0.15767800  0.33008470  1
  O2-  O248  1  0.83656547  0.14791134  0.66908726  1
  O2-  O249  1  0.83263373  0.63954120  0.01592343  1
  O2-  O250  1  0.83678778  0.64295939  0.33588531  1
  O2-  O251  1  0.83786504  0.64712043  0.68044625  1
  O2-  O252  1  0.00114243  0.34575028  -0.00200495  1
  O2-  O253  1  0.00615176  0.33262061  0.33924943  1
  O2-  O254  1  0.00219721  0.34352751  0.67010299  1
  O2-  O255  1  0.00018694  0.83344124  0.00417797  1
  O2-  O256  1  -0.00331289  0.83487311  0.33853506  1
  O2-  O257  1  0.00035536  0.85244845  0.66891861  1
  O2-  O258  1  0.32540970  0.35130711  0.00758533  1
  O2-  O259  1  0.33090414  0.35408844  0.33799069  1
  O2-  O260  1  0.33111591  0.34668333  0.67388507  1
  O2-  O261  1  0.33452569  0.84481057  -0.00429083  1
  O2-  O262  1  0.32641242  0.82969878  0.33927144  1
  O2-  O263  1  0.33430562  0.85038172  0.66735461  1
  O2-  O264  1  0.66805131  0.33682041  -0.00395842  1
  O2-  O265  1  0.67045582  0.33522871  0.32925996  1
  O2-  O266  1  0.66974952  0.34512134  0.66098159  1
  O2-  O267  1  0.66011826  0.85065153  0.00608629  1
  O2-  O268  1  0.66166192  0.83759818  0.33352902  1
  O2-  O269  1  0.66761385  0.85025086  0.66414748  1
  O2-  O270  1  0.16581097  0.33418988  -0.00517804  1
  O2-  O271  1  0.16763828  0.33775849  0.33674902  1
  O2-  O272  1  0.16225449  0.33553381  0.66055320  1
  O2-  O273  1  0.16249450  0.82314748  -0.00319019  1
  O2-  O274  1  0.16448410  0.81987941  0.33213138  1
  O2-  O275  1  0.16801526  0.85426266  0.66691471  1
  O2-  O276  1  0.49678454  0.33764558  -0.00186417  1
  O2-  O277  1  0.50199162  0.34543855  0.32939596  1
  O2-  O278  1  0.50310097  0.34663307  0.67233237  1
  O2-  O279  1  0.49608570  0.84163596  -0.00301468  1
  O2-  O280  1  0.50228972  0.83185176  0.33382393  1
  O2-  O281  1  0.49716002  0.84421410  0.66762885  1
  O2-  O282  1  0.84261096  0.35381816  0.00969025  1
  O2-  O283  1  0.83477942  0.34512238  0.33835344  1
  O2-  O284  1  0.83908994  0.35346066  0.67176039  1
  O2-  O285  1  0.82658834  0.85199782  -0.00635464  1
  O2-  O286  1  0.82910162  0.85266656  0.32736865  1
  O2-  O287  1  0.82793840  0.85882807  0.65744915  1
  O2-  O288  1  -0.00297983  0.17650496  0.16235802  1
  O2-  O289  1  -0.00045094  0.18321264  0.49990721  1
  O2-  O290  1  -0.00482912  0.18956184  0.83001563  1
  O2-  O291  1  -0.00932493  0.68315434  0.16251620  1
  O2-  O292  1  0.00479171  0.68185903  0.48456268  1
  O2-  O293  1  -0.00725893  0.67768032  0.81897758  1
  O2-  O294  1  0.35062557  0.17278287  0.16932805  1
  O2-  O295  1  0.33594837  0.18370748  0.50187171  1
  O2-  O296  1  0.33293599  0.18715397  0.82896312  1
  O2-  O297  1  0.33046964  0.68080615  0.18041329  1
  O2-  O298  1  0.33846292  0.67794662  0.51038834  1
  O2-  O299  1  0.34048372  0.67348244  0.84269490  1
  O2-  O300  1  0.66439526  0.18277930  0.16293088  1
  O2-  O301  1  0.66265695  0.18389141  0.49798613  1
  O2-  O302  1  0.66937876  0.18208960  0.84132653  1
  O2-  O303  1  0.66345323  0.69404876  0.16252844  1
  O2-  O304  1  0.67118612  0.68467210  0.50004577  1
  O2-  O305  1  0.66151614  0.68437999  0.82919936  1
  O2-  O306  1  0.16927031  0.17936883  0.16840159  1
  O2-  O307  1  0.16862041  0.18076326  0.51165165  1
  O2-  O308  1  0.16861338  0.18992247  0.84178427  1
  O2-  O309  1  0.17257066  0.68320702  0.16802805  1
  O2-  O310  1  0.16409069  0.68835316  0.49987676  1
  O2-  O311  1  0.16642729  0.68702813  0.82809642  1
  O2-  O312  1  0.49464387  0.17990889  0.17974014  1
  O2-  O313  1  0.50038179  0.17622810  0.50235015  1
  O2-  O314  1  0.49599357  0.18697951  0.83488893  1
  O2-  O315  1  0.49892722  0.69264497  0.17712657  1
  O2-  O316  1  0.50136879  0.68292896  0.49991474  1
  O2-  O317  1  0.50304258  0.67981704  0.82566714  1
  O2-  O318  1  0.83258456  0.17830092  0.16221233  1
  O2-  O319  1  0.82965331  0.19739078  0.48691585  1
  O2-  O320  1  0.83232793  0.18427328  0.83534994  1
  O2-  O321  1  0.83046121  0.67937665  0.17026616  1
  O2-  O322  1  0.82990745  0.67176115  0.49898503  1
  O2-  O323  1  0.82102632  0.68029082  0.84326142  1
  O2-  O324  1  -0.00402532  0.33026147  0.15904650  1
  O2-  O325  1  0.00658766  0.31405251  0.50021237  1
  O2-  O326  1  0.00240178  0.31349968  0.83467380  1
  O2-  O327  1  0.00151242  0.81279045  0.16729722  1
  O2-  O328  1  0.00538763  0.81754246  0.50531887  1
  O2-  O329  1  0.00148334  0.81848054  0.83612956  1
  O2-  O330  1  0.33204383  0.33375968  0.16596192  1
  O2-  O331  1  0.33404506  0.31951001  0.50100322  1
  O2-  O332  1  0.34254978  0.31514835  0.84480304  1
  O2-  O333  1  0.33515190  0.81408176  0.17154455  1
  O2-  O334  1  0.33300296  0.82702585  0.50366871  1
  O2-  O335  1  0.32982810  0.82049483  0.82931045  1
  O2-  O336  1  0.66174332  0.30887333  0.16327925  1
  O2-  O337  1  0.66096833  0.31478982  0.49301083  1
  O2-  O338  1  0.66238821  0.31484291  0.82946951  1
  O2-  O339  1  0.67030027  0.81841568  0.17243838  1
  O2-  O340  1  0.67130646  0.82499880  0.50446127  1
  O2-  O341  1  0.66796585  0.82238554  0.83813281  1
  O2-  O342  1  0.17215499  0.32251684  0.15773895  1
  O2-  O343  1  0.17110856  0.31618993  0.49591445  1
  O2-  O344  1  0.17167539  0.31314826  0.82937986  1
  O2-  O345  1  0.16581616  0.80523410  0.17064590  1
  O2-  O346  1  0.16576782  0.81950484  0.50474375  1
  O2-  O347  1  0.16747259  0.81624455  0.83582402  1
  O2-  O348  1  0.49986486  0.32045826  0.16547411  1
  O2-  O349  1  0.50413092  0.32433366  0.49086879  1
  O2-  O350  1  0.50234844  0.31264290  0.83373128  1
  O2-  O351  1  0.50316958  0.82196919  0.16099659  1
  O2-  O352  1  0.50400720  0.82772280  0.49818703  1
  O2-  O353  1  0.49697112  0.81790579  0.83877263  1
  O2-  O354  1  0.82448003  0.32716711  0.17421960  1
  O2-  O355  1  0.82813991  0.31684401  0.50643276  1
  O2-  O356  1  0.83085636  0.31586303  0.84461119  1
  O2-  O357  1  0.83831473  0.81877423  0.16157770  1
  O2-  O358  1  0.83401436  0.83341242  0.49919656  1
  O2-  O359  1  0.83742651  0.82056467  0.82365447  1
  O2-  O360  1  0.08162109  0.07667467  0.13321538  1
  O2-  O361  1  0.06289736  0.07515648  0.44970768  1
  O2-  O362  1  0.06025986  0.07888888  0.77976183  1
  O2-  O363  1  0.09794978  0.57115981  0.13265983  1
  O2-  O364  1  0.08509317  0.58512334  0.43456079  1
  O2-  O365  1  0.08130082  0.58045690  0.77315715  1
  O2-  O366  1  0.41891340  0.06483854  0.12320020  1
  O2-  O367  1  0.42231677  0.08006653  0.43732761  1
  O2-  O368  1  0.40609864  0.08709174  0.79097142  1
  O2-  O369  1  0.37417138  0.57281446  0.10829837  1
  O2-  O370  1  0.42695176  0.58037727  0.43541512  1
  O2-  O371  1  0.42113127  0.56951038  0.80037122  1
  O2-  O372  1  0.74446564  0.08404639  0.10926899  1
  O2-  O373  1  0.78186455  0.08056610  0.44252099  1
  O2-  O374  1  0.77355363  0.08128088  0.79783674  1
  O2-  O375  1  0.73611880  0.58168443  0.12703233  1
  O2-  O376  1  0.74452367  0.57966423  0.44404407  1
  O2-  O377  1  0.73729311  0.58108714  0.78866416  1
  O2-  O378  1  0.25594271  0.07687821  0.21451044  1
  O2-  O379  1  0.24052280  0.08190994  0.56116842  1
  O2-  O380  1  0.23488886  0.07828626  0.87366423  1
  O2-  O381  1  0.23642407  0.57946053  0.22864145  1
  O2-  O382  1  0.23921560  0.58963601  0.56197392  1
  O2-  O383  1  0.24676526  0.57885989  0.86885050  1
  O2-  O384  1  0.57293716  0.07086128  0.22259148  1
  O2-  O385  1  0.58771396  0.07814104  0.54942444  1
  O2-  O386  1  0.59259889  0.07937396  0.88606620  1
  O2-  O387  1  0.56963207  0.57781211  0.24299417  1
  O2-  O388  1  0.58066971  0.58038145  0.53398433  1
  O2-  O389  1  0.57509406  0.58400108  0.88800397  1
  O2-  O390  1  0.90523420  0.08102816  0.22661943  1
  O2-  O391  1  0.91584248  0.08308329  0.54133241  1
  O2-  O392  1  0.93236654  0.08343192  0.88381250  1
  O2-  O393  1  0.93484143  0.58264255  0.22045315  1
  O2-  O394  1  0.92833922  0.57110521  0.55247420  1
  O2-  O395  1  0.90378376  0.58007556  0.87455366  1
  O2-  O396  1  0.08911391  0.41391436  0.09168099  1
  O2-  O397  1  0.08622513  0.41797437  0.45035805  1
  O2-  O398  1  0.07648578  0.42228161  0.78741073  1
  O2-  O399  1  0.08362453  0.91454044  0.11391394  1
  O2-  O400  1  0.09382268  0.91629877  0.43859531  1
  O2-  O401  1  0.08994302  0.91793411  0.78761584  1
  O2-  O402  1  0.43157775  0.42006328  0.10940627  1
  O2-  O403  1  0.43303977  0.42217980  0.44448871  1
  O2-  O404  1  0.42873514  0.41408602  0.78901822  1
  O2-  O405  1  0.42087216  0.91642323  0.09221560  1
  O2-  O406  1  0.40910152  0.92095287  0.44926659  1
  O2-  O407  1  0.40994173  0.91765067  0.78753158  1
  O2-  O408  1  0.73739255  0.41822459  0.11589549  1
  O2-  O409  1  0.72219161  0.41971337  0.44880037  1
  O2-  O410  1  0.74765442  0.41548474  0.78480513  1
  O2-  O411  1  0.76203649  0.91968567  0.12068892  1
  O2-  O412  1  0.74136216  0.91982587  0.43765513  1
  O2-  O413  1  0.75977150  0.92231183  0.78584610  1
  O2-  O414  1  0.25378223  0.42262386  0.22112193  1
  O2-  O415  1  0.24058505  0.41618842  0.54941604  1
  O2-  O416  1  0.23544485  0.42027114  0.89759310  1
  O2-  O417  1  0.23094891  0.91344085  0.24011127  1
  O2-  O418  1  0.23758759  0.92146538  0.54966105  1
  O2-  O419  1  0.24347568  0.91961327  0.89437527  1
  O2-  O420  1  0.60881781  0.42027463  0.21500820  1
  O2-  O421  1  0.58871833  0.41956967  0.54924198  1
  O2-  O422  1  0.58653091  0.41876688  0.89312936  1
  O2-  O423  1  0.59284968  0.92656650  0.21495526  1
  O2-  O424  1  0.59037265  0.92652929  0.55167550  1
  O2-  O425  1  0.57520465  0.91779497  0.89871196  1
  O2-  O426  1  0.89800712  0.42435250  0.21384796  1
  O2-  O427  1  0.91206937  0.41811055  0.54289398  1
  O2-  O428  1  0.92636282  0.42168855  0.88479902  1
  O2-  O429  1  0.93621497  0.91185294  0.22192141  1
  O2-  O430  1  0.94175854  0.92296509  0.54853743  1
  O2-  O431  1  0.92905770  0.91617157  0.89436140  1
  O2-  O432  1  -0.01304810  0.01192682  0.02428698  1
  O2-  O433  1  -0.00561610  0.00308642  0.34137211  1
  O2-  O434  1  0.00203269  0.01250180  0.66024244  1
  O2-  O435  1  -0.01724040  0.50265304  0.03700380  1
  O2-  O436  1  -0.00403179  0.50871168  0.35167708  1
  O2-  O437  1  -0.01166527  0.49692336  0.68773178  1
  O2-  O438  1  0.34327721  0.01339297  -0.02768749  1
  O2-  O439  1  0.33097718  -0.00702161  0.33188509  1
  O2-  O440  1  0.31640819  -0.00730328  0.67555528  1
  O2-  O441  1  0.34912274  0.50089876  -0.03002692  1
  O2-  O442  1  0.33215929  0.48803815  0.34058763  1
  O2-  O443  1  0.33399361  0.51874635  0.65416528  1
  O2-  O444  1  0.68375725  -0.00086153  -0.03433490  1
  O2-  O445  1  0.68144179  0.00759913  0.30279456  1
  O2-  O446  1  0.69436738  -0.00399047  0.63051204  1
  O2-  O447  1  0.67038269  0.50364486  -0.01430707  1
  O2-  O448  1  0.66916550  0.48701760  0.32945555  1
  O2-  O449  1  0.67133002  0.49503563  0.65836596  1
  O2-  O450  1  0.14359950  0.00258322  -0.02438754  1
  O2-  O451  1  0.15758601  0.01038296  0.30147447  1
  O2-  O452  1  0.15268204  -0.00350938  0.64345312  1
  O2-  O453  1  0.19398342  0.49763509  0.03039441  1
  O2-  O454  1  0.15004699  0.49090663  0.34150635  1
  O2-  O455  1  0.14960876  0.50601255  0.65273680  1
  O2-  O456  1  0.51106362  0.00796619  -0.00201094  1
  O2-  O457  1  0.52466864  -0.00408810  0.36412615  1
  O2-  O458  1  0.48590141  -0.00289527  0.64514163  1
  O2-  O459  1  0.49884801  0.50574397  -0.00665900  1
  O2-  O460  1  0.50588430  0.48659618  0.33769266  1
  O2-  O461  1  0.50721089  0.50670016  0.68198840  1
  O2-  O462  1  0.83207444  0.01863915  -0.00164470  1
  O2-  O463  1  0.84310186  -0.00611365  0.33862593  1
  O2-  O464  1  0.85789676  0.00680732  0.70632585  1
  O2-  O465  1  0.82592235  0.49013925  -0.00614456  1
  O2-  O466  1  0.83390468  0.47437267  0.34721575  1
  O2-  O467  1  0.83835625  0.51617990  0.66949234  1
  O2-  O468  1  0.90950228  0.25234319  0.61487766  1
  O2-  O469  1  0.26027175  0.25734739  0.26007363  1
  O2-  O470  1  0.58499685  0.74857651  0.61201113  1
  O2-  O471  1  0.76279283  0.74999197  0.05282152  1
  O2-  O472  1  0.41412059  0.25339249  0.39607737  1
  O2-  O473  1  0.41090427  0.75360904  0.06233737  1
  O2-  O474  1  0.76665647  0.75169884  0.39827653  1
  O2-  O475  1  0.57586067  0.24892326  0.60442789  1
  O2-  O476  1  0.59148881  0.75161054  0.94110367  1
  O2-  O477  1  0.07938617  0.75093582  0.72160064  1
  O2-  O478  1  0.40919215  0.25564301  0.06767492  1
  O2-  O479  1  0.74820610  0.75098045  0.71788827  1
  O2-  O480  1  0.90661889  0.75610156  0.60689928  1
  O2-  O481  1  0.41358158  0.75134445  0.72441884  1
  O2-  O482  1  0.25869333  0.75329617  0.60793209  1
  O2-  O483  1  0.90370485  0.74910099  0.94110957  1
  O2-  O484  1  0.41374404  0.75155642  0.41395015  1
  O2-  O485  1  0.06368406  0.24850701  0.05463109  1
  O2-  O486  1  0.77122756  0.24935327  0.05369273  1
  O2-  O487  1  0.90129698  0.74639986  0.28215184  1
  O2-  O488  1  0.41771182  0.25041529  0.72014874  1
  O2-  O489  1  0.76109400  0.25170503  0.72297320  1
  O2-  O490  1  0.25908539  0.25174400  0.60594765  1
  O2-  O491  1  0.26684514  0.74673854  0.93843175  1
  O2-  O492  1  0.91068058  0.25080278  0.26429687  1
