# generated using pymatgen
data_Ca108Mn108O277
_symmetry_space_group_name_H-M   'P 1'
_cell_length_a   16.02129390
_cell_length_b   22.29625435
_cell_length_c   16.38381649
_cell_angle_alpha   90.00330279
_cell_angle_beta   90.00309006
_cell_angle_gamma   90.00028293
_symmetry_Int_Tables_number   1
_chemical_formula_structural   Ca108Mn108O277
_chemical_formula_sum   'Ca108 Mn108 O277'
_cell_volume   5852.54243047
_cell_formula_units_Z   1
loop_
 _symmetry_equiv_pos_site_id
 _symmetry_equiv_pos_as_xyz
  1  'x, y, z'
loop_
 _atom_type_symbol
 _atom_type_oxidation_number
  Ca2+  2.0
  Mn3.34+  3.34
  O2-  -2.0
loop_
 _atom_site_type_symbol
 _atom_site_label
 _atom_site_symmetry_multiplicity
 _atom_site_fract_x
 _atom_site_fract_y
 _atom_site_fract_z
 _atom_site_occupancy
  Ca2+  Ca0  1  0.06366236  0.24519802  0.25575500  1
  Ca2+  Ca1  1  0.08789013  0.24159180  0.59148128  1
  Ca2+  Ca2  1  0.08391915  0.23617429  0.90533650  1
  Ca2+  Ca3  1  0.10203796  0.75967797  0.23544466  1
  Ca2+  Ca4  1  0.07013707  0.75391739  0.59078200  1
  Ca2+  Ca5  1  0.07647616  0.75977412  0.92367888  1
  Ca2+  Ca6  1  0.43203575  0.24757530  0.26596189  1
  Ca2+  Ca7  1  0.40612951  0.23816028  0.55196813  1
  Ca2+  Ca8  1  0.42082037  0.24518319  0.92329417  1
  Ca2+  Ca9  1  0.38842167  0.75996325  0.24492191  1
  Ca2+  Ca10  1  0.42595355  0.75152501  0.59284809  1
  Ca2+  Ca11  1  0.40492790  0.75835756  0.91799000  1
  Ca2+  Ca12  1  0.75385436  0.23928485  0.24907955  1
  Ca2+  Ca13  1  0.76098353  0.24220194  0.56523388  1
  Ca2+  Ca14  1  0.74245089  0.23690608  0.93317502  1
  Ca2+  Ca15  1  0.76292238  0.76537148  0.24920006  1
  Ca2+  Ca16  1  0.75471745  0.75137118  0.58775716  1
  Ca2+  Ca17  1  0.76475972  0.75402039  0.92004546  1
  Ca2+  Ca18  1  0.24329518  0.23845507  0.05492241  1
  Ca2+  Ca19  1  0.25236846  0.24263015  0.42829052  1
  Ca2+  Ca20  1  0.22598099  0.22818706  0.75744429  1
  Ca2+  Ca21  1  0.24546575  0.75919529  0.09235040  1
  Ca2+  Ca22  1  0.24746229  0.75646737  0.39285445  1
  Ca2+  Ca23  1  0.24904014  0.75263597  0.76388287  1
  Ca2+  Ca24  1  0.59384165  0.23952508  0.07264724  1
  Ca2+  Ca25  1  0.58117696  0.24395745  0.41136638  1
  Ca2+  Ca26  1  0.58385525  0.24992491  0.77035378  1
  Ca2+  Ca27  1  0.58467525  0.76561812  0.07486587  1
  Ca2+  Ca28  1  0.59057374  0.76035740  0.43688417  1
  Ca2+  Ca29  1  0.58568735  0.75508362  0.74582626  1
  Ca2+  Ca30  1  0.90890221  0.24249512  0.08283159  1
  Ca2+  Ca31  1  0.92100134  0.23342173  0.40566632  1
  Ca2+  Ca32  1  0.94527143  0.24080803  0.75335291  1
  Ca2+  Ca33  1  0.92361315  0.75498954  0.06854499  1
  Ca2+  Ca34  1  0.90942088  0.76297316  0.42446221  1
  Ca2+  Ca35  1  0.91607456  0.74977030  0.75828544  1
  Ca2+  Ca36  1  0.58128131  0.08460502  0.75787088  1
  Ca2+  Ca37  1  0.41597681  0.08637978  0.26917578  1
  Ca2+  Ca38  1  0.59364060  0.08628173  0.76051596  1
  Ca2+  Ca39  1  0.58162174  0.58085858  0.41701241  1
  Ca2+  Ca40  1  0.23788759  0.59040450  0.41097503  1
  Ca2+  Ca41  1  0.09417132  0.59740118  0.58170886  1
  Ca2+  Ca42  1  0.59559145  0.59225802  0.07813020  1
  Ca2+  Ca43  1  0.74931207  0.57962883  0.25479095  1
  Ca2+  Ca44  1  0.06130165  0.07937579  0.25985422  1
  Ca2+  Ca45  1  0.26044897  0.09344108  0.42343340  1
  Ca2+  Ca46  1  0.26535529  0.59447375  0.73996621  1
  Ca2+  Ca47  1  0.73638747  0.57953977  0.25508639  1
  Ca2+  Ca48  1  0.94590621  0.09805285  0.75862291  1
  Ca2+  Ca49  1  0.39846261  0.59038594  0.25323873  1
  Ca2+  Ca50  1  0.10359711  0.59594364  0.24699008  1
  Ca2+  Ca51  1  0.59441183  0.58087218  0.41702420  1
  Ca2+  Ca52  1  0.74551452  0.59574185  0.58569619  1
  Ca2+  Ca53  1  0.24811286  0.08486903  0.04940454  1
  Ca2+  Ca54  1  0.58033581  0.59146109  0.74797893  1
  Ca2+  Ca55  1  0.40091958  0.09713215  0.92334855  1
  Ca2+  Ca56  1  0.08669863  0.10726837  0.57618498  1
  Ca2+  Ca57  1  0.24186777  0.60276699  0.08742860  1
  Ca2+  Ca58  1  0.07167300  0.59913131  0.91791883  1
  Ca2+  Ca59  1  0.58994152  0.09864237  0.06121372  1
  Ca2+  Ca60  1  0.11340849  0.59916117  0.24941102  1
  Ca2+  Ca61  1  0.09539415  0.09400588  0.90804236  1
  Ca2+  Ca62  1  0.56800528  0.58900978  0.74759340  1
  Ca2+  Ca63  1  0.55952695  0.10160917  0.42861763  1
  Ca2+  Ca64  1  0.58282491  0.59227942  0.07883919  1
  Ca2+  Ca65  1  0.41256119  0.08338995  0.27773030  1
  Ca2+  Ca66  1  0.92283560  0.59402379  0.41466193  1
  Ca2+  Ca67  1  0.38814124  0.59365950  0.25051078  1
  Ca2+  Ca68  1  0.08158132  0.59663392  0.58202577  1
  Ca2+  Ca69  1  0.41361906  0.59527121  0.90802716  1
  Ca2+  Ca70  1  0.05134406  0.07958440  0.26136218  1
  Ca2+  Ca71  1  0.42645204  0.59578959  0.90849169  1
  Ca2+  Ca72  1  0.58017081  0.40628200  0.41286104  1
  Ca2+  Ca73  1  0.91350801  0.39107292  0.75399261  1
  Ca2+  Ca74  1  0.07520976  0.39590512  0.24754615  1
  Ca2+  Ca75  1  0.91982594  0.91730352  0.07537591  1
  Ca2+  Ca76  1  0.40966527  0.91069336  0.57906723  1
  Ca2+  Ca77  1  0.74998423  0.91451453  0.59650182  1
  Ca2+  Ca78  1  0.74866651  0.39647018  0.57639728  1
  Ca2+  Ca79  1  0.39946861  0.91905182  0.93310372  1
  Ca2+  Ca80  1  0.09087024  0.39658815  0.57393128  1
  Ca2+  Ca81  1  0.27108301  0.40449745  0.74575858  1
  Ca2+  Ca82  1  0.58204512  0.91603433  0.41012041  1
  Ca2+  Ca83  1  0.39876924  0.90903651  0.57736747  1
  Ca2+  Ca84  1  0.56927360  0.91627007  0.40983858  1
  Ca2+  Ca85  1  0.06690078  0.39689273  0.91890529  1
  Ca2+  Ca86  1  0.59151909  0.91323174  0.75156868  1
  Ca2+  Ca87  1  0.73897904  0.91539406  0.59758986  1
  Ca2+  Ca88  1  0.55727308  0.40501856  0.75898959  1
  Ca2+  Ca89  1  0.41677971  0.40135954  0.25551490  1
  Ca2+  Ca90  1  0.59133507  0.39810307  0.09186214  1
  Ca2+  Ca91  1  0.93170924  0.92106822  0.38538060  1
  Ca2+  Ca92  1  0.24733756  0.39562309  0.41800089  1
  Ca2+  Ca93  1  0.76700902  0.91449508  0.25103210  1
  Ca2+  Ca94  1  0.76318399  0.92060813  0.91643178  1
  Ca2+  Ca95  1  0.24364712  0.38920732  0.09074280  1
  Ca2+  Ca96  1  0.57870005  0.39781386  0.09116227  1
  Ca2+  Ca97  1  0.91122809  0.91384144  0.76186541  1
  Ca2+  Ca98  1  0.24521110  0.90720659  0.75985849  1
  Ca2+  Ca99  1  0.75423407  0.40152020  0.25359719  1
  Ca2+  Ca100  1  0.41212905  0.40139207  0.58445740  1
  Ca2+  Ca101  1  0.73581328  0.39574827  0.57684438  1
  Ca2+  Ca102  1  0.09264448  0.90920335  0.58613624  1
  Ca2+  Ca103  1  0.41098306  0.91912189  0.93294059  1
  Ca2+  Ca104  1  0.56939563  0.40698375  0.75702506  1
  Ca2+  Ca105  1  0.10526608  0.90691966  0.58435312  1
  Ca2+  Ca106  1  0.92808296  0.91970253  0.08082264  1
  Ca2+  Ca107  1  0.07823459  0.39708454  0.91989891  1
  Mn3.34+  Mn108  1  0.07807113  0.32946359  0.08798998  1
  Mn3.34+  Mn109  1  0.08023766  0.32973799  0.41690163  1
  Mn3.34+  Mn110  1  0.08683276  0.33135292  0.74789420  1
  Mn3.34+  Mn111  1  0.08975400  0.84112587  0.08427071  1
  Mn3.34+  Mn112  1  0.08712180  0.83942273  0.41271128  1
  Mn3.34+  Mn113  1  0.08194506  0.83488040  0.75688061  1
  Mn3.34+  Mn114  1  0.41302510  0.32178578  0.08612628  1
  Mn3.34+  Mn115  1  0.41606541  0.33045462  0.41679432  1
  Mn3.34+  Mn116  1  0.41112020  0.32805794  0.75159426  1
  Mn3.34+  Mn117  1  0.41632248  0.83513435  0.08970637  1
  Mn3.34+  Mn118  1  0.41045799  0.84024612  0.41072866  1
  Mn3.34+  Mn119  1  0.41744603  0.83520070  0.75624207  1
  Mn3.34+  Mn120  1  0.75683829  0.32954819  0.08399241  1
  Mn3.34+  Mn121  1  0.75300478  0.32876479  0.41100783  1
  Mn3.34+  Mn122  1  0.75016647  0.32768822  0.75293003  1
  Mn3.34+  Mn123  1  0.74628585  0.83797398  0.08555487  1
  Mn3.34+  Mn124  1  0.75345354  0.83980999  0.41738293  1
  Mn3.34+  Mn125  1  0.75016462  0.83525313  0.75782539  1
  Mn3.34+  Mn126  1  0.24866476  0.32322595  0.24890053  1
  Mn3.34+  Mn127  1  0.25073959  0.33089247  0.58327822  1
  Mn3.34+  Mn128  1  0.25273384  0.32456003  0.91229346  1
  Mn3.34+  Mn129  1  0.24828962  0.84638869  0.24745864  1
  Mn3.34+  Mn130  1  0.25093280  0.82567812  0.57899508  1
  Mn3.34+  Mn131  1  0.24423420  0.83991361  0.92044225  1
  Mn3.34+  Mn132  1  0.58413927  0.33278902  0.25174210  1
  Mn3.34+  Mn133  1  0.57925224  0.32227132  0.58204163  1
  Mn3.34+  Mn134  1  0.58416582  0.32931982  0.91931556  1
  Mn3.34+  Mn135  1  0.58066616  0.83143747  0.24719879  1
  Mn3.34+  Mn136  1  0.58130011  0.83640107  0.58512442  1
  Mn3.34+  Mn137  1  0.58528704  0.83724635  0.91477521  1
  Mn3.34+  Mn138  1  0.91455080  0.32996249  0.25009731  1
  Mn3.34+  Mn139  1  0.91985283  0.32812933  0.57895184  1
  Mn3.34+  Mn140  1  0.90659235  0.32683580  0.91781526  1
  Mn3.34+  Mn141  1  0.92375216  0.83951426  0.24563181  1
  Mn3.34+  Mn142  1  0.91760337  0.83715106  0.58201758  1
  Mn3.34+  Mn143  1  0.91849740  0.83997193  0.91505407  1
  Mn3.34+  Mn144  1  0.75369308  0.15966938  0.08588702  1
  Mn3.34+  Mn145  1  0.91821911  0.15853150  0.92234348  1
  Mn3.34+  Mn146  1  0.58791710  0.17043717  0.57981807  1
  Mn3.34+  Mn147  1  0.24601719  0.67065280  0.91518412  1
  Mn3.34+  Mn148  1  0.92130754  0.66893959  0.24645022  1
  Mn3.34+  Mn149  1  0.07972707  0.67136393  0.75542051  1
  Mn3.34+  Mn150  1  0.23948411  0.16879030  0.24713893  1
  Mn3.34+  Mn151  1  0.75425768  0.66985340  0.75516940  1
  Mn3.34+  Mn152  1  0.08295223  0.66816118  0.07970743  1
  Mn3.34+  Mn153  1  0.58735398  0.16711108  0.24734276  1
  Mn3.34+  Mn154  1  0.75126208  0.16064166  0.41504623  1
  Mn3.34+  Mn155  1  0.92259998  0.17080884  0.57430647  1
  Mn3.34+  Mn156  1  0.41199149  0.67120854  0.08305322  1
  Mn3.34+  Mn157  1  0.58261561  0.68284573  0.25275343  1
  Mn3.34+  Mn158  1  0.90949973  0.15936582  0.24751333  1
  Mn3.34+  Mn159  1  0.75662341  0.67233453  0.07650112  1
  Mn3.34+  Mn160  1  0.75047180  0.16061327  0.74808072  1
  Mn3.34+  Mn161  1  0.41629191  0.67102886  0.42579913  1
  Mn3.34+  Mn162  1  0.91422383  0.67016293  0.58793112  1
  Mn3.34+  Mn163  1  0.58347819  0.67637315  0.24485431  1
  Mn3.34+  Mn164  1  0.75294880  0.66925625  0.42286803  1
  Mn3.34+  Mn165  1  0.24858734  0.67143191  0.58467614  1
  Mn3.34+  Mn166  1  0.07424644  0.15471683  0.08464751  1
  Mn3.34+  Mn167  1  0.58450362  0.66635798  0.58489063  1
  Mn3.34+  Mn168  1  0.91147685  0.66329019  0.24440817  1
  Mn3.34+  Mn169  1  0.40901242  0.17198146  0.74477718  1
  Mn3.34+  Mn170  1  0.76051059  0.16551826  0.74885209  1
  Mn3.34+  Mn171  1  0.58794826  0.67479193  0.91409375  1
  Mn3.34+  Mn172  1  0.40624124  0.66587580  0.42821660  1
  Mn3.34+  Mn173  1  0.91450271  0.66476034  0.91495229  1
  Mn3.34+  Mn174  1  0.24745948  0.16657576  0.23436951  1
  Mn3.34+  Mn175  1  0.41572775  0.67158676  0.74786871  1
  Mn3.34+  Mn176  1  0.08300954  0.67523410  0.41981074  1
  Mn3.34+  Mn177  1  0.24638420  0.16676306  0.57777095  1
  Mn3.34+  Mn178  1  0.41768323  0.16408062  0.08991603  1
  Mn3.34+  Mn179  1  0.41760969  0.16604609  0.74510293  1
  Mn3.34+  Mn180  1  0.08894173  -0.00018360  0.06309654  1
  Mn3.34+  Mn181  1  0.75992421  0.50687109  0.75441629  1
  Mn3.34+  Mn182  1  0.40677006  0.00016946  0.08363317  1
  Mn3.34+  Mn183  1  0.41416311  0.50055650  0.41579457  1
  Mn3.34+  Mn184  1  0.59744966  0.00446523  0.23815157  1
  Mn3.34+  Mn185  1  0.77745285  0.49738284  0.07461604  1
  Mn3.34+  Mn186  1  0.58403707  0.00116147  0.93016334  1
  Mn3.34+  Mn187  1  0.25127116  0.00396671  0.58431893  1
  Mn3.34+  Mn188  1  0.90985620  0.50156764  0.57194941  1
  Mn3.34+  Mn189  1  0.26160636  0.50148562  0.58955068  1
  Mn3.34+  Mn190  1  0.08972647  -0.00021527  0.74726775  1
  Mn3.34+  Mn191  1  0.76149740  0.00986273  0.40375839  1
  Mn3.34+  Mn192  1  0.92344586  0.50250488  0.90674202  1
  Mn3.34+  Mn193  1  0.24660219  0.49381493  0.24763127  1
  Mn3.34+  Mn194  1  0.58340854  0.00483409  0.59167620  1
  Mn3.34+  Mn195  1  0.92326356  0.49470886  0.57280241  1
  Mn3.34+  Mn196  1  0.59648360  0.49879674  0.91824441  1
  Mn3.34+  Mn197  1  0.40651771  -0.00043442  0.74900513  1
  Mn3.34+  Mn198  1  0.07857611  0.49873067  0.40795468  1
  Mn3.34+  Mn199  1  0.90856358  0.00382882  0.57830007  1
  Mn3.34+  Mn200  1  0.91864202  0.00805619  0.58195142  1
  Mn3.34+  Mn201  1  0.58421113  -0.00195377  0.23764756  1
  Mn3.34+  Mn202  1  0.40430896  0.49446679  0.08459220  1
  Mn3.34+  Mn203  1  0.41969282  0.49927074  0.08641508  1
  Mn3.34+  Mn204  1  0.75511877  0.00428804  0.07355166  1
  Mn3.34+  Mn205  1  0.76435873  0.50068568  0.76757561  1
  Mn3.34+  Mn206  1  0.07275502  0.50030851  0.75347938  1
  Mn3.34+  Mn207  1  0.09685612  -0.00135895  0.39946979  1
  Mn3.34+  Mn208  1  0.07340224  0.49807648  0.07581689  1
  Mn3.34+  Mn209  1  0.57025356  0.49895332  0.59399337  1
  Mn3.34+  Mn210  1  0.25507650  0.49509746  0.91431485  1
  Mn3.34+  Mn211  1  0.92138497  0.49686171  0.24626780  1
  Mn3.34+  Mn212  1  0.24102574  0.50129821  0.91494856  1
  Mn3.34+  Mn213  1  0.08838318  0.50473264  0.75198366  1
  Mn3.34+  Mn214  1  0.76404795  0.49488418  0.07397159  1
  Mn3.34+  Mn215  1  0.75893918  0.49754945  0.41556590  1
  O2-  O216  1  0.00070628  0.17346980  0.00217965  1
  O2-  O217  1  0.00203255  0.16201381  0.32201229  1
  O2-  O218  1  -0.00384558  0.16298069  0.66033847  1
  O2-  O219  1  0.00090866  0.66283998  -0.00250389  1
  O2-  O220  1  0.00200879  0.65487647  0.33390538  1
  O2-  O221  1  0.00547488  0.65687626  0.66219414  1
  O2-  O222  1  0.33764991  0.16648565  0.00966590  1
  O2-  O223  1  0.32919310  0.16777175  0.32161950  1
  O2-  O224  1  0.33493717  0.16950337  0.66133390  1
  O2-  O225  1  0.33522359  0.64837602  -0.00183727  1
  O2-  O226  1  0.32984292  0.65222917  0.33926507  1
  O2-  O227  1  0.32525829  0.67320184  0.67078914  1
  O2-  O228  1  0.67237072  0.16385016  0.00766430  1
  O2-  O229  1  0.65712147  0.15654205  0.34096072  1
  O2-  O230  1  0.66849372  0.18288435  0.66897636  1
  O2-  O231  1  0.66074601  0.66230639  0.00502325  1
  O2-  O232  1  0.66479121  0.65365633  0.33634961  1
  O2-  O233  1  0.66384534  0.65112367  0.66923016  1
  O2-  O234  1  0.15672352  0.16118988  0.00927280  1
  O2-  O235  1  0.16829883  0.17937915  0.33054575  1
  O2-  O236  1  0.16779653  0.16566721  0.65869227  1
  O2-  O237  1  0.16488687  0.65379800  -0.00383786  1
  O2-  O238  1  0.16391492  0.66262516  0.34051713  1
  O2-  O239  1  0.16519777  0.65818838  0.66577317  1
  O2-  O240  1  0.49449997  0.16617067  0.00828072  1
  O2-  O241  1  0.50087692  0.15499089  0.32337334  1
  O2-  O242  1  0.50517191  0.17806350  0.67013474  1
  O2-  O243  1  0.49970379  0.65423208  -0.00001413  1
  O2-  O244  1  0.49832675  0.64641786  0.32966988  1
  O2-  O245  1  0.50277318  0.65706152  0.66943354  1
  O2-  O246  1  0.83284127  0.16783153  0.00204727  1
  O2-  O247  1  0.82963687  0.16237813  0.33172479  1
  O2-  O248  1  0.83492393  0.16324892  0.66492376  1
  O2-  O249  1  0.83457545  0.66242606  -0.00190460  1
  O2-  O250  1  0.83115024  0.64717334  0.33379817  1
  O2-  O251  1  0.82667577  0.65577138  0.66213170  1
  O2-  O252  1  0.00139686  0.33416780  -0.00200776  1
  O2-  O253  1  0.00425974  0.32750505  0.32989231  1
  O2-  O254  1  0.00174727  0.34425031  0.66571464  1
  O2-  O255  1  -0.00504899  0.84445047  0.00418189  1
  O2-  O256  1  -0.00294206  0.83144701  0.33900250  1
  O2-  O257  1  0.00514362  0.85153978  0.66122478  1
  O2-  O258  1  0.32926877  0.32061023  0.00369061  1
  O2-  O259  1  0.33261465  0.33911294  0.33342827  1
  O2-  O260  1  0.33786369  0.33893603  0.66127559  1
  O2-  O261  1  0.33704150  0.84144279  -0.00756052  1
  O2-  O262  1  0.33020345  0.83383603  0.33245257  1
  O2-  O263  1  0.33340368  0.84198337  0.66641106  1
  O2-  O264  1  0.66378229  0.34356713  0.00721463  1
  O2-  O265  1  0.66427482  0.34831543  0.33379954  1
  O2-  O266  1  0.66528644  0.32868549  0.66617351  1
  O2-  O267  1  0.66959546  0.82709104  -0.00634465  1
  O2-  O268  1  0.66471233  0.83993689  0.33655555  1
  O2-  O269  1  0.66620791  0.84602061  0.66743742  1
  O2-  O270  1  0.16202433  0.33831484  -0.00041047  1
  O2-  O271  1  0.16679283  0.31884653  0.33339750  1
  O2-  O272  1  0.17101079  0.34926809  0.66818599  1
  O2-  O273  1  0.16482505  0.83200775  -0.00087926  1
  O2-  O274  1  0.16314960  0.82546504  0.33196320  1
  O2-  O275  1  0.16801986  0.83628264  0.66293002  1
  O2-  O276  1  0.50311561  0.33462416  0.00947905  1
  O2-  O277  1  0.49956177  0.34340288  0.33405611  1
  O2-  O278  1  0.50268416  0.32569429  0.67261063  1
  O2-  O279  1  0.49829396  0.82984167  -0.00709395  1
  O2-  O280  1  0.50837305  0.84060910  0.34071798  1
  O2-  O281  1  0.49425891  0.85406681  0.66516001  1
  O2-  O282  1  0.82967947  0.33430319  -0.00108349  1
  O2-  O283  1  0.83237169  0.34277106  0.33191069  1
  O2-  O284  1  0.82599402  0.34241487  0.66142884  1
  O2-  O285  1  0.83620999  0.85030483  0.00349519  1
  O2-  O286  1  0.83604532  0.84709004  0.33297037  1
  O2-  O287  1  0.83233588  0.85090904  0.66851531  1
  O2-  O288  1  0.00016187  0.17638617  0.16786002  1
  O2-  O289  1  0.00363026  0.18585156  0.50410466  1
  O2-  O290  1  -0.00174390  0.17201620  0.84023103  1
  O2-  O291  1  0.00828066  0.67372021  0.17053649  1
  O2-  O292  1  0.00020064  0.68268859  0.50003743  1
  O2-  O293  1  0.00471257  0.68259155  0.83847800  1
  O2-  O294  1  0.33136761  0.19488938  0.16714259  1
  O2-  O295  1  0.32455657  0.17134436  0.49564502  1
  O2-  O296  1  0.34005892  0.17943103  0.83213597  1
  O2-  O297  1  0.34130122  0.66904381  0.16877405  1
  O2-  O298  1  0.32569743  0.69533266  0.50657062  1
  O2-  O299  1  0.33778224  0.67412570  0.83751837  1
  O2-  O300  1  0.66561493  0.17860873  0.16541243  1
  O2-  O301  1  0.66755838  0.18388272  0.50007533  1
  O2-  O302  1  0.66704552  0.17652766  0.82326234  1
  O2-  O303  1  0.66645126  0.68383032  0.16195011  1
  O2-  O304  1  0.66528918  0.67817110  0.50052127  1
  O2-  O305  1  0.65790006  0.68396024  0.82437214  1
  O2-  O306  1  0.16115930  0.18817394  0.16315460  1
  O2-  O307  1  0.16693157  0.17896543  0.50127879  1
  O2-  O308  1  0.16658086  0.16597147  0.84391677  1
  O2-  O309  1  0.16311669  0.67238046  0.16223430  1
  O2-  O310  1  0.16020130  0.68593524  0.50734109  1
  O2-  O311  1  0.17122064  0.67751643  0.82803890  1
  O2-  O312  1  0.49838436  0.18557960  0.16970087  1
  O2-  O313  1  0.51164488  0.18318529  0.50328049  1
  O2-  O314  1  0.49830385  0.17967579  0.82479402  1
  O2-  O315  1  0.50299688  0.67584226  0.15859875  1
  O2-  O316  1  0.50748332  0.67796676  0.49773736  1
  O2-  O317  1  0.49636649  0.68215954  0.84148321  1
  O2-  O318  1  0.83317275  0.17800644  0.16595738  1
  O2-  O319  1  0.83630672  0.18004610  0.49273519  1
  O2-  O320  1  0.83619828  0.17627857  0.83105043  1
  O2-  O321  1  0.81735587  0.67158498  0.17692069  1
  O2-  O322  1  0.83826801  0.67401833  0.49916685  1
  O2-  O323  1  0.83406420  0.68386698  0.83362612  1
  O2-  O324  1  -0.00028877  0.31547726  0.16923865  1
  O2-  O325  1  0.00628292  0.31732898  0.50547662  1
  O2-  O326  1  0.00405988  0.32613046  0.83453901  1
  O2-  O327  1  -0.00254383  0.82403991  0.16104464  1
  O2-  O328  1  0.00430980  0.82193099  0.50070962  1
  O2-  O329  1  -0.00616023  0.82583746  0.82769547  1
  O2-  O330  1  0.33520739  0.31368300  0.17216532  1
  O2-  O331  1  0.33257943  0.32718389  0.49830673  1
  O2-  O332  1  0.32671399  0.31338000  0.82387238  1
  O2-  O333  1  0.33088582  0.82902873  0.16308338  1
  O2-  O334  1  0.34317513  0.82357930  0.50854534  1
  O2-  O335  1  0.33274708  0.82155521  0.83137174  1
  O2-  O336  1  0.66182714  0.32686231  0.16590231  1
  O2-  O337  1  0.66649935  0.31791993  0.50334682  1
  O2-  O338  1  0.65902948  0.32607861  0.82464138  1
  O2-  O339  1  0.66559259  0.81296989  0.17080883  1
  O2-  O340  1  0.66601053  0.83222565  0.50113116  1
  O2-  O341  1  0.66401499  0.81656511  0.83234836  1
  O2-  O342  1  0.16751877  0.31015091  0.16266240  1
  O2-  O343  1  0.16830534  0.32171609  0.49940110  1
  O2-  O344  1  0.16132736  0.33630717  0.83720918  1
  O2-  O345  1  0.16809038  0.82921906  0.16352741  1
  O2-  O346  1  0.16333202  0.81434056  0.50185918  1
  O2-  O347  1  0.16972572  0.82411068  0.83049497  1
  O2-  O348  1  0.50095661  0.32133489  0.16732754  1
  O2-  O349  1  0.49789250  0.32626069  0.50168234  1
  O2-  O350  1  0.49654492  0.31824957  0.83158200  1
  O2-  O351  1  0.49792050  0.80577246  0.17209299  1
  O2-  O352  1  0.49970416  0.82781363  0.50301557  1
  O2-  O353  1  0.50264526  0.81821708  0.83253950  1
  O2-  O354  1  0.82640414  0.32682869  0.17421005  1
  O2-  O355  1  0.82533136  0.32604524  0.50509882  1
  O2-  O356  1  0.84000182  0.31479594  0.82154711  1
  O2-  O357  1  0.83496548  0.82983927  0.16694969  1
  O2-  O358  1  0.82725469  0.82745782  0.50860227  1
  O2-  O359  1  0.83311859  0.82227986  0.83487338  1
  O2-  O360  1  0.09836057  0.06803778  0.12698783  1
  O2-  O361  1  0.09351664  0.06405509  0.45149947  1
  O2-  O362  1  0.07862941  0.07376786  0.77611096  1
  O2-  O363  1  0.08804707  0.58013497  0.11287540  1
  O2-  O364  1  0.07963659  0.57986064  0.45040868  1
  O2-  O365  1  0.09168363  0.58598521  0.77482617  1
  O2-  O366  1  0.41272273  0.07710394  0.13006763  1
  O2-  O367  1  0.40838498  0.07552960  0.41381190  1
  O2-  O368  1  0.43867987  0.08173258  0.77362479  1
  O2-  O369  1  0.42656975  0.58026176  0.11814924  1
  O2-  O370  1  0.42001371  0.58176184  0.45372630  1
  O2-  O371  1  0.42696471  0.58581136  0.77515753  1
  O2-  O372  1  0.73319436  0.07729909  0.11091192  1
  O2-  O373  1  0.73200291  0.08061717  0.44622874  1
  O2-  O374  1  0.72753649  0.07789109  0.76205623  1
  O2-  O375  1  0.73472294  0.57800291  0.11695356  1
  O2-  O376  1  0.74195944  0.58197059  0.44894510  1
  O2-  O377  1  0.73333243  0.58534185  0.78244944  1
  O2-  O378  1  0.26220318  0.08657342  0.20830979  1
  O2-  O379  1  0.23744551  0.08214491  0.56011309  1
  O2-  O380  1  0.25209853  0.08213780  0.90425275  1
  O2-  O381  1  0.25156603  0.57597873  0.21802183  1
  O2-  O382  1  0.23161850  0.58056110  0.55025599  1
  O2-  O383  1  0.25982252  0.58050754  0.87874871  1
  O2-  O384  1  0.57154834  0.08331772  0.21083263  1
  O2-  O385  1  0.58006086  0.08425328  0.57730158  1
  O2-  O386  1  0.57184172  0.07585313  0.89136128  1
  O2-  O387  1  0.59891001  0.58338081  0.21233521  1
  O2-  O388  1  0.58941359  0.57904601  0.55125327  1
  O2-  O389  1  0.56599447  0.58026800  0.88164818  1
  O2-  O390  1  0.92609241  0.08000603  0.23205018  1
  O2-  O391  1  0.92582621  0.08785785  0.55680005  1
  O2-  O392  1  0.92958593  0.08193898  0.89600502  1
  O2-  O393  1  0.90062127  0.57889398  0.21398753  1
  O2-  O394  1  0.93389728  0.58205851  0.55184881  1
  O2-  O395  1  0.93140131  0.58277226  0.88380776  1
  O2-  O396  1  0.09554781  0.41729960  0.11090538  1
  O2-  O397  1  0.10082819  0.41863620  0.43283100  1
  O2-  O398  1  0.07520395  0.41895340  0.77668738  1
  O2-  O399  1  0.07096837  0.92667804  0.10648784  1
  O2-  O400  1  0.07912435  0.92797454  0.45299389  1
  O2-  O401  1  0.09409998  0.91828253  0.76587416  1
  O2-  O402  1  0.41181473  0.41324840  0.10744806  1
  O2-  O403  1  0.41789575  0.41880311  0.43702912  1
  O2-  O404  1  0.42332075  0.41199683  0.75650709  1
  O2-  O405  1  0.42443801  0.91851210  0.07711613  1
  O2-  O406  1  0.43732849  0.92363595  0.44846137  1
  O2-  O407  1  0.41580748  0.91792095  0.79126649  1
  O2-  O408  1  0.73316448  0.41883638  0.11474978  1
  O2-  O409  1  0.73517067  0.41627633  0.44514591  1
  O2-  O410  1  0.75178291  0.41882801  0.76310288  1
  O2-  O411  1  0.75212844  0.92564852  0.11517350  1
  O2-  O412  1  0.73918658  0.93408913  0.46037212  1
  O2-  O413  1  0.74463878  0.91580496  0.77785656  1
  O2-  O414  1  0.24657928  0.41236779  0.22911494  1
  O2-  O415  1  0.25575261  0.42056652  0.55881960  1
  O2-  O416  1  0.25161052  0.41344309  0.89987499  1
  O2-  O417  1  0.24991012  0.92197492  0.24496703  1
  O2-  O418  1  0.24633706  0.91996333  0.55473115  1
  O2-  O419  1  0.26896356  0.91936564  0.89229020  1
  O2-  O420  1  0.57373764  0.41785463  0.22273248  1
  O2-  O421  1  0.59666912  0.41616861  0.56724417  1
  O2-  O422  1  0.57750660  0.41662402  0.89162613  1
  O2-  O423  1  0.59570609  0.91668728  0.23270905  1
  O2-  O424  1  0.58603677  0.92707203  0.54614588  1
  O2-  O425  1  0.57137599  0.92448743  0.88898249  1
  O2-  O426  1  0.92855532  0.41517867  0.23522912  1
  O2-  O427  1  0.90774637  0.41375495  0.56484867  1
  O2-  O428  1  0.92928998  0.41790956  0.88734000  1
  O2-  O429  1  0.91567086  0.92004154  0.22007114  1
  O2-  O430  1  0.92150563  0.92309706  0.54132079  1
  O2-  O431  1  0.90693963  0.91959579  0.89639211  1
  O2-  O432  1  -0.00500171  0.00175492  0.01719951  1
  O2-  O433  1  0.00638164  0.00134832  0.33744052  1
  O2-  O434  1  -0.00791925  -0.00432212  0.67585554  1
  O2-  O435  1  0.03149893  0.49472522  -0.04194855  1
  O2-  O436  1  0.00904156  0.52366862  0.31589134  1
  O2-  O437  1  0.00161628  0.50626126  0.65971977  1
  O2-  O438  1  0.33750442  0.00865644  -0.00412050  1
  O2-  O439  1  0.33315940  0.02630573  0.34463267  1
  O2-  O440  1  0.33903132  -0.01913478  0.65399801  1
  O2-  O441  1  0.34292119  0.51739381  -0.00976849  1
  O2-  O442  1  0.34105915  0.51080177  0.32045002  1
  O2-  O443  1  0.31962595  0.49777585  0.68210254  1
  O2-  O444  1  0.67600957  -0.00493863  -0.00716759  1
  O2-  O445  1  0.66657475  -0.00712158  0.33644900  1
  O2-  O446  1  0.66351534  -0.01354045  0.66133355  1
  O2-  O447  1  0.64889795  0.50387729  0.03127352  1
  O2-  O448  1  0.66560545  0.51889293  0.33939592  1
  O2-  O449  1  0.68142450  0.50923042  0.66233873  1
  O2-  O450  1  0.16096968  0.01348045  -0.00888239  1
  O2-  O451  1  0.16354827  0.02127293  0.32320104  1
  O2-  O452  1  0.15398621  -0.01078233  0.64857826  1
  O2-  O453  1  0.18387533  0.50358981  0.01612001  1
  O2-  O454  1  0.17042572  0.51899980  0.33314522  1
  O2-  O455  1  0.15361074  0.50339089  0.65203381  1
  O2-  O456  1  0.48918163  0.00639370  -0.00935351  1
  O2-  O457  1  0.50670328  0.00227715  0.32621253  1
  O2-  O458  1  0.50843977  -0.00865896  0.67870282  1
  O2-  O459  1  0.49799831  0.51776458  -0.00021535  1
  O2-  O460  1  0.50405017  0.51719069  0.34606050  1
  O2-  O461  1  0.53197673  0.49810025  0.71129839  1
  O2-  O462  1  0.83941132  -0.01406978  0.01205874  1
  O2-  O463  1  0.83310156  -0.01915673  0.33576796  1
  O2-  O464  1  0.82739436  -0.01675424  0.65554543  1
  O2-  O465  1  0.83495158  0.50446743  -0.02049420  1
  O2-  O466  1  0.82456811  0.50760219  0.31423709  1
  O2-  O467  1  0.84042579  0.50488489  0.66708694  1
  O2-  O468  1  0.58315288  0.75007826  0.60127632  1
  O2-  O469  1  0.25368333  0.75069556  0.93224523  1
  O2-  O470  1  0.74822924  0.24886363  0.39546044  1
  O2-  O471  1  0.08843714  0.25284950  0.74074552  1
  O2-  O472  1  0.91818811  0.75283223  0.93222180  1
  O2-  O473  1  0.75430413  0.74895797  0.39856049  1
  O2-  O474  1  0.42406129  0.75152086  0.39342137  1
  O2-  O475  1  0.07883171  0.75194826  0.73051344  1
  O2-  O476  1  0.90865396  0.24841074  0.26437997  1
  O2-  O477  1  0.08068101  0.75090966  0.07038074  1
  O2-  O478  1  0.40352024  0.74993670  0.06252116  1
  O2-  O479  1  0.75179193  0.75085630  0.72510021  1
  O2-  O480  1  0.76510177  0.75354408  0.06826189  1
  O2-  O481  1  0.91735806  0.24859053  0.92642232  1
  O2-  O482  1  0.74875203  0.24916699  0.07469965  1
  O2-  O483  1  0.58930823  0.25178477  0.92960541  1
  O2-  O484  1  0.90743008  0.75111580  0.26755697  1
  O2-  O485  1  0.90834098  0.25127344  0.60715356  1
  O2-  O486  1  0.41791463  0.25210005  0.40574426  1
  O2-  O487  1  0.24884716  0.75761340  0.25132885  1
  O2-  O488  1  0.58640818  0.25049693  0.27348691  1
  O2-  O489  1  0.23254887  0.24794949  0.91703226  1
  O2-  O490  1  0.25294580  0.25153322  0.59673807  1
  O2-  O491  1  0.91290737  0.75336391  0.60643744  1
  O2-  O492  1  0.42441706  0.75371266  0.72919530  1
