# generated using pymatgen
data_Ca108Mn108O277
_symmetry_space_group_name_H-M   'P 1'
_cell_length_a   16.01400361
_cell_length_b   22.29013436
_cell_length_c   16.37893445
_cell_angle_alpha   90.00204782
_cell_angle_beta   90.00031750
_cell_angle_gamma   89.99603508
_symmetry_Int_Tables_number   1
_chemical_formula_structural   Ca108Mn108O277
_chemical_formula_sum   'Ca108 Mn108 O277'
_cell_volume   5846.53093518
_cell_formula_units_Z   1
loop_
 _symmetry_equiv_pos_site_id
 _symmetry_equiv_pos_as_xyz
  1  'x, y, z'
loop_
 _atom_type_symbol
 _atom_type_oxidation_number
  Ca2+  2.0
  Mn3.34+  3.34
  O2-  -2.0
loop_
 _atom_site_type_symbol
 _atom_site_label
 _atom_site_symmetry_multiplicity
 _atom_site_fract_x
 _atom_site_fract_y
 _atom_site_fract_z
 _atom_site_occupancy
  Ca2+  Ca0  1  0.08406974  0.22803680  0.24981696  1
  Ca2+  Ca1  1  0.07496459  0.25526410  0.57961658  1
  Ca2+  Ca2  1  0.08315186  0.23321445  0.91942935  1
  Ca2+  Ca3  1  0.08310332  0.74592439  0.24209671  1
  Ca2+  Ca4  1  0.09350657  0.74122667  0.59727393  1
  Ca2+  Ca5  1  0.09497333  0.73838193  0.90779185  1
  Ca2+  Ca6  1  0.41023336  0.26070771  0.25071535  1
  Ca2+  Ca7  1  0.41873213  0.26229055  0.57051611  1
  Ca2+  Ca8  1  0.40295037  0.26047137  0.92699331  1
  Ca2+  Ca9  1  0.41904472  0.74674268  0.25177410  1
  Ca2+  Ca10  1  0.43116474  0.74523114  0.57730220  1
  Ca2+  Ca11  1  0.42525451  0.75562782  0.92539034  1
  Ca2+  Ca12  1  0.76673846  0.24974080  0.25165542  1
  Ca2+  Ca13  1  0.76630997  0.25565960  0.57554374  1
  Ca2+  Ca14  1  0.76510197  0.25113832  0.92239888  1
  Ca2+  Ca15  1  0.74353344  0.74107187  0.26392746  1
  Ca2+  Ca16  1  0.73484737  0.74865609  0.55624194  1
  Ca2+  Ca17  1  0.73322815  0.75519971  0.92447493  1
  Ca2+  Ca18  1  0.23013221  0.25290880  0.08206467  1
  Ca2+  Ca19  1  0.22792376  0.25173496  0.41112556  1
  Ca2+  Ca20  1  0.22273173  0.25470900  0.75688295  1
  Ca2+  Ca21  1  0.24001259  0.74437846  0.08739428  1
  Ca2+  Ca22  1  0.25023993  0.74996628  0.41099508  1
  Ca2+  Ca23  1  0.23063255  0.74606805  0.75180027  1
  Ca2+  Ca24  1  0.58425580  0.25194361  0.08681737  1
  Ca2+  Ca25  1  0.58422842  0.25366703  0.41040889  1
  Ca2+  Ca26  1  0.59290249  0.26265702  0.74734084  1
  Ca2+  Ca27  1  0.59034931  0.75208992  0.07993768  1
  Ca2+  Ca28  1  0.59897285  0.75364691  0.41428355  1
  Ca2+  Ca29  1  0.58587157  0.75596700  0.75220664  1
  Ca2+  Ca30  1  0.93666878  0.24659320  0.08706504  1
  Ca2+  Ca31  1  0.93514262  0.24512022  0.40940683  1
  Ca2+  Ca32  1  0.94520583  0.24419801  0.74562516  1
  Ca2+  Ca33  1  0.91564707  0.75022805  0.09775889  1
  Ca2+  Ca34  1  0.89278620  0.74291211  0.40487741  1
  Ca2+  Ca35  1  0.94483938  0.74579100  0.75107053  1
  Ca2+  Ca36  1  0.75276244  0.60907139  0.55719830  1
  Ca2+  Ca37  1  0.58175525  0.59216346  0.76686621  1
  Ca2+  Ca38  1  0.39682091  0.09037409  0.58284253  1
  Ca2+  Ca39  1  0.75377756  0.08647649  0.94521043  1
  Ca2+  Ca40  1  0.76075421  0.09418379  0.56557876  1
  Ca2+  Ca41  1  0.76517135  0.08582161  0.94461368  1
  Ca2+  Ca42  1  0.76205890  0.60620868  0.56057557  1
  Ca2+  Ca43  1  0.40995890  0.59336442  0.57164387  1
  Ca2+  Ca44  1  0.59871870  0.61650522  0.41308718  1
  Ca2+  Ca45  1  0.58620544  0.59322609  0.07766047  1
  Ca2+  Ca46  1  0.92111128  0.58963470  0.09679817  1
  Ca2+  Ca47  1  0.08213009  0.11201830  0.58504959  1
  Ca2+  Ca48  1  0.08752604  0.59579695  0.59181331  1
  Ca2+  Ca49  1  0.90905841  0.09021375  0.38950737  1
  Ca2+  Ca50  1  0.22688089  0.10968688  0.40677700  1
  Ca2+  Ca51  1  0.24649431  0.58646008  0.40180701  1
  Ca2+  Ca52  1  0.20785927  0.11114873  0.10106100  1
  Ca2+  Ca53  1  0.91374660  0.59122038  0.39784395  1
  Ca2+  Ca54  1  0.43706807  0.08721053  0.25189663  1
  Ca2+  Ca55  1  0.57209601  0.58893356  0.76263992  1
  Ca2+  Ca56  1  0.40611092  0.09029770  0.92696470  1
  Ca2+  Ca57  1  0.73209056  0.58343825  0.93100338  1
  Ca2+  Ca58  1  0.22029627  0.10580825  0.75736427  1
  Ca2+  Ca59  1  0.39856940  0.59160326  0.57150347  1
  Ca2+  Ca60  1  0.58485023  0.09315339  0.75433311  1
  Ca2+  Ca61  1  0.22572681  0.59789464  0.74877885  1
  Ca2+  Ca62  1  0.08559568  0.58802196  0.24917101  1
  Ca2+  Ca63  1  0.74480483  0.58326255  0.93243582  1
  Ca2+  Ca64  1  0.93248229  0.09803922  0.09832209  1
  Ca2+  Ca65  1  0.75210185  0.60108447  0.25899696  1
  Ca2+  Ca66  1  0.92328409  0.09569670  0.10183186  1
  Ca2+  Ca67  1  0.58973741  0.61330627  0.40929659  1
  Ca2+  Ca68  1  0.42474715  0.57393318  0.93821878  1
  Ca2+  Ca69  1  0.57675405  0.59109723  0.08126623  1
  Ca2+  Ca70  1  0.21809467  0.10959805  0.10156731  1
  Ca2+  Ca71  1  0.09154741  0.10993346  0.58947872  1
  Ca2+  Ca72  1  0.08430480  0.40637521  0.91761318  1
  Ca2+  Ca73  1  0.39329778  0.41023011  0.58066072  1
  Ca2+  Ca74  1  0.75473447  0.92318259  0.25554842  1
  Ca2+  Ca75  1  0.91503745  0.41098577  0.09755958  1
  Ca2+  Ca76  1  0.56254963  0.41747923  0.07100593  1
  Ca2+  Ca77  1  0.74695244  0.40855885  0.92738589  1
  Ca2+  Ca78  1  0.74499662  0.92476326  0.25300482  1
  Ca2+  Ca79  1  0.58914228  0.89816593  0.75318562  1
  Ca2+  Ca80  1  0.91248189  0.90141682  0.75248402  1
  Ca2+  Ca81  1  0.09379136  0.90049057  0.58185879  1
  Ca2+  Ca82  1  0.41811720  0.89940668  0.57550840  1
  Ca2+  Ca83  1  0.25071782  0.90332830  0.08284058  1
  Ca2+  Ca84  1  0.75942993  0.40961180  0.92691303  1
  Ca2+  Ca85  1  0.75832107  0.39936266  0.57444048  1
  Ca2+  Ca86  1  0.57472301  0.40454348  0.76176819  1
  Ca2+  Ca87  1  0.58099030  0.39698003  0.41450793  1
  Ca2+  Ca88  1  0.92445230  0.40954103  0.09302310  1
  Ca2+  Ca89  1  0.75170828  0.89839852  0.57048711  1
  Ca2+  Ca90  1  0.08077786  0.90030486  0.58236558  1
  Ca2+  Ca91  1  0.90084333  0.91466622  0.39832891  1
  Ca2+  Ca92  1  0.07499660  0.90862679  0.91761931  1
  Ca2+  Ca93  1  0.75385815  0.90868885  0.92736530  1
  Ca2+  Ca94  1  0.24269197  0.41536068  0.40712214  1
  Ca2+  Ca95  1  0.41954943  0.41710605  0.92942026  1
  Ca2+  Ca96  1  0.40535548  0.89952567  0.57507299  1
  Ca2+  Ca97  1  0.91827631  0.41176881  0.39719101  1
  Ca2+  Ca98  1  0.07328740  0.40546759  0.91915939  1
  Ca2+  Ca99  1  0.90498660  0.91139040  0.08920905  1
  Ca2+  Ca100  1  0.08786657  0.90850845  0.91770615  1
  Ca2+  Ca101  1  0.25620140  0.41819440  0.09282735  1
  Ca2+  Ca102  1  0.26195477  0.90341048  0.08354252  1
  Ca2+  Ca103  1  0.06712413  0.90186039  0.24819636  1
  Ca2+  Ca104  1  0.26848275  0.41857823  0.09535463  1
  Ca2+  Ca105  1  0.24763704  0.90266337  0.75179052  1
  Ca2+  Ca106  1  0.09076193  0.40443320  0.57776120  1
  Ca2+  Ca107  1  0.58915420  0.90746994  0.09281035  1
  Mn3.34+  Mn108  1  0.08587414  0.33191968  0.09040880  1
  Mn3.34+  Mn109  1  0.08210928  0.33178262  0.41197945  1
  Mn3.34+  Mn110  1  0.08138125  0.33316388  0.74760364  1
  Mn3.34+  Mn111  1  0.08047092  0.83126750  0.08546958  1
  Mn3.34+  Mn112  1  0.07999927  0.82681499  0.41506555  1
  Mn3.34+  Mn113  1  0.08316631  0.83215760  0.75353403  1
  Mn3.34+  Mn114  1  0.41650547  0.33556611  0.08968210  1
  Mn3.34+  Mn115  1  0.41252365  0.33543706  0.41335602  1
  Mn3.34+  Mn116  1  0.40939735  0.33531818  0.75150403  1
  Mn3.34+  Mn117  1  0.42190812  0.83339264  0.08936276  1
  Mn3.34+  Mn118  1  0.42246519  0.83682450  0.40619841  1
  Mn3.34+  Mn119  1  0.41568657  0.83208563  0.75382097  1
  Mn3.34+  Mn120  1  0.74817326  0.32821060  0.09072913  1
  Mn3.34+  Mn121  1  0.75218802  0.33323293  0.41181920  1
  Mn3.34+  Mn122  1  0.75530955  0.33361924  0.74839372  1
  Mn3.34+  Mn123  1  0.74715928  0.83487515  0.08994257  1
  Mn3.34+  Mn124  1  0.74670948  0.83559290  0.41485640  1
  Mn3.34+  Mn125  1  0.75202606  0.83577607  0.75171305  1
  Mn3.34+  Mn126  1  0.24701147  0.34233979  0.25126835  1
  Mn3.34+  Mn127  1  0.24784347  0.33918121  0.58180520  1
  Mn3.34+  Mn128  1  0.25028008  0.33510074  0.91303187  1
  Mn3.34+  Mn129  1  0.25231188  0.82776374  0.25389274  1
  Mn3.34+  Mn130  1  0.25231673  0.82722814  0.57783128  1
  Mn3.34+  Mn131  1  0.25601073  0.83078208  0.91441316  1
  Mn3.34+  Mn132  1  0.58657759  0.33034638  0.24689071  1
  Mn3.34+  Mn133  1  0.58351152  0.33422343  0.58315664  1
  Mn3.34+  Mn134  1  0.58219398  0.33342464  0.91506938  1
  Mn3.34+  Mn135  1  0.57714794  0.84517119  0.25609126  1
  Mn3.34+  Mn136  1  0.58409676  0.82686559  0.58174704  1
  Mn3.34+  Mn137  1  0.58141916  0.83052063  0.91970515  1
  Mn3.34+  Mn138  1  0.91838387  0.33460826  0.25115902  1
  Mn3.34+  Mn139  1  0.91907812  0.33570841  0.57979779  1
  Mn3.34+  Mn140  1  0.91598082  0.33390876  0.91342695  1
  Mn3.34+  Mn141  1  0.91234915  0.83325634  0.24844995  1
  Mn3.34+  Mn142  1  0.91508078  0.82470142  0.57972603  1
  Mn3.34+  Mn143  1  0.91295383  0.83220895  0.91920458  1
  Mn3.34+  Mn144  1  0.40542796  0.66127627  0.75701023  1
  Mn3.34+  Mn145  1  0.91985894  0.16560127  0.25211624  1
  Mn3.34+  Mn146  1  0.74823521  0.67125637  0.74751142  1
  Mn3.34+  Mn147  1  0.75149615  0.16645796  0.75228828  1
  Mn3.34+  Mn148  1  0.24444035  0.66225324  0.91836083  1
  Mn3.34+  Mn149  1  0.42192247  0.16026962  0.41020175  1
  Mn3.34+  Mn150  1  0.58522314  0.17450307  0.92000946  1
  Mn3.34+  Mn151  1  0.92615386  0.16785624  0.91587801  1
  Mn3.34+  Mn152  1  0.41196633  0.16573976  0.41043491  1
  Mn3.34+  Mn153  1  0.40649460  0.65943567  0.08807393  1
  Mn3.34+  Mn154  1  0.41450362  0.66802458  0.41097619  1
  Mn3.34+  Mn155  1  0.59439956  0.16513368  0.57624825  1
  Mn3.34+  Mn156  1  0.24678722  0.66159728  0.25129397  1
  Mn3.34+  Mn157  1  0.74852638  0.67024121  0.08915326  1
  Mn3.34+  Mn158  1  0.91775038  0.66418238  0.24823012  1
  Mn3.34+  Mn159  1  0.08754506  0.66283323  0.08538988  1
  Mn3.34+  Mn160  1  0.08132578  0.66448430  0.41720955  1
  Mn3.34+  Mn161  1  0.42736889  0.16390070  0.08923270  1
  Mn3.34+  Mn162  1  0.42003931  0.17615820  0.75348481  1
  Mn3.34+  Mn163  1  0.58340204  0.16976776  0.57656933  1
  Mn3.34+  Mn164  1  0.41153860  0.18228949  0.75218495  1
  Mn3.34+  Mn165  1  0.41829425  0.66804115  0.75491759  1
  Mn3.34+  Mn166  1  0.91817291  0.66141726  0.91742685  1
  Mn3.34+  Mn167  1  0.74865154  0.15617731  0.40637563  1
  Mn3.34+  Mn168  1  0.76566505  0.15973447  0.75269219  1
  Mn3.34+  Mn169  1  0.25143199  0.17465162  0.58156777  1
  Mn3.34+  Mn170  1  0.41499107  0.16917829  0.08967665  1
  Mn3.34+  Mn171  1  0.91601321  0.17112670  0.57487671  1
  Mn3.34+  Mn172  1  0.24386311  0.16779967  0.91611815  1
  Mn3.34+  Mn173  1  0.92668342  0.65540667  0.91427327  1
  Mn3.34+  Mn174  1  0.41599212  0.66482089  0.08771433  1
  Mn3.34+  Mn175  1  0.24661642  0.66653185  0.57524101  1
  Mn3.34+  Mn176  1  0.74676470  0.16264293  0.09448401  1
  Mn3.34+  Mn177  1  0.92392706  0.66985943  0.57660567  1
  Mn3.34+  Mn178  1  0.76201890  0.66554947  0.74845774  1
  Mn3.34+  Mn179  1  0.60084418  0.15402114  0.24990255  1
  Mn3.34+  Mn180  1  0.56973687  -0.00407728  0.91188509  1
  Mn3.34+  Mn181  1  0.07321946  0.00437215  0.41361351  1
  Mn3.34+  Mn182  1  0.39630633  0.49575200  0.74311610  1
  Mn3.34+  Mn183  1  0.90899758  -0.00215928  0.57655075  1
  Mn3.34+  Mn184  1  0.07284500  0.50173296  0.74327931  1
  Mn3.34+  Mn185  1  0.08047779  0.50000646  0.40328694  1
  Mn3.34+  Mn186  1  0.08092278  -0.00134211  0.08713153  1
  Mn3.34+  Mn187  1  0.77655015  0.49924027  0.74738733  1
  Mn3.34+  Mn188  1  0.59036935  0.50292342  0.58154130  1
  Mn3.34+  Mn189  1  0.41766951  -0.00136343  0.08961952  1
  Mn3.34+  Mn190  1  0.57540900  0.49697744  0.58306241  1
  Mn3.34+  Mn191  1  0.24668507  -0.00142476  0.57688789  1
  Mn3.34+  Mn192  1  0.75069059  -0.00027229  0.75074028  1
  Mn3.34+  Mn193  1  0.25186169  0.00074933  0.25434727  1
  Mn3.34+  Mn194  1  0.08868593  0.50158845  0.74634690  1
  Mn3.34+  Mn195  1  0.58167103  -0.00443430  0.56838924  1
  Mn3.34+  Mn196  1  0.25137572  0.00219001  0.92211650  1
  Mn3.34+  Mn197  1  0.75110179  0.49966123  0.08541333  1
  Mn3.34+  Mn198  1  0.57093507  0.50039479  0.25040458  1
  Mn3.34+  Mn199  1  0.92063571  0.00351567  0.91749022  1
  Mn3.34+  Mn200  1  0.91948388  0.49969429  0.57211089  1
  Mn3.34+  Mn201  1  0.40891517  0.49781331  0.40035692  1
  Mn3.34+  Mn202  1  0.08295387  0.50185095  0.07659538  1
  Mn3.34+  Mn203  1  0.08651827  -0.00253613  0.41455891  1
  Mn3.34+  Mn204  1  0.59280434  -0.00139697  0.57016160  1
  Mn3.34+  Mn205  1  0.42133294  -0.00195180  0.75601970  1
  Mn3.34+  Mn206  1  0.08303783  0.00479686  0.74673725  1
  Mn3.34+  Mn207  1  0.75413473  0.49706759  0.40431439  1
  Mn3.34+  Mn208  1  0.58372960  0.49404371  0.25007345  1
  Mn3.34+  Mn209  1  0.76358712  0.49594536  0.74808488  1
  Mn3.34+  Mn210  1  0.91934802  0.00350401  0.57745997  1
  Mn3.34+  Mn211  1  0.25246863  0.50176725  0.92144530  1
  Mn3.34+  Mn212  1  0.26364135  -0.00628556  0.25709542  1
  Mn3.34+  Mn213  1  0.43520936  -0.00103548  0.39855999  1
  Mn3.34+  Mn214  1  0.58242531  0.00126083  0.91922210  1
  Mn3.34+  Mn215  1  0.40707243  0.00423224  0.75582270  1
  O2-  O216  1  -0.01118394  0.15848824  0.00396999  1
  O2-  O217  1  -0.00689026  0.16179801  0.33186236  1
  O2-  O218  1  -0.00366722  0.16644247  0.65562916  1
  O2-  O219  1  -0.00273429  0.65769200  0.00828868  1
  O2-  O220  1  0.00327541  0.66369639  0.33079457  1
  O2-  O221  1  -0.00058910  0.67897468  0.65508030  1
  O2-  O222  1  0.33060457  0.15256755  0.00494631  1
  O2-  O223  1  0.33346513  0.16210521  0.33052633  1
  O2-  O224  1  0.33572625  0.17109865  0.66384337  1
  O2-  O225  1  0.33757612  0.65678162  -0.00260189  1
  O2-  O226  1  0.32736109  0.67375048  0.33626076  1
  O2-  O227  1  0.33378822  0.65507997  0.66418138  1
  O2-  O228  1  0.67315741  0.17516872  0.00056722  1
  O2-  O229  1  0.66895250  0.18795865  0.33147901  1
  O2-  O230  1  0.66713735  0.14925748  0.67224111  1
  O2-  O231  1  0.66981831  0.65255889  0.00303554  1
  O2-  O232  1  0.66629728  0.66558575  0.32868528  1
  O2-  O233  1  0.66857926  0.64253377  0.67041014  1
  O2-  O234  1  0.16851778  0.16312274  -0.00377192  1
  O2-  O235  1  0.17496516  0.17888582  0.33126383  1
  O2-  O236  1  0.17238891  0.17289383  0.66187989  1
  O2-  O237  1  0.16603983  0.66820150  0.00153499  1
  O2-  O238  1  0.16395692  0.67128309  0.33604171  1
  O2-  O239  1  0.17091739  0.65914382  0.65687929  1
  O2-  O240  1  0.49335329  0.16530802  -0.00322781  1
  O2-  O241  1  0.50413497  0.16993270  0.32616269  1
  O2-  O242  1  0.50118453  0.15778433  0.66763502  1
  O2-  O243  1  0.49754205  0.65804615  0.00359519  1
  O2-  O244  1  0.50315097  0.67824526  0.34257685  1
  O2-  O245  1  0.49283632  0.64615500  0.67007261  1
  O2-  O246  1  0.82752577  0.16894796  0.00253762  1
  O2-  O247  1  0.83260914  0.17266705  0.33539429  1
  O2-  O248  1  0.82644168  0.15939140  0.65439593  1
  O2-  O249  1  0.83353833  0.65381593  -0.00110054  1
  O2-  O250  1  0.83906184  0.66164480  0.32850178  1
  O2-  O251  1  0.83157077  0.66726614  0.65809015  1
  O2-  O252  1  -0.00133851  0.34899841  0.00397797  1
  O2-  O253  1  -0.00489117  0.34020286  0.33773802  1
  O2-  O254  1  0.00423502  0.34038300  0.66066776  1
  O2-  O255  1  0.00273006  0.84760774  -0.00127980  1
  O2-  O256  1  -0.00640902  0.83845020  0.33544106  1
  O2-  O257  1  0.00174602  0.84043237  0.66547013  1
  O2-  O258  1  0.33219888  0.34598176  -0.00051645  1
  O2-  O259  1  0.32737195  0.32408315  0.33255684  1
  O2-  O260  1  0.33254094  0.31513144  0.66226467  1
  O2-  O261  1  0.33101130  0.84062433  0.00233303  1
  O2-  O262  1  0.33566268  0.81813337  0.33442043  1
  O2-  O263  1  0.33450620  0.84574151  0.66330332  1
  O2-  O264  1  0.66881230  0.32421369  -0.00048331  1
  O2-  O265  1  0.66463887  0.31934630  0.33505760  1
  O2-  O266  1  0.66448982  0.34412954  0.67087397  1
  O2-  O267  1  0.66797147  0.84436672  0.00158686  1
  O2-  O268  1  0.66887910  0.83434026  0.32721643  1
  O2-  O269  1  0.66704906  0.84463040  0.66640118  1
  O2-  O270  1  0.16834531  0.35072987  0.00264709  1
  O2-  O271  1  0.17161197  0.33453098  0.33709400  1
  O2-  O272  1  0.16538814  0.33010512  0.66274430  1
  O2-  O273  1  0.16657508  0.84744669  -0.00018289  1
  O2-  O274  1  0.15800271  0.82608837  0.32825744  1
  O2-  O275  1  0.16615012  0.84489002  0.66844993  1
  O2-  O276  1  0.49977488  0.33800023  -0.00158311  1
  O2-  O277  1  0.50541415  0.32910866  0.33354644  1
  O2-  O278  1  0.49472692  0.33467915  0.67069085  1
  O2-  O279  1  0.50341170  0.83648797  0.00615142  1
  O2-  O280  1  0.50482111  0.80723991  0.33347599  1
  O2-  O281  1  0.49681295  0.84355111  0.66505522  1
  O2-  O282  1  0.83050917  0.33533441  0.00109707  1
  O2-  O283  1  0.83636746  0.32780156  0.33474207  1
  O2-  O284  1  0.83058770  0.33915614  0.65716852  1
  O2-  O285  1  0.83386480  0.84542402  0.00380640  1
  O2-  O286  1  0.82763877  0.84245521  0.32883528  1
  O2-  O287  1  0.83563156  0.83638730  0.66585871  1
  O2-  O288  1  -0.00765972  0.17192142  0.16594911  1
  O2-  O289  1  0.00036306  0.16942579  0.50379143  1
  O2-  O290  1  -0.00301729  0.17628024  0.83835767  1
  O2-  O291  1  0.00107147  0.67535869  0.16494640  1
  O2-  O292  1  0.00062568  0.68803331  0.49325969  1
  O2-  O293  1  0.00031431  0.67462924  0.83508362  1
  O2-  O294  1  0.33619205  0.17714659  0.16661723  1
  O2-  O295  1  0.33500328  0.17698571  0.50064827  1
  O2-  O296  1  0.33477754  0.18091691  0.84000999  1
  O2-  O297  1  0.33045173  0.67206542  0.16914497  1
  O2-  O298  1  0.33711489  0.68179410  0.50142175  1
  O2-  O299  1  0.33432797  0.67928059  0.83913289  1
  O2-  O300  1  0.66810360  0.18830011  0.16832945  1
  O2-  O301  1  0.67381253  0.18246472  0.49172583  1
  O2-  O302  1  0.66491337  0.17983233  0.83068866  1
  O2-  O303  1  0.66463508  0.67633985  0.15782337  1
  O2-  O304  1  0.66948545  0.66687600  0.50231768  1
  O2-  O305  1  0.66769357  0.66887915  0.82990295  1
  O2-  O306  1  0.17686033  0.18570991  0.16596890  1
  O2-  O307  1  0.16842801  0.17985457  0.50796609  1
  O2-  O308  1  0.17184222  0.17757246  0.83559386  1
  O2-  O309  1  0.16157951  0.67253796  0.17145771  1
  O2-  O310  1  0.16497604  0.68077577  0.49665882  1
  O2-  O311  1  0.17610951  0.67360073  0.83424942  1
  O2-  O312  1  0.50560666  0.18203286  0.17298546  1
  O2-  O313  1  0.49187889  0.17095179  0.50010978  1
  O2-  O314  1  0.50467945  0.18782604  0.83242187  1
  O2-  O315  1  0.50142357  0.67767305  0.15962628  1
  O2-  O316  1  0.49046277  0.66991312  0.49719963  1
  O2-  O317  1  0.50499694  0.67054990  0.83020535  1
  O2-  O318  1  0.83537046  0.18008663  0.16022550  1
  O2-  O319  1  0.82940372  0.18041134  0.49388781  1
  O2-  O320  1  0.82806108  0.17410823  0.84571832  1
  O2-  O321  1  0.83465144  0.67416571  0.16462047  1
  O2-  O322  1  0.83469852  0.68050731  0.50524128  1
  O2-  O323  1  0.82847383  0.67800157  0.84128078  1
  O2-  O324  1  -0.00603439  0.33116277  0.15888090  1
  O2-  O325  1  0.00354998  0.33027413  0.50081060  1
  O2-  O326  1  0.00418802  0.33198776  0.84096850  1
  O2-  O327  1  -0.00204627  0.82854605  0.16707972  1
  O2-  O328  1  0.00610762  0.81633881  0.50707298  1
  O2-  O329  1  0.00064936  0.82797902  0.83461163  1
  O2-  O330  1  0.32753640  0.32147975  0.16575161  1
  O2-  O331  1  0.33053236  0.32175333  0.50285475  1
  O2-  O332  1  0.33203920  0.31700330  0.83351179  1
  O2-  O333  1  0.32644969  0.82813633  0.15925015  1
  O2-  O334  1  0.34137577  0.82096986  0.50142334  1
  O2-  O335  1  0.32555293  0.82226713  0.82428817  1
  O2-  O336  1  0.66776492  0.30860162  0.16707228  1
  O2-  O337  1  0.66937656  0.32042084  0.49687895  1
  O2-  O338  1  0.66528505  0.31676961  0.83774905  1
  O2-  O339  1  0.66474452  0.81736091  0.16618178  1
  O2-  O340  1  0.66728748  0.82835425  0.50144983  1
  O2-  O341  1  0.66643937  0.82738909  0.83286775  1
  O2-  O342  1  0.17393023  0.32628314  0.16344265  1
  O2-  O343  1  0.16534074  0.32409293  0.50284586  1
  O2-  O344  1  0.15716606  0.32870481  0.84374211  1
  O2-  O345  1  0.16981594  0.83088730  0.15950331  1
  O2-  O346  1  0.16056564  0.82128639  0.50468329  1
  O2-  O347  1  0.16258514  0.82967977  0.83858960  1
  O2-  O348  1  0.50316513  0.31727135  0.16472645  1
  O2-  O349  1  0.49955239  0.33158614  0.49986857  1
  O2-  O350  1  0.50037307  0.31353974  0.83365278  1
  O2-  O351  1  0.50389232  0.82150270  0.16756831  1
  O2-  O352  1  0.49486042  0.82119970  0.50280977  1
  O2-  O353  1  0.50452198  0.82312155  0.82843761  1
  O2-  O354  1  0.83976774  0.32123902  0.15893233  1
  O2-  O355  1  0.83339215  0.32292565  0.49660523  1
  O2-  O356  1  0.82342809  0.32932504  0.84382472  1
  O2-  O357  1  0.83254704  0.82502183  0.16573419  1
  O2-  O358  1  0.83229329  0.82177565  0.49870954  1
  O2-  O359  1  0.83394221  0.82756502  0.83355406  1
  O2-  O360  1  0.07740362  0.07947459  0.10567071  1
  O2-  O361  1  0.09439585  0.08019386  0.45120240  1
  O2-  O362  1  0.09066023  0.08297255  0.73324342  1
  O2-  O363  1  0.07242781  0.57935112  0.11020771  1
  O2-  O364  1  0.08053025  0.57290531  0.45101315  1
  O2-  O365  1  0.08415361  0.58313312  0.76001898  1
  O2-  O366  1  0.41925387  0.08101961  0.11486026  1
  O2-  O367  1  0.41263317  0.07655982  0.44775739  1
  O2-  O368  1  0.42525435  0.08604512  0.77896768  1
  O2-  O369  1  0.43156352  0.57903714  0.09897629  1
  O2-  O370  1  0.41494829  0.57644197  0.43830090  1
  O2-  O371  1  0.42804839  0.57573894  0.79000716  1
  O2-  O372  1  0.77817604  0.08121370  0.08190697  1
  O2-  O373  1  0.76401812  0.07908672  0.43594107  1
  O2-  O374  1  0.73756509  0.07967007  0.79267427  1
  O2-  O375  1  0.74972653  0.58212516  0.10762064  1
  O2-  O376  1  0.74095823  0.57572612  0.43489244  1
  O2-  O377  1  0.75342787  0.57886834  0.78645146  1
  O2-  O378  1  0.26485677  0.07745958  0.22194388  1
  O2-  O379  1  0.24543876  0.08184525  0.56117708  1
  O2-  O380  1  0.26305993  0.08230173  0.88870876  1
  O2-  O381  1  0.23510910  0.58425280  0.25465567  1
  O2-  O382  1  0.26118203  0.58651223  0.54801973  1
  O2-  O383  1  0.26411742  0.57898995  0.88701845  1
  O2-  O384  1  0.57807962  0.07989603  0.22901365  1
  O2-  O385  1  0.58833102  0.08094518  0.55248070  1
  O2-  O386  1  0.58006865  0.08211743  0.89197805  1
  O2-  O387  1  0.58900022  0.57778115  0.21465516  1
  O2-  O388  1  0.57522417  0.58109326  0.55119742  1
  O2-  O389  1  0.60957860  0.56464002  0.88261717  1
  O2-  O390  1  0.91020244  0.08420687  0.23350530  1
  O2-  O391  1  0.90671546  0.08464134  0.55503109  1
  O2-  O392  1  0.89878804  0.08388858  0.90462402  1
  O2-  O393  1  0.91813106  0.58305678  0.23290701  1
  O2-  O394  1  0.90246083  0.58152400  0.54740699  1
  O2-  O395  1  0.89315914  0.57733806  0.89876432  1
  O2-  O396  1  0.08878714  0.42115146  0.10446843  1
  O2-  O397  1  0.08742402  0.42468741  0.44032510  1
  O2-  O398  1  0.08181638  0.42050428  0.77533624  1
  O2-  O399  1  0.08691806  0.91745557  0.10886124  1
  O2-  O400  1  0.07657937  0.91848257  0.44743654  1
  O2-  O401  1  0.08019584  0.92280411  0.78111150  1
  O2-  O402  1  0.40843964  0.41698798  0.09671477  1
  O2-  O403  1  0.41314469  0.42014942  0.43993901  1
  O2-  O404  1  0.43164393  0.41937162  0.78445534  1
  O2-  O405  1  0.40474035  0.91742017  0.10494827  1
  O2-  O406  1  0.41830584  0.92531980  0.44669410  1
  O2-  O407  1  0.41369746  0.91668629  0.76649183  1
  O2-  O408  1  0.75700670  0.41712248  0.08529075  1
  O2-  O409  1  0.74216287  0.42024870  0.43821180  1
  O2-  O410  1  0.73924750  0.41821618  0.78112612  1
  O2-  O411  1  0.74711483  0.91841708  0.11203460  1
  O2-  O412  1  0.75861262  0.91800600  0.43549248  1
  O2-  O413  1  0.75289287  0.91771865  0.77601273  1
  O2-  O414  1  0.25264421  0.42187864  0.22826627  1
  O2-  O415  1  0.25149747  0.41766886  0.55756127  1
  O2-  O416  1  0.24160785  0.42060858  0.89311649  1
  O2-  O417  1  0.24127096  0.91540627  0.22951521  1
  O2-  O418  1  0.25159775  0.91470869  0.56206412  1
  O2-  O419  1  0.23512428  0.92046691  0.89278865  1
  O2-  O420  1  0.58441667  0.41597056  0.22018951  1
  O2-  O421  1  0.59043403  0.41700632  0.56099531  1
  O2-  O422  1  0.60710045  0.41690770  0.90005572  1
  O2-  O423  1  0.61101333  0.92274955  0.22467239  1
  O2-  O424  1  0.56797894  0.91327670  0.56750378  1
  O2-  O425  1  0.58862730  0.91715222  0.89438925  1
  O2-  O426  1  0.91061420  0.41687143  0.22975806  1
  O2-  O427  1  0.91111752  0.41877257  0.55004104  1
  O2-  O428  1  0.90716882  0.41648592  0.91104931  1
  O2-  O429  1  0.90620652  0.91637969  0.23109748  1
  O2-  O430  1  0.92765625  0.91601964  0.55467917  1
  O2-  O431  1  0.93268058  0.92366922  0.88657883  1
  O2-  O432  1  -0.00196281  -0.00870088  0.00327058  1
  O2-  O433  1  -0.00952763  -0.00767273  0.33973749  1
  O2-  O434  1  0.00206006  -0.01036824  0.66127270  1
  O2-  O435  1  -0.01373646  0.48841999  0.02398963  1
  O2-  O436  1  -0.00440790  0.50528711  0.34423424  1
  O2-  O437  1  0.00312221  0.50185872  0.65472417  1
  O2-  O438  1  0.32755608  0.00293642  0.01307963  1
  O2-  O439  1  0.33294906  0.01137075  0.34395119  1
  O2-  O440  1  0.33910978  0.00022977  0.65613513  1
  O2-  O441  1  0.34015179  0.49217806  -0.01368858  1
  O2-  O442  1  0.30864494  0.49926784  0.36388712  1
  O2-  O443  1  0.35550357  0.51263078  0.63868740  1
  O2-  O444  1  0.67493453  0.00621703  -0.01709476  1
  O2-  O445  1  0.68613776  -0.00178363  0.32758081  1
  O2-  O446  1  0.66238734  0.00357450  0.66521901  1
  O2-  O447  1  0.66503441  0.50804819  0.01512275  1
  O2-  O448  1  0.66663177  0.50884491  0.33202732  1
  O2-  O449  1  0.66338053  0.50457956  0.67890443  1
  O2-  O450  1  0.16683370  -0.01037178  0.00585318  1
  O2-  O451  1  0.16336308  0.00359332  0.32957918  1
  O2-  O452  1  0.16522960  -0.01385610  0.66251186  1
  O2-  O453  1  0.16966272  0.48780293  0.00255112  1
  O2-  O454  1  0.16268949  0.50485390  0.34165860  1
  O2-  O455  1  0.16822257  0.50805394  0.66837556  1
  O2-  O456  1  0.50029899  0.00364678  0.00662912  1
  O2-  O457  1  0.50194252  0.01254520  0.32084457  1
  O2-  O458  1  0.49778982  0.00906812  0.65982968  1
  O2-  O459  1  0.51444374  0.51021796  0.01444382  1
  O2-  O460  1  0.51065996  0.49877795  0.35073254  1
  O2-  O461  1  0.51223215  0.50797601  0.68278166  1
  O2-  O462  1  0.82817268  -0.00513061  -0.02319999  1
  O2-  O463  1  0.82282886  -0.00940384  0.33077959  1
  O2-  O464  1  0.82888733  -0.00145173  0.66093206  1
  O2-  O465  1  0.81471422  0.50085234  -0.00957155  1
  O2-  O466  1  0.84546495  0.50530237  0.35286463  1
  O2-  O467  1  0.82220900  0.50338881  0.64197390  1
  O2-  O468  1  0.41471740  0.25148663  0.06606515  1
  O2-  O469  1  0.58622934  0.75256182  0.92946439  1
  O2-  O470  1  0.91917566  0.74418855  0.93043175  1
  O2-  O471  1  0.74630341  0.75473550  0.40708839  1
  O2-  O472  1  0.75386003  0.75059805  0.06151733  1
  O2-  O473  1  0.91511395  0.75040914  0.25743570  1
  O2-  O474  1  0.42530138  0.24996074  0.41392652  1
  O2-  O475  1  0.92293971  0.25124757  0.25669720  1
  O2-  O476  1  0.25056732  0.25228259  0.93775747  1
  O2-  O477  1  0.91674215  0.25267136  0.59513173  1
  O2-  O478  1  0.40749640  0.74753955  0.06978794  1
  O2-  O479  1  0.25038451  0.74996813  0.93303487  1
  O2-  O480  1  0.08800192  0.75357762  0.74349026  1
  O2-  O481  1  0.08109910  0.25456229  0.74393144  1
  O2-  O482  1  0.91792431  0.25117420  0.92924044  1
  O2-  O483  1  0.08211584  0.25523819  0.06690380  1
  O2-  O484  1  0.08260324  0.75018112  0.07255536  1
  O2-  O485  1  0.25039754  0.74896762  0.60647138  1
  O2-  O486  1  0.58150533  0.25218986  0.60084664  1
  O2-  O487  1  0.41864773  0.75011698  0.72686483  1
  O2-  O488  1  0.58529689  0.75003996  0.60167322  1
  O2-  O489  1  0.24590657  0.74821065  0.24458573  1
  O2-  O490  1  0.08032290  0.25316855  0.40782994  1
  O2-  O491  1  0.74285212  0.75398937  0.74061462  1
  O2-  O492  1  0.75267927  0.24895042  0.73245207  1
