# generated using pymatgen
data_Ca108Mn108O277
_symmetry_space_group_name_H-M   'P 1'
_cell_length_a   16.03308289
_cell_length_b   22.31388080
_cell_length_c   16.39380486
_cell_angle_alpha   89.99911686
_cell_angle_beta   90.00194881
_cell_angle_gamma   90.00817892
_symmetry_Int_Tables_number   1
_chemical_formula_structural   Ca108Mn108O277
_chemical_formula_sum   'Ca108 Mn108 O277'
_cell_volume   5865.05249015
_cell_formula_units_Z   1
loop_
 _symmetry_equiv_pos_site_id
 _symmetry_equiv_pos_as_xyz
  1  'x, y, z'
loop_
 _atom_type_symbol
 _atom_type_oxidation_number
  Ca2+  2.0
  Mn3.34+  3.34
  O2-  -2.0
loop_
 _atom_site_type_symbol
 _atom_site_label
 _atom_site_symmetry_multiplicity
 _atom_site_fract_x
 _atom_site_fract_y
 _atom_site_fract_z
 _atom_site_occupancy
  Ca2+  Ca0  1  0.09524250  0.24424878  0.25283325  1
  Ca2+  Ca1  1  0.09657001  0.25441999  0.57839370  1
  Ca2+  Ca2  1  0.10364178  0.24698170  0.91778281  1
  Ca2+  Ca3  1  0.08719961  0.77291551  0.25112800  1
  Ca2+  Ca4  1  0.06448146  0.75777892  0.59390612  1
  Ca2+  Ca5  1  0.08145644  0.74860732  0.90102136  1
  Ca2+  Ca6  1  0.40824683  0.25582476  0.24587135  1
  Ca2+  Ca7  1  0.40369378  0.24708696  0.58471603  1
  Ca2+  Ca8  1  0.41422245  0.24987178  0.92415943  1
  Ca2+  Ca9  1  0.41858299  0.76599405  0.24032869  1
  Ca2+  Ca10  1  0.43061614  0.74120437  0.60195628  1
  Ca2+  Ca11  1  0.42171882  0.72751288  0.90202544  1
  Ca2+  Ca12  1  0.75283085  0.25642962  0.24946948  1
  Ca2+  Ca13  1  0.74729348  0.25214315  0.57922196  1
  Ca2+  Ca14  1  0.72648272  0.25052829  0.91999010  1
  Ca2+  Ca15  1  0.73651129  0.74312153  0.24691721  1
  Ca2+  Ca16  1  0.75347166  0.74898337  0.57801230  1
  Ca2+  Ca17  1  0.74540494  0.74083262  0.92477235  1
  Ca2+  Ca18  1  0.25841314  0.24293590  0.07204919  1
  Ca2+  Ca19  1  0.24518554  0.24401237  0.41557463  1
  Ca2+  Ca20  1  0.24924802  0.24343208  0.76821362  1
  Ca2+  Ca21  1  0.25888613  0.75053016  0.07905196  1
  Ca2+  Ca22  1  0.26095500  0.76640098  0.41719305  1
  Ca2+  Ca23  1  0.25100111  0.74913200  0.75527739  1
  Ca2+  Ca24  1  0.57542861  0.24939364  0.06442025  1
  Ca2+  Ca25  1  0.58335948  0.27110430  0.41612088  1
  Ca2+  Ca26  1  0.57331463  0.24856797  0.77834793  1
  Ca2+  Ca27  1  0.58162746  0.74461872  0.08275420  1
  Ca2+  Ca28  1  0.59275951  0.74707693  0.41832308  1
  Ca2+  Ca29  1  0.57861855  0.76366810  0.74416224  1
  Ca2+  Ca30  1  0.92012824  0.24626950  0.08346877  1
  Ca2+  Ca31  1  0.91911950  0.24690500  0.41716865  1
  Ca2+  Ca32  1  0.92674171  0.25571390  0.74846402  1
  Ca2+  Ca33  1  0.91390388  0.75980850  0.07375321  1
  Ca2+  Ca34  1  0.90440111  0.74325523  0.42929647  1
  Ca2+  Ca35  1  0.91696525  0.75773374  0.74105339  1
  Ca2+  Ca36  1  0.40518980  0.11418184  0.91820375  1
  Ca2+  Ca37  1  0.73219413  0.08686473  0.60112299  1
  Ca2+  Ca38  1  0.54699044  0.61651958  0.76931162  1
  Ca2+  Ca39  1  0.09317665  0.56421010  0.28647074  1
  Ca2+  Ca40  1  0.26723956  0.10710944  0.08517543  1
  Ca2+  Ca41  1  0.39542483  0.10164838  0.24246303  1
  Ca2+  Ca42  1  0.58281487  0.09885200  0.43096484  1
  Ca2+  Ca43  1  0.72825296  0.60280203  0.92548637  1
  Ca2+  Ca44  1  0.57585998  0.60313269  0.06713241  1
  Ca2+  Ca45  1  0.11097731  0.09154647  0.94019181  1
  Ca2+  Ca46  1  0.91376240  0.08910096  0.75036191  1
  Ca2+  Ca47  1  0.62779294  0.59802365  0.42464036  1
  Ca2+  Ca48  1  0.07545205  0.08952500  0.56373720  1
  Ca2+  Ca49  1  0.90091625  0.08811471  0.75052037  1
  Ca2+  Ca50  1  0.22486779  0.08512851  0.39376208  1
  Ca2+  Ca51  1  0.72858127  0.09386953  0.91806184  1
  Ca2+  Ca52  1  0.08797207  0.08991333  0.56488155  1
  Ca2+  Ca53  1  0.87986675  0.60160833  0.07020634  1
  Ca2+  Ca54  1  0.29058123  0.58512088  0.00907875  1
  Ca2+  Ca55  1  0.54968931  0.61098001  0.77559415  1
  Ca2+  Ca56  1  0.10825478  0.59394551  0.89997077  1
  Ca2+  Ca57  1  0.74108139  0.08475325  0.60582899  1
  Ca2+  Ca58  1  0.73832984  0.59433639  0.27375146  1
  Ca2+  Ca59  1  0.10549932  0.08538594  0.93754322  1
  Ca2+  Ca60  1  0.57005689  0.09984689  0.43197870  1
  Ca2+  Ca61  1  0.73913046  0.09180933  0.92123098  1
  Ca2+  Ca62  1  0.43268451  0.59007227  0.22521950  1
  Ca2+  Ca63  1  0.56348265  0.09354325  0.74479239  1
  Ca2+  Ca64  1  0.25922841  0.10138077  0.76139107  1
  Ca2+  Ca65  1  0.58053101  0.60970280  0.06552397  1
  Ca2+  Ca66  1  0.93067477  0.09602435  0.08320860  1
  Ca2+  Ca67  1  0.09861473  0.59517111  0.90355708  1
  Ca2+  Ca68  1  0.56959606  0.08993989  0.75123470  1
  Ca2+  Ca69  1  0.55762524  0.10586479  0.05426401  1
  Ca2+  Ca70  1  0.77468724  0.09741690  0.24426520  1
  Ca2+  Ca71  1  0.28719882  0.60831333  0.78724218  1
  Ca2+  Ca72  1  0.07883129  0.91054544  0.93062553  1
  Ca2+  Ca73  1  0.08086219  0.40330350  0.25520289  1
  Ca2+  Ca74  1  0.91031600  0.41291753  0.73583034  1
  Ca2+  Ca75  1  0.25548167  0.40940775  0.76840514  1
  Ca2+  Ca76  1  0.24451312  0.40958140  0.76591370  1
  Ca2+  Ca77  1  0.75698688  0.42830737  0.57242614  1
  Ca2+  Ca78  1  0.91184994  0.40297244  0.07556605  1
  Ca2+  Ca79  1  0.27344972  0.41799616  0.05684284  1
  Ca2+  Ca80  1  0.74209528  0.40354924  0.91164066  1
  Ca2+  Ca81  1  0.43853392  0.91156825  0.59237165  1
  Ca2+  Ca82  1  0.58355868  0.89440287  0.07873214  1
  Ca2+  Ca83  1  0.74829750  0.42618251  0.56760002  1
  Ca2+  Ca84  1  0.22585186  0.40504845  0.41618290  1
  Ca2+  Ca85  1  0.23752607  0.40573911  0.41461655  1
  Ca2+  Ca86  1  0.92451980  0.40350031  0.07540133  1
  Ca2+  Ca87  1  0.25696177  0.90378579  0.75224402  1
  Ca2+  Ca88  1  0.09011863  0.91001093  0.93244525  1
  Ca2+  Ca89  1  0.22452897  0.92180581  0.39436578  1
  Ca2+  Ca90  1  0.23778437  0.91177835  0.09550762  1
  Ca2+  Ca91  1  0.91819321  0.41295890  0.41907567  1
  Ca2+  Ca92  1  0.06270876  0.41178162  0.58188596  1
  Ca2+  Ca93  1  0.22772115  0.91245137  0.09851440  1
  Ca2+  Ca94  1  0.93690505  0.90181428  0.41404097  1
  Ca2+  Ca95  1  0.26624685  0.41607728  0.05000354  1
  Ca2+  Ca96  1  0.42690635  0.40214849  0.58993458  1
  Ca2+  Ca97  1  0.58957323  0.40587552  0.74809895  1
  Ca2+  Ca98  1  0.73269119  0.41979424  0.28820442  1
  Ca2+  Ca99  1  0.76330225  0.90176470  0.90270692  1
  Ca2+  Ca100  1  0.94776894  0.90583584  0.41683110  1
  Ca2+  Ca101  1  0.41947935  0.89257954  0.91406908  1
  Ca2+  Ca102  1  0.76074767  0.89697294  0.24627744  1
  Ca2+  Ca103  1  0.08937922  0.41124723  0.92272720  1
  Ca2+  Ca104  1  0.59649671  0.89388066  0.07891373  1
  Ca2+  Ca105  1  0.59133430  0.89648740  0.42840029  1
  Ca2+  Ca106  1  0.75136720  0.90288916  0.90331475  1
  Ca2+  Ca107  1  0.42618360  0.91021107  0.59194989  1
  Mn3.34+  Mn108  1  0.08654245  0.32936321  0.08753417  1
  Mn3.34+  Mn109  1  0.07775541  0.33202717  0.41958102  1
  Mn3.34+  Mn110  1  0.08127670  0.33427403  0.75022901  1
  Mn3.34+  Mn111  1  0.07571360  0.83509363  0.08581946  1
  Mn3.34+  Mn112  1  0.09092636  0.83437208  0.42529181  1
  Mn3.34+  Mn113  1  0.08366942  0.83469386  0.74664822  1
  Mn3.34+  Mn114  1  0.42661806  0.34291738  0.09176680  1
  Mn3.34+  Mn115  1  0.41729489  0.33299816  0.41542559  1
  Mn3.34+  Mn116  1  0.41792054  0.33340622  0.75369013  1
  Mn3.34+  Mn117  1  0.41484979  0.83324586  0.08490726  1
  Mn3.34+  Mn118  1  0.41898018  0.83394172  0.41687593  1
  Mn3.34+  Mn119  1  0.41680229  0.82996209  0.75249901  1
  Mn3.34+  Mn120  1  0.74158508  0.32959594  0.08759333  1
  Mn3.34+  Mn121  1  0.74927124  0.33210611  0.41698383  1
  Mn3.34+  Mn122  1  0.75049888  0.32921988  0.75232609  1
  Mn3.34+  Mn123  1  0.75481242  0.82707357  0.08711721  1
  Mn3.34+  Mn124  1  0.75412201  0.83057825  0.42010363  1
  Mn3.34+  Mn125  1  0.75015677  0.84087867  0.74003597  1
  Mn3.34+  Mn126  1  0.25512883  0.33077719  0.24236027  1
  Mn3.34+  Mn127  1  0.24939887  0.33217283  0.58694615  1
  Mn3.34+  Mn128  1  0.25383574  0.32995518  0.91751154  1
  Mn3.34+  Mn129  1  0.25325531  0.84303795  0.25517956  1
  Mn3.34+  Mn130  1  0.24980381  0.83823201  0.58096745  1
  Mn3.34+  Mn131  1  0.25169872  0.82750967  0.91465848  1
  Mn3.34+  Mn132  1  0.58026763  0.33835851  0.24912223  1
  Mn3.34+  Mn133  1  0.58415211  0.33508876  0.58307517  1
  Mn3.34+  Mn134  1  0.57678461  0.33655441  0.92113356  1
  Mn3.34+  Mn135  1  0.58315211  0.82927691  0.25517036  1
  Mn3.34+  Mn136  1  0.59043351  0.83310037  0.58316950  1
  Mn3.34+  Mn137  1  0.58428504  0.82005941  0.91151514  1
  Mn3.34+  Mn138  1  0.91493638  0.33123094  0.24847659  1
  Mn3.34+  Mn139  1  0.91270603  0.33150968  0.58007878  1
  Mn3.34+  Mn140  1  0.91574220  0.33245695  0.90849830  1
  Mn3.34+  Mn141  1  0.92099232  0.83625145  0.24694404  1
  Mn3.34+  Mn142  1  0.91424033  0.83603401  0.58796245  1
  Mn3.34+  Mn143  1  0.91847595  0.83029641  0.91297042  1
  Mn3.34+  Mn144  1  0.25013648  0.16409484  0.58445280  1
  Mn3.34+  Mn145  1  0.08678692  0.16718892  0.08799882  1
  Mn3.34+  Mn146  1  0.92500184  0.16138397  0.24896205  1
  Mn3.34+  Mn147  1  0.24764820  0.16471114  0.24713592  1
  Mn3.34+  Mn148  1  0.41245629  0.16948283  0.74761207  1
  Mn3.34+  Mn149  1  0.75566522  0.16733624  0.08552886  1
  Mn3.34+  Mn150  1  0.76151452  0.65953905  0.74714365  1
  Mn3.34+  Mn151  1  0.08307998  0.16730444  0.75078377  1
  Mn3.34+  Mn152  1  0.25302876  0.66482924  0.58304247  1
  Mn3.34+  Mn153  1  0.57955643  0.17453859  0.58122744  1
  Mn3.34+  Mn154  1  0.08518658  0.65078653  0.43168044  1
  Mn3.34+  Mn155  1  0.75633515  0.17166251  0.41660034  1
  Mn3.34+  Mn156  1  0.58643487  0.16976740  0.24711547  1
  Mn3.34+  Mn157  1  0.07947253  0.16855247  0.41038091  1
  Mn3.34+  Mn158  1  0.24403352  0.67080201  0.58527230  1
  Mn3.34+  Mn159  1  0.75172132  0.66469976  0.74552305  1
  Mn3.34+  Mn160  1  0.58154893  0.66765851  0.24824381  1
  Mn3.34+  Mn161  1  0.41302551  0.65792494  0.42095586  1
  Mn3.34+  Mn162  1  0.07665597  0.64527459  0.43771606  1
  Mn3.34+  Mn163  1  0.42568047  0.66438967  0.41758959  1
  Mn3.34+  Mn164  1  0.41307229  0.67115031  0.07805858  1
  Mn3.34+  Mn165  1  0.08991591  0.66074949  0.08887336  1
  Mn3.34+  Mn166  1  0.91792453  0.16510938  0.57808142  1
  Mn3.34+  Mn167  1  0.24515649  0.66508403  0.25558039  1
  Mn3.34+  Mn168  1  0.75136335  0.17519211  0.75516074  1
  Mn3.34+  Mn169  1  0.25679536  0.66910595  0.25751432  1
  Mn3.34+  Mn170  1  0.57648824  0.16465219  0.24442044  1
  Mn3.34+  Mn171  1  0.91545989  0.65499327  0.57872742  1
  Mn3.34+  Mn172  1  0.07879019  0.66536486  0.08664520  1
  Mn3.34+  Mn173  1  0.91570800  0.66599504  0.91387546  1
  Mn3.34+  Mn174  1  0.91978643  0.67308684  0.25406902  1
  Mn3.34+  Mn175  1  0.07531837  0.66456426  0.74346071  1
  Mn3.34+  Mn176  1  0.90928702  0.66374311  0.25126312  1
  Mn3.34+  Mn177  1  0.58896301  0.66554517  0.58035868  1
  Mn3.34+  Mn178  1  0.40703218  0.17009012  0.42215170  1
  Mn3.34+  Mn179  1  0.91699214  0.17202526  0.91290363  1
  Mn3.34+  Mn180  1  0.41612397  -0.00206738  0.74767684  1
  Mn3.34+  Mn181  1  0.73320959  0.49007083  0.09123462  1
  Mn3.34+  Mn182  1  0.57967104  0.50529993  0.59410664  1
  Mn3.34+  Mn183  1  0.25742210  0.50608122  0.58960241  1
  Mn3.34+  Mn184  1  0.57005120  0.49180147  0.93715375  1
  Mn3.34+  Mn185  1  0.07909083  -0.00578715  0.74543874  1
  Mn3.34+  Mn186  1  0.75940710  0.50061363  0.74233376  1
  Mn3.34+  Mn187  1  0.91235439  0.50000063  0.91701195  1
  Mn3.34+  Mn188  1  0.42718471  0.00367406  0.09130286  1
  Mn3.34+  Mn189  1  0.27268619  0.49202243  0.23918309  1
  Mn3.34+  Mn190  1  0.09120189  0.00180028  0.74651950  1
  Mn3.34+  Mn191  1  0.07877986  0.49840913  0.08465154  1
  Mn3.34+  Mn192  1  0.42159060  0.50323253  0.41669089  1
  Mn3.34+  Mn193  1  0.24388434  0.51180398  0.59016795  1
  Mn3.34+  Mn194  1  0.43436181  0.49706036  0.41464013  1
  Mn3.34+  Mn195  1  0.76551367  0.00584338  0.41408584  1
  Mn3.34+  Mn196  1  0.41410561  -0.00335579  0.09441734  1
  Mn3.34+  Mn197  1  0.39859834  0.00547312  0.41930402  1
  Mn3.34+  Mn198  1  0.25879367  -0.00343040  0.91637377  1
  Mn3.34+  Mn199  1  0.57684485  -0.00281217  0.24823892  1
  Mn3.34+  Mn200  1  0.91649497  0.50489904  0.25893847  1
  Mn3.34+  Mn201  1  0.06693876  0.50062138  0.73209203  1
  Mn3.34+  Mn202  1  0.93026365  -0.00001113  0.25949078  1
  Mn3.34+  Mn203  1  0.75546334  0.00094720  0.07997484  1
  Mn3.34+  Mn204  1  0.41926166  0.49741381  0.75889930  1
  Mn3.34+  Mn205  1  0.58492814  -0.00549142  0.91798611  1
  Mn3.34+  Mn206  1  0.25868652  0.49784581  0.23988330  1
  Mn3.34+  Mn207  1  0.41029165  0.00109016  0.41512225  1
  Mn3.34+  Mn208  1  0.91395316  0.00017174  0.92137552  1
  Mn3.34+  Mn209  1  0.90286128  0.49854465  0.25581762  1
  Mn3.34+  Mn210  1  0.91122773  -0.00172624  0.58333953  1
  Mn3.34+  Mn211  1  0.59017004  0.00439682  0.24787762  1
  Mn3.34+  Mn212  1  0.75265941  -0.00053031  0.41677616  1
  Mn3.34+  Mn213  1  0.58306093  0.49928675  0.24645673  1
  Mn3.34+  Mn214  1  0.25571644  0.00094083  0.58001152  1
  Mn3.34+  Mn215  1  0.74617701  0.49760826  0.09325251  1
  O2-  O216  1  0.00418744  0.16700267  -0.00971435  1
  O2-  O217  1  -0.00417319  0.18223851  0.33211374  1
  O2-  O218  1  -0.00287443  0.14752153  0.66703559  1
  O2-  O219  1  -0.00028472  0.64249420  0.00227184  1
  O2-  O220  1  -0.00258352  0.64868749  0.33590444  1
  O2-  O221  1  -0.00568119  0.67004569  0.66460315  1
  O2-  O222  1  0.34311210  0.17478488  0.00622819  1
  O2-  O223  1  0.32641589  0.14995946  0.34257272  1
  O2-  O224  1  0.33076645  0.15291685  0.66608024  1
  O2-  O225  1  0.33156266  0.68134928  0.00387369  1
  O2-  O226  1  0.33627055  0.63605644  0.33910759  1
  O2-  O227  1  0.32892477  0.65090618  0.66312312  1
  O2-  O228  1  0.67056633  0.15439690  0.00799769  1
  O2-  O229  1  0.65996117  0.13720545  0.32702763  1
  O2-  O230  1  0.67198714  0.17443261  0.66194893  1
  O2-  O231  1  0.65950987  0.67021862  0.00299519  1
  O2-  O232  1  0.66099689  0.66818641  0.32860901  1
  O2-  O233  1  0.66440110  0.64611577  0.67228393  1
  O2-  O234  1  0.17070681  0.15823450  0.00854976  1
  O2-  O235  1  0.16257013  0.16283945  0.33246268  1
  O2-  O236  1  0.15966183  0.13799667  0.66821321  1
  O2-  O237  1  0.16615038  0.65799692  -0.00055923  1
  O2-  O238  1  0.15969687  0.67393376  0.33810423  1
  O2-  O239  1  0.16221981  0.65548883  0.66434545  1
  O2-  O240  1  0.48474234  0.17693304  -0.00289310  1
  O2-  O241  1  0.49543429  0.14748268  0.33078153  1
  O2-  O242  1  0.50414203  0.15935568  0.66678634  1
  O2-  O243  1  0.49856833  0.67691094  0.00396237  1
  O2-  O244  1  0.50062062  0.63986506  0.33404906  1
  O2-  O245  1  0.50554716  0.65914140  0.66077314  1
  O2-  O246  1  0.83588723  0.15592449  -0.00266307  1
  O2-  O247  1  0.83300598  0.16791506  0.32635180  1
  O2-  O248  1  0.83620179  0.16482368  0.66974525  1
  O2-  O249  1  0.83013558  0.66965580  -0.01032137  1
  O2-  O250  1  0.82501910  0.67637976  0.32733323  1
  O2-  O251  1  0.83534708  0.65539526  0.66492660  1
  O2-  O252  1  -0.00212720  0.34075491  -0.00131681  1
  O2-  O253  1  -0.00706246  0.34220238  0.33754632  1
  O2-  O254  1  -0.00675254  0.34038502  0.66756399  1
  O2-  O255  1  -0.00186011  0.84560592  -0.00047336  1
  O2-  O256  1  0.01154063  0.83965386  0.33496546  1
  O2-  O257  1  0.00165299  0.84416138  0.66717281  1
  O2-  O258  1  0.33563824  0.33274482  0.00199826  1
  O2-  O259  1  0.32396207  0.35423984  0.33661603  1
  O2-  O260  1  0.33135491  0.35352801  0.66833589  1
  O2-  O261  1  0.32679177  0.84759164  0.00403122  1
  O2-  O262  1  0.33044685  0.85208654  0.34204767  1
  O2-  O263  1  0.33860186  0.85366063  0.66461537  1
  O2-  O264  1  0.66680682  0.34587520  -0.00060292  1
  O2-  O265  1  0.66177930  0.34641312  0.34236684  1
  O2-  O266  1  0.66753195  0.32394595  0.66832778  1
  O2-  O267  1  0.66388232  0.81499034  0.00579958  1
  O2-  O268  1  0.67812122  0.82616130  0.32915470  1
  O2-  O269  1  0.66460943  0.83690425  0.66844392  1
  O2-  O270  1  0.16855851  0.34956237  0.00471029  1
  O2-  O271  1  0.16336582  0.34590574  0.33141919  1
  O2-  O272  1  0.16549316  0.35886251  0.66787015  1
  O2-  O273  1  0.16778888  0.83488705  -0.00029367  1
  O2-  O274  1  0.17093922  0.82827179  0.34107663  1
  O2-  O275  1  0.17370967  0.84531249  0.67369365  1
  O2-  O276  1  0.49554275  0.32827047  0.00395145  1
  O2-  O277  1  0.49587875  0.33705445  0.33064704  1
  O2-  O278  1  0.50441180  0.34423139  0.67142913  1
  O2-  O279  1  0.50276365  0.83027301  -0.00006215  1
  O2-  O280  1  0.50751987  0.84950687  0.33700512  1
  O2-  O281  1  0.49791539  0.84156504  0.66774808  1
  O2-  O282  1  0.83449559  0.34199950  -0.00321232  1
  O2-  O283  1  0.83060217  0.33925330  0.32927936  1
  O2-  O284  1  0.83342564  0.31687335  0.66689161  1
  O2-  O285  1  0.82550804  0.83034993  -0.00626275  1
  O2-  O286  1  0.84576476  0.84216334  0.34306169  1
  O2-  O287  1  0.83335320  0.84227405  0.66628464  1
  O2-  O288  1  -0.00124977  0.18283274  0.16276216  1
  O2-  O289  1  0.00549918  0.18529466  0.50769749  1
  O2-  O290  1  -0.00934956  0.18224024  0.82281294  1
  O2-  O291  1  0.00023375  0.67746937  0.17010047  1
  O2-  O292  1  0.00004742  0.68864072  0.50214603  1
  O2-  O293  1  0.00967151  0.66850716  0.84326308  1
  O2-  O294  1  0.33139226  0.18217659  0.17693042  1
  O2-  O295  1  0.32817087  0.18479844  0.50206155  1
  O2-  O296  1  0.33606130  0.17596290  0.82694365  1
  O2-  O297  1  0.33583835  0.66984703  0.17240567  1
  O2-  O298  1  0.33446291  0.68751480  0.49974091  1
  O2-  O299  1  0.31107981  0.69268047  0.84569465  1
  O2-  O300  1  0.67541059  0.17515411  0.17226500  1
  O2-  O301  1  0.66016047  0.18219063  0.49321932  1
  O2-  O302  1  0.66911950  0.17478428  0.83035153  1
  O2-  O303  1  0.65711782  0.68244910  0.16855658  1
  O2-  O304  1  0.66577863  0.68234456  0.49925096  1
  O2-  O305  1  0.67731087  0.67372913  0.83125780  1
  O2-  O306  1  0.16922351  0.18103463  0.16431144  1
  O2-  O307  1  0.16084647  0.17817265  0.50678184  1
  O2-  O308  1  0.15769872  0.16970890  0.83275551  1
  O2-  O309  1  0.16583350  0.69259907  0.16926147  1
  O2-  O310  1  0.16917095  0.69164337  0.50199303  1
  O2-  O311  1  0.15931156  0.67071680  0.82742945  1
  O2-  O312  1  0.50181756  0.18784143  0.16638551  1
  O2-  O313  1  0.50383031  0.18584084  0.49075938  1
  O2-  O314  1  0.49753257  0.16956955  0.82259335  1
  O2-  O315  1  0.49977961  0.67386217  0.16424959  1
  O2-  O316  1  0.50285880  0.68405179  0.49670846  1
  O2-  O317  1  0.52365698  0.69540069  0.82910749  1
  O2-  O318  1  0.83832617  0.18456385  0.16685141  1
  O2-  O319  1  0.83331108  0.18722488  0.50879595  1
  O2-  O320  1  0.83283506  0.19395740  0.83769744  1
  O2-  O321  1  0.83952630  0.68408941  0.16404990  1
  O2-  O322  1  0.83755468  0.67970068  0.51010900  1
  O2-  O323  1  0.83837707  0.68364917  0.82964402  1
  O2-  O324  1  -0.00183764  0.31505629  0.16670718  1
  O2-  O325  1  0.00003189  0.31670338  0.50493630  1
  O2-  O326  1  0.00434855  0.31310349  0.83758609  1
  O2-  O327  1  -0.00402848  0.82255824  0.16225016  1
  O2-  O328  1  -0.00411602  0.81855052  0.49046105  1
  O2-  O329  1  0.01148858  0.83472299  0.84529443  1
  O2-  O330  1  0.33379974  0.31226346  0.15715848  1
  O2-  O331  1  0.32912287  0.32260717  0.49967603  1
  O2-  O332  1  0.32586903  0.32218262  0.82459497  1
  O2-  O333  1  0.32449927  0.83982615  0.15949821  1
  O2-  O334  1  0.34192365  0.82232130  0.50734929  1
  O2-  O335  1  0.33274852  0.82453027  0.83383546  1
  O2-  O336  1  0.67042219  0.31805180  0.17429537  1
  O2-  O337  1  0.67297773  0.32093427  0.50752239  1
  O2-  O338  1  0.66716551  0.32399911  0.83265672  1
  O2-  O339  1  0.66314872  0.81468364  0.16279034  1
  O2-  O340  1  0.66490357  0.81709651  0.49380940  1
  O2-  O341  1  0.67623960  0.81752640  0.84174624  1
  O2-  O342  1  0.16164233  0.32136972  0.17208623  1
  O2-  O343  1  0.17033038  0.32369582  0.49706007  1
  O2-  O344  1  0.17032937  0.32833131  0.83080202  1
  O2-  O345  1  0.16768596  0.82748203  0.16062494  1
  O2-  O346  1  0.16716772  0.81283587  0.50482270  1
  O2-  O347  1  0.16921269  0.81220376  0.83683584  1
  O2-  O348  1  0.50218205  0.31302034  0.16423584  1
  O2-  O349  1  0.49497031  0.31577601  0.51180864  1
  O2-  O350  1  0.49861708  0.32566102  0.83269142  1
  O2-  O351  1  0.50895556  0.83084179  0.16130704  1
  O2-  O352  1  0.50082772  0.81826541  0.50195621  1
  O2-  O353  1  0.49563174  0.82157462  0.83797346  1
  O2-  O354  1  0.84150152  0.31443529  0.15866170  1
  O2-  O355  1  0.83515359  0.31039456  0.49764508  1
  O2-  O356  1  0.83141614  0.31032602  0.83367650  1
  O2-  O357  1  0.82802389  0.81393683  0.17480430  1
  O2-  O358  1  0.83504728  0.81762478  0.49775481  1
  O2-  O359  1  0.83333164  0.82269508  0.83585161  1
  O2-  O360  1  0.07142061  0.08471077  0.07858026  1
  O2-  O361  1  0.08319694  0.08717610  0.43294554  1
  O2-  O362  1  0.06289246  0.07558048  0.79951469  1
  O2-  O363  1  0.08298446  0.57848868  0.12865818  1
  O2-  O364  1  0.09581369  0.56425256  0.42298013  1
  O2-  O365  1  0.07964146  0.57719062  0.76918572  1
  O2-  O366  1  0.41342993  0.08297544  0.10931759  1
  O2-  O367  1  0.43588397  0.08319357  0.46050265  1
  O2-  O368  1  0.41685624  0.07889542  0.77649271  1
  O2-  O369  1  0.42519048  0.59153203  0.08921691  1
  O2-  O370  1  0.42335659  0.57763838  0.46687660  1
  O2-  O371  1  0.42241345  0.57539902  0.79492294  1
  O2-  O372  1  0.77252579  0.08347410  0.10998213  1
  O2-  O373  1  0.74995190  0.08462803  0.45555907  1
  O2-  O374  1  0.77564378  0.08744450  0.79261908  1
  O2-  O375  1  0.73849601  0.57736868  0.11974410  1
  O2-  O376  1  0.75805744  0.57000829  0.41289325  1
  O2-  O377  1  0.75409169  0.57842943  0.78573605  1
  O2-  O378  1  0.25775266  0.08555276  0.22044748  1
  O2-  O379  1  0.23063537  0.07972124  0.54167950  1
  O2-  O380  1  0.24752497  0.07678726  0.89415120  1
  O2-  O381  1  0.23563860  0.57884935  0.22411744  1
  O2-  O382  1  0.24337771  0.58557839  0.53781889  1
  O2-  O383  1  0.22574029  0.56201074  0.89081688  1
  O2-  O384  1  0.56763878  0.07969905  0.19626038  1
  O2-  O385  1  0.60687372  0.08041060  0.55586473  1
  O2-  O386  1  0.59637525  0.07211728  0.87764967  1
  O2-  O387  1  0.58102695  0.57958309  0.20611877  1
  O2-  O388  1  0.58380255  0.58148799  0.55214397  1
  O2-  O389  1  0.59302482  0.56394264  0.88239938  1
  O2-  O390  1  0.91818386  0.07555936  0.21435855  1
  O2-  O391  1  0.93517636  0.07667046  0.54410703  1
  O2-  O392  1  0.90906692  0.08067155  0.88694543  1
  O2-  O393  1  0.91399750  0.58166522  0.21031070  1
  O2-  O394  1  0.93027725  0.58280866  0.55851916  1
  O2-  O395  1  0.91191788  0.58133299  0.90438420  1
  O2-  O396  1  0.06092000  0.41651445  0.11514159  1
  O2-  O397  1  0.08803101  0.41414949  0.44646275  1
  O2-  O398  1  0.08324251  0.42593246  0.78690158  1
  O2-  O399  1  0.09421216  0.91833981  0.07841617  1
  O2-  O400  1  0.08450521  0.91356337  0.44289365  1
  O2-  O401  1  0.10379348  0.91966795  0.79185124  1
  O2-  O402  1  0.40088052  0.41581060  0.11497073  1
  O2-  O403  1  0.41859092  0.41921336  0.45485799  1
  O2-  O404  1  0.39721347  0.41712908  0.77808173  1
  O2-  O405  1  0.44244509  0.91698632  0.09181436  1
  O2-  O406  1  0.43427336  0.92375184  0.45535235  1
  O2-  O407  1  0.41133568  0.92069573  0.78464611  1
  O2-  O408  1  0.76984424  0.41264002  0.11897704  1
  O2-  O409  1  0.76482866  0.41383628  0.43847724  1
  O2-  O410  1  0.75599894  0.42036279  0.77590228  1
  O2-  O411  1  0.72762976  0.91779948  0.10555686  1
  O2-  O412  1  0.74525469  0.91893238  0.42763424  1
  O2-  O413  1  0.74517803  0.91936986  0.77536890  1
  O2-  O414  1  0.25407149  0.41464038  0.19709768  1
  O2-  O415  1  0.25457642  0.42788647  0.54414184  1
  O2-  O416  1  0.24721756  0.41743848  0.90353652  1
  O2-  O417  1  0.23867644  0.92292820  0.23050508  1
  O2-  O418  1  0.26748494  0.92222539  0.53912499  1
  O2-  O419  1  0.23857078  0.91694257  0.89072672  1
  O2-  O420  1  0.59893310  0.42073299  0.22143848  1
  O2-  O421  1  0.60481303  0.42553453  0.55694065  1
  O2-  O422  1  0.59198616  0.42174179  0.88393446  1
  O2-  O423  1  0.60775023  0.91708232  0.22560791  1
  O2-  O424  1  0.57003862  0.91564140  0.55820026  1
  O2-  O425  1  0.60903324  0.91223210  0.93498631  1
  O2-  O426  1  0.91674229  0.42127762  0.20817002  1
  O2-  O427  1  0.89691602  0.41460254  0.55223047  1
  O2-  O428  1  0.90461862  0.42129332  0.87985304  1
  O2-  O429  1  0.90279356  0.91990051  0.23523430  1
  O2-  O430  1  0.91304297  0.91901697  0.54716799  1
  O2-  O431  1  0.90259797  0.91743654  0.90416770  1
  O2-  O432  1  0.02879586  0.00301010  -0.07310499  1
  O2-  O433  1  -0.02917784  -0.01055120  0.36085060  1
  O2-  O434  1  -0.00590180  0.01422904  0.66962721  1
  O2-  O435  1  0.00343679  0.48302525  -0.00984921  1
  O2-  O436  1  0.01337360  0.48529039  0.31141387  1
  O2-  O437  1  -0.00589996  0.47564204  0.66345815  1
  O2-  O438  1  0.32473481  -0.00507816  0.01671921  1
  O2-  O439  1  0.30838873  0.00586980  0.35164694  1
  O2-  O440  1  0.33302640  -0.01424625  0.66972279  1
  O2-  O441  1  0.32460964  0.50078964  0.05302084  1
  O2-  O442  1  0.33476348  0.49422733  0.33911116  1
  O2-  O443  1  0.32212844  0.50175020  0.68767377  1
  O2-  O444  1  0.65855979  0.02050506  0.00533386  1
  O2-  O445  1  0.65026407  0.01557189  0.35180070  1
  O2-  O446  1  0.66617239  0.04366171  0.69571937  1
  O2-  O447  1  0.68250637  0.49830082  -0.01347235  1
  O2-  O448  1  0.66538652  0.51174889  0.31478252  1
  O2-  O449  1  0.67086301  0.48814095  0.66796346  1
  O2-  O450  1  0.16592140  -0.00393636  -0.01346287  1
  O2-  O451  1  0.16161196  0.00287228  0.35394221  1
  O2-  O452  1  0.16167438  0.00599922  0.65438696  1
  O2-  O453  1  0.16481034  0.48823518  0.02265175  1
  O2-  O454  1  0.17628659  0.47486957  0.31759039  1
  O2-  O455  1  0.16344032  0.48489775  0.66753405  1
  O2-  O456  1  0.49450305  0.00789775  -0.00557282  1
  O2-  O457  1  0.49362197  0.01564366  0.33040264  1
  O2-  O458  1  0.50017374  -0.00098045  0.68099421  1
  O2-  O459  1  0.52477554  0.51909599  0.02714254  1
  O2-  O460  1  0.49402578  0.51448511  0.31898343  1
  O2-  O461  1  0.50290738  0.48517432  0.67892807  1
  O2-  O462  1  0.80414632  0.00106311  -0.04036209  1
  O2-  O463  1  0.80957632  0.00779461  0.30468804  1
  O2-  O464  1  0.83403363  0.03169015  0.65937704  1
  O2-  O465  1  0.84587719  0.49505846  0.02269797  1
  O2-  O466  1  0.82348273  0.49425423  0.33325227  1
  O2-  O467  1  0.82876198  0.47980237  0.66071891  1
  O2-  O468  1  0.94015444  0.75262627  0.27624893  1
  O2-  O469  1  0.24584343  0.25161584  0.92796282  1
  O2-  O470  1  0.40710844  0.75317761  0.73386007  1
  O2-  O471  1  0.26891891  0.75483906  0.26606916  1
  O2-  O472  1  0.59454882  0.24958674  0.28119971  1
  O2-  O473  1  0.91459455  0.75560091  0.60417112  1
  O2-  O474  1  0.24954838  0.25230013  0.27709115  1
  O2-  O475  1  0.58352951  0.25586323  0.92560753  1
  O2-  O476  1  0.24484531  0.24738850  0.61820941  1
  O2-  O477  1  0.74265612  0.24875943  0.05847740  1
  O2-  O478  1  0.73745877  0.25072964  0.38843794  1
  O2-  O479  1  0.07151306  0.74919713  0.06133333  1
  O2-  O480  1  0.75391758  0.74786851  0.72465949  1
  O2-  O481  1  0.93567527  0.74882171  0.93358165  1
  O2-  O482  1  0.26058599  0.75236560  0.61308054  1
  O2-  O483  1  0.07394205  0.75077421  0.73690783  1
  O2-  O484  1  0.41698059  0.25183122  0.72519850  1
  O2-  O485  1  0.58525528  0.74865821  0.60712097  1
  O2-  O486  1  0.40603464  0.24901791  0.38694748  1
  O2-  O487  1  0.09307713  0.25242844  0.39741190  1
  O2-  O488  1  0.55840673  0.74823493  0.27416309  1
  O2-  O489  1  0.40911306  0.74527251  0.38099494  1
  O2-  O490  1  0.40708605  0.75466532  0.09507474  1
  O2-  O491  1  0.09166806  0.24785142  0.72004661  1
  O2-  O492  1  0.09108388  0.25114340  0.05794401  1
