# generated using pymatgen
data_Ca108Mn108O277
_symmetry_space_group_name_H-M   'P 1'
_cell_length_a   16.02097034
_cell_length_b   22.29880306
_cell_length_c   16.38487448
_cell_angle_alpha   89.99945964
_cell_angle_beta   89.99971856
_cell_angle_gamma   90.00356866
_symmetry_Int_Tables_number   1
_chemical_formula_structural   Ca108Mn108O277
_chemical_formula_sum   'Ca108 Mn108 O277'
_cell_volume   5853.47120025
_cell_formula_units_Z   1
loop_
 _symmetry_equiv_pos_site_id
 _symmetry_equiv_pos_as_xyz
  1  'x, y, z'
loop_
 _atom_type_symbol
 _atom_type_oxidation_number
  Ca2+  2.0
  Mn3.34+  3.34
  O2-  -2.0
loop_
 _atom_site_type_symbol
 _atom_site_label
 _atom_site_symmetry_multiplicity
 _atom_site_fract_x
 _atom_site_fract_y
 _atom_site_fract_z
 _atom_site_occupancy
  Ca2+  Ca0  1  0.08388871  0.24499068  0.27767817  1
  Ca2+  Ca1  1  0.07847748  0.25229310  0.56503863  1
  Ca2+  Ca2  1  0.08275844  0.27062244  0.90746538  1
  Ca2+  Ca3  1  0.08388208  0.74468710  0.25339480  1
  Ca2+  Ca4  1  0.09370859  0.75380510  0.58273981  1
  Ca2+  Ca5  1  0.05447175  0.72506077  0.91783929  1
  Ca2+  Ca6  1  0.41054572  0.25282961  0.26258232  1
  Ca2+  Ca7  1  0.40407865  0.25206113  0.57079504  1
  Ca2+  Ca8  1  0.41383912  0.25519451  0.91407367  1
  Ca2+  Ca9  1  0.41001735  0.74935133  0.25089567  1
  Ca2+  Ca10  1  0.41343531  0.74177655  0.58948543  1
  Ca2+  Ca11  1  0.43234541  0.75013887  0.90866195  1
  Ca2+  Ca12  1  0.75019504  0.25942663  0.25138626  1
  Ca2+  Ca13  1  0.77076074  0.26269788  0.58297123  1
  Ca2+  Ca14  1  0.75039521  0.26715937  0.91518179  1
  Ca2+  Ca15  1  0.75725320  0.74883349  0.24740570  1
  Ca2+  Ca16  1  0.73359716  0.73953968  0.59548939  1
  Ca2+  Ca17  1  0.76206656  0.73964674  0.90859608  1
  Ca2+  Ca18  1  0.26731580  0.26132531  0.07705478  1
  Ca2+  Ca19  1  0.24966483  0.24807678  0.42372568  1
  Ca2+  Ca20  1  0.25912728  0.26627083  0.74431753  1
  Ca2+  Ca21  1  0.23861858  0.73791773  0.09770394  1
  Ca2+  Ca22  1  0.24357642  0.74714883  0.43032456  1
  Ca2+  Ca23  1  0.25379828  0.73810699  0.72359576  1
  Ca2+  Ca24  1  0.57135381  0.25852427  0.07586131  1
  Ca2+  Ca25  1  0.56410704  0.25960015  0.41873668  1
  Ca2+  Ca26  1  0.57635506  0.26708037  0.75443606  1
  Ca2+  Ca27  1  0.58569986  0.74631660  0.06902966  1
  Ca2+  Ca28  1  0.58106266  0.74912925  0.44176412  1
  Ca2+  Ca29  1  0.58355793  0.73519105  0.73870857  1
  Ca2+  Ca30  1  0.90636333  0.26306167  0.07710022  1
  Ca2+  Ca31  1  0.93021809  0.23626883  0.43131853  1
  Ca2+  Ca32  1  0.92372479  0.25459956  0.73078742  1
  Ca2+  Ca33  1  0.92261344  0.74081337  0.07213921  1
  Ca2+  Ca34  1  0.92956036  0.74557769  0.42034845  1
  Ca2+  Ca35  1  0.90822678  0.74297061  0.74642029  1
  Ca2+  Ca36  1  0.23457749  0.60430216  0.72870462  1
  Ca2+  Ca37  1  0.72784885  0.07992666  0.92642468  1
  Ca2+  Ca38  1  0.57341563  0.08529589  0.07191106  1
  Ca2+  Ca39  1  0.91904049  0.08845380  0.08463720  1
  Ca2+  Ca40  1  0.90611805  0.08798025  0.08521502  1
  Ca2+  Ca41  1  0.07980645  0.09058996  0.91731274  1
  Ca2+  Ca42  1  0.73997540  0.08223372  0.92787429  1
  Ca2+  Ca43  1  0.43041974  0.09525812  0.92556678  1
  Ca2+  Ca44  1  0.40593678  0.09626868  0.25737924  1
  Ca2+  Ca45  1  0.73350651  0.57960771  0.60632390  1
  Ca2+  Ca46  1  0.92252233  0.59616374  0.42474237  1
  Ca2+  Ca47  1  0.40615187  0.09421761  0.56856923  1
  Ca2+  Ca48  1  0.59556722  0.57356450  0.42561541  1
  Ca2+  Ca49  1  0.43576079  0.59565051  0.58906390  1
  Ca2+  Ca50  1  0.56780446  0.09923114  0.40938258  1
  Ca2+  Ca51  1  0.07619769  0.61825753  0.58918023  1
  Ca2+  Ca52  1  0.26140161  0.09150076  0.08457617  1
  Ca2+  Ca53  1  0.80247527  0.10743783  0.56357722  1
  Ca2+  Ca54  1  0.43374498  0.58063777  0.94668329  1
  Ca2+  Ca55  1  0.39622715  0.09606902  0.57133882  1
  Ca2+  Ca56  1  0.74606139  0.57008511  0.24801420  1
  Ca2+  Ca57  1  0.59195698  0.58870108  0.74145877  1
  Ca2+  Ca58  1  0.39469128  0.09309239  0.25393556  1
  Ca2+  Ca59  1  0.57363327  0.08860264  0.75909427  1
  Ca2+  Ca60  1  0.92674321  0.59371319  0.08011608  1
  Ca2+  Ca61  1  0.09201308  0.08780282  0.91820042  1
  Ca2+  Ca62  1  0.08661038  0.61749103  0.58797696  1
  Ca2+  Ca63  1  0.06036467  0.10512798  0.55909384  1
  Ca2+  Ca64  1  0.76209566  0.59858745  0.91141738  1
  Ca2+  Ca65  1  0.24351678  0.60449634  0.41117075  1
  Ca2+  Ca66  1  0.22846451  0.10215059  0.40831838  1
  Ca2+  Ca67  1  0.74377488  0.57906778  0.60754983  1
  Ca2+  Ca68  1  0.25455560  0.09109548  0.74853047  1
  Ca2+  Ca69  1  0.92716471  0.61121697  0.75236435  1
  Ca2+  Ca70  1  0.58052015  0.09982899  0.40899274  1
  Ca2+  Ca71  1  0.10973027  0.60216263  0.24137301  1
  Ca2+  Ca72  1  0.42707282  0.40608553  0.57517250  1
  Ca2+  Ca73  1  0.26707187  0.90077403  0.08778851  1
  Ca2+  Ca74  1  0.08653046  0.40593071  0.25047974  1
  Ca2+  Ca75  1  0.92964478  0.89692985  0.74438818  1
  Ca2+  Ca76  1  0.92126987  0.90524462  0.41566579  1
  Ca2+  Ca77  1  0.89685417  0.41122901  0.74529124  1
  Ca2+  Ca78  1  0.93257813  0.90500974  0.41742394  1
  Ca2+  Ca79  1  0.89942461  0.40345730  0.41975535  1
  Ca2+  Ca80  1  0.23661181  0.41618079  0.07505688  1
  Ca2+  Ca81  1  0.41232989  0.89827921  0.57624115  1
  Ca2+  Ca82  1  0.75928504  0.89725200  0.23916915  1
  Ca2+  Ca83  1  0.24881831  0.89974413  0.74491900  1
  Ca2+  Ca84  1  0.90863673  0.40187714  0.41486752  1
  Ca2+  Ca85  1  0.74350089  0.41712579  0.92099402  1
  Ca2+  Ca86  1  0.75082787  0.89501011  0.58133509  1
  Ca2+  Ca87  1  0.73406528  0.90349519  0.92488970  1
  Ca2+  Ca88  1  0.39953429  0.90778448  0.25672418  1
  Ca2+  Ca89  1  0.23610041  0.90045724  0.74340615  1
  Ca2+  Ca90  1  0.25441578  0.90117066  0.08776713  1
  Ca2+  Ca91  1  0.90792072  0.40988760  0.74544195  1
  Ca2+  Ca92  1  0.09393206  0.90402703  0.25736960  1
  Ca2+  Ca93  1  0.74586222  0.90469118  0.92568817  1
  Ca2+  Ca94  1  0.41663469  0.41217434  0.25290676  1
  Ca2+  Ca95  1  0.57762496  0.89878224  0.42045022  1
  Ca2+  Ca96  1  0.92757919  0.41282716  0.08563511  1
  Ca2+  Ca97  1  0.73789312  0.42331666  0.26314629  1
  Ca2+  Ca98  1  0.60413181  0.42389340  0.41695568  1
  Ca2+  Ca99  1  0.41721103  0.40364446  0.57254506  1
  Ca2+  Ca100  1  0.57680777  0.90754305  0.06573969  1
  Ca2+  Ca101  1  0.58765616  0.42962671  0.08804258  1
  Ca2+  Ca102  1  0.60807332  0.43063602  0.72552720  1
  Ca2+  Ca103  1  0.41154358  0.41326704  0.93048575  1
  Ca2+  Ca104  1  0.07542978  0.89892970  0.90943535  1
  Ca2+  Ca105  1  0.57791300  0.42733315  0.08563369  1
  Ca2+  Ca106  1  0.58259302  0.89762069  0.75755687  1
  Ca2+  Ca107  1  0.08830931  0.89901798  0.91024266  1
  Mn3.34+  Mn108  1  0.08530429  0.33562654  0.08909150  1
  Mn3.34+  Mn109  1  0.08855753  0.33116019  0.41909024  1
  Mn3.34+  Mn110  1  0.08757477  0.33799818  0.74744021  1
  Mn3.34+  Mn111  1  0.08033627  0.82811016  0.08684028  1
  Mn3.34+  Mn112  1  0.09097034  0.83419076  0.41980856  1
  Mn3.34+  Mn113  1  0.08155659  0.81520590  0.74886749  1
  Mn3.34+  Mn114  1  0.41764408  0.33823821  0.08985667  1
  Mn3.34+  Mn115  1  0.41249720  0.33175356  0.41269699  1
  Mn3.34+  Mn116  1  0.41626715  0.33707054  0.75336199  1
  Mn3.34+  Mn117  1  0.41945350  0.82517644  0.08470551  1
  Mn3.34+  Mn118  1  0.41471302  0.83316885  0.41513699  1
  Mn3.34+  Mn119  1  0.41711258  0.82779413  0.75081767  1
  Mn3.34+  Mn120  1  0.74699157  0.34204637  0.08849674  1
  Mn3.34+  Mn121  1  0.74528049  0.33242135  0.41784883  1
  Mn3.34+  Mn122  1  0.74574780  0.34038517  0.75097100  1
  Mn3.34+  Mn123  1  0.75179548  0.82785612  0.08667914  1
  Mn3.34+  Mn124  1  0.74920661  0.83068426  0.41604660  1
  Mn3.34+  Mn125  1  0.75065844  0.82932083  0.75058024  1
  Mn3.34+  Mn126  1  0.24852507  0.33918944  0.24771555  1
  Mn3.34+  Mn127  1  0.24439894  0.33761753  0.58272460  1
  Mn3.34+  Mn128  1  0.24823390  0.33839032  0.91376944  1
  Mn3.34+  Mn129  1  0.24952572  0.83523435  0.25303423  1
  Mn3.34+  Mn130  1  0.25164042  0.83037807  0.57735515  1
  Mn3.34+  Mn131  1  0.25236719  0.82375706  0.91530261  1
  Mn3.34+  Mn132  1  0.58267167  0.33771976  0.24781866  1
  Mn3.34+  Mn133  1  0.58837355  0.33956441  0.58140556  1
  Mn3.34+  Mn134  1  0.58151754  0.33982699  0.91420695  1
  Mn3.34+  Mn135  1  0.58267183  0.82836991  0.24801489  1
  Mn3.34+  Mn136  1  0.58127117  0.83152320  0.58563878  1
  Mn3.34+  Mn137  1  0.57913386  0.83174722  0.91364430  1
  Mn3.34+  Mn138  1  0.91748541  0.33198326  0.24566910  1
  Mn3.34+  Mn139  1  0.92039377  0.33493224  0.58098422  1
  Mn3.34+  Mn140  1  0.91865495  0.33577343  0.91808955  1
  Mn3.34+  Mn141  1  0.92004010  0.83017009  0.24538613  1
  Mn3.34+  Mn142  1  0.91913774  0.82945421  0.58215221  1
  Mn3.34+  Mn143  1  0.91619517  0.82888846  0.91753360  1
  Mn3.34+  Mn144  1  0.74898134  0.17417714  0.09263332  1
  Mn3.34+  Mn145  1  0.91633448  0.66550132  0.24600506  1
  Mn3.34+  Mn146  1  0.41348034  0.65991165  0.08652025  1
  Mn3.34+  Mn147  1  0.25366198  0.65776882  0.91610529  1
  Mn3.34+  Mn148  1  0.25407057  0.16939790  0.91564739  1
  Mn3.34+  Mn149  1  0.41558140  0.17063246  0.75137952  1
  Mn3.34+  Mn150  1  0.58623215  0.66123023  0.24182496  1
  Mn3.34+  Mn151  1  0.08259600  0.66100639  0.08723057  1
  Mn3.34+  Mn152  1  0.24635798  0.16533070  0.24791144  1
  Mn3.34+  Mn153  1  0.42302872  0.66447415  0.41490233  1
  Mn3.34+  Mn154  1  0.75015851  0.17740744  0.40967531  1
  Mn3.34+  Mn155  1  0.57924285  0.17388477  0.24752002  1
  Mn3.34+  Mn156  1  0.75689868  0.66480728  0.41843911  1
  Mn3.34+  Mn157  1  0.73888107  0.16853416  0.09541134  1
  Mn3.34+  Mn158  1  0.41669398  0.17213351  0.08504460  1
  Mn3.34+  Mn159  1  0.58443488  0.66648161  0.91725839  1
  Mn3.34+  Mn160  1  0.74719177  0.65952442  0.42050753  1
  Mn3.34+  Mn161  1  0.08230188  0.67118131  0.41404758  1
  Mn3.34+  Mn162  1  0.57992212  0.17172720  0.58643084  1
  Mn3.34+  Mn163  1  0.91384596  0.16196695  0.26012387  1
  Mn3.34+  Mn164  1  0.58093506  0.17060639  0.91532138  1
  Mn3.34+  Mn165  1  0.75204549  0.65575690  0.08507785  1
  Mn3.34+  Mn166  1  0.08144477  0.17918413  0.09117650  1
  Mn3.34+  Mn167  1  0.41963538  0.66299936  0.75430655  1
  Mn3.34+  Mn168  1  0.24610340  0.16748042  0.57793824  1
  Mn3.34+  Mn169  1  0.08755985  0.16866240  0.74368979  1
  Mn3.34+  Mn170  1  0.91671252  0.16926482  0.91528542  1
  Mn3.34+  Mn171  1  0.08840432  0.18616111  0.08933796  1
  Mn3.34+  Mn172  1  0.76091440  0.17094008  0.75131802  1
  Mn3.34+  Mn173  1  0.57649535  0.65604572  0.23920843  1
  Mn3.34+  Mn174  1  0.07764952  0.16351301  0.74565761  1
  Mn3.34+  Mn175  1  0.24332798  0.66239192  0.91635657  1
  Mn3.34+  Mn176  1  0.41236796  0.66028585  0.41434720  1
  Mn3.34+  Mn177  1  0.59383028  0.16585592  0.58379498  1
  Mn3.34+  Mn178  1  0.75104634  0.66199993  0.75276885  1
  Mn3.34+  Mn179  1  0.74684277  0.16528003  0.75041875  1
  Mn3.34+  Mn180  1  0.09605850  0.49731028  0.76170571  1
  Mn3.34+  Mn181  1  0.75968618  0.00700069  0.41970188  1
  Mn3.34+  Mn182  1  0.23263737  -0.00226555  0.58108219  1
  Mn3.34+  Mn183  1  0.41067795  0.00076339  0.75486794  1
  Mn3.34+  Mn184  1  0.24618025  0.50011046  0.93294921  1
  Mn3.34+  Mn185  1  0.08417844  0.50450033  0.76300821  1
  Mn3.34+  Mn186  1  0.58053899  0.00137390  0.24185309  1
  Mn3.34+  Mn187  1  0.91723166  0.50295142  0.25422438  1
  Mn3.34+  Mn188  1  0.59571179  -0.00388589  0.24068442  1
  Mn3.34+  Mn189  1  0.08209068  -0.00254049  0.73619644  1
  Mn3.34+  Mn190  1  0.76459035  0.00301618  0.73762108  1
  Mn3.34+  Mn191  1  0.40213448  -0.00483254  0.40766404  1
  Mn3.34+  Mn192  1  0.09031609  0.00412535  0.09795977  1
  Mn3.34+  Mn193  1  0.42091818  -0.00486077  0.75431247  1
  Mn3.34+  Mn194  1  0.58463725  -0.00058303  0.58131987  1
  Mn3.34+  Mn195  1  0.42066559  0.49837654  0.40050360  1
  Mn3.34+  Mn196  1  0.09909098  0.49532781  0.42073757  1
  Mn3.34+  Mn197  1  0.75113993  -0.00395628  0.73841261  1
  Mn3.34+  Mn198  1  0.24187673  0.49850823  0.58141741  1
  Mn3.34+  Mn199  1  0.26662795  -0.00068954  0.91923305  1
  Mn3.34+  Mn200  1  0.93453524  0.50724599  0.92933227  1
  Mn3.34+  Mn201  1  0.74874147  -0.00162344  0.08937264  1
  Mn3.34+  Mn202  1  0.25520715  0.50489501  0.25005218  1
  Mn3.34+  Mn203  1  0.91784365  0.49968965  0.59210472  1
  Mn3.34+  Mn204  1  0.92024770  -0.00358484  0.24958558  1
  Mn3.34+  Mn205  1  0.74915610  0.00131656  0.42111005  1
  Mn3.34+  Mn206  1  0.08933324  0.50116534  0.42318630  1
  Mn3.34+  Mn207  1  0.92694724  -0.00092576  0.58294802  1
  Mn3.34+  Mn208  1  0.91391979  0.00165092  0.90766461  1
  Mn3.34+  Mn209  1  0.39916538  0.49876099  0.74945447  1
  Mn3.34+  Mn210  1  0.41194969  0.50521245  0.75133635  1
  Mn3.34+  Mn211  1  0.41838555  -0.00081833  0.07839164  1
  Mn3.34+  Mn212  1  0.07973528  -0.00200101  0.09773496  1
  Mn3.34+  Mn213  1  0.58669966  0.50139003  0.92384587  1
  Mn3.34+  Mn214  1  0.92228257  0.50063882  0.92809286  1
  Mn3.34+  Mn215  1  0.09343925  -0.00395178  0.39744927  1
  O2-  O216  1  -0.00119242  0.15654537  0.00717229  1
  O2-  O217  1  -0.00751014  0.17693269  0.33058741  1
  O2-  O218  1  -0.00037217  0.16172586  0.66642455  1
  O2-  O219  1  -0.00146066  0.66200282  0.01052080  1
  O2-  O220  1  -0.00290651  0.65216241  0.33158717  1
  O2-  O221  1  -0.00206844  0.67892943  0.66600042  1
  O2-  O222  1  0.33691764  0.14990925  0.00250191  1
  O2-  O223  1  0.32988912  0.16266990  0.32561625  1
  O2-  O224  1  0.33377684  0.15068643  0.66659646  1
  O2-  O225  1  0.33253827  0.67635483  -0.00318696  1
  O2-  O226  1  0.33185457  0.67308917  0.33839047  1
  O2-  O227  1  0.34157713  0.65406172  0.67363070  1
  O2-  O228  1  0.66690436  0.14954876  0.00219910  1
  O2-  O229  1  0.65251016  0.17761499  0.33820023  1
  O2-  O230  1  0.66335840  0.14549859  0.67075637  1
  O2-  O231  1  0.67200051  0.66889058  0.00000585  1
  O2-  O232  1  0.66780099  0.64864569  0.33331420  1
  O2-  O233  1  0.66908786  0.65855808  0.66984866  1
  O2-  O234  1  0.16197146  0.15431249  -0.00037038  1
  O2-  O235  1  0.17662738  0.17799510  0.32915482  1
  O2-  O236  1  0.16748089  0.14503822  0.66453999  1
  O2-  O237  1  0.16863638  0.66821473  0.00091039  1
  O2-  O238  1  0.16488531  0.66778314  0.33676680  1
  O2-  O239  1  0.16289971  0.67309922  0.66305361  1
  O2-  O240  1  0.50219054  0.15639202  0.00640127  1
  O2-  O241  1  0.49695917  0.15301077  0.32533939  1
  O2-  O242  1  0.49614384  0.14225980  0.66436021  1
  O2-  O243  1  0.49289873  0.67235555  -0.00261795  1
  O2-  O244  1  0.50111086  0.64652071  0.33200408  1
  O2-  O245  1  0.50083546  0.65301967  0.67882153  1
  O2-  O246  1  0.82964348  0.14476877  0.00393983  1
  O2-  O247  1  0.82977476  0.19591496  0.32896341  1
  O2-  O248  1  0.83327292  0.16568162  0.66683159  1
  O2-  O249  1  0.82757287  0.66661859  0.00804199  1
  O2-  O250  1  0.82833494  0.64815595  0.33015709  1
  O2-  O251  1  0.82526802  0.65763261  0.66553941  1
  O2-  O252  1  0.00070769  0.32830718  0.00800116  1
  O2-  O253  1  -0.00591820  0.34346179  0.33355848  1
  O2-  O254  1  -0.00741135  0.34948784  0.67135320  1
  O2-  O255  1  0.00552129  0.84422921  -0.00358322  1
  O2-  O256  1  0.00097991  0.84741188  0.33454711  1
  O2-  O257  1  -0.00285083  0.81495067  0.66814684  1
  O2-  O258  1  0.33178225  0.34976676  0.00740718  1
  O2-  O259  1  0.33460473  0.33318631  0.32737035  1
  O2-  O260  1  0.34178693  0.34402376  0.66220693  1
  O2-  O261  1  0.32776351  0.82246444  0.00684764  1
  O2-  O262  1  0.33424499  0.82674644  0.32953850  1
  O2-  O263  1  0.33330596  0.83729471  0.66997419  1
  O2-  O264  1  0.66262933  0.35343066  0.00378556  1
  O2-  O265  1  0.66422227  0.31972780  0.33297480  1
  O2-  O266  1  0.66285720  0.34447824  0.67149624  1
  O2-  O267  1  0.66615353  0.83476696  0.00148902  1
  O2-  O268  1  0.66857635  0.84867190  0.33020091  1
  O2-  O269  1  0.66581878  0.84426929  0.67041105  1
  O2-  O270  1  0.16588320  0.32978071  0.00680653  1
  O2-  O271  1  0.16124763  0.33153994  0.32616691  1
  O2-  O272  1  0.16576015  0.33118457  0.66518784  1
  O2-  O273  1  0.16995031  0.84744229  -0.00000989  1
  O2-  O274  1  0.16316647  0.83034778  0.32638650  1
  O2-  O275  1  0.16994924  0.82820687  0.67333844  1
  O2-  O276  1  0.50413327  0.35141528  0.00629448  1
  O2-  O277  1  0.50132967  0.33886843  0.33180141  1
  O2-  O278  1  0.50125729  0.35339731  0.66927560  1
  O2-  O279  1  0.50055695  0.83041287  0.00229265  1
  O2-  O280  1  0.49712624  0.84873293  0.32947016  1
  O2-  O281  1  0.49702061  0.84845028  0.66664426  1
  O2-  O282  1  0.83399667  0.35467100  0.00351767  1
  O2-  O283  1  0.83178556  0.33177611  0.33242239  1
  O2-  O284  1  0.83519614  0.34097965  0.66804543  1
  O2-  O285  1  0.82617691  0.83891044  -0.00569353  1
  O2-  O286  1  0.83816265  0.84756027  0.33615185  1
  O2-  O287  1  0.83531271  0.83814304  0.66686899  1
  O2-  O288  1  -0.00914324  0.18679649  0.16411708  1
  O2-  O289  1  0.00469638  0.17975560  0.50566755  1
  O2-  O290  1  0.01093693  0.17789148  0.84094898  1
  O2-  O291  1  -0.00334763  0.67937027  0.16901234  1
  O2-  O292  1  0.00350711  0.67637693  0.49964205  1
  O2-  O293  1  -0.00027544  0.68738257  0.80702754  1
  O2-  O294  1  0.33450189  0.18307269  0.16789350  1
  O2-  O295  1  0.33350254  0.17249091  0.50612814  1
  O2-  O296  1  0.33296741  0.17599893  0.83215118  1
  O2-  O297  1  0.34540020  0.69360828  0.15592148  1
  O2-  O298  1  0.33648017  0.67079316  0.49838216  1
  O2-  O299  1  0.33276677  0.68332620  0.83838433  1
  O2-  O300  1  0.65759807  0.19687560  0.17109911  1
  O2-  O301  1  0.65847081  0.18500403  0.49040488  1
  O2-  O302  1  0.66669560  0.17916654  0.82962989  1
  O2-  O303  1  0.67028182  0.68273795  0.16518441  1
  O2-  O304  1  0.66821136  0.67647656  0.49807506  1
  O2-  O305  1  0.66707952  0.67209030  0.83703613  1
  O2-  O306  1  0.17542092  0.19356124  0.16514308  1
  O2-  O307  1  0.16775183  0.17446196  0.50304777  1
  O2-  O308  1  0.16397534  0.17655946  0.82921500  1
  O2-  O309  1  0.15741775  0.68219386  0.17107744  1
  O2-  O310  1  0.15932692  0.67778860  0.49595218  1
  O2-  O311  1  0.17381898  0.68881880  0.83624045  1
  O2-  O312  1  0.49361201  0.18278435  0.17177126  1
  O2-  O313  1  0.49947527  0.17243794  0.50216473  1
  O2-  O314  1  0.50048904  0.17881014  0.83131749  1
  O2-  O315  1  0.50094583  0.68272951  0.15718616  1
  O2-  O316  1  0.50073787  0.66615509  0.49583327  1
  O2-  O317  1  0.50235332  0.67673243  0.83609580  1
  O2-  O318  1  0.83977122  0.18098568  0.16643253  1
  O2-  O319  1  0.81970667  0.19021106  0.49434938  1
  O2-  O320  1  0.81915584  0.16753537  0.85044075  1
  O2-  O321  1  0.83105442  0.68422429  0.16436037  1
  O2-  O322  1  0.83647004  0.68201543  0.49694004  1
  O2-  O323  1  0.83146649  0.67229444  0.82950806  1
  O2-  O324  1  0.00269018  0.31026265  0.16882550  1
  O2-  O325  1  -0.00888396  0.33172383  0.49020192  1
  O2-  O326  1  -0.00806331  0.32512990  0.82666004  1
  O2-  O327  1  0.01170523  0.82256970  0.17743898  1
  O2-  O328  1  -0.00461855  0.82396976  0.49446596  1
  O2-  O329  1  0.00007687  0.82372497  0.83195494  1
  O2-  O330  1  0.33607408  0.32010255  0.17053542  1
  O2-  O331  1  0.33925402  0.32857097  0.50360942  1
  O2-  O332  1  0.33748823  0.32142475  0.83618182  1
  O2-  O333  1  0.33193931  0.81973164  0.16766668  1
  O2-  O334  1  0.34075064  0.82289347  0.50297851  1
  O2-  O335  1  0.32525036  0.81815300  0.82569688  1
  O2-  O336  1  0.66194358  0.31722469  0.16665609  1
  O2-  O337  1  0.66560894  0.31569746  0.49726507  1
  O2-  O338  1  0.66817552  0.32714493  0.83579021  1
  O2-  O339  1  0.66924250  0.81102348  0.16552934  1
  O2-  O340  1  0.66764305  0.82368556  0.50189369  1
  O2-  O341  1  0.67430650  0.82831658  0.83986494  1
  O2-  O342  1  0.16756657  0.31358785  0.16625574  1
  O2-  O343  1  0.16997407  0.32152027  0.49890384  1
  O2-  O344  1  0.16899204  0.32168338  0.82907375  1
  O2-  O345  1  0.17418982  0.82131257  0.16136876  1
  O2-  O346  1  0.16740657  0.82127808  0.50069181  1
  O2-  O347  1  0.16050873  0.81717689  0.83871670  1
  O2-  O348  1  0.50010897  0.31389471  0.17207181  1
  O2-  O349  1  0.49468816  0.32497351  0.50607100  1
  O2-  O350  1  0.49600389  0.32204152  0.83819259  1
  O2-  O351  1  0.49865026  0.81568833  0.16614264  1
  O2-  O352  1  0.50135761  0.82704737  0.49991172  1
  O2-  O353  1  0.50548572  0.82391719  0.82538396  1
  O2-  O354  1  0.83266612  0.31933056  0.16687530  1
  O2-  O355  1  0.83625153  0.32517345  0.49146716  1
  O2-  O356  1  0.83422966  0.33005193  0.82970372  1
  O2-  O357  1  0.83382415  0.81578519  0.16819460  1
  O2-  O358  1  0.83629369  0.81828393  0.49877679  1
  O2-  O359  1  0.83205368  0.83219960  0.83584096  1
  O2-  O360  1  0.07097750  0.08583740  0.11495678  1
  O2-  O361  1  0.10349863  0.06401078  0.44519062  1
  O2-  O362  1  0.08812744  0.07693797  0.78380757  1
  O2-  O363  1  0.07188863  0.58428690  0.11198253  1
  O2-  O364  1  0.08353569  0.58416151  0.44202505  1
  O2-  O365  1  0.08969709  0.58414626  0.76590511  1
  O2-  O366  1  0.41917630  0.08035024  0.11800063  1
  O2-  O367  1  0.43557917  0.07269973  0.44309539  1
  O2-  O368  1  0.42201755  0.07998651  0.79085929  1
  O2-  O369  1  0.41113808  0.58482667  0.08579785  1
  O2-  O370  1  0.41216051  0.57615693  0.44514005  1
  O2-  O371  1  0.41200015  0.58027706  0.79799017  1
  O2-  O372  1  0.76256698  0.08180347  0.11899941  1
  O2-  O373  1  0.72691031  0.08790489  0.43720933  1
  O2-  O374  1  0.74623292  0.07819554  0.78938973  1
  O2-  O375  1  0.76544132  0.58036538  0.10526671  1
  O2-  O376  1  0.76033253  0.57864823  0.45369164  1
  O2-  O377  1  0.74779925  0.58098926  0.76764884  1
  O2-  O378  1  0.25914401  0.08602104  0.21905454  1
  O2-  O379  1  0.25978825  0.07967461  0.54759144  1
  O2-  O380  1  0.23387414  0.08150105  0.88760505  1
  O2-  O381  1  0.24800397  0.57881757  0.23213037  1
  O2-  O382  1  0.21276298  0.57161136  0.54292475  1
  O2-  O383  1  0.24779009  0.57389105  0.87704995  1
  O2-  O384  1  0.58416506  0.08332168  0.21717746  1
  O2-  O385  1  0.58013991  0.08195996  0.54367067  1
  O2-  O386  1  0.59306892  0.08392560  0.89267813  1
  O2-  O387  1  0.59873989  0.57684982  0.22446626  1
  O2-  O388  1  0.61217961  0.56565646  0.55797132  1
  O2-  O389  1  0.58091098  0.58004440  0.89439631  1
  O2-  O390  1  0.92341659  0.07763581  0.21736662  1
  O2-  O391  1  0.92563065  0.07275870  0.54105018  1
  O2-  O392  1  0.93878864  0.08599243  0.89713545  1
  O2-  O393  1  0.90628635  0.58130517  0.21921037  1
  O2-  O394  1  0.93496343  0.57474685  0.55890070  1
  O2-  O395  1  0.91666099  0.57988779  0.88733286  1
  O2-  O396  1  0.08313786  0.41326725  0.11481702  1
  O2-  O397  1  0.07429758  0.41505267  0.42963093  1
  O2-  O398  1  0.07291221  0.41898406  0.77698486  1
  O2-  O399  1  0.10004864  0.91663240  0.10774153  1
  O2-  O400  1  0.07512099  0.92218185  0.43963567  1
  O2-  O401  1  0.09442484  0.91606835  0.77549707  1
  O2-  O402  1  0.43725787  0.41798400  0.11708870  1
  O2-  O403  1  0.42225500  0.41954017  0.43602660  1
  O2-  O404  1  0.41450318  0.42080497  0.78562098  1
  O2-  O405  1  0.40662133  0.91859653  0.11106813  1
  O2-  O406  1  0.42183108  0.91782914  0.43845265  1
  O2-  O407  1  0.39962667  0.91373879  0.76970661  1
  O2-  O408  1  0.73074405  0.42003850  0.12187928  1
  O2-  O409  1  0.75695179  0.41391406  0.41929684  1
  O2-  O410  1  0.76071280  0.42123093  0.77475575  1
  O2-  O411  1  0.73388578  0.91599595  0.09835909  1
  O2-  O412  1  0.75958631  0.92006945  0.44800189  1
  O2-  O413  1  0.75421500  0.91820006  0.77805008  1
  O2-  O414  1  0.25138917  0.42738127  0.21028960  1
  O2-  O415  1  0.27480390  0.42089681  0.56442249  1
  O2-  O416  1  0.25444257  0.42525750  0.89539983  1
  O2-  O417  1  0.25215978  0.92135283  0.21658482  1
  O2-  O418  1  0.26235483  0.91564501  0.59149686  1
  O2-  O419  1  0.22800410  0.92045017  0.87921521  1
  O2-  O420  1  0.58246338  0.41994450  0.22431696  1
  O2-  O421  1  0.56802377  0.41887438  0.55455503  1
  O2-  O422  1  0.58593700  0.42656888  0.87591175  1
  O2-  O423  1  0.58676861  0.91656713  0.21084201  1
  O2-  O424  1  0.58808646  0.91730297  0.55885752  1
  O2-  O425  1  0.59994460  0.91565104  0.89970938  1
  O2-  O426  1  0.92404843  0.42254384  0.22261193  1
  O2-  O427  1  0.91049177  0.42158920  0.55431749  1
  O2-  O428  1  0.92227893  0.42532221  0.88299468  1
  O2-  O429  1  0.91381319  0.91542708  0.22517762  1
  O2-  O430  1  0.90808486  0.91978921  0.55097748  1
  O2-  O431  1  0.93569424  0.91869427  0.88736748  1
  O2-  O432  1  -0.00078496  0.01046566  0.00726945  1
  O2-  O433  1  -0.00258276  -0.01197485  0.34226152  1
  O2-  O434  1  -0.01832719  -0.01275424  0.68379082  1
  O2-  O435  1  -0.01145563  0.49751405  0.02608478  1
  O2-  O436  1  -0.01154398  0.50155686  0.35256710  1
  O2-  O437  1  -0.00891484  0.49721921  0.68738803  1
  O2-  O438  1  0.30880857  -0.00089940  0.03661537  1
  O2-  O439  1  0.35177897  0.01312832  0.31058744  1
  O2-  O440  1  0.34637434  0.01687727  0.65543829  1
  O2-  O441  1  0.34261897  0.49902452  -0.02050927  1
  O2-  O442  1  0.33522201  0.49456421  0.32714297  1
  O2-  O443  1  0.33545217  0.51720146  0.65258356  1
  O2-  O444  1  0.68237185  0.00176424  -0.01196524  1
  O2-  O445  1  0.66546357  0.00026215  0.33656972  1
  O2-  O446  1  0.66007059  0.01143586  0.67354465  1
  O2-  O447  1  0.66269466  0.48678014  -0.00169730  1
  O2-  O448  1  0.67171637  0.49965111  0.33479044  1
  O2-  O449  1  0.66207930  0.51359722  0.67563715  1
  O2-  O450  1  0.15474662  0.00921129  -0.00753424  1
  O2-  O451  1  0.16719714  -0.00571008  0.32710120  1
  O2-  O452  1  0.19399120  -0.00121064  0.70133945  1
  O2-  O453  1  0.17619200  0.49586461  0.00696972  1
  O2-  O454  1  0.15769162  0.50096250  0.31760461  1
  O2-  O455  1  0.16719607  0.50709657  0.67181741  1
  O2-  O456  1  0.51375317  0.00378283  0.02269751  1
  O2-  O457  1  0.51181013  0.00405307  0.33902578  1
  O2-  O458  1  0.50383760  0.00930029  0.67326260  1
  O2-  O459  1  0.50232551  0.48909906  -0.00548275  1
  O2-  O460  1  0.52455036  0.49751417  0.36593709  1
  O2-  O461  1  0.49801218  0.49810560  0.67567755  1
  O2-  O462  1  0.83606302  0.01893133  -0.00020918  1
  O2-  O463  1  0.83380773  -0.00977940  0.33188388  1
  O2-  O464  1  0.82102978  0.00150372  0.63785051  1
  O2-  O465  1  0.82224630  0.49500784  -0.01991456  1
  O2-  O466  1  0.82890330  0.49558130  0.31720991  1
  O2-  O467  1  0.83255942  0.50289313  0.65831375  1
  O2-  O468  1  0.07473415  0.75257773  0.39768855  1
  O2-  O469  1  0.25784583  0.75232986  0.58713533  1
  O2-  O470  1  0.58846094  0.25332636  0.93730836  1
  O2-  O471  1  0.07456878  0.25321214  0.73588224  1
  O2-  O472  1  0.92376896  0.25629873  0.59426831  1
  O2-  O473  1  0.90284574  0.24901394  0.93646995  1
  O2-  O474  1  0.07805245  0.75060692  0.06284768  1
  O2-  O475  1  0.42226072  0.74750280  0.73072879  1
  O2-  O476  1  0.41747313  0.25296712  0.05463983  1
  O2-  O477  1  0.08057682  0.25299985  0.41575225  1
  O2-  O478  1  0.57919960  0.25334496  0.61175562  1
  O2-  O479  1  0.91325132  0.75076874  0.92770236  1
  O2-  O480  1  0.74623074  0.74930840  0.73799646  1
  O2-  O481  1  0.41784453  0.25310976  0.40697703  1
  O2-  O482  1  0.58529677  0.74968927  0.92555032  1
  O2-  O483  1  0.25607714  0.25105832  0.93624478  1
  O2-  O484  1  0.57977254  0.75284421  0.59817775  1
  O2-  O485  1  0.75317133  0.25537428  0.05219912  1
  O2-  O486  1  0.43501179  0.74858017  0.40188705  1
  O2-  O487  1  0.57727625  0.74024288  0.27733049  1
  O2-  O488  1  0.42107763  0.25302975  0.72315029  1
  O2-  O489  1  0.91578751  0.74820665  0.27820764  1
  O2-  O490  1  0.74411642  0.74530477  0.38731149  1
  O2-  O491  1  0.74817024  0.25464661  0.73374996  1
  O2-  O492  1  0.25663593  0.24928817  0.60165602  1
