# generated using pymatgen
data_Ca108Mn108O277
_symmetry_space_group_name_H-M   'P 1'
_cell_length_a   16.02286912
_cell_length_b   22.29928510
_cell_length_c   16.38368193
_cell_angle_alpha   90.00291226
_cell_angle_beta   90.00022141
_cell_angle_gamma   89.99900513
_symmetry_Int_Tables_number   1
_chemical_formula_structural   Ca108Mn108O277
_chemical_formula_sum   'Ca108 Mn108 O277'
_cell_volume   5853.86540959
_cell_formula_units_Z   1
loop_
 _symmetry_equiv_pos_site_id
 _symmetry_equiv_pos_as_xyz
  1  'x, y, z'
loop_
 _atom_type_symbol
 _atom_type_oxidation_number
  Ca2+  2.0
  Mn3.34+  3.34
  O2-  -2.0
loop_
 _atom_site_type_symbol
 _atom_site_label
 _atom_site_symmetry_multiplicity
 _atom_site_fract_x
 _atom_site_fract_y
 _atom_site_fract_z
 _atom_site_occupancy
  Ca2+  Ca0  1  0.08121352  0.24142248  0.24555799  1
  Ca2+  Ca1  1  0.08035340  0.25249834  0.58943754  1
  Ca2+  Ca2  1  0.10572314  0.24501942  0.91275703  1
  Ca2+  Ca3  1  0.07905858  0.76591658  0.24371019  1
  Ca2+  Ca4  1  0.07464796  0.75746808  0.59697234  1
  Ca2+  Ca5  1  0.09118201  0.74967020  0.89281986  1
  Ca2+  Ca6  1  0.41577972  0.24114724  0.26948936  1
  Ca2+  Ca7  1  0.40617392  0.24887155  0.56285855  1
  Ca2+  Ca8  1  0.40181084  0.24983145  0.91503819  1
  Ca2+  Ca9  1  0.42849058  0.76357452  0.24160776  1
  Ca2+  Ca10  1  0.43589207  0.74298779  0.60377610  1
  Ca2+  Ca11  1  0.40421985  0.75032048  0.88784158  1
  Ca2+  Ca12  1  0.75022743  0.23030876  0.26742769  1
  Ca2+  Ca13  1  0.75735251  0.24278671  0.58259374  1
  Ca2+  Ca14  1  0.74746628  0.24766497  0.90041158  1
  Ca2+  Ca15  1  0.74125510  0.75644967  0.27100105  1
  Ca2+  Ca16  1  0.73866327  0.74908623  0.57535084  1
  Ca2+  Ca17  1  0.75478998  0.75303732  0.91031203  1
  Ca2+  Ca18  1  0.24859404  0.24302509  0.07165807  1
  Ca2+  Ca19  1  0.27126984  0.24414215  0.41951891  1
  Ca2+  Ca20  1  0.24230866  0.25084037  0.75150064  1
  Ca2+  Ca21  1  0.24004054  0.76530947  0.06933529  1
  Ca2+  Ca22  1  0.24005807  0.75952574  0.41173430  1
  Ca2+  Ca23  1  0.25333810  0.74853337  0.75923414  1
  Ca2+  Ca24  1  0.59370266  0.24646900  0.08346874  1
  Ca2+  Ca25  1  0.58134674  0.23560640  0.41867565  1
  Ca2+  Ca26  1  0.61114495  0.24840912  0.74757372  1
  Ca2+  Ca27  1  0.59314703  0.75619366  0.09974493  1
  Ca2+  Ca28  1  0.60447452  0.75185883  0.42578431  1
  Ca2+  Ca29  1  0.57188815  0.75093339  0.74265800  1
  Ca2+  Ca30  1  0.90629063  0.25101244  0.08855165  1
  Ca2+  Ca31  1  0.88866685  0.24324425  0.42161875  1
  Ca2+  Ca32  1  0.89908156  0.24657622  0.73371604  1
  Ca2+  Ca33  1  0.91915508  0.75834007  0.08486625  1
  Ca2+  Ca34  1  0.89675875  0.76171000  0.42107778  1
  Ca2+  Ca35  1  0.91808263  0.75742159  0.74727214  1
  Ca2+  Ca36  1  0.41568811  0.60701419  0.89514378  1
  Ca2+  Ca37  1  0.75011707  0.09938526  0.57553193  1
  Ca2+  Ca38  1  0.12597204  0.09682795  0.92105897  1
  Ca2+  Ca39  1  0.24945784  0.59945631  0.75118928  1
  Ca2+  Ca40  1  0.27071241  0.10002346  0.39521573  1
  Ca2+  Ca41  1  0.24301611  0.58382433  0.05583306  1
  Ca2+  Ca42  1  0.41995090  0.10000240  0.56000147  1
  Ca2+  Ca43  1  0.88159829  0.09138482  0.42840586  1
  Ca2+  Ca44  1  0.41608050  0.59176291  0.27507445  1
  Ca2+  Ca45  1  0.91536186  0.08983944  0.07916236  1
  Ca2+  Ca46  1  0.08575924  0.57621089  0.58236664  1
  Ca2+  Ca47  1  0.89824589  0.08725750  0.72726578  1
  Ca2+  Ca48  1  0.62081287  0.60105632  0.43636959  1
  Ca2+  Ca49  1  0.42685896  0.58876904  0.26707968  1
  Ca2+  Ca50  1  0.74958992  0.59897613  0.91377545  1
  Ca2+  Ca51  1  0.59738704  0.10428361  0.09983121  1
  Ca2+  Ca52  1  0.24730722  0.57591947  0.41850733  1
  Ca2+  Ca53  1  0.74957063  0.09754973  0.91077232  1
  Ca2+  Ca54  1  0.91785609  0.59381406  0.75661172  1
  Ca2+  Ca55  1  0.74267079  0.58828920  0.29058564  1
  Ca2+  Ca56  1  0.88183318  0.58452580  0.42093919  1
  Ca2+  Ca57  1  0.07225099  0.58074240  0.26617452  1
  Ca2+  Ca58  1  0.75033956  0.58486442  0.28413582  1
  Ca2+  Ca59  1  0.59368397  0.58839862  0.07290321  1
  Ca2+  Ca60  1  0.36508645  0.07935612  0.91511528  1
  Ca2+  Ca61  1  0.93051876  0.59420784  0.75919100  1
  Ca2+  Ca62  1  0.24247226  0.10094784  0.75790735  1
  Ca2+  Ca63  1  0.08489641  0.60573265  0.90351535  1
  Ca2+  Ca64  1  0.09860971  0.57563330  0.58274801  1
  Ca2+  Ca65  1  0.23647413  0.09590782  0.10408625  1
  Ca2+  Ca66  1  0.08355739  0.58198822  0.26796761  1
  Ca2+  Ca67  1  0.41619929  0.10306132  0.27477075  1
  Ca2+  Ca68  1  0.57140651  0.60113367  0.74187148  1
  Ca2+  Ca69  1  0.91606151  0.59437217  0.06307725  1
  Ca2+  Ca70  1  0.58063152  0.58773443  0.07288934  1
  Ca2+  Ca71  1  0.61469312  0.10061193  0.74086037  1
  Ca2+  Ca72  1  0.59039783  0.90705045  0.08131109  1
  Ca2+  Ca73  1  0.41328920  0.39953614  0.91047399  1
  Ca2+  Ca74  1  0.08524455  0.40224245  0.26776643  1
  Ca2+  Ca75  1  0.24566918  0.40162982  0.43635917  1
  Ca2+  Ca76  1  0.76370623  0.91555559  0.56945222  1
  Ca2+  Ca77  1  0.09485332  0.91792395  0.25159947  1
  Ca2+  Ca78  1  0.57745206  0.90706757  0.08153190  1
  Ca2+  Ca79  1  0.40291501  0.91497072  0.25193554  1
  Ca2+  Ca80  1  0.10474650  0.92166123  0.24910916  1
  Ca2+  Ca81  1  0.90773859  0.40113378  0.42332118  1
  Ca2+  Ca82  1  0.75410551  0.91361408  0.28642705  1
  Ca2+  Ca83  1  0.75770523  0.90525977  0.91407323  1
  Ca2+  Ca84  1  0.05943819  0.91313123  0.58725163  1
  Ca2+  Ca85  1  0.08204600  0.39440145  0.91031357  1
  Ca2+  Ca86  1  0.42053012  0.91650970  0.60591015  1
  Ca2+  Ca87  1  0.91175220  0.91600899  0.06260090  1
  Ca2+  Ca88  1  0.41626029  0.39104884  0.25587363  1
  Ca2+  Ca89  1  0.74764969  0.39935825  0.56854713  1
  Ca2+  Ca90  1  0.25905396  0.91080016  0.75598795  1
  Ca2+  Ca91  1  0.40189893  0.91124365  0.90234568  1
  Ca2+  Ca92  1  0.24848063  0.39563318  0.07979477  1
  Ca2+  Ca93  1  0.90982200  0.91454653  0.74061617  1
  Ca2+  Ca94  1  0.92043716  0.39490397  0.08064820  1
  Ca2+  Ca95  1  0.07256512  0.40370447  0.26844675  1
  Ca2+  Ca96  1  0.24649210  0.91712774  0.41566259  1
  Ca2+  Ca97  1  0.24258292  0.40766052  0.72999589  1
  Ca2+  Ca98  1  0.25410724  0.91533660  0.40858314  1
  Ca2+  Ca99  1  0.58448763  0.40018830  0.08371625  1
  Ca2+  Ca100  1  0.75348525  0.39898077  0.90684328  1
  Ca2+  Ca101  1  0.75276156  0.40972277  0.28199866  1
  Ca2+  Ca102  1  0.40941712  0.39974680  0.57564200  1
  Ca2+  Ca103  1  0.24729201  0.92406829  0.05560587  1
  Ca2+  Ca104  1  0.59291706  0.40345670  0.74308150  1
  Ca2+  Ca105  1  0.92221881  0.91555997  0.05865235  1
  Ca2+  Ca106  1  0.57173211  0.40016378  0.08412322  1
  Ca2+  Ca107  1  0.43100387  0.91711785  0.60716673  1
  Mn3.34+  Mn108  1  0.08431195  0.32359111  0.08445968  1
  Mn3.34+  Mn109  1  0.08147155  0.33494111  0.42534363  1
  Mn3.34+  Mn110  1  0.07606720  0.33671193  0.74713479  1
  Mn3.34+  Mn111  1  0.08412566  0.83849799  0.07890409  1
  Mn3.34+  Mn112  1  0.07715072  0.83244195  0.42161220  1
  Mn3.34+  Mn113  1  0.08462806  0.82886158  0.74889907  1
  Mn3.34+  Mn114  1  0.41386215  0.32990809  0.08513718  1
  Mn3.34+  Mn115  1  0.42072760  0.32995770  0.41732270  1
  Mn3.34+  Mn116  1  0.41899877  0.32635022  0.74708561  1
  Mn3.34+  Mn117  1  0.41423877  0.83836022  0.08162494  1
  Mn3.34+  Mn118  1  0.42015229  0.83415799  0.42490773  1
  Mn3.34+  Mn119  1  0.41811207  0.83472871  0.75177805  1
  Mn3.34+  Mn120  1  0.75155807  0.32840953  0.08329827  1
  Mn3.34+  Mn121  1  0.74425162  0.33025548  0.41868417  1
  Mn3.34+  Mn122  1  0.75632269  0.33406105  0.74537731  1
  Mn3.34+  Mn123  1  0.75081018  0.83449102  0.08658208  1
  Mn3.34+  Mn124  1  0.74943342  0.83870898  0.42207747  1
  Mn3.34+  Mn125  1  0.74478683  0.83272003  0.74613930  1
  Mn3.34+  Mn126  1  0.24795473  0.31922433  0.25114316  1
  Mn3.34+  Mn127  1  0.24594169  0.33247834  0.58334305  1
  Mn3.34+  Mn128  1  0.25042637  0.33032298  0.91133155  1
  Mn3.34+  Mn129  1  0.25264174  0.84161262  0.24401332  1
  Mn3.34+  Mn130  1  0.24878828  0.83377541  0.58097099  1
  Mn3.34+  Mn131  1  0.24621699  0.83947764  0.91203707  1
  Mn3.34+  Mn132  1  0.58629558  0.32081920  0.25271611  1
  Mn3.34+  Mn133  1  0.58313983  0.33370498  0.57879836  1
  Mn3.34+  Mn134  1  0.58181322  0.33091874  0.91069144  1
  Mn3.34+  Mn135  1  0.58246672  0.84055963  0.25846117  1
  Mn3.34+  Mn136  1  0.58674529  0.83563131  0.58257723  1
  Mn3.34+  Mn137  1  0.58269609  0.82915518  0.91116247  1
  Mn3.34+  Mn138  1  0.91256404  0.32819629  0.25131626  1
  Mn3.34+  Mn139  1  0.91741134  0.33105087  0.58341534  1
  Mn3.34+  Mn140  1  0.91869690  0.32969520  0.91161119  1
  Mn3.34+  Mn141  1  0.91590575  0.84334071  0.25006382  1
  Mn3.34+  Mn142  1  0.91226754  0.83882093  0.58283645  1
  Mn3.34+  Mn143  1  0.92040238  0.83882259  0.90724201  1
  Mn3.34+  Mn144  1  0.58535552  0.16924065  0.91590209  1
  Mn3.34+  Mn145  1  0.08906720  0.16318024  0.41622797  1
  Mn3.34+  Mn146  1  0.08385513  0.67062125  0.07882766  1
  Mn3.34+  Mn147  1  0.58399058  0.67095446  0.25036901  1
  Mn3.34+  Mn148  1  0.41858446  0.66968371  0.07856579  1
  Mn3.34+  Mn149  1  0.41795687  0.15920429  0.75176593  1
  Mn3.34+  Mn150  1  0.90596192  0.66153935  0.57893856  1
  Mn3.34+  Mn151  1  0.24063954  0.67374137  0.25421431  1
  Mn3.34+  Mn152  1  0.74898039  0.16783527  0.08885552  1
  Mn3.34+  Mn153  1  0.08389041  0.66698360  0.42199739  1
  Mn3.34+  Mn154  1  0.58643084  0.66713548  0.58428970  1
  Mn3.34+  Mn155  1  0.91456213  0.16689691  0.24663956  1
  Mn3.34+  Mn156  1  0.25176145  0.66939333  0.25254639  1
  Mn3.34+  Mn157  1  0.91370056  0.16203586  0.58264659  1
  Mn3.34+  Mn158  1  0.92387470  0.67058104  0.25041222  1
  Mn3.34+  Mn159  1  0.26076436  0.66512631  0.57953834  1
  Mn3.34+  Mn160  1  0.41202943  0.16309549  0.08641854  1
  Mn3.34+  Mn161  1  0.92470626  0.16619123  0.91327072  1
  Mn3.34+  Mn162  1  0.24788693  0.16702898  0.58074916  1
  Mn3.34+  Mn163  1  0.08344386  0.16594330  0.09049976  1
  Mn3.34+  Mn164  1  0.42220439  0.16776757  0.08630711  1
  Mn3.34+  Mn165  1  0.07639840  0.16790399  0.41767465  1
  Mn3.34+  Mn166  1  0.58476134  0.67163705  0.91030538  1
  Mn3.34+  Mn167  1  0.42622924  0.16547964  0.75069530  1
  Mn3.34+  Mn168  1  0.25171695  0.67095830  0.58124494  1
  Mn3.34+  Mn169  1  0.24642772  0.66812348  0.90928747  1
  Mn3.34+  Mn170  1  0.42365552  0.66928322  0.42775258  1
  Mn3.34+  Mn171  1  0.91626854  0.66656761  0.58006774  1
  Mn3.34+  Mn172  1  0.91638137  0.15988157  0.91204529  1
  Mn3.34+  Mn173  1  0.91579755  0.67350484  0.91458598  1
  Mn3.34+  Mn174  1  0.74600047  0.66862729  0.74880299  1
  Mn3.34+  Mn175  1  0.40901605  0.66364106  0.08016058  1
  Mn3.34+  Mn176  1  0.58780130  0.16334249  0.57559630  1
  Mn3.34+  Mn177  1  0.74916640  0.67081139  0.08269315  1
  Mn3.34+  Mn178  1  0.91316873  0.66612490  0.24808611  1
  Mn3.34+  Mn179  1  0.08165274  0.16793345  0.74559627  1
  Mn3.34+  Mn180  1  0.41810621  -0.00032704  0.41586894  1
  Mn3.34+  Mn181  1  0.42158766  0.49905363  0.42754657  1
  Mn3.34+  Mn182  1  0.25811810  0.49174179  0.24373057  1
  Mn3.34+  Mn183  1  0.59231629  0.00792980  0.28097190  1
  Mn3.34+  Mn184  1  0.08707558  0.00073437  0.76049767  1
  Mn3.34+  Mn185  1  0.58646140  0.49664767  0.25135304  1
  Mn3.34+  Mn186  1  0.57562490  0.49244875  0.24894130  1
  Mn3.34+  Mn187  1  0.57461963  0.00445638  0.90540272  1
  Mn3.34+  Mn188  1  0.58983106  0.50211201  0.58628543  1
  Mn3.34+  Mn189  1  0.24764870  0.00434689  0.58970663  1
  Mn3.34+  Mn190  1  0.24853586  0.49772458  0.24146408  1
  Mn3.34+  Mn191  1  0.40939299  0.49753784  0.74653761  1
  Mn3.34+  Mn192  1  0.76266129  0.49560536  0.09065705  1
  Mn3.34+  Mn193  1  0.75167842  0.49941901  0.08958830  1
  Mn3.34+  Mn194  1  0.08365567  0.49596879  0.74007046  1
  Mn3.34+  Mn195  1  0.41284142  0.00313906  0.08197124  1
  Mn3.34+  Mn196  1  0.41924956  0.50253371  0.74351394  1
  Mn3.34+  Mn197  1  0.74822809  -0.00602746  0.73753289  1
  Mn3.34+  Mn198  1  0.75006175  0.50163864  0.74163962  1
  Mn3.34+  Mn199  1  0.90901833  0.49469513  0.59152520  1
  Mn3.34+  Mn200  1  0.58307108  0.00124794  0.58505019  1
  Mn3.34+  Mn201  1  0.25220810  0.49818830  0.91113873  1
  Mn3.34+  Mn202  1  0.91252234  0.01153294  0.26217705  1
  Mn3.34+  Mn203  1  0.08470790  0.00651245  0.07013080  1
  Mn3.34+  Mn204  1  0.07970759  -0.00252922  0.41888497  1
  Mn3.34+  Mn205  1  0.07644346  -0.00378760  0.75934503  1
  Mn3.34+  Mn206  1  0.57772869  0.49897160  0.91400440  1
  Mn3.34+  Mn207  1  0.40932354  0.49644587  0.08556923  1
  Mn3.34+  Mn208  1  0.91650906  0.49583026  0.24055956  1
  Mn3.34+  Mn209  1  0.58629381  -0.00044240  0.90471773  1
  Mn3.34+  Mn210  1  0.08558849  0.49440525  0.08201951  1
  Mn3.34+  Mn211  1  0.59031126  0.00966239  0.26638138  1
  Mn3.34+  Mn212  1  0.07456030  0.49910840  0.08489538  1
  Mn3.34+  Mn213  1  0.91756373  0.49570764  0.91057341  1
  Mn3.34+  Mn214  1  0.89825431  0.00849209  0.26296885  1
  Mn3.34+  Mn215  1  0.74730179  0.00405790  0.08598565  1
  O2-  O216  1  -0.00038409  0.16059239  0.00109619  1
  O2-  O217  1  0.00556198  0.16969164  0.32864068  1
  O2-  O218  1  -0.00472179  0.17305153  0.67054013  1
  O2-  O219  1  -0.00244218  0.66509854  -0.00024502  1
  O2-  O220  1  -0.00538564  0.64098090  0.33767198  1
  O2-  O221  1  -0.00304466  0.64635467  0.65874462  1
  O2-  O222  1  0.33212229  0.15163492  0.00904574  1
  O2-  O223  1  0.33067625  0.17278802  0.32644784  1
  O2-  O224  1  0.33829049  0.15946190  0.66730033  1
  O2-  O225  1  0.33002160  0.65104814  -0.00489650  1
  O2-  O226  1  0.33601677  0.66297397  0.34029085  1
  O2-  O227  1  0.32717740  0.66992725  0.66967673  1
  O2-  O228  1  0.66696298  0.15444639  -0.00027643  1
  O2-  O229  1  0.64940421  0.17593805  0.32979301  1
  O2-  O230  1  0.65966897  0.17350460  0.66118963  1
  O2-  O231  1  0.66233929  0.66213046  0.00033604  1
  O2-  O232  1  0.66420627  0.66355640  0.32726843  1
  O2-  O233  1  0.66552655  0.65813390  0.67166486  1
  O2-  O234  1  0.15887057  0.17186186  0.00744648  1
  O2-  O235  1  0.16716394  0.18826426  0.34130970  1
  O2-  O236  1  0.16881761  0.17197053  0.66954757  1
  O2-  O237  1  0.16625275  0.65602105  -0.00105491  1
  O2-  O238  1  0.16629865  0.64342379  0.33833034  1
  O2-  O239  1  0.16541747  0.65545504  0.65567549  1
  O2-  O240  1  0.50025087  0.15087894  0.00230910  1
  O2-  O241  1  0.50729902  0.17868635  0.32642282  1
  O2-  O242  1  0.50425435  0.16597348  0.66853412  1
  O2-  O243  1  0.50468616  0.65362640  -0.00136014  1
  O2-  O244  1  0.49700182  0.66350978  0.33066506  1
  O2-  O245  1  0.50811998  0.66633756  0.66378284  1
  O2-  O246  1  0.83459925  0.15108365  -0.00096315  1
  O2-  O247  1  0.84205204  0.15759482  0.32855028  1
  O2-  O248  1  0.83297005  0.16000492  0.66088491  1
  O2-  O249  1  0.83249647  0.66660053  -0.00228739  1
  O2-  O250  1  0.83210716  0.66182099  0.33026184  1
  O2-  O251  1  0.83834811  0.65163466  0.67530497  1
  O2-  O252  1  0.00068928  0.33096851  0.00438739  1
  O2-  O253  1  -0.00007703  0.33469845  0.33459662  1
  O2-  O254  1  -0.00149649  0.31957503  0.66802511  1
  O2-  O255  1  -0.00883722  0.83525458  0.00241302  1
  O2-  O256  1  0.01319227  0.85147692  0.32193178  1
  O2-  O257  1  -0.00207259  0.84169360  0.66857171  1
  O2-  O258  1  0.33360226  0.34711858  -0.00253272  1
  O2-  O259  1  0.32795213  0.33468379  0.33510309  1
  O2-  O260  1  0.33510720  0.33646005  0.66626847  1
  O2-  O261  1  0.33358642  0.84424120  -0.00202246  1
  O2-  O262  1  0.33137945  0.84654163  0.33818906  1
  O2-  O263  1  0.33535575  0.84340883  0.66158449  1
  O2-  O264  1  0.66407132  0.34837864  -0.00188723  1
  O2-  O265  1  0.67308300  0.33197494  0.32493125  1
  O2-  O266  1  0.66520536  0.33615620  0.66719892  1
  O2-  O267  1  0.66498992  0.83546054  0.00164570  1
  O2-  O268  1  0.66934002  0.83928660  0.33280711  1
  O2-  O269  1  0.67263508  0.84561518  0.65931760  1
  O2-  O270  1  0.16615697  0.33771673  -0.00081910  1
  O2-  O271  1  0.15841228  0.32090598  0.32814032  1
  O2-  O272  1  0.16625717  0.32765813  0.67108248  1
  O2-  O273  1  0.17083657  0.84292609  0.00319843  1
  O2-  O274  1  0.17017043  0.85099790  0.33509945  1
  O2-  O275  1  0.16602619  0.83777648  0.66263568  1
  O2-  O276  1  0.49934809  0.34634826  -0.00186837  1
  O2-  O277  1  0.49610721  0.32956545  0.32687860  1
  O2-  O278  1  0.50376216  0.31956258  0.66710373  1
  O2-  O279  1  0.50673155  0.83872703  0.00558334  1
  O2-  O280  1  0.48939724  0.83127385  0.33087732  1
  O2-  O281  1  0.49921014  0.84047757  0.66680669  1
  O2-  O282  1  0.83242365  0.34634868  0.00078879  1
  O2-  O283  1  0.83649862  0.34102984  0.33584159  1
  O2-  O284  1  0.82949213  0.34184799  0.65899383  1
  O2-  O285  1  0.83374032  0.83427158  -0.00294934  1
  O2-  O286  1  0.83317373  0.83658961  0.33151467  1
  O2-  O287  1  0.83509492  0.84565570  0.67192259  1
  O2-  O288  1  -0.00439175  0.18879317  0.15739433  1
  O2-  O289  1  -0.00280266  0.18334268  0.49380176  1
  O2-  O290  1  0.00294285  0.18572141  0.83320466  1
  O2-  O291  1  0.00213233  0.67548443  0.16568274  1
  O2-  O292  1  0.00797571  0.68077862  0.50755056  1
  O2-  O293  1  -0.00743919  0.67730123  0.83391852  1
  O2-  O294  1  0.33216436  0.18119642  0.16328680  1
  O2-  O295  1  0.32748785  0.17049229  0.50248774  1
  O2-  O296  1  0.33604587  0.17937113  0.82629036  1
  O2-  O297  1  0.34283227  0.67211441  0.17690721  1
  O2-  O298  1  0.33806329  0.69278656  0.50286674  1
  O2-  O299  1  0.32769325  0.67392418  0.83517410  1
  O2-  O300  1  0.66855270  0.18332112  0.16129632  1
  O2-  O301  1  0.66493144  0.17928236  0.50842469  1
  O2-  O302  1  0.66476709  0.17568438  0.83865995  1
  O2-  O303  1  0.66003828  0.66274249  0.16248663  1
  O2-  O304  1  0.66488721  0.67895892  0.50460993  1
  O2-  O305  1  0.67131460  0.68322906  0.83632432  1
  O2-  O306  1  0.16273594  0.18698147  0.15867671  1
  O2-  O307  1  0.16205603  0.18298845  0.49986108  1
  O2-  O308  1  0.16200332  0.18182414  0.82342055  1
  O2-  O309  1  0.16272193  0.66823030  0.16684182  1
  O2-  O310  1  0.17712216  0.69046354  0.49897002  1
  O2-  O311  1  0.16779845  0.67419585  0.83287877  1
  O2-  O312  1  0.50028903  0.18382233  0.16194601  1
  O2-  O313  1  0.50195392  0.18504581  0.51728970  1
  O2-  O314  1  0.49960521  0.18859280  0.83290920  1
  O2-  O315  1  0.50264967  0.67529242  0.16538723  1
  O2-  O316  1  0.50845770  0.68597455  0.49668828  1
  O2-  O317  1  0.50303590  0.68378031  0.83972597  1
  O2-  O318  1  0.83683741  0.17747097  0.16030235  1
  O2-  O319  1  0.83316186  0.17006077  0.50295420  1
  O2-  O320  1  0.83483897  0.17047539  0.83442131  1
  O2-  O321  1  0.83286126  0.66779675  0.16452319  1
  O2-  O322  1  0.83932167  0.67717045  0.49318166  1
  O2-  O323  1  0.83249279  0.67907362  0.83287647  1
  O2-  O324  1  0.00226518  0.32178514  0.17006226  1
  O2-  O325  1  -0.00375606  0.31852899  0.49586346  1
  O2-  O326  1  0.00639420  0.31616433  0.83866269  1
  O2-  O327  1  -0.00104881  0.83813325  0.16278639  1
  O2-  O328  1  -0.00225994  0.81942359  0.50348486  1
  O2-  O329  1  0.00018050  0.81669150  0.83337865  1
  O2-  O330  1  0.33090047  0.32138710  0.16826348  1
  O2-  O331  1  0.33203866  0.32667008  0.49864768  1
  O2-  O332  1  0.33500036  0.32098447  0.83024257  1
  O2-  O333  1  0.33590293  0.82772573  0.16898151  1
  O2-  O334  1  0.32720473  0.81399374  0.49579342  1
  O2-  O335  1  0.32979873  0.82585863  0.83001434  1
  O2-  O336  1  0.66018558  0.32036790  0.15663341  1
  O2-  O337  1  0.66940808  0.31730184  0.50655833  1
  O2-  O338  1  0.66685772  0.32596297  0.83339639  1
  O2-  O339  1  0.66412170  0.83397440  0.16421719  1
  O2-  O340  1  0.66674617  0.82626158  0.50254774  1
  O2-  O341  1  0.66940291  0.81438382  0.83586062  1
  O2-  O342  1  0.16740381  0.31062999  0.16451445  1
  O2-  O343  1  0.16889963  0.31793451  0.49539025  1
  O2-  O344  1  0.16557812  0.31997496  0.83199456  1
  O2-  O345  1  0.16166615  0.83245423  0.17249554  1
  O2-  O346  1  0.16630746  0.81694065  0.49879332  1
  O2-  O347  1  0.17138622  0.82198075  0.82688396  1
  O2-  O348  1  0.50465059  0.31687709  0.16243352  1
  O2-  O349  1  0.49511843  0.32266715  0.50569337  1
  O2-  O350  1  0.49677599  0.31657203  0.83528316  1
  O2-  O351  1  0.50478939  0.83400157  0.16510732  1
  O2-  O352  1  0.49564864  0.81686175  0.50791203  1
  O2-  O353  1  0.49406945  0.82137777  0.83937939  1
  O2-  O354  1  0.83565753  0.33147883  0.16479349  1
  O2-  O355  1  0.83207317  0.32359058  0.49794567  1
  O2-  O356  1  0.83054300  0.32665898  0.83777315  1
  O2-  O357  1  0.84129266  0.83369002  0.15548225  1
  O2-  O358  1  0.82725148  0.82343001  0.50856709  1
  O2-  O359  1  0.83458522  0.81915519  0.83499991  1
  O2-  O360  1  0.08409666  0.08377716  0.10601365  1
  O2-  O361  1  0.08533887  0.07943627  0.43328926  1
  O2-  O362  1  0.08318514  0.08237822  0.78012289  1
  O2-  O363  1  0.08007267  0.57907228  0.11782558  1
  O2-  O364  1  0.08991839  0.58205898  0.44835401  1
  O2-  O365  1  0.06250724  0.57009109  0.78350375  1
  O2-  O366  1  0.42128402  0.08149358  0.12008493  1
  O2-  O367  1  0.41159448  0.07813063  0.42598473  1
  O2-  O368  1  0.42012550  0.07899134  0.78176879  1
  O2-  O369  1  0.43602818  0.57711891  0.12887479  1
  O2-  O370  1  0.40858917  0.58270436  0.42958516  1
  O2-  O371  1  0.41967756  0.58281665  0.76745909  1
  O2-  O372  1  0.74775002  0.08376979  0.10719160  1
  O2-  O373  1  0.74585945  0.07853001  0.44347896  1
  O2-  O374  1  0.74335978  0.06602588  0.78260075  1
  O2-  O375  1  0.74379969  0.58321037  0.09932436  1
  O2-  O376  1  0.75015673  0.57860297  0.41554117  1
  O2-  O377  1  0.75609192  0.58099042  0.78278064  1
  O2-  O378  1  0.27553818  0.07687401  0.23771904  1
  O2-  O379  1  0.25376862  0.08199060  0.55976780  1
  O2-  O380  1  0.24202040  0.06770743  0.87684173  1
  O2-  O381  1  0.26855456  0.57848762  0.21353445  1
  O2-  O382  1  0.23638672  0.58135929  0.54979011  1
  O2-  O383  1  0.24438261  0.58064260  0.88938183  1
  O2-  O384  1  0.56424692  0.07878501  0.22485876  1
  O2-  O385  1  0.58412125  0.08292341  0.56674798  1
  O2-  O386  1  0.58051402  0.08562671  0.88200634  1
  O2-  O387  1  0.57193497  0.58022665  0.22234988  1
  O2-  O388  1  0.58143090  0.58219840  0.56175606  1
  O2-  O389  1  0.58427744  0.58219782  0.89174088  1
  O2-  O390  1  0.92958045  0.08561564  0.21491001  1
  O2-  O391  1  0.90805821  0.08213476  0.56851117  1
  O2-  O392  1  0.91769504  0.07946876  0.89030923  1
  O2-  O393  1  0.92908791  0.57730051  0.21048938  1
  O2-  O394  1  0.92503382  0.57731432  0.54630795  1
  O2-  O395  1  0.91118344  0.57903139  0.89126045  1
  O2-  O396  1  0.09078458  0.41427268  0.11529665  1
  O2-  O397  1  0.09677773  0.41624405  0.40483888  1
  O2-  O398  1  0.10083934  0.42255969  0.77964759  1
  O2-  O399  1  0.08275746  0.92750090  0.11041843  1
  O2-  O400  1  0.09439826  0.91756357  0.45478422  1
  O2-  O401  1  0.08203883  0.91410980  0.77037260  1
  O2-  O402  1  0.43086743  0.41411631  0.11668928  1
  O2-  O403  1  0.40719138  0.41675802  0.43404835  1
  O2-  O404  1  0.42490267  0.41693582  0.77077388  1
  O2-  O405  1  0.43061764  0.92341642  0.11060142  1
  O2-  O406  1  0.40299048  0.92265769  0.46238392  1
  O2-  O407  1  0.40764799  0.91852925  0.76221134  1
  O2-  O408  1  0.73885848  0.41439039  0.10952349  1
  O2-  O409  1  0.75984060  0.41416628  0.43058022  1
  O2-  O410  1  0.74068148  0.42144994  0.77142431  1
  O2-  O411  1  0.73384342  0.92041273  0.09997282  1
  O2-  O412  1  0.75261913  0.91702630  0.43204402  1
  O2-  O413  1  0.75612994  0.91936848  0.78006926  1
  O2-  O414  1  0.22890290  0.41097773  0.23195544  1
  O2-  O415  1  0.25546136  0.41362417  0.57178211  1
  O2-  O416  1  0.25095519  0.41692507  0.88717841  1
  O2-  O417  1  0.24648391  0.92233397  0.22036784  1
  O2-  O418  1  0.24721186  0.92517366  0.54934601  1
  O2-  O419  1  0.25883027  0.91867927  0.89664021  1
  O2-  O420  1  0.58066593  0.41178343  0.22129840  1
  O2-  O421  1  0.58698083  0.42085854  0.57086059  1
  O2-  O422  1  0.57626725  0.41587101  0.89033659  1
  O2-  O423  1  0.58665812  0.93329633  0.21582438  1
  O2-  O424  1  0.56709314  0.91943240  0.56246132  1
  O2-  O425  1  0.58606367  0.91711053  0.90421730  1
  O2-  O426  1  0.93260352  0.41373279  0.23110705  1
  O2-  O427  1  0.90910065  0.41538934  0.55755038  1
  O2-  O428  1  0.92958855  0.41409274  0.90887653  1
  O2-  O429  1  0.90571206  0.93032251  0.20913162  1
  O2-  O430  1  0.91480382  0.91740068  0.57139197  1
  O2-  O431  1  0.90572963  0.91853607  0.90636982  1
  O2-  O432  1  -0.01668681  0.00193006  0.02915762  1
  O2-  O433  1  0.01173352  -0.01228400  0.32011234  1
  O2-  O434  1  -0.00422925  -0.00381834  0.68065988  1
  O2-  O435  1  -0.00317373  0.50941962  -0.00069464  1
  O2-  O436  1  0.01898532  0.49727514  0.29884622  1
  O2-  O437  1  0.00800189  0.51462811  0.65709209  1
  O2-  O438  1  0.33890835  -0.00232331  0.00474541  1
  O2-  O439  1  0.32700651  -0.01105073  0.35296682  1
  O2-  O440  1  0.33474789  -0.00869383  0.64886532  1
  O2-  O441  1  0.33475284  0.50622579  -0.00537376  1
  O2-  O442  1  0.33245560  0.50758621  0.33381713  1
  O2-  O443  1  0.31643033  0.49790621  0.68365879  1
  O2-  O444  1  0.66557066  0.00162646  -0.00286110  1
  O2-  O445  1  0.68743085  -0.00427566  0.32616389  1
  O2-  O446  1  0.67594846  0.00550104  0.65302753  1
  O2-  O447  1  0.66814333  0.50724313  0.00305272  1
  O2-  O448  1  0.67279641  0.50377797  0.32375895  1
  O2-  O449  1  0.65116980  0.50282642  0.68775106  1
  O2-  O450  1  0.18075606  0.01088198  0.02244772  1
  O2-  O451  1  0.16727495  -0.02070262  0.34298529  1
  O2-  O452  1  0.17324995  -0.00414226  0.67980978  1
  O2-  O453  1  0.16764050  0.50268714  -0.00115885  1
  O2-  O454  1  0.16839696  0.51799623  0.32374380  1
  O2-  O455  1  0.16583674  0.52026307  0.67728502  1
  O2-  O456  1  0.50567265  -0.00412586  0.00456165  1
  O2-  O457  1  0.48241896  -0.00542037  0.31449806  1
  O2-  O458  1  0.48326907  0.00684412  0.63153130  1
  O2-  O459  1  0.51757168  0.50234206  0.02499484  1
  O2-  O460  1  0.48604380  0.50752184  0.32127384  1
  O2-  O461  1  0.49531216  0.49827921  0.65987537  1
  O2-  O462  1  0.83423862  -0.00647435  0.01986312  1
  O2-  O463  1  0.84377136  0.00516768  0.35845155  1
  O2-  O464  1  0.83579809  -0.00208564  0.67941650  1
  O2-  O465  1  0.83514954  0.50638777  -0.00227487  1
  O2-  O466  1  0.83159583  0.50642444  0.31314089  1
  O2-  O467  1  0.85218223  0.51434169  0.69167933  1
  O2-  O468  1  0.41395413  0.24887313  0.05124729  1
  O2-  O469  1  0.91571915  0.74924270  0.60587028  1
  O2-  O470  1  0.58820125  0.75111455  0.24871934  1
  O2-  O471  1  0.24923951  0.75070927  0.93350323  1
  O2-  O472  1  0.08587394  0.75506746  0.08246730  1
  O2-  O473  1  0.41472063  0.75492132  0.74003049  1
  O2-  O474  1  0.25583780  0.25321338  0.93264055  1
  O2-  O475  1  0.25842009  0.24902967  0.59621049  1
  O2-  O476  1  0.75764007  0.74969189  0.72390752  1
  O2-  O477  1  0.92409143  0.75556300  0.25562293  1
  O2-  O478  1  0.75576303  0.24942874  0.05406191  1
  O2-  O479  1  0.41582575  0.75429565  0.08054982  1
  O2-  O480  1  0.41575493  0.25108403  0.41146452  1
  O2-  O481  1  0.24321831  0.75870693  0.26818220  1
  O2-  O482  1  0.75018061  0.75676079  0.40619751  1
  O2-  O483  1  0.59037057  0.75281882  0.60337614  1
  O2-  O484  1  0.08291199  0.74819701  0.38399469  1
  O2-  O485  1  0.08201944  0.75100895  0.73460484  1
  O2-  O486  1  0.90452136  0.24669004  0.93873068  1
  O2-  O487  1  0.90584611  0.24889163  0.26507433  1
  O2-  O488  1  0.90551610  0.24991016  0.59059555  1
  O2-  O489  1  0.74674621  0.75178543  0.08441335  1
  O2-  O490  1  0.74819932  0.24950590  0.40338592  1
  O2-  O491  1  0.75552393  0.25498870  0.74171902  1
  O2-  O492  1  0.58827448  0.25064811  0.94317483  1
