# generated using pymatgen
data_Ca108Mn108O277
_symmetry_space_group_name_H-M   'P 1'
_cell_length_a   16.02309112
_cell_length_b   22.30147917
_cell_length_c   16.38715089
_cell_angle_alpha   90.00012135
_cell_angle_beta   89.99977777
_cell_angle_gamma   89.99978636
_symmetry_Int_Tables_number   1
_chemical_formula_structural   Ca108Mn108O277
_chemical_formula_sum   'Ca108 Mn108 O277'
_cell_volume   5855.76209548
_cell_formula_units_Z   1
loop_
 _symmetry_equiv_pos_site_id
 _symmetry_equiv_pos_as_xyz
  1  'x, y, z'
loop_
 _atom_type_symbol
 _atom_type_oxidation_number
  Ca2+  2.0
  Mn3.34+  3.34
  O2-  -2.0
loop_
 _atom_site_type_symbol
 _atom_site_label
 _atom_site_symmetry_multiplicity
 _atom_site_fract_x
 _atom_site_fract_y
 _atom_site_fract_z
 _atom_site_occupancy
  Ca2+  Ca0  1  0.10116992  0.23135309  0.25223921  1
  Ca2+  Ca1  1  0.09108368  0.24777470  0.58711384  1
  Ca2+  Ca2  1  0.08274833  0.24969613  0.90704251  1
  Ca2+  Ca3  1  0.09198649  0.73512089  0.21587274  1
  Ca2+  Ca4  1  0.09738560  0.75522615  0.58858479  1
  Ca2+  Ca5  1  0.10075023  0.73914260  0.93492671  1
  Ca2+  Ca6  1  0.39853003  0.26160452  0.25061408  1
  Ca2+  Ca7  1  0.39497966  0.24792818  0.59957612  1
  Ca2+  Ca8  1  0.42070341  0.25641431  0.90654551  1
  Ca2+  Ca9  1  0.41864454  0.75513360  0.25006704  1
  Ca2+  Ca10  1  0.41968116  0.76024282  0.58850710  1
  Ca2+  Ca11  1  0.41643315  0.74056336  0.90416695  1
  Ca2+  Ca12  1  0.76045221  0.25857581  0.24572824  1
  Ca2+  Ca13  1  0.75179264  0.23418534  0.60079799  1
  Ca2+  Ca14  1  0.75172442  0.23729695  0.90894666  1
  Ca2+  Ca15  1  0.73709485  0.75852067  0.25019850  1
  Ca2+  Ca16  1  0.73715092  0.75039394  0.58649008  1
  Ca2+  Ca17  1  0.73734350  0.75390657  0.91783460  1
  Ca2+  Ca18  1  0.24190395  0.25817429  0.08684097  1
  Ca2+  Ca19  1  0.23846797  0.23999052  0.42279258  1
  Ca2+  Ca20  1  0.24025066  0.23279553  0.74018593  1
  Ca2+  Ca21  1  0.23295254  0.74495926  0.07658421  1
  Ca2+  Ca22  1  0.25969977  0.75267765  0.41372807  1
  Ca2+  Ca23  1  0.25749716  0.75246974  0.75576803  1
  Ca2+  Ca24  1  0.59228812  0.25306171  0.06667650  1
  Ca2+  Ca25  1  0.59118108  0.25926805  0.42934324  1
  Ca2+  Ca26  1  0.58934309  0.24523419  0.75284313  1
  Ca2+  Ca27  1  0.58437504  0.75720754  0.08483000  1
  Ca2+  Ca28  1  0.58082449  0.76095265  0.41823431  1
  Ca2+  Ca29  1  0.57617439  0.75610700  0.74625968  1
  Ca2+  Ca30  1  0.91557635  0.24764005  0.08274046  1
  Ca2+  Ca31  1  0.92430194  0.24572276  0.41846052  1
  Ca2+  Ca32  1  0.92249600  0.24631083  0.74175807  1
  Ca2+  Ca33  1  0.93533343  0.75710875  0.08535304  1
  Ca2+  Ca34  1  0.90775324  0.75356300  0.41785064  1
  Ca2+  Ca35  1  0.91991821  0.76238203  0.74505073  1
  Ca2+  Ca36  1  0.93115756  0.59405289  0.08727818  1
  Ca2+  Ca37  1  0.57875546  0.60623929  0.75867429  1
  Ca2+  Ca38  1  0.23486046  0.58989338  0.06108251  1
  Ca2+  Ca39  1  0.57976150  0.56420292  0.08859002  1
  Ca2+  Ca40  1  0.26258683  0.57871807  0.41256637  1
  Ca2+  Ca41  1  0.90552411  0.59121827  0.40306692  1
  Ca2+  Ca42  1  0.56987060  0.56638820  0.08518849  1
  Ca2+  Ca43  1  0.87331920  0.11216547  0.06817178  1
  Ca2+  Ca44  1  0.24169348  0.10974525  0.09225831  1
  Ca2+  Ca45  1  0.25155524  0.10875939  0.09538548  1
  Ca2+  Ca46  1  0.75795698  0.08918330  0.59798443  1
  Ca2+  Ca47  1  0.63184744  0.08185176  0.04518767  1
  Ca2+  Ca48  1  0.27072314  0.58096647  0.76139982  1
  Ca2+  Ca49  1  0.73112478  0.58465379  0.92264744  1
  Ca2+  Ca50  1  0.40026264  0.57498510  0.59155360  1
  Ca2+  Ca51  1  0.11705925  0.57983667  0.58880951  1
  Ca2+  Ca52  1  0.90510670  0.59574098  0.73589263  1
  Ca2+  Ca53  1  0.59321388  0.09215700  0.74981208  1
  Ca2+  Ca54  1  0.56814929  0.60165241  0.76224962  1
  Ca2+  Ca55  1  0.06234731  0.11926390  0.90482858  1
  Ca2+  Ca56  1  0.58904606  0.58241704  0.40810956  1
  Ca2+  Ca57  1  0.42160228  0.09576366  0.90742655  1
  Ca2+  Ca58  1  0.94295450  0.59583260  0.09218460  1
  Ca2+  Ca59  1  0.91910077  0.09979448  0.42740159  1
  Ca2+  Ca60  1  0.41182729  0.57465207  0.59182114  1
  Ca2+  Ca61  1  0.74370931  0.58462477  0.92526516  1
  Ca2+  Ca62  1  0.09756212  0.10743272  0.58190114  1
  Ca2+  Ca63  1  0.73011714  0.56979331  0.26254297  1
  Ca2+  Ca64  1  0.59959077  0.09335734  0.43536530  1
  Ca2+  Ca65  1  0.90750246  0.11424582  0.75799139  1
  Ca2+  Ca66  1  0.41940331  0.07516741  0.63011727  1
  Ca2+  Ca67  1  0.75736652  0.10887085  0.22886292  1
  Ca2+  Ca68  1  0.44589899  0.55546777  0.26713873  1
  Ca2+  Ca69  1  0.43132367  0.09799529  0.90475573  1
  Ca2+  Ca70  1  0.39219804  0.10685909  0.24011989  1
  Ca2+  Ca71  1  0.89329170  0.59362924  0.40591144  1
  Ca2+  Ca72  1  0.91622614  0.38939301  0.76031442  1
  Ca2+  Ca73  1  0.28056689  0.92035804  0.74592871  1
  Ca2+  Ca74  1  0.06334422  0.91365222  0.58509558  1
  Ca2+  Ca75  1  0.90685680  0.39638056  0.08569344  1
  Ca2+  Ca76  1  0.41929257  0.90226971  0.24451177  1
  Ca2+  Ca77  1  0.07548165  0.90541579  0.92245123  1
  Ca2+  Ca78  1  0.91414746  0.39531121  0.41551724  1
  Ca2+  Ca79  1  0.25478681  0.90146377  0.41631211  1
  Ca2+  Ca80  1  0.57390879  0.93099577  0.73215553  1
  Ca2+  Ca81  1  0.08552675  0.39523443  0.91613863  1
  Ca2+  Ca82  1  0.90629700  0.91061652  0.41756476  1
  Ca2+  Ca83  1  0.07840744  0.90356698  0.24982597  1
  Ca2+  Ca84  1  0.89212196  0.91043858  0.07776714  1
  Ca2+  Ca85  1  0.26235581  0.41025421  0.06683252  1
  Ca2+  Ca86  1  0.56440328  0.42248722  0.38352647  1
  Ca2+  Ca87  1  0.72141606  0.93158456  0.93988742  1
  Ca2+  Ca88  1  0.26924287  0.91710643  0.74230462  1
  Ca2+  Ca89  1  0.24877853  0.90904185  0.41203288  1
  Ca2+  Ca90  1  0.59969147  0.91206964  0.07877359  1
  Ca2+  Ca91  1  0.07587410  0.91261308  0.58495817  1
  Ca2+  Ca92  1  0.25844795  0.39977473  0.75335573  1
  Ca2+  Ca93  1  0.43141591  0.92008572  0.92468486  1
  Ca2+  Ca94  1  0.57369926  0.93310964  0.72231262  1
  Ca2+  Ca95  1  0.73934042  0.39384588  0.58002071  1
  Ca2+  Ca96  1  0.09139885  0.90378250  0.24907760  1
  Ca2+  Ca97  1  0.08026999  0.38970756  0.24305543  1
  Ca2+  Ca98  1  0.08850448  0.90581047  0.92198190  1
  Ca2+  Ca99  1  0.55534870  0.42502804  0.38745989  1
  Ca2+  Ca100  1  0.74877076  0.39114901  0.57667051  1
  Ca2+  Ca101  1  0.40298058  0.40617254  0.58195853  1
  Ca2+  Ca102  1  0.25812122  0.91031055  0.07646015  1
  Ca2+  Ca103  1  0.25844055  0.39928520  0.42912325  1
  Ca2+  Ca104  1  0.44279641  0.91670292  0.92062635  1
  Ca2+  Ca105  1  0.74239204  0.91474014  0.58894422  1
  Ca2+  Ca106  1  0.41219778  0.41301901  0.92785416  1
  Ca2+  Ca107  1  0.91894055  0.91082687  0.41648237  1
  Mn3.34+  Mn108  1  0.08275298  0.32764300  0.08243639  1
  Mn3.34+  Mn109  1  0.08470752  0.32921138  0.41737546  1
  Mn3.34+  Mn110  1  0.08480367  0.32647409  0.74816867  1
  Mn3.34+  Mn111  1  0.08163055  0.83446658  0.08578680  1
  Mn3.34+  Mn112  1  0.08040829  0.82450853  0.41864927  1
  Mn3.34+  Mn113  1  0.08027984  0.83566998  0.75338077  1
  Mn3.34+  Mn114  1  0.42315389  0.34402691  0.08761803  1
  Mn3.34+  Mn115  1  0.41548135  0.33690312  0.41719344  1
  Mn3.34+  Mn116  1  0.42057092  0.33384745  0.75204670  1
  Mn3.34+  Mn117  1  0.41777310  0.83065355  0.08144973  1
  Mn3.34+  Mn118  1  0.42436393  0.83435590  0.41942178  1
  Mn3.34+  Mn119  1  0.42102661  0.83324837  0.75165692  1
  Mn3.34+  Mn120  1  0.74330637  0.34439373  0.08101339  1
  Mn3.34+  Mn121  1  0.74754424  0.33115749  0.40932810  1
  Mn3.34+  Mn122  1  0.74669828  0.32484433  0.75803238  1
  Mn3.34+  Mn123  1  0.74936770  0.83300950  0.08484936  1
  Mn3.34+  Mn124  1  0.74315002  0.83660898  0.41992399  1
  Mn3.34+  Mn125  1  0.75307729  0.83828363  0.75684445  1
  Mn3.34+  Mn126  1  0.25096141  0.33152674  0.24993654  1
  Mn3.34+  Mn127  1  0.24536500  0.33608722  0.58514414  1
  Mn3.34+  Mn128  1  0.25330105  0.33313660  0.91448249  1
  Mn3.34+  Mn129  1  0.25380606  0.82951718  0.24389990  1
  Mn3.34+  Mn130  1  0.25393093  0.83441068  0.58367690  1
  Mn3.34+  Mn131  1  0.25391926  0.83312807  0.91407937  1
  Mn3.34+  Mn132  1  0.58256469  0.33938779  0.23940479  1
  Mn3.34+  Mn133  1  0.57614648  0.33024397  0.58652351  1
  Mn3.34+  Mn134  1  0.58580836  0.33322543  0.91482590  1
  Mn3.34+  Mn135  1  0.58373982  0.83160282  0.25087850  1
  Mn3.34+  Mn136  1  0.58380797  0.83734133  0.58211239  1
  Mn3.34+  Mn137  1  0.58613335  0.83149479  0.90897308  1
  Mn3.34+  Mn138  1  0.91462865  0.33184277  0.24727479  1
  Mn3.34+  Mn139  1  0.92173439  0.32753961  0.58250108  1
  Mn3.34+  Mn140  1  0.91005232  0.33214288  0.91771251  1
  Mn3.34+  Mn141  1  0.90999624  0.82849937  0.24834609  1
  Mn3.34+  Mn142  1  0.90931173  0.83139871  0.58402552  1
  Mn3.34+  Mn143  1  0.91118093  0.83085851  0.91386041  1
  Mn3.34+  Mn144  1  0.42001659  0.17097701  0.42122584  1
  Mn3.34+  Mn145  1  0.91230786  0.67155980  0.24933354  1
  Mn3.34+  Mn146  1  0.75227150  0.16736330  0.41918276  1
  Mn3.34+  Mn147  1  0.74199390  0.67150670  0.41874416  1
  Mn3.34+  Mn148  1  0.09186735  0.66062790  0.75119659  1
  Mn3.34+  Mn149  1  0.58434020  0.66793263  0.57924781  1
  Mn3.34+  Mn150  1  0.74749530  0.67474956  0.75229339  1
  Mn3.34+  Mn151  1  0.42324828  0.66598325  0.41469812  1
  Mn3.34+  Mn152  1  0.41449025  0.16728167  0.74921702  1
  Mn3.34+  Mn153  1  0.25135637  0.66385896  0.24192604  1
  Mn3.34+  Mn154  1  0.91864075  0.17060535  0.24891404  1
  Mn3.34+  Mn155  1  0.91788504  0.66592021  0.90626420  1
  Mn3.34+  Mn156  1  0.09041599  0.67086969  0.41713793  1
  Mn3.34+  Mn157  1  0.74967964  0.66691105  0.09107674  1
  Mn3.34+  Mn158  1  0.25118981  0.65913700  0.91425509  1
  Mn3.34+  Mn159  1  0.42016342  0.17215841  0.08014162  1
  Mn3.34+  Mn160  1  0.41915268  0.66473358  0.07825023  1
  Mn3.34+  Mn161  1  0.57632112  0.16737027  0.24669991  1
  Mn3.34+  Mn162  1  0.41771009  0.66081846  0.08891377  1
  Mn3.34+  Mn163  1  0.91906146  0.16052432  0.58334224  1
  Mn3.34+  Mn164  1  0.24749821  0.17012303  0.91143015  1
  Mn3.34+  Mn165  1  0.58113346  0.66478472  0.25147470  1
  Mn3.34+  Mn166  1  0.91690878  0.67142838  0.91535182  1
  Mn3.34+  Mn167  1  0.08225263  0.66663486  0.74913703  1
  Mn3.34+  Mn168  1  0.08623370  0.16436912  0.41525584  1
  Mn3.34+  Mn169  1  0.41469463  0.66777931  0.75218402  1
  Mn3.34+  Mn170  1  0.91094582  0.67352516  0.58117675  1
  Mn3.34+  Mn171  1  0.07636382  0.16743643  0.08423189  1
  Mn3.34+  Mn172  1  0.25492287  0.66731740  0.58361993  1
  Mn3.34+  Mn173  1  0.58325605  0.16157268  0.58595512  1
  Mn3.34+  Mn174  1  0.73902363  0.66202979  0.09262170  1
  Mn3.34+  Mn175  1  0.58986352  0.17399375  0.24796718  1
  Mn3.34+  Mn176  1  0.08251226  0.67751404  0.41540960  1
  Mn3.34+  Mn177  1  0.40940117  0.16672446  0.42225215  1
  Mn3.34+  Mn178  1  0.40970194  0.65985611  0.41709098  1
  Mn3.34+  Mn179  1  0.59381529  0.16736216  0.91159827  1
  Mn3.34+  Mn180  1  0.91640292  0.00712330  0.24617720  1
  Mn3.34+  Mn181  1  0.74869479  0.50020067  0.42170136  1
  Mn3.34+  Mn182  1  0.25165172  0.50146926  0.24797729  1
  Mn3.34+  Mn183  1  0.41668965  0.00306406  0.42548731  1
  Mn3.34+  Mn184  1  0.07888605  0.50037502  0.42533587  1
  Mn3.34+  Mn185  1  0.91390851  -0.00102576  0.90916198  1
  Mn3.34+  Mn186  1  0.75363491  0.49156654  0.75869064  1
  Mn3.34+  Mn187  1  0.08140776  0.49492213  0.08511445  1
  Mn3.34+  Mn188  1  0.91331503  0.49635108  0.25262142  1
  Mn3.34+  Mn189  1  0.90046995  0.00589685  0.91167875  1
  Mn3.34+  Mn190  1  0.74751671  0.00225206  0.42314941  1
  Mn3.34+  Mn191  1  0.24377997  0.00419965  0.91899951  1
  Mn3.34+  Mn192  1  0.26184554  0.49598117  0.24930772  1
  Mn3.34+  Mn193  1  0.59823206  -0.00191995  0.24641216  1
  Mn3.34+  Mn194  1  0.58768879  0.00238297  0.24672906  1
  Mn3.34+  Mn195  1  0.08959365  0.49546738  0.42630325  1
  Mn3.34+  Mn196  1  0.08032550  0.00238503  0.08038114  1
  Mn3.34+  Mn197  1  0.24660234  -0.00049242  0.25634531  1
  Mn3.34+  Mn198  1  0.58664154  0.48749832  0.93330457  1
  Mn3.34+  Mn199  1  0.92255621  0.49806828  0.58119774  1
  Mn3.34+  Mn200  1  0.09338171  0.49974993  0.75696633  1
  Mn3.34+  Mn201  1  0.90512928  0.00125965  0.24594168  1
  Mn3.34+  Mn202  1  0.76071827  -0.00137901  0.73859121  1
  Mn3.34+  Mn203  1  0.25308518  0.00432365  0.59392302  1
  Mn3.34+  Mn204  1  0.08352066  0.49515117  0.75241129  1
  Mn3.34+  Mn205  1  0.42237764  0.00091507  0.08110350  1
  Mn3.34+  Mn206  1  0.42312770  0.49661367  0.75397650  1
  Mn3.34+  Mn207  1  0.58887037  0.50282745  0.58215257  1
  Mn3.34+  Mn208  1  0.09284336  0.00622152  0.41309686  1
  Mn3.34+  Mn209  1  0.09135468  0.49962842  0.08885568  1
  Mn3.34+  Mn210  1  0.90846982  0.50447090  0.58046022  1
  Mn3.34+  Mn211  1  0.74009838  0.49715360  0.75785621  1
  Mn3.34+  Mn212  1  0.42944564  -0.00395881  0.42494633  1
  Mn3.34+  Mn213  1  0.06475372  0.00456499  0.74568205  1
  Mn3.34+  Mn214  1  0.07740365  0.01106649  0.74637276  1
  Mn3.34+  Mn215  1  0.90434959  0.49947907  0.92724219  1
  O2-  O216  1  -0.00747256  0.16221135  0.00926918  1
  O2-  O217  1  -0.00575821  0.15735632  0.33616259  1
  O2-  O218  1  -0.00238676  0.15806497  0.65853581  1
  O2-  O219  1  -0.00893278  0.66568803  0.00382686  1
  O2-  O220  1  -0.00696645  0.66890583  0.33711969  1
  O2-  O221  1  0.00418614  0.65449182  0.66156875  1
  O2-  O222  1  0.33683354  0.15517905  -0.00117352  1
  O2-  O223  1  0.33808218  0.16459679  0.33643926  1
  O2-  O224  1  0.33676909  0.16191063  0.67427269  1
  O2-  O225  1  0.33775529  0.66663233  -0.00170875  1
  O2-  O226  1  0.33412306  0.64869711  0.33014450  1
  O2-  O227  1  0.33645663  0.64681914  0.66591217  1
  O2-  O228  1  0.66621693  0.17310199  -0.00507724  1
  O2-  O229  1  0.66477765  0.14854730  0.33093620  1
  O2-  O230  1  0.66412137  0.15499237  0.65950893  1
  O2-  O231  1  0.66435138  0.64772191  0.00157971  1
  O2-  O232  1  0.66994959  0.65361321  0.32835668  1
  O2-  O233  1  0.66182614  0.65951726  0.67515668  1
  O2-  O234  1  0.16451799  0.15459672  -0.00313524  1
  O2-  O235  1  0.16489255  0.16365775  0.34106917  1
  O2-  O236  1  0.16557570  0.17407880  0.65701002  1
  O2-  O237  1  0.17528431  0.66407946  -0.00595178  1
  O2-  O238  1  0.16976565  0.65509369  0.33485250  1
  O2-  O239  1  0.17376482  0.64736460  0.66701162  1
  O2-  O240  1  0.49726270  0.16114201  -0.00295676  1
  O2-  O241  1  0.50030359  0.14706970  0.33283534  1
  O2-  O242  1  0.49970738  0.15819111  0.66769763  1
  O2-  O243  1  0.50519708  0.68074193  0.00641263  1
  O2-  O244  1  0.49922793  0.64301589  0.33130850  1
  O2-  O245  1  0.49410083  0.64767700  0.66202852  1
  O2-  O246  1  0.83101463  0.19006508  0.00130106  1
  O2-  O247  1  0.83260393  0.15228269  0.33438716  1
  O2-  O248  1  0.83420102  0.16007756  0.65993146  1
  O2-  O249  1  0.83018340  0.65755328  -0.00274512  1
  O2-  O250  1  0.83400432  0.67209750  0.33828148  1
  O2-  O251  1  0.83592591  0.68220505  0.67618029  1
  O2-  O252  1  -0.00221629  0.33829933  -0.00014721  1
  O2-  O253  1  -0.00179031  0.34413384  0.33243341  1
  O2-  O254  1  -0.00398412  0.33733235  0.67050223  1
  O2-  O255  1  -0.00695269  0.84667216  0.00418165  1
  O2-  O256  1  -0.00633115  0.84314874  0.33579855  1
  O2-  O257  1  0.00162887  0.83466634  0.66010162  1
  O2-  O258  1  0.33865001  0.33388055  -0.00062774  1
  O2-  O259  1  0.32963857  0.34180923  0.33762959  1
  O2-  O260  1  0.33391291  0.34097870  0.66728714  1
  O2-  O261  1  0.34018110  0.84854271  -0.00765514  1
  O2-  O262  1  0.33257189  0.84755360  0.33069452  1
  O2-  O263  1  0.33459028  0.84784735  0.66841567  1
  O2-  O264  1  0.67044681  0.32585552  0.00064691  1
  O2-  O265  1  0.65710274  0.34899046  0.34163226  1
  O2-  O266  1  0.66757058  0.33797468  0.66439707  1
  O2-  O267  1  0.66510044  0.83848533  -0.00540834  1
  O2-  O268  1  0.66831760  0.82280852  0.33769322  1
  O2-  O269  1  0.67051041  0.83915684  0.67252071  1
  O2-  O270  1  0.16974359  0.34411612  0.00376419  1
  O2-  O271  1  0.16791401  0.34777527  0.33403006  1
  O2-  O272  1  0.16880048  0.34488566  0.67281917  1
  O2-  O273  1  0.17011366  0.84742838  -0.00161041  1
  O2-  O274  1  0.16717218  0.84540911  0.33663690  1
  O2-  O275  1  0.16902283  0.86195906  0.66601481  1
  O2-  O276  1  0.49605981  0.32987125  0.00182189  1
  O2-  O277  1  0.49592752  0.34366526  0.33125784  1
  O2-  O278  1  0.49188618  0.34557803  0.65901767  1
  O2-  O279  1  0.50256114  0.82980579  -0.00278520  1
  O2-  O280  1  0.49550110  0.84238890  0.32768437  1
  O2-  O281  1  0.50674287  0.84635009  0.67667390  1
  O2-  O282  1  0.83362775  0.32143089  0.00561744  1
  O2-  O283  1  0.83282517  0.34132255  0.33215919  1
  O2-  O284  1  0.83196636  0.34116805  0.66242195  1
  O2-  O285  1  0.83315036  0.83086246  -0.00103220  1
  O2-  O286  1  0.83452217  0.82653610  0.33983347  1
  O2-  O287  1  0.82828695  0.81686246  0.66534312  1
  O2-  O288  1  -0.00019761  0.18111560  0.16754231  1
  O2-  O289  1  -0.00235373  0.17774907  0.49777642  1
  O2-  O290  1  -0.01924255  0.18949158  0.83977133  1
  O2-  O291  1  -0.01546761  0.68122821  0.16577016  1
  O2-  O292  1  0.00077667  0.69221983  0.49803158  1
  O2-  O293  1  -0.00351364  0.69218768  0.82642073  1
  O2-  O294  1  0.33365884  0.18344752  0.15206429  1
  O2-  O295  1  0.33709927  0.17974504  0.50466772  1
  O2-  O296  1  0.34247718  0.17648268  0.84349546  1
  O2-  O297  1  0.33820236  0.69030548  0.16069193  1
  O2-  O298  1  0.33288151  0.68849696  0.49884098  1
  O2-  O299  1  0.33062269  0.67853187  0.82652981  1
  O2-  O300  1  0.66605583  0.18293514  0.16720462  1
  O2-  O301  1  0.66523723  0.17731246  0.49700269  1
  O2-  O302  1  0.66149370  0.17148636  0.83011126  1
  O2-  O303  1  0.65682857  0.68788122  0.17042116  1
  O2-  O304  1  0.65907875  0.68954457  0.49258978  1
  O2-  O305  1  0.66783276  0.67424028  0.83470755  1
  O2-  O306  1  0.16873925  0.17850546  0.15361842  1
  O2-  O307  1  0.15625314  0.17779583  0.49918939  1
  O2-  O308  1  0.16656692  0.17809318  0.84063193  1
  O2-  O309  1  0.17999383  0.67524736  0.16042161  1
  O2-  O310  1  0.16828219  0.68487866  0.50359492  1
  O2-  O311  1  0.17016879  0.67819686  0.83336959  1
  O2-  O312  1  0.49481633  0.18702961  0.17009444  1
  O2-  O313  1  0.50650736  0.17923136  0.49173059  1
  O2-  O314  1  0.49792955  0.17304661  0.83505959  1
  O2-  O315  1  0.49689642  0.68513338  0.16775203  1
  O2-  O316  1  0.49291617  0.68353678  0.50198417  1
  O2-  O317  1  0.50472434  0.68059605  0.82114032  1
  O2-  O318  1  0.83544777  0.18361951  0.17111116  1
  O2-  O319  1  0.83330119  0.18058082  0.49429331  1
  O2-  O320  1  0.85621776  0.18788761  0.83895373  1
  O2-  O321  1  0.82693382  0.68936501  0.17231148  1
  O2-  O322  1  0.82952743  0.68992506  0.49337773  1
  O2-  O323  1  0.82735481  0.68969599  0.83637386  1
  O2-  O324  1  -0.00301838  0.32100003  0.16238524  1
  O2-  O325  1  -0.00612050  0.32250280  0.49305774  1
  O2-  O326  1  0.00010152  0.31895346  0.83743648  1
  O2-  O327  1  0.00429057  0.81765152  0.18069476  1
  O2-  O328  1  -0.00387125  0.81091868  0.50158896  1
  O2-  O329  1  0.00612310  0.81447991  0.84938525  1
  O2-  O330  1  0.33156515  0.32228636  0.15915491  1
  O2-  O331  1  0.33788396  0.32237164  0.50294434  1
  O2-  O332  1  0.33115669  0.32045929  0.83020751  1
  O2-  O333  1  0.33195992  0.81613125  0.15714049  1
  O2-  O334  1  0.32488343  0.82378443  0.48961068  1
  O2-  O335  1  0.33179828  0.82514641  0.82927195  1
  O2-  O336  1  0.66840217  0.31730177  0.16291418  1
  O2-  O337  1  0.67267002  0.32499892  0.50315732  1
  O2-  O338  1  0.66468825  0.31825118  0.83437311  1
  O2-  O339  1  0.66345647  0.82111656  0.16354406  1
  O2-  O340  1  0.66885502  0.81937505  0.50498568  1
  O2-  O341  1  0.66516716  0.80749723  0.83019914  1
  O2-  O342  1  0.16059664  0.32123846  0.16879228  1
  O2-  O343  1  0.17046032  0.32133758  0.49396455  1
  O2-  O344  1  0.16407509  0.32560505  0.83779119  1
  O2-  O345  1  0.16335188  0.82457616  0.17182157  1
  O2-  O346  1  0.16699332  0.82181432  0.50122864  1
  O2-  O347  1  0.16759200  0.83226147  0.83570475  1
  O2-  O348  1  0.49872639  0.31559227  0.16377252  1
  O2-  O349  1  0.50806794  0.33175697  0.49322847  1
  O2-  O350  1  0.49520255  0.32637468  0.83717906  1
  O2-  O351  1  0.49574455  0.81428718  0.16364681  1
  O2-  O352  1  0.50005701  0.81878638  0.50358007  1
  O2-  O353  1  0.49534835  0.81240123  0.83982550  1
  O2-  O354  1  0.83430854  0.32026128  0.16173924  1
  O2-  O355  1  0.82980974  0.32826986  0.50065621  1
  O2-  O356  1  0.83884395  0.31573502  0.82947852  1
  O2-  O357  1  0.83591985  0.81292648  0.16215905  1
  O2-  O358  1  0.83243810  0.81667879  0.49863312  1
  O2-  O359  1  0.83247332  0.80749445  0.83402506  1
  O2-  O360  1  0.10356838  0.08335489  0.09798923  1
  O2-  O361  1  0.06723350  0.08294161  0.44679728  1
  O2-  O362  1  0.06360741  0.08771738  0.77637371  1
  O2-  O363  1  0.07654553  0.58092641  0.11168779  1
  O2-  O364  1  0.08313209  0.58373991  0.45517350  1
  O2-  O365  1  0.06497094  0.57962976  0.79392009  1
  O2-  O366  1  0.40075571  0.08014772  0.10615124  1
  O2-  O367  1  0.43162341  0.08281453  0.44826772  1
  O2-  O368  1  0.41906061  0.08429107  0.77248558  1
  O2-  O369  1  0.43752394  0.57843221  0.12207041  1
  O2-  O370  1  0.41042891  0.58142577  0.45649534  1
  O2-  O371  1  0.43045068  0.58095407  0.77994454  1
  O2-  O372  1  0.75128432  0.06584981  0.11474900  1
  O2-  O373  1  0.74747117  0.08281327  0.45386829  1
  O2-  O374  1  0.76704260  0.06678075  0.78142070  1
  O2-  O375  1  0.74061843  0.58226605  0.12794012  1
  O2-  O376  1  0.76132953  0.58282287  0.44464107  1
  O2-  O377  1  0.75559026  0.57983534  0.78616711  1
  O2-  O378  1  0.26536406  0.07515108  0.21750874  1
  O2-  O379  1  0.25018458  0.07341738  0.55597476  1
  O2-  O380  1  0.26641227  0.08356840  0.90419340  1
  O2-  O381  1  0.26302892  0.57933241  0.20329490  1
  O2-  O382  1  0.26129280  0.58458826  0.54715794  1
  O2-  O383  1  0.25398169  0.58179592  0.89803399  1
  O2-  O384  1  0.58032242  0.08388606  0.20781704  1
  O2-  O385  1  0.57465335  0.08182341  0.56438249  1
  O2-  O386  1  0.56905418  0.08383905  0.90204487  1
  O2-  O387  1  0.58761198  0.58090180  0.21995981  1
  O2-  O388  1  0.57075286  0.58274621  0.54696275  1
  O2-  O389  1  0.60908686  0.55774884  0.87133822  1
  O2-  O390  1  0.90761360  0.08613805  0.21594007  1
  O2-  O391  1  0.90678970  0.08249323  0.55986330  1
  O2-  O392  1  0.92190724  0.08283143  0.89278528  1
  O2-  O393  1  0.90083209  0.58182858  0.21997227  1
  O2-  O394  1  0.92251832  0.58300277  0.53861662  1
  O2-  O395  1  0.90120587  0.58037938  0.86888100  1
  O2-  O396  1  0.08018319  0.41299109  0.10304925  1
  O2-  O397  1  0.07977724  0.41408006  0.43617656  1
  O2-  O398  1  0.07118931  0.41453892  0.77803574  1
  O2-  O399  1  0.07487139  0.91955481  0.11732383  1
  O2-  O400  1  0.06983728  0.92061895  0.45159155  1
  O2-  O401  1  0.07420021  0.92692456  0.79133977  1
  O2-  O402  1  0.40832014  0.42098415  0.08531864  1
  O2-  O403  1  0.42201153  0.41809932  0.44052422  1
  O2-  O404  1  0.40393034  0.41806194  0.77622304  1
  O2-  O405  1  0.41636486  0.92034838  0.10987443  1
  O2-  O406  1  0.40185786  0.91796394  0.45111734  1
  O2-  O407  1  0.41143869  0.92055543  0.78827533  1
  O2-  O408  1  0.76556660  0.41893305  0.08916060  1
  O2-  O409  1  0.75754447  0.41953672  0.44324758  1
  O2-  O410  1  0.76150245  0.41111435  0.76335025  1
  O2-  O411  1  0.75181785  0.91095523  0.09514395  1
  O2-  O412  1  0.77325316  0.92181086  0.45448102  1
  O2-  O413  1  0.73440681  0.92884349  0.79012842  1
  O2-  O414  1  0.24116866  0.41726530  0.21460847  1
  O2-  O415  1  0.26113771  0.41861486  0.56247349  1
  O2-  O416  1  0.25594991  0.41458729  0.89836317  1
  O2-  O417  1  0.24387958  0.91767288  0.21404934  1
  O2-  O418  1  0.22699415  0.93196013  0.54164765  1
  O2-  O419  1  0.24389377  0.92370432  0.87751587  1
  O2-  O420  1  0.57846130  0.41944045  0.24235380  1
  O2-  O421  1  0.60328969  0.42081312  0.55731940  1
  O2-  O422  1  0.56555343  0.41636054  0.89550029  1
  O2-  O423  1  0.57094271  0.91776733  0.21525402  1
  O2-  O424  1  0.59837448  0.91821943  0.58504834  1
  O2-  O425  1  0.57088109  0.91917495  0.86942975  1
  O2-  O426  1  0.92885236  0.41572556  0.22222605  1
  O2-  O427  1  0.90558778  0.41680271  0.56187378  1
  O2-  O428  1  0.92641194  0.42129685  0.89205712  1
  O2-  O429  1  0.92753720  0.91974679  0.21476703  1
  O2-  O430  1  0.93117312  0.91678440  0.54792260  1
  O2-  O431  1  0.92642254  0.91931693  0.88638659  1
  O2-  O432  1  0.00065384  -0.00787661  -0.01125301  1
  O2-  O433  1  0.00281448  -0.01846477  0.32798830  1
  O2-  O434  1  0.01667915  -0.00651954  0.64244915  1
  O2-  O435  1  -0.00998787  0.50615107  0.01343017  1
  O2-  O436  1  -0.01091020  0.51548989  0.35240814  1
  O2-  O437  1  0.00200916  0.51490488  0.66735773  1
  O2-  O438  1  0.33956219  -0.01592864  -0.01331686  1
  O2-  O439  1  0.32823483  -0.01040797  0.34587239  1
  O2-  O440  1  0.33409422  -0.01040553  0.66368531  1
  O2-  O441  1  0.32747588  0.49940117  0.01262281  1
  O2-  O442  1  0.33639186  0.51342874  0.33366977  1
  O2-  O443  1  0.34017778  0.51160520  0.67739223  1
  O2-  O444  1  0.65214551  -0.01213487  0.01904128  1
  O2-  O445  1  0.66914989  0.01258426  0.33686544  1
  O2-  O446  1  0.66958075  0.00267949  0.67882993  1
  O2-  O447  1  0.66625145  0.51982579  0.00451020  1
  O2-  O448  1  0.66442752  0.50394667  0.35216664  1
  O2-  O449  1  0.66692895  0.50741124  0.67058472  1
  O2-  O450  1  0.16484932  -0.02406989  -0.00104105  1
  O2-  O451  1  0.16703684  -0.03309315  0.33438744  1
  O2-  O452  1  0.17405208  -0.01400837  0.67782303  1
  O2-  O453  1  0.18501647  0.49853148  0.02437372  1
  O2-  O454  1  0.17305045  0.50758274  0.34209376  1
  O2-  O455  1  0.17592409  0.52043325  0.68268070  1
  O2-  O456  1  0.49604066  -0.00808160  -0.00285960  1
  O2-  O457  1  0.49477306  -0.00008611  0.32383582  1
  O2-  O458  1  0.50942999  0.01062685  0.69934040  1
  O2-  O459  1  0.50254290  0.51156992  -0.00613224  1
  O2-  O460  1  0.51257282  0.51116043  0.35985600  1
  O2-  O461  1  0.49940142  0.51178585  0.66093904  1
  O2-  O462  1  0.83203077  -0.01257359  -0.00408867  1
  O2-  O463  1  0.84654405  -0.00296102  0.35182139  1
  O2-  O464  1  0.82247140  -0.00786597  0.65522133  1
  O2-  O465  1  0.83806390  0.54458078  0.00718222  1
  O2-  O466  1  0.83264106  0.51492480  0.34116702  1
  O2-  O467  1  0.84077490  0.51127063  0.67790738  1
  O2-  O468  1  0.24918022  0.74843793  0.27563328  1
  O2-  O469  1  0.58105381  0.24978811  0.59702270  1
  O2-  O470  1  0.24971571  0.74814982  0.61538927  1
  O2-  O471  1  0.24957253  0.25433779  0.26700223  1
  O2-  O472  1  0.41276453  0.74711705  0.38739945  1
  O2-  O473  1  0.57280495  0.25098102  0.92418480  1
  O2-  O474  1  0.57761710  0.74990391  0.60883917  1
  O2-  O475  1  0.08690093  0.24932865  0.05676499  1
  O2-  O476  1  0.07891303  0.25023258  0.39380710  1
  O2-  O477  1  0.58531369  0.25213006  0.28046099  1
  O2-  O478  1  0.74801576  0.24820185  0.73833060  1
  O2-  O479  1  0.57452031  0.74506206  0.27782764  1
  O2-  O480  1  0.91149771  0.24944387  0.59696256  1
  O2-  O481  1  0.41126950  0.74936527  0.72439100  1
  O2-  O482  1  0.74161790  0.24932353  0.38930389  1
  O2-  O483  1  0.08624763  0.24913830  0.73408438  1
  O2-  O484  1  0.24622255  0.25388124  0.59922375  1
  O2-  O485  1  0.08520931  0.75538582  0.06840018  1
  O2-  O486  1  0.91510250  0.25115428  0.27561766  1
  O2-  O487  1  0.25105612  0.75283977  0.93013473  1
  O2-  O488  1  0.73696949  0.74674262  0.05773462  1
  O2-  O489  1  0.24866058  0.24936187  0.94140700  1
  O2-  O490  1  0.42482438  0.25194881  0.73665035  1
  O2-  O491  1  0.42897914  0.25223291  0.39392134  1
  O2-  O492  1  0.10280493  0.74995656  0.72423060  1
