# generated using pymatgen
data_Ca108Mn108O277
_symmetry_space_group_name_H-M   'P 1'
_cell_length_a   16.02747692
_cell_length_b   22.30625471
_cell_length_c   16.39013729
_cell_angle_alpha   89.99477960
_cell_angle_beta   90.00134465
_cell_angle_gamma   89.99895191
_symmetry_Int_Tables_number   1
_chemical_formula_structural   Ca108Mn108O277
_chemical_formula_sum   'Ca108 Mn108 O277'
_cell_volume   5859.68683962
_cell_formula_units_Z   1
loop_
 _symmetry_equiv_pos_site_id
 _symmetry_equiv_pos_as_xyz
  1  'x, y, z'
loop_
 _atom_type_symbol
 _atom_type_oxidation_number
  Ca2+  2.0
  Mn3.34+  3.34
  O2-  -2.0
loop_
 _atom_site_type_symbol
 _atom_site_label
 _atom_site_symmetry_multiplicity
 _atom_site_fract_x
 _atom_site_fract_y
 _atom_site_fract_z
 _atom_site_occupancy
  Ca2+  Ca0  1  0.10666108  0.24456975  0.22624086  1
  Ca2+  Ca1  1  0.07068362  0.25152288  0.58292918  1
  Ca2+  Ca2  1  0.10672452  0.24863492  0.93742381  1
  Ca2+  Ca3  1  0.06897623  0.75501575  0.25964976  1
  Ca2+  Ca4  1  0.07504684  0.73847100  0.60065319  1
  Ca2+  Ca5  1  0.07484079  0.75176626  0.88547590  1
  Ca2+  Ca6  1  0.40308378  0.25257210  0.23281031  1
  Ca2+  Ca7  1  0.41614216  0.26790484  0.58911655  1
  Ca2+  Ca8  1  0.41009598  0.23391998  0.92917510  1
  Ca2+  Ca9  1  0.41723950  0.75660670  0.27182303  1
  Ca2+  Ca10  1  0.40468319  0.74940696  0.56862631  1
  Ca2+  Ca11  1  0.42698733  0.75726052  0.91403108  1
  Ca2+  Ca12  1  0.73810451  0.25254671  0.25835629  1
  Ca2+  Ca13  1  0.75748485  0.24860284  0.59935618  1
  Ca2+  Ca14  1  0.74287469  0.24517356  0.90827050  1
  Ca2+  Ca15  1  0.75821157  0.76362267  0.25449984  1
  Ca2+  Ca16  1  0.76672296  0.75376287  0.59711767  1
  Ca2+  Ca17  1  0.75197361  0.75438389  0.89366674  1
  Ca2+  Ca18  1  0.25190936  0.25052785  0.08545581  1
  Ca2+  Ca19  1  0.26039430  0.24775886  0.39935654  1
  Ca2+  Ca20  1  0.25794224  0.23858733  0.78216627  1
  Ca2+  Ca21  1  0.25430346  0.75954897  0.08302856  1
  Ca2+  Ca22  1  0.26795394  0.74831946  0.43110883  1
  Ca2+  Ca23  1  0.22914677  0.74213636  0.73737598  1
  Ca2+  Ca24  1  0.55028523  0.23081953  0.06668186  1
  Ca2+  Ca25  1  0.57350312  0.26023404  0.41925291  1
  Ca2+  Ca26  1  0.58357896  0.23987964  0.76806278  1
  Ca2+  Ca27  1  0.59579592  0.76231856  0.08224259  1
  Ca2+  Ca28  1  0.57445726  0.76363531  0.41700971  1
  Ca2+  Ca29  1  0.60258549  0.75337010  0.75077848  1
  Ca2+  Ca30  1  0.95183747  0.24307631  0.07011990  1
  Ca2+  Ca31  1  0.91524991  0.25906532  0.42737519  1
  Ca2+  Ca32  1  0.90504222  0.24293268  0.74911411  1
  Ca2+  Ca33  1  0.89785698  0.75218772  0.08959698  1
  Ca2+  Ca34  1  0.91062348  0.75799165  0.42508557  1
  Ca2+  Ca35  1  0.91390772  0.73553928  0.73570814  1
  Ca2+  Ca36  1  0.42774168  0.07565517  0.59247011  1
  Ca2+  Ca37  1  0.39935353  0.59755304  0.89508448  1
  Ca2+  Ca38  1  0.88610751  0.10353658  0.76026292  1
  Ca2+  Ca39  1  0.40114890  0.10774138  0.23246476  1
  Ca2+  Ca40  1  0.41211261  0.59604751  0.89643153  1
  Ca2+  Ca41  1  0.70618633  0.10652852  0.89323749  1
  Ca2+  Ca42  1  0.95090453  0.10436770  0.07170238  1
  Ca2+  Ca43  1  0.58830932  0.59001475  0.07664415  1
  Ca2+  Ca44  1  0.26224136  0.08699375  0.40746135  1
  Ca2+  Ca45  1  0.24379776  0.11794943  0.08690567  1
  Ca2+  Ca46  1  0.41141038  0.10652499  0.23409994  1
  Ca2+  Ca47  1  0.74491295  0.07871945  0.25143614  1
  Ca2+  Ca48  1  0.25822558  0.59757529  0.42887110  1
  Ca2+  Ca49  1  0.39441168  0.58944571  0.28022391  1
  Ca2+  Ca50  1  0.42425327  0.09878577  0.91174476  1
  Ca2+  Ca51  1  0.60069831  0.58951899  0.07789529  1
  Ca2+  Ca52  1  0.40689613  0.60601272  0.57435107  1
  Ca2+  Ca53  1  0.59388705  0.58811620  0.73355565  1
  Ca2+  Ca54  1  0.77375664  0.59108696  0.25298038  1
  Ca2+  Ca55  1  0.22824926  0.58274123  0.07357759  1
  Ca2+  Ca56  1  0.92272179  0.09598039  0.42730775  1
  Ca2+  Ca57  1  0.08941216  0.11297153  0.91169253  1
  Ca2+  Ca58  1  0.75037101  0.60332635  0.89231756  1
  Ca2+  Ca59  1  0.41797525  0.07936468  0.59433878  1
  Ca2+  Ca60  1  0.76190406  0.58861459  0.25650002  1
  Ca2+  Ca61  1  0.25149577  0.11356396  0.08322479  1
  Ca2+  Ca62  1  0.08102787  0.11567566  0.91632226  1
  Ca2+  Ca63  1  0.24988063  0.08908215  0.40510622  1
  Ca2+  Ca64  1  0.75818494  0.07878945  0.25165768  1
  Ca2+  Ca65  1  0.40620312  0.58979552  0.28180904  1
  Ca2+  Ca66  1  0.93156927  0.58130694  0.41521967  1
  Ca2+  Ca67  1  0.09955912  0.11242078  0.23576726  1
  Ca2+  Ca68  1  0.24074737  0.58419641  0.07359346  1
  Ca2+  Ca69  1  0.76413044  0.59052319  0.60917065  1
  Ca2+  Ca70  1  0.56371234  0.08552031  0.05408291  1
  Ca2+  Ca71  1  0.06299888  0.08077608  0.60431287  1
  Ca2+  Ca72  1  0.08153214  0.41016624  0.25750672  1
  Ca2+  Ca73  1  0.90464168  0.91973673  0.72652204  1
  Ca2+  Ca74  1  0.76173579  0.39843788  0.24943951  1
  Ca2+  Ca75  1  0.74835818  0.91262485  0.27075656  1
  Ca2+  Ca76  1  0.07517325  0.41033077  0.58120262  1
  Ca2+  Ca77  1  0.91619295  0.40891263  0.73742022  1
  Ca2+  Ca78  1  0.43069479  0.91686520  0.91061355  1
  Ca2+  Ca79  1  0.06942129  0.40409269  0.91668105  1
  Ca2+  Ca80  1  0.76115163  0.39154701  0.91205266  1
  Ca2+  Ca81  1  0.91581918  0.91033455  0.08318020  1
  Ca2+  Ca82  1  0.41385861  0.90850133  0.25730845  1
  Ca2+  Ca83  1  0.24946159  0.92140666  0.72732400  1
  Ca2+  Ca84  1  0.08719594  0.90057137  0.25141183  1
  Ca2+  Ca85  1  0.91508603  0.91952482  0.72794298  1
  Ca2+  Ca86  1  0.24420896  0.40550231  0.41454080  1
  Ca2+  Ca87  1  0.08654997  0.90375163  0.91532436  1
  Ca2+  Ca88  1  0.58247262  0.40907836  0.72104450  1
  Ca2+  Ca89  1  0.24692752  0.90722546  0.07587855  1
  Ca2+  Ca90  1  0.42140334  0.91127583  0.58236724  1
  Ca2+  Ca91  1  0.58157643  0.38798635  0.08823078  1
  Ca2+  Ca92  1  0.74881472  0.39946745  0.25015478  1
  Ca2+  Ca93  1  0.59118889  0.91715347  0.07658512  1
  Ca2+  Ca94  1  0.92870306  0.91027138  0.08286964  1
  Ca2+  Ca95  1  0.23582547  0.40411524  0.09066890  1
  Ca2+  Ca96  1  0.74448652  0.40221546  0.58456572  1
  Ca2+  Ca97  1  0.26348803  0.40667495  0.74933917  1
  Ca2+  Ca98  1  0.23525991  0.40833647  0.41827869  1
  Ca2+  Ca99  1  0.41091974  0.91107145  0.58191970  1
  Ca2+  Ca100  1  0.25388410  0.40981352  0.74573553  1
  Ca2+  Ca101  1  0.41823768  0.91940882  0.91092890  1
  Ca2+  Ca102  1  0.73348815  0.91664551  0.90740431  1
  Ca2+  Ca103  1  0.07938652  0.90788055  0.58654794  1
  Ca2+  Ca104  1  0.59018310  0.38513937  0.08307675  1
  Ca2+  Ca105  1  0.08205114  0.40342182  0.91721212  1
  Ca2+  Ca106  1  0.58008902  0.91739142  0.07771258  1
  Ca2+  Ca107  1  0.25615546  0.90433694  0.42332928  1
  Mn3.34+  Mn108  1  0.08087456  0.33496208  0.08990589  1
  Mn3.34+  Mn109  1  0.07564668  0.33776424  0.41742481  1
  Mn3.34+  Mn110  1  0.08235973  0.33128875  0.75007655  1
  Mn3.34+  Mn111  1  0.08431394  0.82627972  0.08313748  1
  Mn3.34+  Mn112  1  0.08306913  0.83029886  0.42131770  1
  Mn3.34+  Mn113  1  0.08435059  0.83565392  0.74886369  1
  Mn3.34+  Mn114  1  0.41128624  0.33033269  0.07911680  1
  Mn3.34+  Mn115  1  0.41663268  0.33229219  0.41652927  1
  Mn3.34+  Mn116  1  0.42053076  0.33271577  0.74955918  1
  Mn3.34+  Mn117  1  0.41443877  0.83601950  0.08841188  1
  Mn3.34+  Mn118  1  0.42074334  0.83489949  0.41858590  1
  Mn3.34+  Mn119  1  0.41965507  0.82947952  0.74763165  1
  Mn3.34+  Mn120  1  0.76120685  0.32214486  0.08312798  1
  Mn3.34+  Mn121  1  0.74702018  0.33139965  0.42303334  1
  Mn3.34+  Mn122  1  0.74887133  0.33297471  0.75148662  1
  Mn3.34+  Mn123  1  0.75113365  0.83814024  0.08291975  1
  Mn3.34+  Mn124  1  0.74723192  0.83369085  0.42441274  1
  Mn3.34+  Mn125  1  0.74777984  0.83565371  0.74460318  1
  Mn3.34+  Mn126  1  0.25264127  0.33472813  0.24802277  1
  Mn3.34+  Mn127  1  0.24838954  0.33283454  0.58056561  1
  Mn3.34+  Mn128  1  0.25652619  0.33486492  0.91882344  1
  Mn3.34+  Mn129  1  0.24855777  0.83058534  0.25054236  1
  Mn3.34+  Mn130  1  0.24744526  0.83578289  0.58172673  1
  Mn3.34+  Mn131  1  0.25260894  0.83222273  0.90755500  1
  Mn3.34+  Mn132  1  0.57574180  0.32859222  0.25662743  1
  Mn3.34+  Mn133  1  0.58035429  0.33743425  0.57808424  1
  Mn3.34+  Mn134  1  0.58014857  0.32528637  0.91019875  1
  Mn3.34+  Mn135  1  0.58512559  0.84084329  0.25297097  1
  Mn3.34+  Mn136  1  0.58982135  0.84239952  0.58142049  1
  Mn3.34+  Mn137  1  0.58441051  0.83764618  0.90984107  1
  Mn3.34+  Mn138  1  0.92273753  0.32937093  0.25046909  1
  Mn3.34+  Mn139  1  0.91506801  0.33390493  0.58114554  1
  Mn3.34+  Mn140  1  0.91731326  0.32357045  0.91288190  1
  Mn3.34+  Mn141  1  0.91652522  0.83487605  0.25643512  1
  Mn3.34+  Mn142  1  0.91560236  0.83911751  0.57548834  1
  Mn3.34+  Mn143  1  0.91465852  0.83809968  0.90976827  1
  Mn3.34+  Mn144  1  0.24333383  0.67017311  0.24941512  1
  Mn3.34+  Mn145  1  0.58333376  0.16504841  0.24994624  1
  Mn3.34+  Mn146  1  0.57946097  0.66845350  0.25696869  1
  Mn3.34+  Mn147  1  0.58044028  0.16557964  0.58998499  1
  Mn3.34+  Mn148  1  0.91871421  0.66754192  0.24989775  1
  Mn3.34+  Mn149  1  0.74926533  0.17962287  0.08408110  1
  Mn3.34+  Mn150  1  0.75300124  0.16512529  0.42114332  1
  Mn3.34+  Mn151  1  0.92117356  0.16865742  0.24727707  1
  Mn3.34+  Mn152  1  0.41947995  0.67333559  0.08388017  1
  Mn3.34+  Mn153  1  0.25235434  0.16751916  0.58688731  1
  Mn3.34+  Mn154  1  0.75636305  0.66991493  0.07950974  1
  Mn3.34+  Mn155  1  0.91456391  0.66504897  0.91183462  1
  Mn3.34+  Mn156  1  0.92433600  0.66046429  0.90830532  1
  Mn3.34+  Mn157  1  0.24169086  0.16239322  0.58554367  1
  Mn3.34+  Mn158  1  0.74198004  0.15848306  0.42227309  1
  Mn3.34+  Mn159  1  0.58535971  0.67091980  0.90972172  1
  Mn3.34+  Mn160  1  0.08085217  0.17103621  0.41924073  1
  Mn3.34+  Mn161  1  0.59269562  0.66628956  0.57261171  1
  Mn3.34+  Mn162  1  0.08675269  0.65727412  0.42010120  1
  Mn3.34+  Mn163  1  0.91727439  0.66399823  0.58736245  1
  Mn3.34+  Mn164  1  0.76012715  0.17101608  0.08640234  1
  Mn3.34+  Mn165  1  0.40883388  0.66845595  0.08644791  1
  Mn3.34+  Mn166  1  0.08165305  0.67358487  0.08450703  1
  Mn3.34+  Mn167  1  0.07788451  0.66321315  0.41896555  1
  Mn3.34+  Mn168  1  0.42335516  0.16546250  0.41881903  1
  Mn3.34+  Mn169  1  0.41715256  0.16587179  0.75883319  1
  Mn3.34+  Mn170  1  0.24633275  0.66694692  0.58840064  1
  Mn3.34+  Mn171  1  0.91523948  0.16513618  0.58517567  1
  Mn3.34+  Mn172  1  0.57940075  0.66230902  0.57574812  1
  Mn3.34+  Mn173  1  0.59012014  0.16005716  0.59050187  1
  Mn3.34+  Mn174  1  0.07248024  0.66795945  0.08667667  1
  Mn3.34+  Mn175  1  0.59287588  0.66186466  0.25680641  1
  Mn3.34+  Mn176  1  0.07616962  0.17088559  0.75070670  1
  Mn3.34+  Mn177  1  0.75669580  0.66969096  0.42467884  1
  Mn3.34+  Mn178  1  0.41528814  0.67360022  0.74643935  1
  Mn3.34+  Mn179  1  0.24374935  0.67162788  0.90824607  1
  Mn3.34+  Mn180  1  0.78544605  0.50074685  0.07062659  1
  Mn3.34+  Mn181  1  0.74683003  0.49939495  0.42435293  1
  Mn3.34+  Mn182  1  0.43912290  0.00177606  0.40053553  1
  Mn3.34+  Mn183  1  0.23404699  0.50338484  0.91691745  1
  Mn3.34+  Mn184  1  0.77254219  0.49926859  0.07476696  1
  Mn3.34+  Mn185  1  0.73520727  0.50465881  0.42343903  1
  Mn3.34+  Mn186  1  0.40516534  -0.00343490  0.08285972  1
  Mn3.34+  Mn187  1  0.25272682  -0.00471185  0.25423820  1
  Mn3.34+  Mn188  1  0.07936052  0.50625629  0.74051371  1
  Mn3.34+  Mn189  1  0.91792325  0.00392708  0.92190689  1
  Mn3.34+  Mn190  1  0.57664559  0.49353284  0.89835783  1
  Mn3.34+  Mn191  1  0.40631632  0.49598554  0.08900476  1
  Mn3.34+  Mn192  1  0.41984188  0.49802736  0.73506573  1
  Mn3.34+  Mn193  1  0.41802031  0.49357690  0.09192109  1
  Mn3.34+  Mn194  1  0.75046310  -0.00510733  0.42193916  1
  Mn3.34+  Mn195  1  0.74419618  0.00020866  0.72120187  1
  Mn3.34+  Mn196  1  0.75227169  0.00345186  0.07780584  1
  Mn3.34+  Mn197  1  0.92812705  0.49965407  0.25193641  1
  Mn3.34+  Mn198  1  0.58240305  0.49794752  0.90706029  1
  Mn3.34+  Mn199  1  0.24166836  0.50333460  0.59273292  1
  Mn3.34+  Mn200  1  0.09164534  0.00282296  0.74196131  1
  Mn3.34+  Mn201  1  0.74906946  0.49654551  0.73661713  1
  Mn3.34+  Mn202  1  0.09306425  -0.00421117  0.08260013  1
  Mn3.34+  Mn203  1  0.92267050  0.49708634  0.90816318  1
  Mn3.34+  Mn204  1  0.92161109  0.50038802  0.58404339  1
  Mn3.34+  Mn205  1  0.06182148  0.50030396  0.08192206  1
  Mn3.34+  Mn206  1  0.07969233  -0.00216601  0.42105033  1
  Mn3.34+  Mn207  1  0.92099961  0.00346212  0.24800292  1
  Mn3.34+  Mn208  1  0.57625559  0.00575188  0.26536924  1
  Mn3.34+  Mn209  1  0.44033586  0.49353130  0.42826855  1
  Mn3.34+  Mn210  1  0.06916938  0.00174925  0.42411206  1
  Mn3.34+  Mn211  1  0.42298186  0.00078276  0.73846989  1
  Mn3.34+  Mn212  1  0.23515708  0.50276944  0.26335303  1
  Mn3.34+  Mn213  1  0.57816810  0.49308149  0.25063646  1
  Mn3.34+  Mn214  1  0.43180756  0.49973108  0.43127112  1
  Mn3.34+  Mn215  1  0.24433270  -0.00131108  0.91177862  1
  O2-  O216  1  0.00749006  0.17001362  -0.00965825  1
  O2-  O217  1  -0.00047004  0.16705424  0.33440457  1
  O2-  O218  1  0.00304109  0.16522615  0.66043439  1
  O2-  O219  1  0.00166041  0.66483484  -0.00620244  1
  O2-  O220  1  0.00231454  0.65452011  0.33102759  1
  O2-  O221  1  -0.00394330  0.66258876  0.65972911  1
  O2-  O222  1  0.34069736  0.15390473  -0.00293616  1
  O2-  O223  1  0.33878848  0.15056908  0.34032055  1
  O2-  O224  1  0.33654977  0.14404473  0.66216285  1
  O2-  O225  1  0.32756482  0.66007582  -0.00209862  1
  O2-  O226  1  0.32489071  0.66199902  0.32935352  1
  O2-  O227  1  0.33790202  0.67317477  0.66405884  1
  O2-  O228  1  0.66997761  0.16333599  0.00678435  1
  O2-  O229  1  0.67723554  0.14721454  0.32533041  1
  O2-  O230  1  0.66842075  0.17569457  0.66700158  1
  O2-  O231  1  0.66448562  0.64734318  -0.00373715  1
  O2-  O232  1  0.67910734  0.64937709  0.33440095  1
  O2-  O233  1  0.66694363  0.66366296  0.65912695  1
  O2-  O234  1  0.17090880  0.16345442  -0.00223807  1
  O2-  O235  1  0.16814056  0.15681540  0.34629260  1
  O2-  O236  1  0.15963200  0.16607327  0.66607120  1
  O2-  O237  1  0.17407815  0.66806911  0.00586715  1
  O2-  O238  1  0.16750070  0.66085506  0.33519999  1
  O2-  O239  1  0.16735620  0.66494051  0.66164637  1
  O2-  O240  1  0.49074312  0.15857521  -0.00369029  1
  O2-  O241  1  0.50145542  0.14647528  0.33028856  1
  O2-  O242  1  0.49505207  0.15231274  0.66655224  1
  O2-  O243  1  0.49524362  0.64005685  -0.00554625  1
  O2-  O244  1  0.49308634  0.65509010  0.32721726  1
  O2-  O245  1  0.50644189  0.67503895  0.66754780  1
  O2-  O246  1  0.84059386  0.17437142  0.00767564  1
  O2-  O247  1  0.83380680  0.15535963  0.32719358  1
  O2-  O248  1  0.83780947  0.16779984  0.66382256  1
  O2-  O249  1  0.83886943  0.65242565  -0.00552994  1
  O2-  O250  1  0.83894180  0.64501540  0.34182445  1
  O2-  O251  1  0.83392502  0.66487103  0.65810623  1
  O2-  O252  1  0.00234446  0.33472297  -0.00448389  1
  O2-  O253  1  0.00302316  0.31010773  0.33393197  1
  O2-  O254  1  0.00108407  0.33814225  0.66737172  1
  O2-  O255  1  -0.00003635  0.84672592  -0.00097911  1
  O2-  O256  1  0.00663310  0.84064681  0.32925438  1
  O2-  O257  1  -0.00028137  0.84936600  0.67260730  1
  O2-  O258  1  0.32912297  0.35530229  0.00463163  1
  O2-  O259  1  0.32448226  0.34771126  0.33916440  1
  O2-  O260  1  0.33145242  0.34810811  0.66334725  1
  O2-  O261  1  0.33451839  0.84402087  -0.00401578  1
  O2-  O262  1  0.33196781  0.84151592  0.33512773  1
  O2-  O263  1  0.33783221  0.84547152  0.66450784  1
  O2-  O264  1  0.67431337  0.33843428  0.00459914  1
  O2-  O265  1  0.67214041  0.34365783  0.32963224  1
  O2-  O266  1  0.67027684  0.32991340  0.66679822  1
  O2-  O267  1  0.66396549  0.85307583  0.00185152  1
  O2-  O268  1  0.66921030  0.83591366  0.33092137  1
  O2-  O269  1  0.66432140  0.82512716  0.66437397  1
  O2-  O270  1  0.16241966  0.34875892  -0.00147865  1
  O2-  O271  1  0.16257185  0.34307989  0.33306574  1
  O2-  O272  1  0.16550264  0.34832085  0.66758172  1
  O2-  O273  1  0.17184203  0.82583876  0.00025023  1
  O2-  O274  1  0.16659408  0.83424236  0.33218979  1
  O2-  O275  1  0.16697121  0.85022321  0.66520448  1
  O2-  O276  1  0.50370386  0.33650101  0.00061131  1
  O2-  O277  1  0.49455904  0.33775458  0.33280794  1
  O2-  O278  1  0.49846902  0.34090467  0.66381142  1
  O2-  O279  1  0.49885168  0.85348666  -0.00074953  1
  O2-  O280  1  0.49525925  0.84430049  0.32907755  1
  O2-  O281  1  0.49766594  0.81507164  0.66216093  1
  O2-  O282  1  0.83483915  0.31011438  -0.00549921  1
  O2-  O283  1  0.83213534  0.33163543  0.33084437  1
  O2-  O284  1  0.83224806  0.34038232  0.66827518  1
  O2-  O285  1  0.83452294  0.85495158  0.00025977  1
  O2-  O286  1  0.83083655  0.84426750  0.33039284  1
  O2-  O287  1  0.83565947  0.84376486  0.66887247  1
  O2-  O288  1  0.00002450  0.17769933  0.17135106  1
  O2-  O289  1  -0.00212490  0.18872961  0.49471643  1
  O2-  O290  1  -0.00820736  0.18223413  0.82088445  1
  O2-  O291  1  -0.00656785  0.69347093  0.16397498  1
  O2-  O292  1  -0.00639085  0.67514715  0.49461074  1
  O2-  O293  1  -0.00353094  0.67851871  0.82941548  1
  O2-  O294  1  0.33499957  0.17409601  0.16553814  1
  O2-  O295  1  0.32584836  0.17740192  0.49470497  1
  O2-  O296  1  0.34115010  0.17131427  0.83586934  1
  O2-  O297  1  0.33393093  0.68943862  0.17613543  1
  O2-  O298  1  0.32707863  0.67568684  0.50579197  1
  O2-  O299  1  0.33989019  0.68458455  0.83988817  1
  O2-  O300  1  0.67075803  0.18673885  0.16785861  1
  O2-  O301  1  0.65930547  0.18019683  0.50170955  1
  O2-  O302  1  0.68477988  0.18542460  0.82021783  1
  O2-  O303  1  0.66454500  0.67291015  0.16560895  1
  O2-  O304  1  0.66680289  0.69201568  0.49884081  1
  O2-  O305  1  0.66376245  0.67918029  0.83549963  1
  O2-  O306  1  0.17508166  0.17312517  0.16278001  1
  O2-  O307  1  0.16540692  0.18676139  0.50229298  1
  O2-  O308  1  0.15041080  0.18555492  0.83284025  1
  O2-  O309  1  0.16888897  0.68972460  0.16444091  1
  O2-  O310  1  0.17090216  0.67406689  0.49615015  1
  O2-  O311  1  0.16969604  0.69268618  0.83809998  1
  O2-  O312  1  0.50197822  0.17236242  0.17484487  1
  O2-  O313  1  0.49332166  0.17496344  0.51072013  1
  O2-  O314  1  0.49648566  0.17594019  0.83097041  1
  O2-  O315  1  0.51470766  0.67268633  0.15558419  1
  O2-  O316  1  0.49915751  0.68554181  0.50564630  1
  O2-  O317  1  0.49349425  0.68183283  0.83677500  1
  O2-  O318  1  0.83373609  0.19501324  0.16913343  1
  O2-  O319  1  0.83611394  0.17938483  0.49635764  1
  O2-  O320  1  0.81689957  0.17956548  0.83099926  1
  O2-  O321  1  0.82364724  0.67838582  0.18046668  1
  O2-  O322  1  0.83537703  0.68359795  0.49881428  1
  O2-  O323  1  0.83099171  0.67739835  0.83701210  1
  O2-  O324  1  0.00400959  0.31572207  0.17202241  1
  O2-  O325  1  0.00182941  0.32097303  0.50270698  1
  O2-  O326  1  0.00529687  0.31356996  0.83576115  1
  O2-  O327  1  -0.00512041  0.81804114  0.16046277  1
  O2-  O328  1  0.00820212  0.82176182  0.50737718  1
  O2-  O329  1  0.00184939  0.83007424  0.83264011  1
  O2-  O330  1  0.33188766  0.32977595  0.16319676  1
  O2-  O331  1  0.32328444  0.32174555  0.49176527  1
  O2-  O332  1  0.32525323  0.32950962  0.82350603  1
  O2-  O333  1  0.33486908  0.81189090  0.17365779  1
  O2-  O334  1  0.33724847  0.82607548  0.50269244  1
  O2-  O335  1  0.33668715  0.80931120  0.83100735  1
  O2-  O336  1  0.67219464  0.32114603  0.16403636  1
  O2-  O337  1  0.66695480  0.31651492  0.50342597  1
  O2-  O338  1  0.67162017  0.31910655  0.83525669  1
  O2-  O339  1  0.66701936  0.82975529  0.16333409  1
  O2-  O340  1  0.66495529  0.81294262  0.50321053  1
  O2-  O341  1  0.67099353  0.82957864  0.83663438  1
  O2-  O342  1  0.17139898  0.32643944  0.16483977  1
  O2-  O343  1  0.16489961  0.31372452  0.49432910  1
  O2-  O344  1  0.16558619  0.32384758  0.83213462  1
  O2-  O345  1  0.16405089  0.80948101  0.16948768  1
  O2-  O346  1  0.17494951  0.82448792  0.49398047  1
  O2-  O347  1  0.16561253  0.82491525  0.83343139  1
  O2-  O348  1  0.50811245  0.31750445  0.15783995  1
  O2-  O349  1  0.49645408  0.32256177  0.49800346  1
  O2-  O350  1  0.50689153  0.32529602  0.82369364  1
  O2-  O351  1  0.50688666  0.83293788  0.15987714  1
  O2-  O352  1  0.49771336  0.82245531  0.50552939  1
  O2-  O353  1  0.49828750  0.81937016  0.83416811  1
  O2-  O354  1  0.82904468  0.31623152  0.17643007  1
  O2-  O355  1  0.82686225  0.32051559  0.50591397  1
  O2-  O356  1  0.83366375  0.31248145  0.83129378  1
  O2-  O357  1  0.83676493  0.82863566  0.16283410  1
  O2-  O358  1  0.83158560  0.82181483  0.50119730  1
  O2-  O359  1  0.83000064  0.83647093  0.83308871  1
  O2-  O360  1  0.09549803  0.07480943  0.10614801  1
  O2-  O361  1  0.08255048  0.08167028  0.46172479  1
  O2-  O362  1  0.08225040  0.07925171  0.77652412  1
  O2-  O363  1  0.10054716  0.58287334  0.11530534  1
  O2-  O364  1  0.08323445  0.57822914  0.43979554  1
  O2-  O365  1  0.09050458  0.56838651  0.79143959  1
  O2-  O366  1  0.41521920  0.07430930  0.10395502  1
  O2-  O367  1  0.40187366  0.07717180  0.45736563  1
  O2-  O368  1  0.42091815  0.07754938  0.77029113  1
  O2-  O369  1  0.41761860  0.57907432  0.12951026  1
  O2-  O370  1  0.40856380  0.58015139  0.44210835  1
  O2-  O371  1  0.42189497  0.58110920  0.76558019  1
  O2-  O372  1  0.75396120  0.08460331  0.11342432  1
  O2-  O373  1  0.76820340  0.07844591  0.44233413  1
  O2-  O374  1  0.75663250  0.05510992  0.79175008  1
  O2-  O375  1  0.73409873  0.57318378  0.12415320  1
  O2-  O376  1  0.74571842  0.58435188  0.45984562  1
  O2-  O377  1  0.73338992  0.57055509  0.77028509  1
  O2-  O378  1  0.26562538  0.07478129  0.22159840  1
  O2-  O379  1  0.24890089  0.08146013  0.54362923  1
  O2-  O380  1  0.21674252  0.07451852  0.90759084  1
  O2-  O381  1  0.26986735  0.57697194  0.20481074  1
  O2-  O382  1  0.26389435  0.58234228  0.56430845  1
  O2-  O383  1  0.26391008  0.58495375  0.89523495  1
  O2-  O384  1  0.60444776  0.08014494  0.21153760  1
  O2-  O385  1  0.56824071  0.08142387  0.56528230  1
  O2-  O386  1  0.57041682  0.08060199  0.91789373  1
  O2-  O387  1  0.58176246  0.57740856  0.21104839  1
  O2-  O388  1  0.56901873  0.58001368  0.57008584  1
  O2-  O389  1  0.57165423  0.58158184  0.87821604  1
  O2-  O390  1  0.89584881  0.08184271  0.20732185  1
  O2-  O391  1  0.93115307  0.08621506  0.56002357  1
  O2-  O392  1  0.94361837  0.07761842  0.89265375  1
  O2-  O393  1  0.90539763  0.57927790  0.21689430  1
  O2-  O394  1  0.90314201  0.57938200  0.55181779  1
  O2-  O395  1  0.90334835  0.57813548  0.88995524  1
  O2-  O396  1  0.08201337  0.41927433  0.11844540  1
  O2-  O397  1  0.09843922  0.41568413  0.44532324  1
  O2-  O398  1  0.07399037  0.42964946  0.78792574  1
  O2-  O399  1  0.07521515  0.91659848  0.11528963  1
  O2-  O400  1  0.09322121  0.91613040  0.44035354  1
  O2-  O401  1  0.09314052  0.92565284  0.78088943  1
  O2-  O402  1  0.44599347  0.41400160  0.10545717  1
  O2-  O403  1  0.40133163  0.41572927  0.44094521  1
  O2-  O404  1  0.40768138  0.42006275  0.77488433  1
  O2-  O405  1  0.39536972  0.91818167  0.11945256  1
  O2-  O406  1  0.41176492  0.92124404  0.44476882  1
  O2-  O407  1  0.41199557  0.92223988  0.77651503  1
  O2-  O408  1  0.74370303  0.42026752  0.11190225  1
  O2-  O409  1  0.74801705  0.41761180  0.43840682  1
  O2-  O410  1  0.75702531  0.42375429  0.78329795  1
  O2-  O411  1  0.75493898  0.92441383  0.11778444  1
  O2-  O412  1  0.73982130  0.91542962  0.42622309  1
  O2-  O413  1  0.76149398  0.92924414  0.77093752  1
  O2-  O414  1  0.23797867  0.42335736  0.22687252  1
  O2-  O415  1  0.23598648  0.42237141  0.55094709  1
  O2-  O416  1  0.22255540  0.42136663  0.88437215  1
  O2-  O417  1  0.23905836  0.91700493  0.21635413  1
  O2-  O418  1  0.26812571  0.91760724  0.56077077  1
  O2-  O419  1  0.27152188  0.92127994  0.87449159  1
  O2-  O420  1  0.60705092  0.41453706  0.21497431  1
  O2-  O421  1  0.60100787  0.41498378  0.57547154  1
  O2-  O422  1  0.60218012  0.41192923  0.91065935  1
  O2-  O423  1  0.58454168  0.92911667  0.21629053  1
  O2-  O424  1  0.55626052  0.91700037  0.56939926  1
  O2-  O425  1  0.57105408  0.91929169  0.89715400  1
  O2-  O426  1  0.89782164  0.42042804  0.22897108  1
  O2-  O427  1  0.92132669  0.41782355  0.56288914  1
  O2-  O428  1  0.92490013  0.41486170  0.88147114  1
  O2-  O429  1  0.92927922  0.92043508  0.21889888  1
  O2-  O430  1  0.92991276  0.91922191  0.58032279  1
  O2-  O431  1  0.92693611  0.92817202  0.87750329  1
  O2-  O432  1  -0.00548929  -0.00673876  0.01671146  1
  O2-  O433  1  -0.00478979  0.01735394  0.33688124  1
  O2-  O434  1  -0.00185081  -0.00281293  0.68384904  1
  O2-  O435  1  0.02447235  0.48962739  -0.03407144  1
  O2-  O436  1  0.01237829  0.49427775  0.31570115  1
  O2-  O437  1  -0.00106058  0.48754581  0.67013870  1
  O2-  O438  1  0.34221743  -0.00699654  -0.01954601  1
  O2-  O439  1  0.31738086  0.00165955  0.35610094  1
  O2-  O440  1  0.34237851  -0.00224174  0.65799770  1
  O2-  O441  1  0.33996675  0.51956199  -0.00099072  1
  O2-  O442  1  0.33713409  0.51222416  0.33939044  1
  O2-  O443  1  0.32136583  0.49107368  0.67945706  1
  O2-  O444  1  0.65512616  -0.00444007  0.02109649  1
  O2-  O445  1  0.67869322  0.00397648  0.31578344  1
  O2-  O446  1  0.66887661  0.00110400  0.65794490  1
  O2-  O447  1  0.66223865  0.51684397  0.00293912  1
  O2-  O448  1  0.68553647  0.50678287  0.31035645  1
  O2-  O449  1  0.66752743  0.49502339  0.67203489  1
  O2-  O450  1  0.16951115  -0.02711010  -0.00263006  1
  O2-  O451  1  0.16330885  0.01053928  0.33697574  1
  O2-  O452  1  0.15739837  -0.00567619  0.65904960  1
  O2-  O453  1  0.18788166  0.49777792  0.03389428  1
  O2-  O454  1  0.18279630  0.48939920  0.35791454  1
  O2-  O455  1  0.16516395  0.47892770  0.67873392  1
  O2-  O456  1  0.49769198  -0.01613663  0.02086026  1
  O2-  O457  1  0.45984319  0.00985672  0.27336610  1
  O2-  O458  1  0.49019462  -0.00426363  0.65078684  1
  O2-  O459  1  0.50669527  0.51224802  0.00732424  1
  O2-  O460  1  0.49726381  0.51475909  0.32945505  1
  O2-  O461  1  0.52746896  0.49971041  0.71540332  1
  O2-  O462  1  0.83962119  -0.01329084  0.00432854  1
  O2-  O463  1  0.82760802  0.00576469  0.32151892  1
  O2-  O464  1  0.84058236  0.00419138  0.67952771  1
  O2-  O465  1  0.81527283  0.48555034  -0.03838366  1
  O2-  O466  1  0.83828064  0.51433811  0.34164048  1
  O2-  O467  1  0.82475323  0.49374845  0.65404775  1
  O2-  O468  1  0.92023445  0.75172918  0.59805449  1
  O2-  O469  1  0.91027195  0.75114615  0.27775418  1
  O2-  O470  1  0.07586705  0.74495194  0.40024917  1
  O2-  O471  1  0.40909613  0.24915110  0.72806517  1
  O2-  O472  1  0.25537618  0.25632813  0.26410553  1
  O2-  O473  1  0.41826061  0.75578029  0.40390954  1
  O2-  O474  1  0.08004315  0.75738579  0.73446310  1
  O2-  O475  1  0.09501479  0.25710592  0.07390453  1
  O2-  O476  1  0.58298419  0.24924755  0.92893068  1
  O2-  O477  1  0.91368259  0.25253631  0.60034150  1
  O2-  O478  1  0.58956284  0.24539753  0.28113462  1
  O2-  O479  1  0.26109531  0.24847730  0.61363260  1
  O2-  O480  1  0.25880369  0.25715539  0.93654105  1
  O2-  O481  1  0.91126996  0.75039382  0.93661636  1
  O2-  O482  1  0.43172565  0.75563186  0.05368347  1
  O2-  O483  1  0.40621401  0.25300808  0.06767027  1
  O2-  O484  1  0.58280953  0.75138133  0.94428317  1
  O2-  O485  1  0.24578375  0.75289175  0.59695586  1
  O2-  O486  1  0.41502450  0.24890892  0.39373502  1
  O2-  O487  1  0.57067069  0.24762348  0.59770548  1
  O2-  O488  1  0.58001503  0.75151201  0.26404444  1
  O2-  O489  1  0.75739463  0.74871652  0.39039733  1
  O2-  O490  1  0.74802165  0.75700703  0.05806419  1
  O2-  O491  1  0.75521404  0.75669801  0.74387381  1
  O2-  O492  1  0.73897531  0.24574168  0.39630075  1
