# generated using pymatgen
data_Ca108Mn108O277
_symmetry_space_group_name_H-M   'P 1'
_cell_length_a   16.03087002
_cell_length_b   22.31094342
_cell_length_c   16.39262560
_cell_angle_alpha   90.00477127
_cell_angle_beta   89.99469715
_cell_angle_gamma   89.99742177
_symmetry_Int_Tables_number   1
_chemical_formula_structural   Ca108Mn108O277
_chemical_formula_sum   'Ca108 Mn108 O277'
_cell_volume   5863.04927046
_cell_formula_units_Z   1
loop_
 _symmetry_equiv_pos_site_id
 _symmetry_equiv_pos_as_xyz
  1  'x, y, z'
loop_
 _atom_type_symbol
 _atom_type_oxidation_number
  Ca2+  2.0
  Mn3.34+  3.34
  O2-  -2.0
loop_
 _atom_site_type_symbol
 _atom_site_label
 _atom_site_symmetry_multiplicity
 _atom_site_fract_x
 _atom_site_fract_y
 _atom_site_fract_z
 _atom_site_occupancy
  Ca2+  Ca0  1  0.10220294  0.25238917  0.25371476  1
  Ca2+  Ca1  1  0.08729210  0.25944530  0.58483349  1
  Ca2+  Ca2  1  0.09082481  0.25201330  0.90311466  1
  Ca2+  Ca3  1  0.09711724  0.75188412  0.25337519  1
  Ca2+  Ca4  1  0.10161600  0.75122819  0.57576730  1
  Ca2+  Ca5  1  0.08347579  0.74448542  0.91082061  1
  Ca2+  Ca6  1  0.40318173  0.25439478  0.25403302  1
  Ca2+  Ca7  1  0.42113041  0.26009707  0.58217612  1
  Ca2+  Ca8  1  0.40534916  0.24862856  0.91602141  1
  Ca2+  Ca9  1  0.43575280  0.71735379  0.26612769  1
  Ca2+  Ca10  1  0.42880221  0.71622924  0.58461136  1
  Ca2+  Ca11  1  0.42405574  0.74391135  0.89764421  1
  Ca2+  Ca12  1  0.75262039  0.26656359  0.24374048  1
  Ca2+  Ca13  1  0.74001802  0.26321608  0.58737385  1
  Ca2+  Ca14  1  0.76296530  0.25656117  0.91744504  1
  Ca2+  Ca15  1  0.72801038  0.75601168  0.25303316  1
  Ca2+  Ca16  1  0.71053454  0.73897248  0.59558690  1
  Ca2+  Ca17  1  0.74547870  0.74194362  0.91513517  1
  Ca2+  Ca18  1  0.25445501  0.24971854  0.09729266  1
  Ca2+  Ca19  1  0.25244875  0.25520942  0.40427203  1
  Ca2+  Ca20  1  0.24800755  0.25950905  0.75491448  1
  Ca2+  Ca21  1  0.24659750  0.75533111  0.08674111  1
  Ca2+  Ca22  1  0.28015703  0.73900246  0.41442927  1
  Ca2+  Ca23  1  0.27901094  0.73884509  0.74108761  1
  Ca2+  Ca24  1  0.57246919  0.24522156  0.09441669  1
  Ca2+  Ca25  1  0.56908019  0.26773106  0.41696951  1
  Ca2+  Ca26  1  0.57347886  0.27204895  0.74244024  1
  Ca2+  Ca27  1  0.57896476  0.75462170  0.09039025  1
  Ca2+  Ca28  1  0.56280224  0.73814358  0.42098004  1
  Ca2+  Ca29  1  0.56959857  0.72721645  0.74115310  1
  Ca2+  Ca30  1  0.91895534  0.25288318  0.08346578  1
  Ca2+  Ca31  1  0.93433675  0.25550500  0.41184911  1
  Ca2+  Ca32  1  0.92543693  0.26212405  0.75590835  1
  Ca2+  Ca33  1  0.91546559  0.75041786  0.07794909  1
  Ca2+  Ca34  1  0.91915334  0.76053730  0.42111352  1
  Ca2+  Ca35  1  0.90866347  0.75510850  0.75606257  1
  Ca2+  Ca36  1  0.93140392  0.09281096  0.08425059  1
  Ca2+  Ca37  1  0.73064478  0.07214492  0.25095606  1
  Ca2+  Ca38  1  0.11219944  0.11037510  0.24199910  1
  Ca2+  Ca39  1  0.56341731  0.08721149  0.40266640  1
  Ca2+  Ca40  1  0.77530409  0.07611227  0.59066436  1
  Ca2+  Ca41  1  0.39199584  0.11724537  0.23516150  1
  Ca2+  Ca42  1  0.76308800  0.07842562  0.59256095  1
  Ca2+  Ca43  1  0.93827956  0.08400156  0.72933284  1
  Ca2+  Ca44  1  0.56711698  0.61371110  0.06454757  1
  Ca2+  Ca45  1  0.08386592  0.09786943  0.59164448  1
  Ca2+  Ca46  1  0.90816745  0.59325479  0.76536724  1
  Ca2+  Ca47  1  0.56444904  0.08719465  0.74930506  1
  Ca2+  Ca48  1  0.12254577  0.57128486  0.59502826  1
  Ca2+  Ca49  1  0.40250238  0.09830589  0.58137847  1
  Ca2+  Ca50  1  0.27547348  0.58345375  0.08462558  1
  Ca2+  Ca51  1  0.56965313  0.08120719  0.40404149  1
  Ca2+  Ca52  1  0.57775428  0.08757619  0.74941837  1
  Ca2+  Ca53  1  0.26617879  0.11974599  0.09574063  1
  Ca2+  Ca54  1  0.74299627  0.07394105  0.25251272  1
  Ca2+  Ca55  1  0.24811726  0.10410651  0.75401351  1
  Ca2+  Ca56  1  0.26467446  0.58181011  0.08419278  1
  Ca2+  Ca57  1  0.54807263  0.58219286  0.41624355  1
  Ca2+  Ca58  1  0.41383551  0.10437734  0.92627057  1
  Ca2+  Ca59  1  0.28807902  0.58627762  0.74038863  1
  Ca2+  Ca60  1  0.90741286  0.58724409  0.05960861  1
  Ca2+  Ca61  1  0.92096568  0.59322461  0.76441506  1
  Ca2+  Ca62  1  0.09244371  0.09640906  0.91331976  1
  Ca2+  Ca63  1  0.73090139  0.59973733  0.24438687  1
  Ca2+  Ca64  1  0.43509571  0.60752052  0.88900315  1
  Ca2+  Ca65  1  0.57625073  0.61515614  0.06930820  1
  Ca2+  Ca66  1  0.25105122  0.10300598  0.40953225  1
  Ca2+  Ca67  1  0.28797543  0.58323465  0.41278127  1
  Ca2+  Ca68  1  0.71982134  0.59686066  0.23960374  1
  Ca2+  Ca69  1  0.91121203  0.57921484  0.40922837  1
  Ca2+  Ca70  1  0.56135869  0.10274440  0.09266706  1
  Ca2+  Ca71  1  0.11072394  0.57378579  0.59799789  1
  Ca2+  Ca72  1  0.08043665  0.39806222  0.90967640  1
  Ca2+  Ca73  1  0.41453492  0.89482201  0.91389437  1
  Ca2+  Ca74  1  0.39312124  0.42950491  0.29095278  1
  Ca2+  Ca75  1  0.07601702  0.90365001  0.24930791  1
  Ca2+  Ca76  1  0.91888341  0.40114546  0.42061762  1
  Ca2+  Ca77  1  0.07191807  0.91172469  0.59283212  1
  Ca2+  Ca78  1  0.74314849  0.40612058  0.58015765  1
  Ca2+  Ca79  1  0.42269212  0.90682922  0.24745756  1
  Ca2+  Ca80  1  0.25254306  0.42265949  0.72666972  1
  Ca2+  Ca81  1  0.92184353  0.91081056  0.74189437  1
  Ca2+  Ca82  1  0.59569004  0.91718821  0.40695271  1
  Ca2+  Ca83  1  0.40634265  0.42861818  0.57701015  1
  Ca2+  Ca84  1  0.25224643  0.90120728  0.42136760  1
  Ca2+  Ca85  1  0.57268279  0.90270693  0.75710235  1
  Ca2+  Ca86  1  0.08528597  0.90673052  0.91208586  1
  Ca2+  Ca87  1  0.75574038  0.40322918  0.91885894  1
  Ca2+  Ca88  1  0.57129047  0.40095720  0.08555929  1
  Ca2+  Ca89  1  0.41388284  0.90242728  0.24982371  1
  Ca2+  Ca90  1  0.76411047  0.90758646  0.58264423  1
  Ca2+  Ca91  1  0.40506578  0.90551168  0.58486731  1
  Ca2+  Ca92  1  0.92925389  0.40104677  0.07709316  1
  Ca2+  Ca93  1  0.62144569  0.91704285  0.11216251  1
  Ca2+  Ca94  1  0.42086453  0.41366129  0.90129677  1
  Ca2+  Ca95  1  0.11559792  0.41704925  0.25946900  1
  Ca2+  Ca96  1  0.91409177  0.90519691  0.41354962  1
  Ca2+  Ca97  1  0.58401037  0.40122904  0.08586660  1
  Ca2+  Ca98  1  0.09771229  0.90720609  0.91103343  1
  Ca2+  Ca99  1  0.24629792  0.90439366  0.07759011  1
  Ca2+  Ca100  1  0.58538433  0.90149565  0.75633823  1
  Ca2+  Ca101  1  0.25084587  0.40767342  0.08738517  1
  Ca2+  Ca102  1  0.88768376  0.90850892  0.09101791  1
  Ca2+  Ca103  1  0.08478315  0.91148979  0.59232596  1
  Ca2+  Ca104  1  0.75291762  0.90632097  0.58256939  1
  Ca2+  Ca105  1  0.89932273  0.91105355  0.08742981  1
  Ca2+  Ca106  1  0.58443357  0.91643451  0.40746110  1
  Ca2+  Ca107  1  0.40814523  0.41255498  0.90457604  1
  Mn3.34+  Mn108  1  0.08727194  0.33403300  0.08725030  1
  Mn3.34+  Mn109  1  0.08890841  0.33668277  0.41980728  1
  Mn3.34+  Mn110  1  0.08328396  0.33753612  0.74143342  1
  Mn3.34+  Mn111  1  0.07947003  0.83394130  0.08518028  1
  Mn3.34+  Mn112  1  0.08644484  0.83297713  0.41532899  1
  Mn3.34+  Mn113  1  0.08925568  0.82829274  0.75177194  1
  Mn3.34+  Mn114  1  0.41381167  0.33067141  0.08676108  1
  Mn3.34+  Mn115  1  0.41219156  0.34174856  0.42077700  1
  Mn3.34+  Mn116  1  0.41323662  0.33632650  0.74224490  1
  Mn3.34+  Mn117  1  0.41684353  0.82576466  0.08260143  1
  Mn3.34+  Mn118  1  0.41529118  0.83312488  0.42096651  1
  Mn3.34+  Mn119  1  0.41383291  0.83078301  0.74645893  1
  Mn3.34+  Mn120  1  0.75210508  0.33106213  0.08542487  1
  Mn3.34+  Mn121  1  0.75046352  0.33849372  0.41729056  1
  Mn3.34+  Mn122  1  0.74983705  0.33718603  0.74971943  1
  Mn3.34+  Mn123  1  0.74544944  0.82955975  0.08524105  1
  Mn3.34+  Mn124  1  0.74899141  0.83178034  0.41323988  1
  Mn3.34+  Mn125  1  0.74894934  0.83042602  0.75486479  1
  Mn3.34+  Mn126  1  0.25350246  0.33563163  0.25073132  1
  Mn3.34+  Mn127  1  0.24853641  0.34439903  0.57458569  1
  Mn3.34+  Mn128  1  0.24916093  0.33513360  0.91342191  1
  Mn3.34+  Mn129  1  0.24964619  0.83021958  0.24934501  1
  Mn3.34+  Mn130  1  0.25272144  0.83040307  0.58581774  1
  Mn3.34+  Mn131  1  0.25275745  0.82631877  0.91317537  1
  Mn3.34+  Mn132  1  0.58065644  0.33491374  0.25821011  1
  Mn3.34+  Mn133  1  0.57915096  0.34164515  0.58005781  1
  Mn3.34+  Mn134  1  0.58312806  0.33217576  0.91058565  1
  Mn3.34+  Mn135  1  0.58125466  0.83234837  0.25097882  1
  Mn3.34+  Mn136  1  0.57985110  0.83304464  0.57900557  1
  Mn3.34+  Mn137  1  0.58701281  0.82534996  0.91836559  1
  Mn3.34+  Mn138  1  0.92242431  0.33130669  0.24897245  1
  Mn3.34+  Mn139  1  0.91716711  0.33742342  0.58163536  1
  Mn3.34+  Mn140  1  0.91970220  0.33271616  0.91451553  1
  Mn3.34+  Mn141  1  0.91257407  0.82962815  0.24851893  1
  Mn3.34+  Mn142  1  0.91768201  0.83255041  0.58264366  1
  Mn3.34+  Mn143  1  0.91191767  0.83606661  0.91372540  1
  Mn3.34+  Mn144  1  0.25095122  0.16962611  0.91717224  1
  Mn3.34+  Mn145  1  0.41500146  0.17054209  0.74982904  1
  Mn3.34+  Mn146  1  0.24969069  0.17046230  0.58061389  1
  Mn3.34+  Mn147  1  0.91311497  0.66793278  0.24643945  1
  Mn3.34+  Mn148  1  0.08343200  0.17272572  0.41955543  1
  Mn3.34+  Mn149  1  0.08478346  0.17134813  0.74984860  1
  Mn3.34+  Mn150  1  0.41071925  0.67727968  0.08027218  1
  Mn3.34+  Mn151  1  0.74694496  0.16281500  0.07820054  1
  Mn3.34+  Mn152  1  0.74408466  0.17007891  0.75507829  1
  Mn3.34+  Mn153  1  0.75076061  0.67731869  0.08402153  1
  Mn3.34+  Mn154  1  0.08917714  0.66573802  0.08418830  1
  Mn3.34+  Mn155  1  0.73597955  0.65686217  0.42482703  1
  Mn3.34+  Mn156  1  0.07515719  0.66000667  0.08681373  1
  Mn3.34+  Mn157  1  0.26077536  0.66097520  0.57768305  1
  Mn3.34+  Mn158  1  0.09103574  0.66164127  0.75710863  1
  Mn3.34+  Mn159  1  0.57942161  0.17279951  0.91643679  1
  Mn3.34+  Mn160  1  0.41347006  0.17318477  0.41850130  1
  Mn3.34+  Mn161  1  0.75710710  0.16379539  0.75773316  1
  Mn3.34+  Mn162  1  0.76193395  0.17304130  0.41649762  1
  Mn3.34+  Mn163  1  0.92159420  0.16719882  0.91286116  1
  Mn3.34+  Mn164  1  0.57925360  0.16798300  0.24900587  1
  Mn3.34+  Mn165  1  0.07923422  0.66076476  0.41134957  1
  Mn3.34+  Mn166  1  0.74648049  0.66370085  0.42296308  1
  Mn3.34+  Mn167  1  0.75750804  0.15809860  0.08012801  1
  Mn3.34+  Mn168  1  0.24992364  0.66466100  0.90977448  1
  Mn3.34+  Mn169  1  0.73755820  0.66814027  0.75786393  1
  Mn3.34+  Mn170  1  0.92259134  0.16596116  0.24999934  1
  Mn3.34+  Mn171  1  0.91997020  0.66632493  0.58388572  1
  Mn3.34+  Mn172  1  0.91663561  0.67092833  0.91691949  1
  Mn3.34+  Mn173  1  0.90645242  0.66036346  0.58112987  1
  Mn3.34+  Mn174  1  0.58380253  0.16989467  0.57715751  1
  Mn3.34+  Mn175  1  0.25569986  0.66163736  0.24906679  1
  Mn3.34+  Mn176  1  0.75221890  0.17840433  0.41450496  1
  Mn3.34+  Mn177  1  0.92193027  0.16697762  0.57762968  1
  Mn3.34+  Mn178  1  0.08293484  0.16919334  0.08072923  1
  Mn3.34+  Mn179  1  0.09292806  0.65423496  0.41377795  1
  Mn3.34+  Mn180  1  0.09116209  0.00145883  0.07730072  1
  Mn3.34+  Mn181  1  0.75773244  -0.00168368  0.75639210  1
  Mn3.34+  Mn182  1  0.91413480  0.49608243  0.25099193  1
  Mn3.34+  Mn183  1  0.42341088  0.00312248  0.08125516  1
  Mn3.34+  Mn184  1  0.77034382  0.00602769  0.41675157  1
  Mn3.34+  Mn185  1  0.75504309  0.50143848  0.08622024  1
  Mn3.34+  Mn186  1  0.24307666  0.50382012  0.92251983  1
  Mn3.34+  Mn187  1  0.73221564  0.50838005  0.74838925  1
  Mn3.34+  Mn188  1  0.42413573  0.49912007  0.09201657  1
  Mn3.34+  Mn189  1  0.89108629  0.00211982  0.92532535  1
  Mn3.34+  Mn190  1  0.08835332  0.00107718  0.74448559  1
  Mn3.34+  Mn191  1  0.08230219  0.49882791  0.75194462  1
  Mn3.34+  Mn192  1  0.91923860  0.00207559  0.24839922  1
  Mn3.34+  Mn193  1  0.07514253  0.01200086  0.41267183  1
  Mn3.34+  Mn194  1  0.74103189  0.50264854  0.75063969  1
  Mn3.34+  Mn195  1  0.08237823  0.50055368  0.08598356  1
  Mn3.34+  Mn196  1  0.90265096  0.00948861  0.92369311  1
  Mn3.34+  Mn197  1  0.73397010  0.49748177  0.41325028  1
  Mn3.34+  Mn198  1  0.57460286  0.49942289  0.26044916  1
  Mn3.34+  Mn199  1  0.57516004  0.49736628  0.59768812  1
  Mn3.34+  Mn200  1  0.92499787  0.49876191  0.92280311  1
  Mn3.34+  Mn201  1  0.40853781  -0.00243897  0.08167576  1
  Mn3.34+  Mn202  1  0.57037937  0.00402614  0.59016627  1
  Mn3.34+  Mn203  1  0.40037131  -0.00162933  0.75055380  1
  Mn3.34+  Mn204  1  0.25265189  -0.00128618  0.24477174  1
  Mn3.34+  Mn205  1  0.60393662  -0.00054912  0.93502462  1
  Mn3.34+  Mn206  1  0.08512262  0.00655392  0.41491316  1
  Mn3.34+  Mn207  1  0.61696405  0.00147750  0.93870969  1
  Mn3.34+  Mn208  1  0.57802121  0.50377308  0.91834785  1
  Mn3.34+  Mn209  1  0.91399225  0.49773016  0.59204515  1
  Mn3.34+  Mn210  1  0.25253984  -0.00253538  0.90621501  1
  Mn3.34+  Mn211  1  0.92658868  0.50329382  0.25008462  1
  Mn3.34+  Mn212  1  0.25149059  0.00202007  0.58775044  1
  Mn3.34+  Mn213  1  0.39862243  0.00154447  0.41665991  1
  Mn3.34+  Mn214  1  0.09869292  0.49460572  0.40936986  1
  Mn3.34+  Mn215  1  0.74355099  0.49786302  0.08508411  1
  O2-  O216  1  0.00372956  0.15542506  -0.00573182  1
  O2-  O217  1  0.00511143  0.15195540  0.33002249  1
  O2-  O218  1  -0.00121503  0.16453381  0.66820669  1
  O2-  O219  1  -0.00089900  0.65345869  0.00127120  1
  O2-  O220  1  -0.01352384  0.65676706  0.34170596  1
  O2-  O221  1  0.00373663  0.65190574  0.66879844  1
  O2-  O222  1  0.33242129  0.16860341  -0.00797820  1
  O2-  O223  1  0.33367634  0.16354352  0.34409376  1
  O2-  O224  1  0.32985265  0.15787002  0.66933805  1
  O2-  O225  1  0.32701394  0.65254496  -0.00010158  1
  O2-  O226  1  0.32964335  0.66137141  0.32834620  1
  O2-  O227  1  0.33182008  0.66103143  0.66042190  1
  O2-  O228  1  0.65818438  0.15707348  0.00313007  1
  O2-  O229  1  0.66369756  0.14891055  0.34055882  1
  O2-  O230  1  0.67081859  0.14352750  0.66108071  1
  O2-  O231  1  0.66329541  0.68354189  0.01143840  1
  O2-  O232  1  0.66053909  0.64999798  0.33819159  1
  O2-  O233  1  0.66749686  0.66144213  0.67628984  1
  O2-  O234  1  0.16674061  0.15996761  -0.00286924  1
  O2-  O235  1  0.16441233  0.16095558  0.34423874  1
  O2-  O236  1  0.16676580  0.16138594  0.66506656  1
  O2-  O237  1  0.16825044  0.64157659  0.00515458  1
  O2-  O238  1  0.16378351  0.64947977  0.32401667  1
  O2-  O239  1  0.16457070  0.65215669  0.66593940  1
  O2-  O240  1  0.50056617  0.18154155  -0.00556100  1
  O2-  O241  1  0.49511005  0.14989741  0.33042146  1
  O2-  O242  1  0.49851603  0.14500615  0.66560496  1
  O2-  O243  1  0.48908765  0.68442388  -0.00183962  1
  O2-  O244  1  0.50700654  0.65990426  0.34713860  1
  O2-  O245  1  0.49616388  0.65312202  0.67573730  1
  O2-  O246  1  0.83887642  0.14490544  -0.00391290  1
  O2-  O247  1  0.82296548  0.14975541  0.32120654  1
  O2-  O248  1  0.83212945  0.15502651  0.66217346  1
  O2-  O249  1  0.83659201  0.67242245  0.00562337  1
  O2-  O250  1  0.81952140  0.64688445  0.33114743  1
  O2-  O251  1  0.83812537  0.64791660  0.67387832  1
  O2-  O252  1  0.00509923  0.33245583  0.00149586  1
  O2-  O253  1  0.00436977  0.34880735  0.33079631  1
  O2-  O254  1  -0.00421084  0.31955834  0.66177691  1
  O2-  O255  1  -0.00627384  0.86222274  -0.00084939  1
  O2-  O256  1  -0.00140306  0.83702268  0.33314661  1
  O2-  O257  1  0.00187235  0.84113297  0.66877265  1
  O2-  O258  1  0.34156366  0.34584108  -0.00664102  1
  O2-  O259  1  0.33615345  0.33818606  0.33006022  1
  O2-  O260  1  0.32632759  0.32824709  0.66339402  1
  O2-  O261  1  0.33003856  0.84201122  0.00288653  1
  O2-  O262  1  0.33505100  0.84935242  0.33204315  1
  O2-  O263  1  0.33217608  0.84456375  0.66630399  1
  O2-  O264  1  0.66430185  0.34204732  -0.00164570  1
  O2-  O265  1  0.67288140  0.32171831  0.33690618  1
  O2-  O266  1  0.66662448  0.34423705  0.66454575  1
  O2-  O267  1  0.66833358  0.81290670  -0.00000191  1
  O2-  O268  1  0.66611720  0.85361207  0.33031619  1
  O2-  O269  1  0.66772884  0.84732860  0.66153146  1
  O2-  O270  1  0.16901020  0.34557171  -0.00031133  1
  O2-  O271  1  0.16682767  0.34121370  0.33151793  1
  O2-  O272  1  0.17225520  0.33201461  0.66158331  1
  O2-  O273  1  0.16158010  0.84770033  -0.00037411  1
  O2-  O274  1  0.16644540  0.85423923  0.33079242  1
  O2-  O275  1  0.15892135  0.83904253  0.65992964  1
  O2-  O276  1  0.50179827  0.32875104  0.00267112  1
  O2-  O277  1  0.49654646  0.34588649  0.33365486  1
  O2-  O278  1  0.49298052  0.34903761  0.66107206  1
  O2-  O279  1  0.49690910  0.82103858  -0.00392472  1
  O2-  O280  1  0.49883034  0.85475692  0.33749967  1
  O2-  O281  1  0.50194223  0.85722758  0.66312985  1
  O2-  O282  1  0.83421494  0.34439199  0.00017938  1
  O2-  O283  1  0.83798825  0.33296589  0.33798950  1
  O2-  O284  1  0.83213641  0.33068376  0.65949424  1
  O2-  O285  1  0.83526366  0.83646254  0.00984449  1
  O2-  O286  1  0.83931119  0.83003703  0.33829094  1
  O2-  O287  1  0.83441205  0.85080498  0.66922689  1
  O2-  O288  1  -0.00258391  0.18053661  0.16087039  1
  O2-  O289  1  0.00557953  0.18981098  0.50724888  1
  O2-  O290  1  0.00467816  0.18129197  0.83264617  1
  O2-  O291  1  0.00102578  0.69023620  0.16655758  1
  O2-  O292  1  0.00044730  0.68076707  0.50088059  1
  O2-  O293  1  -0.00196929  0.68414295  0.82363735  1
  O2-  O294  1  0.34030309  0.19006272  0.16167652  1
  O2-  O295  1  0.34065804  0.18483284  0.50873553  1
  O2-  O296  1  0.33130948  0.17941934  0.83062343  1
  O2-  O297  1  0.32719668  0.68591059  0.15928811  1
  O2-  O298  1  0.33124039  0.67094500  0.49756415  1
  O2-  O299  1  0.33401476  0.67618662  0.83850337  1
  O2-  O300  1  0.67044913  0.17902910  0.17052296  1
  O2-  O301  1  0.67446742  0.19543692  0.49728403  1
  O2-  O302  1  0.65791337  0.18069919  0.83130669  1
  O2-  O303  1  0.66543305  0.67003230  0.16470909  1
  O2-  O304  1  0.65951863  0.67559857  0.50116426  1
  O2-  O305  1  0.66706568  0.68883962  0.83328583  1
  O2-  O306  1  0.16130110  0.18467230  0.15694502  1
  O2-  O307  1  0.17002692  0.18953963  0.50175723  1
  O2-  O308  1  0.16781644  0.17355346  0.83103360  1
  O2-  O309  1  0.16749780  0.68250223  0.16363139  1
  O2-  O310  1  0.16138752  0.67239301  0.50422429  1
  O2-  O311  1  0.17148309  0.69016184  0.82812416  1
  O2-  O312  1  0.50363041  0.17567251  0.17056921  1
  O2-  O313  1  0.50875455  0.17543816  0.48933018  1
  O2-  O314  1  0.50026379  0.18194697  0.83023983  1
  O2-  O315  1  0.50129580  0.68083090  0.15083638  1
  O2-  O316  1  0.49766403  0.66362540  0.48631019  1
  O2-  O317  1  0.50271022  0.67945181  0.83285171  1
  O2-  O318  1  0.83590206  0.18180256  0.16098097  1
  O2-  O319  1  0.83923723  0.19298863  0.50032663  1
  O2-  O320  1  0.83839326  0.18513623  0.83374946  1
  O2-  O321  1  0.82288578  0.69353930  0.17458242  1
  O2-  O322  1  0.83875364  0.68588644  0.48739311  1
  O2-  O323  1  0.84029556  0.68061257  0.83103487  1
  O2-  O324  1  0.00399869  0.31097250  0.16339103  1
  O2-  O325  1  -0.00234145  0.32210456  0.49702072  1
  O2-  O326  1  0.00492848  0.32299179  0.83794681  1
  O2-  O327  1  -0.00360485  0.81727031  0.16568525  1
  O2-  O328  1  0.00291283  0.82034642  0.50331470  1
  O2-  O329  1  0.00646584  0.82200694  0.83323666  1
  O2-  O330  1  0.33068799  0.32092144  0.16099219  1
  O2-  O331  1  0.33049113  0.31720886  0.50232848  1
  O2-  O332  1  0.33476100  0.32078508  0.83513581  1
  O2-  O333  1  0.33334237  0.81993751  0.16582320  1
  O2-  O334  1  0.32853826  0.82521362  0.49754974  1
  O2-  O335  1  0.33887579  0.81733889  0.83732591  1
  O2-  O336  1  0.66022151  0.32106560  0.15891660  1
  O2-  O337  1  0.66852122  0.32424533  0.50148631  1
  O2-  O338  1  0.66840102  0.31211539  0.83915378  1
  O2-  O339  1  0.65978878  0.81885997  0.16337084  1
  O2-  O340  1  0.67193505  0.82582081  0.50424630  1
  O2-  O341  1  0.65872905  0.81660943  0.82536898  1
  O2-  O342  1  0.16969692  0.32111184  0.16449245  1
  O2-  O343  1  0.16933845  0.31777158  0.49921549  1
  O2-  O344  1  0.16729514  0.32821301  0.83610299  1
  O2-  O345  1  0.16641038  0.82174129  0.16764833  1
  O2-  O346  1  0.16292506  0.83156533  0.50367259  1
  O2-  O347  1  0.16178461  0.81757207  0.84123953  1
  O2-  O348  1  0.50115760  0.31635593  0.16080235  1
  O2-  O349  1  0.49409104  0.32672731  0.50316927  1
  O2-  O350  1  0.49088067  0.32118137  0.83988533  1
  O2-  O351  1  0.49250128  0.81917836  0.17348282  1
  O2-  O352  1  0.50919126  0.83709852  0.48959211  1
  O2-  O353  1  0.50395016  0.82337104  0.83217336  1
  O2-  O354  1  0.83998970  0.32139810  0.16077332  1
  O2-  O355  1  0.83398291  0.31081300  0.49702917  1
  O2-  O356  1  0.83299496  0.32332828  0.83694260  1
  O2-  O357  1  0.83355266  0.81228721  0.16507690  1
  O2-  O358  1  0.83386669  0.82761905  0.50161724  1
  O2-  O359  1  0.83505326  0.82430083  0.83037689  1
  O2-  O360  1  0.07897790  0.08017396  0.11027451  1
  O2-  O361  1  0.08971977  0.08910192  0.45716658  1
  O2-  O362  1  0.08509080  0.08405573  0.76729058  1
  O2-  O363  1  0.07631595  0.58072200  0.12283680  1
  O2-  O364  1  0.07598422  0.57223732  0.46011549  1
  O2-  O365  1  0.05630743  0.57594211  0.78612248  1
  O2-  O366  1  0.41512052  0.08414738  0.09917128  1
  O2-  O367  1  0.41581104  0.08361406  0.44367363  1
  O2-  O368  1  0.42363270  0.08290985  0.78507500  1
  O2-  O369  1  0.42340823  0.58292681  0.09535313  1
  O2-  O370  1  0.41709216  0.56351570  0.43376914  1
  O2-  O371  1  0.41269016  0.55230345  0.77936440  1
  O2-  O372  1  0.75434102  0.07952823  0.11903307  1
  O2-  O373  1  0.75390859  0.08790633  0.45987938  1
  O2-  O374  1  0.74266367  0.08301982  0.78498035  1
  O2-  O375  1  0.76492725  0.58432341  0.10860084  1
  O2-  O376  1  0.76506620  0.57946933  0.45688044  1
  O2-  O377  1  0.75866800  0.58448412  0.79396326  1
  O2-  O378  1  0.25168977  0.07802366  0.22043351  1
  O2-  O379  1  0.25017081  0.08027499  0.54877336  1
  O2-  O380  1  0.25216656  0.08169445  0.89170982  1
  O2-  O381  1  0.25957538  0.58359300  0.21473072  1
  O2-  O382  1  0.24501506  0.57834115  0.55281048  1
  O2-  O383  1  0.24984244  0.58302431  0.88059196  1
  O2-  O384  1  0.59598093  0.08163753  0.22827643  1
  O2-  O385  1  0.59433580  0.08221567  0.53844446  1
  O2-  O386  1  0.57667705  0.07727738  0.88415387  1
  O2-  O387  1  0.61303481  0.55255844  0.17305729  1
  O2-  O388  1  0.58775148  0.55759658  0.54264603  1
  O2-  O389  1  0.57041424  0.58330137  0.93521646  1
  O2-  O390  1  0.90495572  0.08198973  0.21671155  1
  O2-  O391  1  0.91074216  0.08211448  0.56947562  1
  O2-  O392  1  0.92588163  0.07934596  0.87110082  1
  O2-  O393  1  0.89915672  0.57865033  0.20405789  1
  O2-  O394  1  0.91863268  0.58081364  0.54529691  1
  O2-  O395  1  0.91612761  0.58263206  0.89854161  1
  O2-  O396  1  0.08235667  0.42149581  0.11710346  1
  O2-  O397  1  0.07305232  0.41965920  0.44128889  1
  O2-  O398  1  0.09762866  0.41947618  0.77280271  1
  O2-  O399  1  0.08253306  0.92238586  0.11604436  1
  O2-  O400  1  0.07205605  0.92740699  0.45885751  1
  O2-  O401  1  0.08441303  0.91999804  0.77794730  1
  O2-  O402  1  0.43208677  0.41798257  0.11339232  1
  O2-  O403  1  0.40330165  0.41891183  0.43666600  1
  O2-  O404  1  0.40118714  0.41562137  0.76885137  1
  O2-  O405  1  0.41719894  0.91706950  0.10916794  1
  O2-  O406  1  0.40261468  0.92111680  0.44853645  1
  O2-  O407  1  0.43242926  0.91709811  0.78288644  1
  O2-  O408  1  0.73592569  0.41578414  0.10767354  1
  O2-  O409  1  0.76950388  0.41986419  0.44556138  1
  O2-  O410  1  0.74235957  0.42290802  0.78753226  1
  O2-  O411  1  0.75804889  0.91316447  0.11559062  1
  O2-  O412  1  0.75248077  0.92304415  0.44772889  1
  O2-  O413  1  0.72528838  0.91596938  0.77026131  1
  O2-  O414  1  0.25462942  0.41762363  0.22177043  1
  O2-  O415  1  0.26258584  0.42108226  0.58069486  1
  O2-  O416  1  0.26479868  0.42007262  0.89178931  1
  O2-  O417  1  0.26010085  0.91746994  0.21484358  1
  O2-  O418  1  0.24042148  0.92057807  0.56051965  1
  O2-  O419  1  0.24101266  0.91402111  0.88890870  1
  O2-  O420  1  0.57726438  0.42142556  0.21772179  1
  O2-  O421  1  0.58660159  0.42963087  0.54661781  1
  O2-  O422  1  0.56274873  0.42160019  0.89192882  1
  O2-  O423  1  0.55770932  0.92276650  0.23006669  1
  O2-  O424  1  0.60147862  0.92470523  0.54796165  1
  O2-  O425  1  0.58268951  0.92174017  0.89130132  1
  O2-  O426  1  0.92779809  0.41820905  0.21436767  1
  O2-  O427  1  0.89297703  0.41902053  0.55536393  1
  O2-  O428  1  0.92854075  0.41683451  0.90422455  1
  O2-  O429  1  0.92644663  0.91976741  0.21904618  1
  O2-  O430  1  0.92380974  0.91552450  0.55730414  1
  O2-  O431  1  0.92631099  0.92701309  0.87759528  1
  O2-  O432  1  0.00328973  0.00169021  -0.01111536  1
  O2-  O433  1  -0.00195127  -0.01623953  0.33302249  1
  O2-  O434  1  -0.01107827  -0.00885487  0.68750802  1
  O2-  O435  1  -0.01662479  0.49806150  0.02805144  1
  O2-  O436  1  0.00019595  0.50492876  0.34237358  1
  O2-  O437  1  0.01580042  0.51431261  0.65303518  1
  O2-  O438  1  0.32973174  -0.00562957  -0.00389579  1
  O2-  O439  1  0.35794073  -0.00900519  0.30337353  1
  O2-  O440  1  0.35871209  0.00436860  0.63397144  1
  O2-  O441  1  0.33832802  0.49845036  0.00723589  1
  O2-  O442  1  0.33622343  0.51067649  0.33797107  1
  O2-  O443  1  0.33603208  0.49935462  0.68621922  1
  O2-  O444  1  0.64237870  0.00540937  0.04814307  1
  O2-  O445  1  0.65938474  0.01411844  0.36141809  1
  O2-  O446  1  0.66534273  0.02212726  0.66915041  1
  O2-  O447  1  0.66042852  0.48747860  0.00362738  1
  O2-  O448  1  0.66116935  0.52961311  0.32617769  1
  O2-  O449  1  0.67325338  0.49086881  0.64967243  1
  O2-  O450  1  0.15779072  -0.01090706  -0.02064338  1
  O2-  O451  1  0.17663856  0.00239455  0.33918060  1
  O2-  O452  1  0.14166322  0.00182971  0.63195551  1
  O2-  O453  1  0.18804927  0.50369665  0.03800240  1
  O2-  O454  1  0.17637357  0.49833275  0.33906926  1
  O2-  O455  1  0.17794235  0.51638460  0.69339620  1
  O2-  O456  1  0.49099915  0.00364565  -0.01656812  1
  O2-  O457  1  0.51066502  -0.00479630  0.37763779  1
  O2-  O458  1  0.52043854  -0.00039521  0.70515571  1
  O2-  O459  1  0.50223389  0.48295579  0.00671345  1
  O2-  O460  1  0.49138736  0.50339258  0.32767733  1
  O2-  O461  1  0.48971860  0.49489900  0.65098357  1
  O2-  O462  1  0.85056009  -0.00385820  0.03264258  1
  O2-  O463  1  0.81623314  0.00212510  0.30466701  1
  O2-  O464  1  0.81225632  -0.00900660  0.64251108  1
  O2-  O465  1  0.82737001  0.49889045  -0.00585436  1
  O2-  O466  1  0.83274284  0.50969785  0.33426737  1
  O2-  O467  1  0.84981441  0.51345608  0.69663304  1
  O2-  O468  1  0.24454255  0.74677913  0.94806569  1
  O2-  O469  1  0.57804907  0.25066775  0.60753968  1
  O2-  O470  1  0.08961709  0.74487291  0.39769126  1
  O2-  O471  1  0.93023655  0.75236910  0.93885982  1
  O2-  O472  1  0.24345940  0.25275911  0.93106289  1
  O2-  O473  1  0.74095033  0.74418108  0.39317686  1
  O2-  O474  1  0.75440394  0.24540706  0.05675116  1
  O2-  O475  1  0.23988124  0.75061364  0.27779060  1
  O2-  O476  1  0.07912996  0.25313462  0.39139587  1
  O2-  O477  1  0.42246959  0.75335384  0.72479414  1
  O2-  O478  1  0.74810241  0.24832886  0.72537338  1
  O2-  O479  1  0.09270212  0.25178720  0.74063659  1
  O2-  O480  1  0.42426828  0.25242800  0.39697754  1
  O2-  O481  1  0.58228493  0.24780041  0.27399840  1
  O2-  O482  1  0.91187881  0.24914704  0.94078017  1
  O2-  O483  1  0.56929640  0.75481515  0.59788810  1
  O2-  O484  1  0.25018659  0.25441966  0.26508677  1
  O2-  O485  1  0.58433639  0.75573744  0.27939786  1
  O2-  O486  1  0.24364535  0.74813551  0.59803191  1
  O2-  O487  1  0.42342825  0.25022519  0.72380664  1
  O2-  O488  1  0.91123539  0.24659963  0.27430991  1
  O2-  O489  1  0.91208423  0.74773608  0.60752638  1
  O2-  O490  1  0.42049401  0.75563987  0.40021719  1
  O2-  O491  1  0.08431513  0.74728165  0.05076252  1
  O2-  O492  1  0.76271873  0.75043872  0.72470229  1
