# generated using pymatgen
data_Ca108Mn108O277
_symmetry_space_group_name_H-M   'P 1'
_cell_length_a   16.02987876
_cell_length_b   22.30833237
_cell_length_c   16.39070274
_cell_angle_alpha   89.99890446
_cell_angle_beta   90.00092599
_cell_angle_gamma   90.00177282
_symmetry_Int_Tables_number   1
_chemical_formula_structural   Ca108Mn108O277
_chemical_formula_sum   'Ca108 Mn108 O277'
_cell_volume   5861.31305454
_cell_formula_units_Z   1
loop_
 _symmetry_equiv_pos_site_id
 _symmetry_equiv_pos_as_xyz
  1  'x, y, z'
loop_
 _atom_type_symbol
 _atom_type_oxidation_number
  Ca2+  2.0
  Mn3.34+  3.34
  O2-  -2.0
loop_
 _atom_site_type_symbol
 _atom_site_label
 _atom_site_symmetry_multiplicity
 _atom_site_fract_x
 _atom_site_fract_y
 _atom_site_fract_z
 _atom_site_occupancy
  Ca2+  Ca0  1  0.09233640  0.26395124  0.22849305  1
  Ca2+  Ca1  1  0.08586606  0.24951182  0.58675523  1
  Ca2+  Ca2  1  0.09042522  0.25676765  0.93590672  1
  Ca2+  Ca3  1  0.09372621  0.75905217  0.23354513  1
  Ca2+  Ca4  1  0.08090622  0.74215571  0.59557207  1
  Ca2+  Ca5  1  0.07477936  0.75348540  0.91543973  1
  Ca2+  Ca6  1  0.43212809  0.24404950  0.23483549  1
  Ca2+  Ca7  1  0.43382301  0.24848003  0.58060566  1
  Ca2+  Ca8  1  0.43164493  0.24412972  0.92905160  1
  Ca2+  Ca9  1  0.42566641  0.74077005  0.22665559  1
  Ca2+  Ca10  1  0.42768362  0.74841360  0.57240643  1
  Ca2+  Ca11  1  0.42260476  0.74184097  0.93823372  1
  Ca2+  Ca12  1  0.73171843  0.25083071  0.25950446  1
  Ca2+  Ca13  1  0.72260254  0.24118362  0.58412067  1
  Ca2+  Ca14  1  0.72590853  0.24968574  0.91277694  1
  Ca2+  Ca15  1  0.73386698  0.75592171  0.25429292  1
  Ca2+  Ca16  1  0.74368685  0.74895464  0.58434242  1
  Ca2+  Ca17  1  0.75480369  0.75117455  0.91141671  1
  Ca2+  Ca18  1  0.25243238  0.25437403  0.07533547  1
  Ca2+  Ca19  1  0.26483417  0.25116409  0.42570603  1
  Ca2+  Ca20  1  0.25330191  0.25239165  0.74880716  1
  Ca2+  Ca21  1  0.25901846  0.75853570  0.08148405  1
  Ca2+  Ca22  1  0.26579637  0.74688507  0.44037953  1
  Ca2+  Ca23  1  0.23946401  0.74348758  0.73993547  1
  Ca2+  Ca24  1  0.57634569  0.24755457  0.07673092  1
  Ca2+  Ca25  1  0.57431144  0.24833059  0.42111553  1
  Ca2+  Ca26  1  0.58698361  0.23910610  0.75117712  1
  Ca2+  Ca27  1  0.56156277  0.74740665  0.07890672  1
  Ca2+  Ca28  1  0.58364576  0.75250795  0.43447092  1
  Ca2+  Ca29  1  0.58760041  0.74849043  0.73898944  1
  Ca2+  Ca30  1  0.94593530  0.25338432  0.07821165  1
  Ca2+  Ca31  1  0.90513245  0.26778791  0.41945401  1
  Ca2+  Ca32  1  0.90417746  0.25230623  0.75241104  1
  Ca2+  Ca33  1  0.92612779  0.76932542  0.07444287  1
  Ca2+  Ca34  1  0.90692406  0.75215987  0.44821899  1
  Ca2+  Ca35  1  0.92401612  0.74236639  0.73776311  1
  Ca2+  Ca36  1  0.56984482  0.11203818  0.42144524  1
  Ca2+  Ca37  1  0.59238448  0.60345878  0.77373328  1
  Ca2+  Ca38  1  0.43364338  0.59703102  0.92345731  1
  Ca2+  Ca39  1  0.74933917  0.61287185  0.58530895  1
  Ca2+  Ca40  1  0.28156296  0.11761965  0.43601332  1
  Ca2+  Ca41  1  0.08372729  0.59358025  0.60289629  1
  Ca2+  Ca42  1  0.71757912  0.59297044  0.91306400  1
  Ca2+  Ca43  1  0.40512621  0.61712055  0.57374360  1
  Ca2+  Ca44  1  0.08838893  0.07662796  0.61984785  1
  Ca2+  Ca45  1  0.56119035  0.60982659  0.43478648  1
  Ca2+  Ca46  1  0.07305572  0.09449875  0.20925218  1
  Ca2+  Ca47  1  0.56787465  0.59243205  0.05426907  1
  Ca2+  Ca48  1  0.89859374  0.07843613  0.41440722  1
  Ca2+  Ca49  1  0.55802973  0.10820634  0.07736706  1
  Ca2+  Ca50  1  0.42752699  0.11387822  0.56833496  1
  Ca2+  Ca51  1  0.73167095  0.58172685  0.25840543  1
  Ca2+  Ca52  1  0.10294144  0.56635959  0.24522774  1
  Ca2+  Ca53  1  0.94282625  0.57909538  0.07300539  1
  Ca2+  Ca54  1  0.23438982  0.58880180  0.07378914  1
  Ca2+  Ca55  1  0.43800377  0.11329107  0.56827244  1
  Ca2+  Ca56  1  0.08098736  0.09687536  0.20297880  1
  Ca2+  Ca57  1  0.74278711  0.57849256  0.26270954  1
  Ca2+  Ca58  1  0.90648488  0.60369276  0.43361824  1
  Ca2+  Ca59  1  0.73235695  0.08811681  0.26337852  1
  Ca2+  Ca60  1  0.24707652  0.58909392  0.07311602  1
  Ca2+  Ca61  1  0.56299407  0.59883307  0.05220225  1
  Ca2+  Ca62  1  0.55470386  0.61313322  0.42797386  1
  Ca2+  Ca63  1  0.42136858  0.59331760  0.25765333  1
  Ca2+  Ca64  1  0.92369908  0.59607487  0.73896629  1
  Ca2+  Ca65  1  0.92323590  0.08201012  0.74603567  1
  Ca2+  Ca66  1  0.28704055  0.60735730  0.43195111  1
  Ca2+  Ca67  1  0.09790192  0.08065703  0.61825900  1
  Ca2+  Ca68  1  0.72226493  0.11022123  0.91200865  1
  Ca2+  Ca69  1  0.22660896  0.58203669  0.73850116  1
  Ca2+  Ca70  1  0.08093553  0.58370221  0.91591888  1
  Ca2+  Ca71  1  0.08630057  0.07862707  0.96885215  1
  Ca2+  Ca72  1  0.24829576  0.91489519  0.75348613  1
  Ca2+  Ca73  1  0.41120322  0.90158384  0.91905415  1
  Ca2+  Ca74  1  0.93158009  0.91660411  0.74230612  1
  Ca2+  Ca75  1  0.92054742  0.91667715  0.74100399  1
  Ca2+  Ca76  1  0.57837025  0.90379095  0.07906218  1
  Ca2+  Ca77  1  0.06912733  0.90816393  0.23296114  1
  Ca2+  Ca78  1  0.75422625  0.91114970  0.26263486  1
  Ca2+  Ca79  1  0.91379618  0.40672641  0.75758541  1
  Ca2+  Ca80  1  0.58388777  0.40222268  0.07623769  1
  Ca2+  Ca81  1  0.42348213  0.90786119  0.59004853  1
  Ca2+  Ca82  1  0.09010934  0.40520780  0.60000525  1
  Ca2+  Ca83  1  0.10276954  0.41693834  0.23744665  1
  Ca2+  Ca84  1  0.08762285  0.91455920  0.93516766  1
  Ca2+  Ca85  1  0.76650877  0.90871359  0.26089094  1
  Ca2+  Ca86  1  0.92622535  0.40812077  0.75904546  1
  Ca2+  Ca87  1  0.26092109  0.91471192  0.75365858  1
  Ca2+  Ca88  1  0.58490840  0.90735799  0.41972740  1
  Ca2+  Ca89  1  0.93310200  0.41321794  0.07466965  1
  Ca2+  Ca90  1  0.24674259  0.42127713  0.38725278  1
  Ca2+  Ca91  1  0.58215703  0.40242858  0.76463835  1
  Ca2+  Ca92  1  0.42854053  0.90422120  0.25074295  1
  Ca2+  Ca93  1  0.91005232  0.90899363  0.42738421  1
  Ca2+  Ca94  1  0.06716021  0.91849846  0.58601242  1
  Ca2+  Ca95  1  0.24780680  0.89922978  0.40997517  1
  Ca2+  Ca96  1  0.73916647  0.40508323  0.91977911  1
  Ca2+  Ca97  1  0.75224022  0.90367341  0.91390971  1
  Ca2+  Ca98  1  0.07775615  0.40355619  0.59757332  1
  Ca2+  Ca99  1  0.58359310  0.90801895  0.73983429  1
  Ca2+  Ca100  1  0.41489008  0.40029732  0.58685085  1
  Ca2+  Ca101  1  0.41567010  0.90408809  0.25064217  1
  Ca2+  Ca102  1  0.42477600  0.39746024  0.58277078  1
  Ca2+  Ca103  1  0.75353723  0.40347230  0.25651684  1
  Ca2+  Ca104  1  0.25739728  0.42155911  0.38579323  1
  Ca2+  Ca105  1  0.41778971  0.39890543  0.91136007  1
  Ca2+  Ca106  1  0.74083154  0.40407838  0.25666021  1
  Ca2+  Ca107  1  0.07690309  0.91479732  0.58734367  1
  Mn3.34+  Mn108  1  0.09184698  0.34468344  0.07862624  1
  Mn3.34+  Mn109  1  0.07858286  0.33461049  0.41557328  1
  Mn3.34+  Mn110  1  0.09183807  0.33740443  0.76282485  1
  Mn3.34+  Mn111  1  0.08581408  0.83770884  0.07969984  1
  Mn3.34+  Mn112  1  0.08136438  0.83053677  0.41743842  1
  Mn3.34+  Mn113  1  0.08519053  0.83525919  0.75543022  1
  Mn3.34+  Mn114  1  0.41471125  0.32714001  0.08315472  1
  Mn3.34+  Mn115  1  0.41945344  0.33423665  0.41259692  1
  Mn3.34+  Mn116  1  0.41567569  0.33053592  0.75590217  1
  Mn3.34+  Mn117  1  0.41304088  0.83404426  0.08249577  1
  Mn3.34+  Mn118  1  0.41848356  0.83315017  0.42179482  1
  Mn3.34+  Mn119  1  0.41666959  0.83328913  0.75484902  1
  Mn3.34+  Mn120  1  0.75492779  0.32954314  0.08483871  1
  Mn3.34+  Mn121  1  0.74395614  0.33283293  0.42273585  1
  Mn3.34+  Mn122  1  0.74808612  0.33284877  0.74781705  1
  Mn3.34+  Mn123  1  0.75374062  0.83637439  0.08287112  1
  Mn3.34+  Mn124  1  0.74847014  0.83255268  0.42316550  1
  Mn3.34+  Mn125  1  0.75021615  0.83749855  0.75118906  1
  Mn3.34+  Mn126  1  0.25779172  0.33870294  0.24123134  1
  Mn3.34+  Mn127  1  0.25152384  0.32393527  0.58371815  1
  Mn3.34+  Mn128  1  0.25166236  0.33781963  0.91558821  1
  Mn3.34+  Mn129  1  0.24834909  0.83245887  0.24804875  1
  Mn3.34+  Mn130  1  0.25157379  0.83089208  0.58233014  1
  Mn3.34+  Mn131  1  0.24991882  0.83308695  0.91547351  1
  Mn3.34+  Mn132  1  0.57749390  0.33204758  0.24870335  1
  Mn3.34+  Mn133  1  0.58925869  0.33078096  0.58408576  1
  Mn3.34+  Mn134  1  0.58287273  0.33291850  0.91645228  1
  Mn3.34+  Mn135  1  0.58475763  0.83229480  0.24771155  1
  Mn3.34+  Mn136  1  0.58626695  0.83328373  0.58592687  1
  Mn3.34+  Mn137  1  0.58292886  0.83217751  0.91088799  1
  Mn3.34+  Mn138  1  0.91831378  0.33433749  0.24533261  1
  Mn3.34+  Mn139  1  0.90885958  0.33060033  0.58088803  1
  Mn3.34+  Mn140  1  0.91843603  0.33514778  0.91985930  1
  Mn3.34+  Mn141  1  0.91954312  0.82680873  0.25228222  1
  Mn3.34+  Mn142  1  0.91250029  0.83390764  0.58457315  1
  Mn3.34+  Mn143  1  0.91580536  0.83342805  0.91468842  1
  Mn3.34+  Mn144  1  0.26230054  0.16812458  0.24529486  1
  Mn3.34+  Mn145  1  0.91093639  0.16714243  0.91901381  1
  Mn3.34+  Mn146  1  0.08024922  0.66907572  0.07922479  1
  Mn3.34+  Mn147  1  0.07890521  0.16717363  0.41778218  1
  Mn3.34+  Mn148  1  0.42095399  0.66529074  0.75353041  1
  Mn3.34+  Mn149  1  0.09075117  0.66487718  0.42149741  1
  Mn3.34+  Mn150  1  0.91209257  0.16448365  0.58318040  1
  Mn3.34+  Mn151  1  0.08649434  0.16427834  0.75744007  1
  Mn3.34+  Mn152  1  0.92532288  0.16161173  0.91750309  1
  Mn3.34+  Mn153  1  0.58209061  0.66472345  0.24381558  1
  Mn3.34+  Mn154  1  0.25537584  0.66026014  0.24692268  1
  Mn3.34+  Mn155  1  0.75206136  0.66765850  0.08196581  1
  Mn3.34+  Mn156  1  0.40851009  0.67037677  0.75503809  1
  Mn3.34+  Mn157  1  0.75087198  0.16902141  0.09040327  1
  Mn3.34+  Mn158  1  0.09208090  0.16066768  0.42151062  1
  Mn3.34+  Mn159  1  0.74176132  0.16715150  0.41989818  1
  Mn3.34+  Mn160  1  0.25617125  0.15882731  0.91831371  1
  Mn3.34+  Mn161  1  0.91776273  0.66612979  0.91148892  1
  Mn3.34+  Mn162  1  0.74620051  0.66766802  0.42056233  1
  Mn3.34+  Mn163  1  0.91555040  0.66851089  0.24819673  1
  Mn3.34+  Mn164  1  0.08035735  0.67196114  0.41925911  1
  Mn3.34+  Mn165  1  0.76347661  0.66334063  0.08349708  1
  Mn3.34+  Mn166  1  0.74131028  0.16298909  0.74657900  1
  Mn3.34+  Mn167  1  0.24782951  0.66074360  0.90944028  1
  Mn3.34+  Mn168  1  0.41413128  0.15441940  0.75602767  1
  Mn3.34+  Mn169  1  0.25144587  0.17219304  0.24621950  1
  Mn3.34+  Mn170  1  0.90183721  0.15937267  0.58164498  1
  Mn3.34+  Mn171  1  0.91711635  0.17691790  0.25008641  1
  Mn3.34+  Mn172  1  0.24506594  0.66525821  0.24821116  1
  Mn3.34+  Mn173  1  0.24657916  0.16410796  0.91699976  1
  Mn3.34+  Mn174  1  0.90540619  0.16969083  0.24578125  1
  Mn3.34+  Mn175  1  0.92390063  0.67452730  0.25037760  1
  Mn3.34+  Mn176  1  0.08441488  0.66606931  0.75494262  1
  Mn3.34+  Mn177  1  0.75137954  0.66775448  0.75484712  1
  Mn3.34+  Mn178  1  0.42245794  0.16056722  0.75680526  1
  Mn3.34+  Mn179  1  0.57802432  0.16732800  0.24770626  1
  Mn3.34+  Mn180  1  0.91722956  -0.00148279  0.91986534  1
  Mn3.34+  Mn181  1  0.74841473  0.00377027  0.73488687  1
  Mn3.34+  Mn182  1  0.57939751  0.00735244  0.90845561  1
  Mn3.34+  Mn183  1  0.41104756  0.49496097  0.09550606  1
  Mn3.34+  Mn184  1  0.59745218  0.49224781  0.58860352  1
  Mn3.34+  Mn185  1  0.26279529  0.00283354  0.58073289  1
  Mn3.34+  Mn186  1  0.58740816  0.49784919  0.58645158  1
  Mn3.34+  Mn187  1  0.91611828  0.00179715  0.24387511  1
  Mn3.34+  Mn188  1  0.07608996  0.50013869  0.41196829  1
  Mn3.34+  Mn189  1  0.25518696  0.00137147  0.93269020  1
  Mn3.34+  Mn190  1  0.89941208  0.49390672  0.57883483  1
  Mn3.34+  Mn191  1  0.57668210  0.00003007  0.60023975  1
  Mn3.34+  Mn192  1  0.27542757  -0.00021628  0.57997122  1
  Mn3.34+  Mn193  1  0.57419698  0.00411448  0.24846314  1
  Mn3.34+  Mn194  1  0.42154187  0.49907184  0.41123050  1
  Mn3.34+  Mn195  1  0.56948871  0.49448234  0.25241471  1
  Mn3.34+  Mn196  1  0.76304038  0.00166467  0.07321166  1
  Mn3.34+  Mn197  1  0.24828410  0.50356103  0.57429743  1
  Mn3.34+  Mn198  1  0.75030682  0.50182228  0.75869940  1
  Mn3.34+  Mn199  1  0.75101570  0.49687176  0.41808136  1
  Mn3.34+  Mn200  1  0.91829499  0.50033098  0.24743610  1
  Mn3.34+  Mn201  1  0.39934339  0.48805995  0.09225519  1
  Mn3.34+  Mn202  1  0.26071400  0.49853311  0.57451633  1
  Mn3.34+  Mn203  1  0.24905237  -0.00227220  0.23187438  1
  Mn3.34+  Mn204  1  0.74147162  0.00090225  0.41550051  1
  Mn3.34+  Mn205  1  0.08626603  0.00312547  0.40692342  1
  Mn3.34+  Mn206  1  0.41349606  0.49946829  0.75408520  1
  Mn3.34+  Mn207  1  0.26011895  0.00446675  0.23360141  1
  Mn3.34+  Mn208  1  0.75104966  0.49902503  0.07911219  1
  Mn3.34+  Mn209  1  0.41741530  -0.00223134  0.41272684  1
  Mn3.34+  Mn210  1  0.91138983  0.50163509  0.57569307  1
  Mn3.34+  Mn211  1  0.24050605  0.49492745  0.92082159  1
  Mn3.34+  Mn212  1  0.56829239  0.00240176  0.90785558  1
  Mn3.34+  Mn213  1  0.41273231  0.00355918  0.07162788  1
  Mn3.34+  Mn214  1  0.74972412  0.00809723  0.07385461  1
  Mn3.34+  Mn215  1  0.91935790  0.50361527  0.92139321  1
  O2-  O216  1  -0.00007242  0.16194118  -0.00014326  1
  O2-  O217  1  -0.00661999  0.14886224  0.33871895  1
  O2-  O218  1  -0.00159169  0.16054121  0.66854961  1
  O2-  O219  1  0.00021290  0.65060128  -0.00266777  1
  O2-  O220  1  -0.00025646  0.66081118  0.33889855  1
  O2-  O221  1  0.00535279  0.65949555  0.67365699  1
  O2-  O222  1  0.33870036  0.15821210  -0.01021698  1
  O2-  O223  1  0.33408808  0.17455432  0.33170813  1
  O2-  O224  1  0.34134279  0.15547876  0.66931849  1
  O2-  O225  1  0.32412111  0.65118983  -0.00685843  1
  O2-  O226  1  0.33773839  0.65981960  0.32687341  1
  O2-  O227  1  0.32697375  0.64974762  0.68360974  1
  O2-  O228  1  0.67093767  0.17346285  0.01408392  1
  O2-  O229  1  0.66486969  0.15645715  0.33503313  1
  O2-  O230  1  0.67054848  0.16538833  0.66929626  1
  O2-  O231  1  0.66455873  0.65920908  0.00521278  1
  O2-  O232  1  0.66273286  0.64499662  0.33388634  1
  O2-  O233  1  0.67372771  0.67159329  0.67466359  1
  O2-  O234  1  0.16703632  0.16280296  -0.00383048  1
  O2-  O235  1  0.17251589  0.14289440  0.32889833  1
  O2-  O236  1  0.15351723  0.17685965  0.67005905  1
  O2-  O237  1  0.16632873  0.65840747  -0.00084562  1
  O2-  O238  1  0.16326773  0.64863538  0.33037382  1
  O2-  O239  1  0.16342282  0.65940333  0.67622208  1
  O2-  O240  1  0.49911738  0.17761386  0.00440201  1
  O2-  O241  1  0.50299353  0.16884326  0.32769692  1
  O2-  O242  1  0.50120370  0.15865242  0.67406969  1
  O2-  O243  1  0.50123401  0.66935229  -0.00166934  1
  O2-  O244  1  0.50094899  0.65892962  0.32293237  1
  O2-  O245  1  0.49801542  0.64886163  0.67538005  1
  O2-  O246  1  0.82738813  0.15858850  -0.00167677  1
  O2-  O247  1  0.82732583  0.15515477  0.32651061  1
  O2-  O248  1  0.83708050  0.14697399  0.67503383  1
  O2-  O249  1  0.83302252  0.64262188  -0.00663354  1
  O2-  O250  1  0.82891325  0.65381724  0.33067237  1
  O2-  O251  1  0.83183216  0.66741261  0.67783625  1
  O2-  O252  1  0.00038809  0.34052088  0.00008674  1
  O2-  O253  1  -0.00343435  0.32327471  0.32718339  1
  O2-  O254  1  0.00327708  0.32777862  0.66464712  1
  O2-  O255  1  0.00323599  0.84156876  -0.00742925  1
  O2-  O256  1  -0.00136905  0.80621575  0.33655047  1
  O2-  O257  1  0.00390527  0.84937983  0.66608755  1
  O2-  O258  1  0.33756207  0.33808767  -0.00474953  1
  O2-  O259  1  0.32389961  0.33565080  0.34436964  1
  O2-  O260  1  0.33839455  0.33550815  0.66244822  1
  O2-  O261  1  0.33390080  0.83093080  -0.00368351  1
  O2-  O262  1  0.33631961  0.83878679  0.33699575  1
  O2-  O263  1  0.32935806  0.85163823  0.66919020  1
  O2-  O264  1  0.66959448  0.33555959  0.00170614  1
  O2-  O265  1  0.66748338  0.34074523  0.32817006  1
  O2-  O266  1  0.66373158  0.34713645  0.67094850  1
  O2-  O267  1  0.66289095  0.84359747  -0.00268915  1
  O2-  O268  1  0.66912991  0.84976220  0.33015611  1
  O2-  O269  1  0.66774570  0.83291522  0.67026450  1
  O2-  O270  1  0.16995166  0.34025225  -0.00414979  1
  O2-  O271  1  0.16010809  0.35340488  0.33444358  1
  O2-  O272  1  0.16535571  0.32438994  0.66622680  1
  O2-  O273  1  0.16675331  0.82745512  -0.00636066  1
  O2-  O274  1  0.15817054  0.84338525  0.32667811  1
  O2-  O275  1  0.16654557  0.85717874  0.66299613  1
  O2-  O276  1  0.50034832  0.34351580  -0.00311046  1
  O2-  O277  1  0.49474901  0.32265204  0.33135614  1
  O2-  O278  1  0.49913996  0.34471515  0.66711704  1
  O2-  O279  1  0.49951643  0.83846218  -0.00106555  1
  O2-  O280  1  0.49961601  0.84140142  0.33395744  1
  O2-  O281  1  0.50087070  0.84746401  0.66865013  1
  O2-  O282  1  0.83521000  0.34607025  0.00109494  1
  O2-  O283  1  0.83030403  0.32943695  0.32432407  1
  O2-  O284  1  0.84182157  0.34974736  0.67572983  1
  O2-  O285  1  0.83312028  0.84601583  -0.00186749  1
  O2-  O286  1  0.83563524  0.83775533  0.33761699  1
  O2-  O287  1  0.84170721  0.84766355  0.67641725  1
  O2-  O288  1  0.00593816  0.18565759  0.17849565  1
  O2-  O289  1  -0.00090433  0.18633968  0.50684683  1
  O2-  O290  1  -0.00143503  0.18573250  0.83056435  1
  O2-  O291  1  0.00297976  0.68805754  0.16663212  1
  O2-  O292  1  0.00208344  0.68475951  0.49869493  1
  O2-  O293  1  -0.00006555  0.68240704  0.83627630  1
  O2-  O294  1  0.33173798  0.18599894  0.16288157  1
  O2-  O295  1  0.34214253  0.18398292  0.51100400  1
  O2-  O296  1  0.32736639  0.17519355  0.82754344  1
  O2-  O297  1  0.33020378  0.67394453  0.16227040  1
  O2-  O298  1  0.34564776  0.68422311  0.49780264  1
  O2-  O299  1  0.33625187  0.69105270  0.83844750  1
  O2-  O300  1  0.67509116  0.18250178  0.17328812  1
  O2-  O301  1  0.66397762  0.17646343  0.49237836  1
  O2-  O302  1  0.67343316  0.18044945  0.82906197  1
  O2-  O303  1  0.67937896  0.67612521  0.17614248  1
  O2-  O304  1  0.66205760  0.67494576  0.49124932  1
  O2-  O305  1  0.67330621  0.68732335  0.83172977  1
  O2-  O306  1  0.16343866  0.17524827  0.17414494  1
  O2-  O307  1  0.17075582  0.18419276  0.49570609  1
  O2-  O308  1  0.16917128  0.18345172  0.83553494  1
  O2-  O309  1  0.16951424  0.68109099  0.16268022  1
  O2-  O310  1  0.17039939  0.68290489  0.49533952  1
  O2-  O311  1  0.16601687  0.68860243  0.83903629  1
  O2-  O312  1  0.51161583  0.17884344  0.16361284  1
  O2-  O313  1  0.49952816  0.17997864  0.49796269  1
  O2-  O314  1  0.49496774  0.17787640  0.83431370  1
  O2-  O315  1  0.51096251  0.67000661  0.16013285  1
  O2-  O316  1  0.49652122  0.68406108  0.48968557  1
  O2-  O317  1  0.50024876  0.68351718  0.82896223  1
  O2-  O318  1  0.83804695  0.19788771  0.16256728  1
  O2-  O319  1  0.84108347  0.17540475  0.48469417  1
  O2-  O320  1  0.83537254  0.17464925  0.83537774  1
  O2-  O321  1  0.83378949  0.69264257  0.16970837  1
  O2-  O322  1  0.82425495  0.67964686  0.49669035  1
  O2-  O323  1  0.83636308  0.68415996  0.83507992  1
  O2-  O324  1  -0.00102853  0.32569363  0.16380466  1
  O2-  O325  1  0.00246011  0.32061445  0.50480786  1
  O2-  O326  1  -0.00559145  0.32422962  0.82706534  1
  O2-  O327  1  0.00412052  0.82183012  0.17126232  1
  O2-  O328  1  0.00323849  0.81938830  0.50446529  1
  O2-  O329  1  -0.00666063  0.82527721  0.82486301  1
  O2-  O330  1  0.33617653  0.31354230  0.16824908  1
  O2-  O331  1  0.33922229  0.31636103  0.50590513  1
  O2-  O332  1  0.33665764  0.31660582  0.83467744  1
  O2-  O333  1  0.34336863  0.82397947  0.17737688  1
  O2-  O334  1  0.33882758  0.81807819  0.50374333  1
  O2-  O335  1  0.32854388  0.81670309  0.83041106  1
  O2-  O336  1  0.67329932  0.32010134  0.16731173  1
  O2-  O337  1  0.66084949  0.31728141  0.49744372  1
  O2-  O338  1  0.66816286  0.32353108  0.83243790  1
  O2-  O339  1  0.67169338  0.83047473  0.17026395  1
  O2-  O340  1  0.66272470  0.82519726  0.49689869  1
  O2-  O341  1  0.66788028  0.81526561  0.83257373  1
  O2-  O342  1  0.16937338  0.33607156  0.16789712  1
  O2-  O343  1  0.16669804  0.31759005  0.50623452  1
  O2-  O344  1  0.16767439  0.30997188  0.83522437  1
  O2-  O345  1  0.17060290  0.82266829  0.16211077  1
  O2-  O346  1  0.16973785  0.81910366  0.49570502  1
  O2-  O347  1  0.17134486  0.82134158  0.82849009  1
  O2-  O348  1  0.50862696  0.32183620  0.15883696  1
  O2-  O349  1  0.49215811  0.32429202  0.50529632  1
  O2-  O350  1  0.50255519  0.32263078  0.83097431  1
  O2-  O351  1  0.50075089  0.82522557  0.16537414  1
  O2-  O352  1  0.50230984  0.82525068  0.49965404  1
  O2-  O353  1  0.49805183  0.81174127  0.83499244  1
  O2-  O354  1  0.83343450  0.31295880  0.16721195  1
  O2-  O355  1  0.82452798  0.32062249  0.50475486  1
  O2-  O356  1  0.83528156  0.32648844  0.83449432  1
  O2-  O357  1  0.83068573  0.81617474  0.17909259  1
  O2-  O358  1  0.83081535  0.82517873  0.50237861  1
  O2-  O359  1  0.83063076  0.81869299  0.83291371  1
  O2-  O360  1  0.08752463  0.05825106  0.09689808  1
  O2-  O361  1  0.07526533  0.08192795  0.46392539  1
  O2-  O362  1  0.07546926  0.08267150  0.75570358  1
  O2-  O363  1  0.09130851  0.58730667  0.11190311  1
  O2-  O364  1  0.06399701  0.58020632  0.45740045  1
  O2-  O365  1  0.08573607  0.58451453  0.77724401  1
  O2-  O366  1  0.43184892  0.06644543  0.12659857  1
  O2-  O367  1  0.40835224  0.07544766  0.44434257  1
  O2-  O368  1  0.41934674  0.07589173  0.76375089  1
  O2-  O369  1  0.40516012  0.57305388  0.12594488  1
  O2-  O370  1  0.42609634  0.57381180  0.45666428  1
  O2-  O371  1  0.41883318  0.58352241  0.78996092  1
  O2-  O372  1  0.75849147  0.08117344  0.12609302  1
  O2-  O373  1  0.75046769  0.08183897  0.43369157  1
  O2-  O374  1  0.74966171  0.07982960  0.78012529  1
  O2-  O375  1  0.76742201  0.57847449  0.12568964  1
  O2-  O376  1  0.75548225  0.58038391  0.44391262  1
  O2-  O377  1  0.74518182  0.58418508  0.77844154  1
  O2-  O378  1  0.24140294  0.08428577  0.21231930  1
  O2-  O379  1  0.22780571  0.07975904  0.55539047  1
  O2-  O380  1  0.23904732  0.07870577  0.89070378  1
  O2-  O381  1  0.24387798  0.57567661  0.21273363  1
  O2-  O382  1  0.25145885  0.58447127  0.55956093  1
  O2-  O383  1  0.24756233  0.57282695  0.87253752  1
  O2-  O384  1  0.59485809  0.08319678  0.22092116  1
  O2-  O385  1  0.55950142  0.06481911  0.54095427  1
  O2-  O386  1  0.58709354  0.08678628  0.92466239  1
  O2-  O387  1  0.60031296  0.57728058  0.20341234  1
  O2-  O388  1  0.60284280  0.57684085  0.55070963  1
  O2-  O389  1  0.57845885  0.57754477  0.90328753  1
  O2-  O390  1  0.93044496  0.08410716  0.21570605  1
  O2-  O391  1  0.92428152  0.08009497  0.55521965  1
  O2-  O392  1  0.92390912  0.07945953  0.88619125  1
  O2-  O393  1  0.91518795  0.58263245  0.21124031  1
  O2-  O394  1  0.89413634  0.58129216  0.56220953  1
  O2-  O395  1  0.92378726  0.58083868  0.87981844  1
  O2-  O396  1  0.06650682  0.42384554  0.11026671  1
  O2-  O397  1  0.10176028  0.42517706  0.46534224  1
  O2-  O398  1  0.05913978  0.41816836  0.73660715  1
  O2-  O399  1  0.08455291  0.91507671  0.10053859  1
  O2-  O400  1  0.07906616  0.92077311  0.44853305  1
  O2-  O401  1  0.08531945  0.91832466  0.77771021  1
  O2-  O402  1  0.42256949  0.41008481  0.10036989  1
  O2-  O403  1  0.39318087  0.42196891  0.44879924  1
  O2-  O404  1  0.42699509  0.41501217  0.77352629  1
  O2-  O405  1  0.41925078  0.92451229  0.11699357  1
  O2-  O406  1  0.40893008  0.92072437  0.44903739  1
  O2-  O407  1  0.40532151  0.91282148  0.78518001  1
  O2-  O408  1  0.75032329  0.42074632  0.11644624  1
  O2-  O409  1  0.75908023  0.41549697  0.40589323  1
  O2-  O410  1  0.75986278  0.42044769  0.78260006  1
  O2-  O411  1  0.75108134  0.92694736  0.12825644  1
  O2-  O412  1  0.75772239  0.91821694  0.42641579  1
  O2-  O413  1  0.74912665  0.92526415  0.78065369  1
  O2-  O414  1  0.25614464  0.42014475  0.24687134  1
  O2-  O415  1  0.25555692  0.41559481  0.55783337  1
  O2-  O416  1  0.26973799  0.41971411  0.88788171  1
  O2-  O417  1  0.26941395  0.91646084  0.22858717  1
  O2-  O418  1  0.25517195  0.91919312  0.54078043  1
  O2-  O419  1  0.25229844  0.92348916  0.88680468  1
  O2-  O420  1  0.60360229  0.41587626  0.21677052  1
  O2-  O421  1  0.56401564  0.41520680  0.55232239  1
  O2-  O422  1  0.59193695  0.41671700  0.90091791  1
  O2-  O423  1  0.56684751  0.92159356  0.21567758  1
  O2-  O424  1  0.58086845  0.92541889  0.55556736  1
  O2-  O425  1  0.57782122  0.92176318  0.87552465  1
  O2-  O426  1  0.88995072  0.42122758  0.21949837  1
  O2-  O427  1  0.93881283  0.41632636  0.56726314  1
  O2-  O428  1  0.91400151  0.42267544  0.89117390  1
  O2-  O429  1  0.90742235  0.91756190  0.23789407  1
  O2-  O430  1  0.92996754  0.91805427  0.55998881  1
  O2-  O431  1  0.90872034  0.92057557  0.87895344  1
  O2-  O432  1  0.00956950  -0.00671575  -0.03005008  1
  O2-  O433  1  -0.00145267  0.00497184  0.32629798  1
  O2-  O434  1  0.01347132  -0.00269152  0.64392676  1
  O2-  O435  1  -0.00446392  0.50632138  -0.00390839  1
  O2-  O436  1  0.01307840  0.50638730  0.31154311  1
  O2-  O437  1  0.00118457  0.50969964  0.64551508  1
  O2-  O438  1  0.35429434  -0.01332483  -0.02047972  1
  O2-  O439  1  0.33597149  -0.00876833  0.32641517  1
  O2-  O440  1  0.32776461  -0.02171900  0.67608779  1
  O2-  O441  1  0.33015966  0.51378981  0.00274222  1
  O2-  O442  1  0.32004377  0.51257310  0.37075354  1
  O2-  O443  1  0.32491210  0.50437864  0.67191975  1
  O2-  O444  1  0.66253089  -0.01489353  -0.00262262  1
  O2-  O445  1  0.67474652  -0.01130032  0.31294005  1
  O2-  O446  1  0.64276310  -0.00717928  0.68725104  1
  O2-  O447  1  0.65819952  0.52054943  0.02821121  1
  O2-  O448  1  0.67561655  0.50116982  0.31795885  1
  O2-  O449  1  0.65686302  0.50331606  0.68804234  1
  O2-  O450  1  0.16107517  -0.00650339  -0.02166103  1
  O2-  O451  1  0.16277661  -0.00306924  0.31337821  1
  O2-  O452  1  0.16382974  -0.01063065  0.65018951  1
  O2-  O453  1  0.16937823  0.52433818  -0.00378179  1
  O2-  O454  1  0.16566928  0.49550924  0.34050563  1
  O2-  O455  1  0.15289893  0.49753872  0.63979744  1
  O2-  O456  1  0.50812927  -0.01224046  0.00743281  1
  O2-  O457  1  0.50161444  -0.02194210  0.33674265  1
  O2-  O458  1  0.48086768  -0.00533033  0.64162956  1
  O2-  O459  1  0.49876090  0.50724740  0.02285556  1
  O2-  O460  1  0.50337809  0.52929251  0.34029411  1
  O2-  O461  1  0.48944474  0.49308653  0.65400944  1
  O2-  O462  1  0.81557799  0.00080371  -0.02987672  1
  O2-  O463  1  0.83291587  0.00325153  0.33272488  1
  O2-  O464  1  0.86081689  -0.00037417  0.71375507  1
  O2-  O465  1  0.82854854  0.50059685  -0.00761038  1
  O2-  O466  1  0.83004019  0.51580872  0.32350334  1
  O2-  O467  1  0.84349505  0.50078638  0.68498752  1
  O2-  O468  1  0.58113163  0.75508928  0.59676270  1
  O2-  O469  1  0.58219074  0.25288912  0.93040398  1
  O2-  O470  1  0.75182620  0.75075236  0.05659171  1
  O2-  O471  1  0.24696512  0.75526159  0.60616045  1
  O2-  O472  1  0.41458580  0.24407311  0.73153087  1
  O2-  O473  1  0.25448433  0.24750293  0.93446135  1
  O2-  O474  1  0.41426386  0.75431187  0.07802410  1
  O2-  O475  1  0.91679969  0.74836509  0.94180842  1
  O2-  O476  1  0.58920363  0.25072128  0.26939889  1
  O2-  O477  1  0.23075994  0.25358849  0.27340766  1
  O2-  O478  1  0.07810593  0.74998682  0.06124933  1
  O2-  O479  1  0.09235992  0.26051865  0.07522320  1
  O2-  O480  1  0.91090990  0.75575786  0.60078746  1
  O2-  O481  1  0.08201610  0.75399144  0.72966867  1
  O2-  O482  1  0.42114931  0.24978816  0.06799880  1
  O2-  O483  1  0.58199360  0.25442900  0.60665868  1
  O2-  O484  1  0.58694655  0.74763166  0.26674406  1
  O2-  O485  1  0.75127392  0.24930308  0.39877096  1
  O2-  O486  1  0.24718517  0.74879322  0.27120337  1
  O2-  O487  1  0.09185672  0.24587037  0.38874635  1
  O2-  O488  1  0.76138890  0.25032903  0.72772636  1
  O2-  O489  1  0.90048992  0.24497307  0.60666865  1
  O2-  O490  1  0.74083180  0.74972950  0.39255075  1
  O2-  O491  1  0.41346379  0.74967408  0.71401410  1
  O2-  O492  1  0.91761272  0.25050532  0.93707699  1
