# generated using pymatgen
data_Ca108Mn108O277
_symmetry_space_group_name_H-M   'P 1'
_cell_length_a   16.02607957
_cell_length_b   22.30351996
_cell_length_c   16.38720046
_cell_angle_alpha   89.99395820
_cell_angle_beta   89.99737544
_cell_angle_gamma   90.00063868
_symmetry_Int_Tables_number   1
_chemical_formula_structural   Ca108Mn108O277
_chemical_formula_sum   'Ca108 Mn108 O277'
_cell_volume   5857.40788127
_cell_formula_units_Z   1
loop_
 _symmetry_equiv_pos_site_id
 _symmetry_equiv_pos_as_xyz
  1  'x, y, z'
loop_
 _atom_type_symbol
 _atom_type_oxidation_number
  Ca2+  2.0
  Mn3.34+  3.34
  O2-  -2.0
loop_
 _atom_site_type_symbol
 _atom_site_label
 _atom_site_symmetry_multiplicity
 _atom_site_fract_x
 _atom_site_fract_y
 _atom_site_fract_z
 _atom_site_occupancy
  Ca2+  Ca0  1  0.08840356  0.25961868  0.25116933  1
  Ca2+  Ca1  1  0.08361868  0.26024019  0.57056086  1
  Ca2+  Ca2  1  0.08781492  0.25951171  0.93101719  1
  Ca2+  Ca3  1  0.06830013  0.73514437  0.25001932  1
  Ca2+  Ca4  1  0.09129675  0.76296204  0.58367660  1
  Ca2+  Ca5  1  0.06903871  0.75202587  0.92382362  1
  Ca2+  Ca6  1  0.39748903  0.25406462  0.25008757  1
  Ca2+  Ca7  1  0.41872454  0.24999824  0.59564709  1
  Ca2+  Ca8  1  0.41250594  0.24676029  0.90312816  1
  Ca2+  Ca9  1  0.41409585  0.74869515  0.25682851  1
  Ca2+  Ca10  1  0.40700778  0.74810831  0.59594979  1
  Ca2+  Ca11  1  0.43083534  0.74152278  0.89755971  1
  Ca2+  Ca12  1  0.76000710  0.25693471  0.24939926  1
  Ca2+  Ca13  1  0.74346796  0.25682425  0.57958850  1
  Ca2+  Ca14  1  0.75111503  0.25016212  0.92945771  1
  Ca2+  Ca15  1  0.75893731  0.74720954  0.25072857  1
  Ca2+  Ca16  1  0.75019517  0.76277309  0.60069157  1
  Ca2+  Ca17  1  0.75674171  0.74918403  0.90835109  1
  Ca2+  Ca18  1  0.24558910  0.24158125  0.11589171  1
  Ca2+  Ca19  1  0.24419133  0.25103808  0.40350700  1
  Ca2+  Ca20  1  0.27064911  0.25435112  0.75312020  1
  Ca2+  Ca21  1  0.22980594  0.74870112  0.08209535  1
  Ca2+  Ca22  1  0.23668475  0.74213742  0.42281271  1
  Ca2+  Ca23  1  0.25415575  0.74755120  0.74517875  1
  Ca2+  Ca24  1  0.58892501  0.24710718  0.08628776  1
  Ca2+  Ca25  1  0.58804897  0.24727433  0.41509089  1
  Ca2+  Ca26  1  0.55561453  0.24362157  0.75249587  1
  Ca2+  Ca27  1  0.60074116  0.75230734  0.06417202  1
  Ca2+  Ca28  1  0.59083634  0.75660463  0.41838053  1
  Ca2+  Ca29  1  0.60211474  0.73777961  0.75866220  1
  Ca2+  Ca30  1  0.91630163  0.25363135  0.09411136  1
  Ca2+  Ca31  1  0.92013243  0.26150317  0.40724807  1
  Ca2+  Ca32  1  0.90586524  0.25856971  0.75152496  1
  Ca2+  Ca33  1  0.92142765  0.73539606  0.06993516  1
  Ca2+  Ca34  1  0.91974327  0.73895203  0.39777250  1
  Ca2+  Ca35  1  0.90352095  0.74909623  0.77377718  1
  Ca2+  Ca36  1  0.39605532  0.57552275  0.26451369  1
  Ca2+  Ca37  1  0.60139043  0.08392766  0.07505729  1
  Ca2+  Ca38  1  0.09049322  0.10193359  0.24666130  1
  Ca2+  Ca39  1  0.92929445  0.58879058  0.38614676  1
  Ca2+  Ca40  1  0.58176802  0.08604332  0.74267823  1
  Ca2+  Ca41  1  0.40360699  0.10602729  0.24365667  1
  Ca2+  Ca42  1  0.89605862  0.08646243  0.07333894  1
  Ca2+  Ca43  1  0.28205846  0.59533914  0.73293473  1
  Ca2+  Ca44  1  0.74208997  0.06244354  0.93256195  1
  Ca2+  Ca45  1  0.43258049  0.07966588  0.92709276  1
  Ca2+  Ca46  1  0.41518946  0.10581714  0.24418787  1
  Ca2+  Ca47  1  0.05464208  0.08593675  0.92367003  1
  Ca2+  Ca48  1  0.58853828  0.59207421  0.41017682  1
  Ca2+  Ca49  1  0.43270172  0.09995351  0.59583076  1
  Ca2+  Ca50  1  0.26921327  0.09571319  0.74906818  1
  Ca2+  Ca51  1  0.92107044  0.09017932  0.41190399  1
  Ca2+  Ca52  1  0.78509519  0.60612241  0.23993277  1
  Ca2+  Ca53  1  0.90813766  0.09026642  0.41161428  1
  Ca2+  Ca54  1  0.71540644  0.06114801  0.60432772  1
  Ca2+  Ca55  1  0.11973229  0.56561628  0.59295533  1
  Ca2+  Ca56  1  0.72839013  0.60565920  0.59677499  1
  Ca2+  Ca57  1  0.07825554  0.10107024  0.58110252  1
  Ca2+  Ca58  1  0.09890477  0.10619084  0.25055058  1
  Ca2+  Ca59  1  0.06376056  0.59324711  0.23536589  1
  Ca2+  Ca60  1  0.90836964  0.59753534  0.77041792  1
  Ca2+  Ca61  1  0.25711741  0.09384138  0.74570741  1
  Ca2+  Ca62  1  0.76167178  0.60641832  0.91234197  1
  Ca2+  Ca63  1  0.44433443  0.08204871  0.92337662  1
  Ca2+  Ca64  1  0.89858613  0.07416780  0.75832092  1
  Ca2+  Ca65  1  0.60186165  0.60038352  0.05712571  1
  Ca2+  Ca66  1  0.74583856  0.09327772  0.24252447  1
  Ca2+  Ca67  1  0.74082686  0.60564635  0.59795867  1
  Ca2+  Ca68  1  0.04362469  0.59169615  0.93347213  1
  Ca2+  Ca69  1  0.58695846  0.09414286  0.41836748  1
  Ca2+  Ca70  1  0.22085816  0.58710435  0.08680964  1
  Ca2+  Ca71  1  0.24729081  0.10117345  0.41253905  1
  Ca2+  Ca72  1  0.75375806  0.90641114  0.24497294  1
  Ca2+  Ca73  1  0.90584944  0.89879770  0.41925360  1
  Ca2+  Ca74  1  0.91811227  0.89943008  0.41866452  1
  Ca2+  Ca75  1  0.57589212  0.40205092  0.41291239  1
  Ca2+  Ca76  1  0.43207680  0.89765417  0.24477698  1
  Ca2+  Ca77  1  0.94587291  0.41726795  0.73621929  1
  Ca2+  Ca78  1  0.24414905  0.89503545  0.76633545  1
  Ca2+  Ca79  1  0.59805342  0.40458845  0.08566371  1
  Ca2+  Ca80  1  0.25442710  0.89111730  0.42439318  1
  Ca2+  Ca81  1  0.23193642  0.41038852  0.08663610  1
  Ca2+  Ca82  1  0.23812068  0.41838742  0.42079454  1
  Ca2+  Ca83  1  0.27027957  0.92018982  0.03241540  1
  Ca2+  Ca84  1  0.60763801  0.92967106  0.03270137  1
  Ca2+  Ca85  1  0.06996987  0.89875830  0.25203406  1
  Ca2+  Ca86  1  0.74296616  0.90749030  0.24736253  1
  Ca2+  Ca87  1  0.61308139  0.92017365  0.74637343  1
  Ca2+  Ca88  1  0.89712084  0.90534061  0.76962391  1
  Ca2+  Ca89  1  0.07734568  0.41757343  0.25541178  1
  Ca2+  Ca90  1  0.77499365  0.41284137  0.92717470  1
  Ca2+  Ca91  1  0.62264273  0.91964852  0.75066697  1
  Ca2+  Ca92  1  0.22089599  0.41405325  0.09018161  1
  Ca2+  Ca93  1  0.41586476  0.41509703  0.26165266  1
  Ca2+  Ca94  1  0.42341680  0.40233227  0.91202981  1
  Ca2+  Ca95  1  0.42031752  0.89783832  0.24676207  1
  Ca2+  Ca96  1  0.22218582  0.42581743  0.70881580  1
  Ca2+  Ca97  1  0.59769095  0.92892850  0.02954533  1
  Ca2+  Ca98  1  0.21265363  0.42776384  0.71235824  1
  Ca2+  Ca99  1  0.58851368  0.40189839  0.41303673  1
  Ca2+  Ca100  1  0.26215172  0.91863736  0.03941686  1
  Ca2+  Ca101  1  0.43221148  0.40747476  0.91263897  1
  Ca2+  Ca102  1  0.76458855  0.40924858  0.93199065  1
  Ca2+  Ca103  1  0.08109750  0.90019816  0.25137791  1
  Ca2+  Ca104  1  0.95769130  0.41952104  0.73974780  1
  Ca2+  Ca105  1  0.57818572  0.39673516  0.74675103  1
  Ca2+  Ca106  1  0.06131611  0.42048096  0.93517861  1
  Ca2+  Ca107  1  0.40311716  0.41558685  0.26118086  1
  Mn3.34+  Mn108  1  0.07305157  0.33685416  0.08881840  1
  Mn3.34+  Mn109  1  0.07859659  0.34029970  0.41959599  1
  Mn3.34+  Mn110  1  0.08774060  0.32199692  0.75221336  1
  Mn3.34+  Mn111  1  0.08017317  0.83263691  0.07948331  1
  Mn3.34+  Mn112  1  0.08394272  0.82879992  0.42143526  1
  Mn3.34+  Mn113  1  0.07911712  0.83596578  0.75205360  1
  Mn3.34+  Mn114  1  0.41723284  0.33008285  0.08505050  1
  Mn3.34+  Mn115  1  0.41164665  0.32913088  0.42691391  1
  Mn3.34+  Mn116  1  0.41268844  0.33421405  0.74563354  1
  Mn3.34+  Mn117  1  0.42139404  0.82856769  0.07867536  1
  Mn3.34+  Mn118  1  0.42224808  0.82979685  0.42765057  1
  Mn3.34+  Mn119  1  0.42119292  0.82718972  0.74833816  1
  Mn3.34+  Mn120  1  0.75727909  0.33307937  0.09225837  1
  Mn3.34+  Mn121  1  0.75600585  0.32900437  0.41761953  1
  Mn3.34+  Mn122  1  0.74860644  0.33196365  0.74876387  1
  Mn3.34+  Mn123  1  0.75814019  0.84452806  0.07501506  1
  Mn3.34+  Mn124  1  0.74234317  0.83254962  0.42621206  1
  Mn3.34+  Mn125  1  0.75457453  0.83138910  0.75303159  1
  Mn3.34+  Mn126  1  0.24710113  0.33742372  0.25284726  1
  Mn3.34+  Mn127  1  0.24907403  0.33625531  0.57616641  1
  Mn3.34+  Mn128  1  0.24607923  0.33596171  0.91494125  1
  Mn3.34+  Mn129  1  0.25128708  0.82655693  0.24869473  1
  Mn3.34+  Mn130  1  0.25190718  0.82888253  0.58773610  1
  Mn3.34+  Mn131  1  0.25078513  0.82699582  0.90976735  1
  Mn3.34+  Mn132  1  0.58325189  0.33346700  0.24436204  1
  Mn3.34+  Mn133  1  0.58206496  0.33209402  0.58182454  1
  Mn3.34+  Mn134  1  0.58797871  0.33301412  0.91392658  1
  Mn3.34+  Mn135  1  0.58705294  0.82550604  0.24755881  1
  Mn3.34+  Mn136  1  0.57861251  0.84162369  0.58622142  1
  Mn3.34+  Mn137  1  0.58310737  0.83016627  0.90673160  1
  Mn3.34+  Mn138  1  0.91534003  0.34030096  0.25203310  1
  Mn3.34+  Mn139  1  0.91550205  0.33587758  0.57817983  1
  Mn3.34+  Mn140  1  0.91970305  0.33252731  0.91338820  1
  Mn3.34+  Mn141  1  0.91348778  0.82714837  0.24243554  1
  Mn3.34+  Mn142  1  0.91837370  0.83180164  0.58946896  1
  Mn3.34+  Mn143  1  0.91554770  0.83944873  0.92370611  1
  Mn3.34+  Mn144  1  0.09094503  0.65905834  0.41678742  1
  Mn3.34+  Mn145  1  0.42002069  0.67692420  0.08379322  1
  Mn3.34+  Mn146  1  0.08207224  0.17304948  0.42045966  1
  Mn3.34+  Mn147  1  0.25256148  0.67141266  0.91429158  1
  Mn3.34+  Mn148  1  0.91890261  0.66493328  0.57801975  1
  Mn3.34+  Mn149  1  0.74791959  0.16685500  0.42026442  1
  Mn3.34+  Mn150  1  0.74986878  0.16844548  0.08536576  1
  Mn3.34+  Mn151  1  0.91312050  0.16417819  0.91940606  1
  Mn3.34+  Mn152  1  0.08030125  0.17107642  0.75475688  1
  Mn3.34+  Mn153  1  0.08099653  0.66382637  0.75384409  1
  Mn3.34+  Mn154  1  0.57311100  0.67519632  0.58677966  1
  Mn3.34+  Mn155  1  0.24245275  0.15702913  0.92340091  1
  Mn3.34+  Mn156  1  0.58532485  0.16274700  0.57843157  1
  Mn3.34+  Mn157  1  0.92898444  0.65974946  0.57627601  1
  Mn3.34+  Mn158  1  0.75998500  0.66141686  0.08280935  1
  Mn3.34+  Mn159  1  0.25280388  0.66157088  0.58264746  1
  Mn3.34+  Mn160  1  0.07577779  0.66209007  0.08228825  1
  Mn3.34+  Mn161  1  0.40977737  0.65985709  0.42026635  1
  Mn3.34+  Mn162  1  0.25020886  0.17077022  0.57902698  1
  Mn3.34+  Mn163  1  0.74358532  0.16163501  0.75678564  1
  Mn3.34+  Mn164  1  0.58808208  0.66441107  0.24306278  1
  Mn3.34+  Mn165  1  0.41982633  0.66512371  0.41887049  1
  Mn3.34+  Mn166  1  0.25325562  0.16157774  0.92594974  1
  Mn3.34+  Mn167  1  0.07191086  0.17749568  0.75370812  1
  Mn3.34+  Mn168  1  0.74609543  0.66952723  0.41590320  1
  Mn3.34+  Mn169  1  0.58594486  0.16819123  0.24959755  1
  Mn3.34+  Mn170  1  0.08013999  0.17002389  0.08557504  1
  Mn3.34+  Mn171  1  0.75743349  0.16776478  0.75550411  1
  Mn3.34+  Mn172  1  0.91010817  0.17192584  0.58017914  1
  Mn3.34+  Mn173  1  0.24575717  0.66012131  0.24894466  1
  Mn3.34+  Mn174  1  0.41236108  0.67027358  0.08492292  1
  Mn3.34+  Mn175  1  0.91292069  0.16852430  0.24619424  1
  Mn3.34+  Mn176  1  0.09001705  0.65824020  0.75592586  1
  Mn3.34+  Mn177  1  0.41883137  0.17101480  0.42288264  1
  Mn3.34+  Mn178  1  0.41992313  0.17165308  0.08427408  1
  Mn3.34+  Mn179  1  0.58782213  0.16293934  0.91580932  1
  Mn3.34+  Mn180  1  0.74150944  0.50713071  0.75223881  1
  Mn3.34+  Mn181  1  0.23647644  0.50390319  0.90982711  1
  Mn3.34+  Mn182  1  0.76809352  0.49155639  0.41911928  1
  Mn3.34+  Mn183  1  0.92655374  0.50190736  0.58751915  1
  Mn3.34+  Mn184  1  0.24999946  0.50975820  0.91029457  1
  Mn3.34+  Mn185  1  0.08716687  0.00090941  0.42166759  1
  Mn3.34+  Mn186  1  0.41488097  0.00440451  0.08394229  1
  Mn3.34+  Mn187  1  0.91490680  0.49791239  0.24361818  1
  Mn3.34+  Mn188  1  0.43003992  -0.00516433  0.42921826  1
  Mn3.34+  Mn189  1  0.41696988  0.00156214  0.43147477  1
  Mn3.34+  Mn190  1  0.08369816  -0.00038490  0.76051865  1
  Mn3.34+  Mn191  1  0.06923025  -0.00610290  0.06502934  1
  Mn3.34+  Mn192  1  0.90988868  -0.00026033  0.59459282  1
  Mn3.34+  Mn193  1  0.41023131  0.49695037  0.42360051  1
  Mn3.34+  Mn194  1  0.26088932  0.00365066  0.24382324  1
  Mn3.34+  Mn195  1  0.58910672  0.50614919  0.91606242  1
  Mn3.34+  Mn196  1  0.08720243  0.50029748  0.40256337  1
  Mn3.34+  Mn197  1  0.73697974  -0.00024370  0.41395892  1
  Mn3.34+  Mn198  1  0.75893422  0.50029078  0.07437037  1
  Mn3.34+  Mn199  1  0.75805554  0.49746912  0.42266339  1
  Mn3.34+  Mn200  1  0.42840861  0.50501092  0.08148668  1
  Mn3.34+  Mn201  1  0.75434302  0.50062765  0.75086446  1
  Mn3.34+  Mn202  1  0.92007714  -0.00586850  0.59760008  1
  Mn3.34+  Mn203  1  0.24600091  -0.00215732  0.24297188  1
  Mn3.34+  Mn204  1  0.24827616  -0.00001176  0.57917070  1
  Mn3.34+  Mn205  1  0.58140725  -0.00065957  0.24350908  1
  Mn3.34+  Mn206  1  0.41694112  -0.00897797  0.74598149  1
  Mn3.34+  Mn207  1  0.42713342  -0.00388873  0.74896993  1
  Mn3.34+  Mn208  1  0.08074976  0.00132326  0.06888086  1
  Mn3.34+  Mn209  1  0.41999954  0.50298219  0.74852017  1
  Mn3.34+  Mn210  1  0.59061390  0.50435416  0.25051230  1
  Mn3.34+  Mn211  1  0.91517574  0.00275432  0.24930931  1
  Mn3.34+  Mn212  1  0.41444312  0.49884556  0.08451996  1
  Mn3.34+  Mn213  1  0.23536030  -0.00638464  0.58397222  1
  Mn3.34+  Mn214  1  0.57758550  0.49868077  0.58420128  1
  Mn3.34+  Mn215  1  0.56461895  0.50526295  0.58652650  1
  O2-  O216  1  -0.00659654  0.16233293  0.00427774  1
  O2-  O217  1  -0.00160628  0.14994037  0.33276292  1
  O2-  O218  1  -0.00121094  0.17609272  0.66139712  1
  O2-  O219  1  0.00510637  0.67085879  0.00115339  1
  O2-  O220  1  0.01052571  0.65705443  0.33568494  1
  O2-  O221  1  0.00525759  0.64220659  0.66667983  1
  O2-  O222  1  0.34653126  0.14231750  -0.00355343  1
  O2-  O223  1  0.34071160  0.15111173  0.34268188  1
  O2-  O224  1  0.32724750  0.15745303  0.66372313  1
  O2-  O225  1  0.33168702  0.66494710  0.00490964  1
  O2-  O226  1  0.33744531  0.65416818  0.32967328  1
  O2-  O227  1  0.32750778  0.67555754  0.66430435  1
  O2-  O228  1  0.66826657  0.16434787  0.00054770  1
  O2-  O229  1  0.66422045  0.15446978  0.33629009  1
  O2-  O230  1  0.66865274  0.15476061  0.66349914  1
  O2-  O231  1  0.67905049  0.67750923  0.01102105  1
  O2-  O232  1  0.67110695  0.64639426  0.32752527  1
  O2-  O233  1  0.66625214  0.67693564  0.65374821  1
  O2-  O234  1  0.15496070  0.14785213  -0.00324836  1
  O2-  O235  1  0.16302904  0.15696151  0.34137703  1
  O2-  O236  1  0.16632738  0.16234652  0.66707263  1
  O2-  O237  1  0.16856326  0.65299422  -0.00121273  1
  O2-  O238  1  0.16800898  0.65312054  0.33101929  1
  O2-  O239  1  0.16574160  0.65289888  0.67071355  1
  O2-  O240  1  0.50892283  0.15556077  0.00756243  1
  O2-  O241  1  0.50077498  0.15461474  0.33464678  1
  O2-  O242  1  0.50867237  0.16977980  0.66094040  1
  O2-  O243  1  0.50220424  0.67163845  0.00744325  1
  O2-  O244  1  0.49753545  0.64803334  0.33026657  1
  O2-  O245  1  0.50338734  0.69473592  0.66622652  1
  O2-  O246  1  0.83085825  0.16353971  -0.00065963  1
  O2-  O247  1  0.83086713  0.14744826  0.33184179  1
  O2-  O248  1  0.83527232  0.14835776  0.66983955  1
  O2-  O249  1  0.83017966  0.66844910  0.00455026  1
  O2-  O250  1  0.83361380  0.65791874  0.34746108  1
  O2-  O251  1  0.84349836  0.64825806  0.66186478  1
  O2-  O252  1  0.00069644  0.33278569  -0.00468878  1
  O2-  O253  1  0.00389894  0.34302336  0.32935934  1
  O2-  O254  1  0.00032192  0.31766687  0.67155981  1
  O2-  O255  1  -0.00030528  0.83037509  0.00215816  1
  O2-  O256  1  -0.00431568  0.84039833  0.33345045  1
  O2-  O257  1  0.00376197  0.84290084  0.66369311  1
  O2-  O258  1  0.32822554  0.36636517  0.00291332  1
  O2-  O259  1  0.33189775  0.34988248  0.33825557  1
  O2-  O260  1  0.32087122  0.34045832  0.67293851  1
  O2-  O261  1  0.33357296  0.83065884  0.00355006  1
  O2-  O262  1  0.33852030  0.84462107  0.32940896  1
  O2-  O263  1  0.33332421  0.82240522  0.67069241  1
  O2-  O264  1  0.67253470  0.34061678  -0.00596092  1
  O2-  O265  1  0.65564063  0.33490633  0.33743243  1
  O2-  O266  1  0.66019777  0.32925944  0.66688563  1
  O2-  O267  1  0.66910444  0.83941806  -0.00111975  1
  O2-  O268  1  0.66923459  0.84811233  0.32741794  1
  O2-  O269  1  0.66166956  0.83177715  0.67047069  1
  O2-  O270  1  0.16144514  0.35195400  -0.00414705  1
  O2-  O271  1  0.16610348  0.35195135  0.33255637  1
  O2-  O272  1  0.16795892  0.31627726  0.66473753  1
  O2-  O273  1  0.17102624  0.84707206  0.00664531  1
  O2-  O274  1  0.16531500  0.84755121  0.33143926  1
  O2-  O275  1  0.17260030  0.83830147  0.67119834  1
  O2-  O276  1  0.50258181  0.34360922  -0.00018943  1
  O2-  O277  1  0.49709387  0.34291965  0.32980878  1
  O2-  O278  1  0.49935924  0.33103668  0.66596718  1
  O2-  O279  1  0.51106121  0.83869108  0.00576483  1
  O2-  O280  1  0.49941360  0.84296094  0.33229734  1
  O2-  O281  1  0.50151191  0.81764014  0.66382053  1
  O2-  O282  1  0.83559277  0.33671314  -0.00409918  1
  O2-  O283  1  0.83225992  0.33935305  0.33392662  1
  O2-  O284  1  0.84296092  0.33852470  0.67616210  1
  O2-  O285  1  0.83386035  0.81407697  0.00468040  1
  O2-  O286  1  0.83183106  0.84467507  0.32957204  1
  O2-  O287  1  0.83641165  0.83989251  0.66890343  1
  O2-  O288  1  0.00336581  0.17935507  0.17415610  1
  O2-  O289  1  -0.00340491  0.18447566  0.49759733  1
  O2-  O290  1  -0.00062126  0.19270614  0.84502532  1
  O2-  O291  1  0.00496039  0.67436096  0.16327785  1
  O2-  O292  1  -0.00381235  0.67923586  0.49057507  1
  O2-  O293  1  -0.00202688  0.67277166  0.82967852  1
  O2-  O294  1  0.34443687  0.17762473  0.16841126  1
  O2-  O295  1  0.33577705  0.18110174  0.50256309  1
  O2-  O296  1  0.32774608  0.17256079  0.83687708  1
  O2-  O297  1  0.33351161  0.68916730  0.16458115  1
  O2-  O298  1  0.33017359  0.68093415  0.49765965  1
  O2-  O299  1  0.32960431  0.68682202  0.83544708  1
  O2-  O300  1  0.66861181  0.18381533  0.17124562  1
  O2-  O301  1  0.66692285  0.18621652  0.50136428  1
  O2-  O302  1  0.66309588  0.19147795  0.83353995  1
  O2-  O303  1  0.66727801  0.68225699  0.16449673  1
  O2-  O304  1  0.66128425  0.67968810  0.49752587  1
  O2-  O305  1  0.67510317  0.67595737  0.84545745  1
  O2-  O306  1  0.15548645  0.17499444  0.17063765  1
  O2-  O307  1  0.16575179  0.18650467  0.50250099  1
  O2-  O308  1  0.17344336  0.18595293  0.82772013  1
  O2-  O309  1  0.16788712  0.67388796  0.16780053  1
  O2-  O310  1  0.16023071  0.67346914  0.50683016  1
  O2-  O311  1  0.16763039  0.68370405  0.83350018  1
  O2-  O312  1  0.49791410  0.18741431  0.17520591  1
  O2-  O313  1  0.50338430  0.18783040  0.50087542  1
  O2-  O314  1  0.49889104  0.17969601  0.85139069  1
  O2-  O315  1  0.49702373  0.69072631  0.16653942  1
  O2-  O316  1  0.50127273  0.68308602  0.49509771  1
  O2-  O317  1  0.50405865  0.67681564  0.81955921  1
  O2-  O318  1  0.83257637  0.18029898  0.16672731  1
  O2-  O319  1  0.83818725  0.18017495  0.49004215  1
  O2-  O320  1  0.83576986  0.19027325  0.83901708  1
  O2-  O321  1  0.82403811  0.68970665  0.16040233  1
  O2-  O322  1  0.82119298  0.67794718  0.51029633  1
  O2-  O323  1  0.83277221  0.67417692  0.83825213  1
  O2-  O324  1  0.00123747  0.31669920  0.17116623  1
  O2-  O325  1  -0.00277868  0.31727751  0.49937759  1
  O2-  O326  1  -0.00040973  0.31225226  0.83187311  1
  O2-  O327  1  0.00948293  0.82514763  0.17717310  1
  O2-  O328  1  -0.00671989  0.82161421  0.49224114  1
  O2-  O329  1  -0.00615673  0.82718553  0.82599985  1
  O2-  O330  1  0.33316580  0.32531251  0.16691193  1
  O2-  O331  1  0.33230170  0.30920806  0.50623514  1
  O2-  O332  1  0.34314794  0.32886078  0.84753303  1
  O2-  O333  1  0.33985817  0.82001009  0.16967515  1
  O2-  O334  1  0.32816576  0.81529104  0.49411432  1
  O2-  O335  1  0.33262489  0.81141060  0.82968677  1
  O2-  O336  1  0.66319654  0.31834621  0.16340404  1
  O2-  O337  1  0.66029747  0.31571867  0.49602546  1
  O2-  O338  1  0.66595280  0.31825870  0.83204328  1
  O2-  O339  1  0.66934519  0.81561903  0.16906165  1
  O2-  O340  1  0.66393035  0.81729239  0.50929960  1
  O2-  O341  1  0.66211623  0.82865905  0.82456423  1
  O2-  O342  1  0.17100694  0.32981594  0.16326025  1
  O2-  O343  1  0.17263330  0.31858741  0.49336879  1
  O2-  O344  1  0.17113153  0.30685277  0.83035343  1
  O2-  O345  1  0.16520999  0.83374037  0.17151331  1
  O2-  O346  1  0.16926032  0.82631983  0.49584473  1
  O2-  O347  1  0.16703684  0.81774799  0.83070050  1
  O2-  O348  1  0.49943848  0.30955484  0.17071745  1
  O2-  O349  1  0.50541491  0.31440826  0.49428182  1
  O2-  O350  1  0.49880533  0.32379456  0.83726063  1
  O2-  O351  1  0.49295032  0.81860066  0.17291799  1
  O2-  O352  1  0.50274567  0.81236950  0.50509289  1
  O2-  O353  1  0.50215793  0.81507993  0.82647415  1
  O2-  O354  1  0.83686010  0.32010595  0.16956652  1
  O2-  O355  1  0.83309857  0.31037156  0.50361501  1
  O2-  O356  1  0.82707256  0.31642430  0.84278798  1
  O2-  O357  1  0.82310007  0.83107629  0.17206463  1
  O2-  O358  1  0.83864592  0.82010006  0.49269760  1
  O2-  O359  1  0.83185780  0.82720343  0.83579029  1
  O2-  O360  1  0.07576622  0.07935634  0.11594286  1
  O2-  O361  1  0.07179780  0.08554175  0.44772353  1
  O2-  O362  1  0.08472249  0.08555252  0.79120322  1
  O2-  O363  1  0.08483424  0.58161541  0.09840802  1
  O2-  O364  1  0.07592011  0.57352776  0.44980615  1
  O2-  O365  1  0.08465972  0.58175934  0.79181711  1
  O2-  O366  1  0.42816660  0.08466210  0.11263313  1
  O2-  O367  1  0.43121067  0.08347535  0.45617954  1
  O2-  O368  1  0.40103315  0.07525674  0.79312505  1
  O2-  O369  1  0.41789505  0.58562449  0.11363436  1
  O2-  O370  1  0.43109550  0.57835387  0.44563417  1
  O2-  O371  1  0.41427117  0.57194574  0.78905835  1
  O2-  O372  1  0.74875949  0.08781525  0.10669721  1
  O2-  O373  1  0.74920197  0.08226436  0.45541237  1
  O2-  O374  1  0.75388627  0.08473055  0.79524651  1
  O2-  O375  1  0.74297215  0.57963129  0.10659682  1
  O2-  O376  1  0.74235138  0.57791244  0.46431727  1
  O2-  O377  1  0.75133150  0.58710316  0.76413815  1
  O2-  O378  1  0.25474843  0.08473984  0.22773468  1
  O2-  O379  1  0.22932156  0.07945840  0.54570680  1
  O2-  O380  1  0.24351161  0.07738804  0.87917311  1
  O2-  O381  1  0.26425429  0.58289902  0.21632242  1
  O2-  O382  1  0.25832089  0.58315681  0.58136773  1
  O2-  O383  1  0.25553321  0.58840908  0.88432911  1
  O2-  O384  1  0.57011534  0.08073828  0.21588704  1
  O2-  O385  1  0.58408760  0.08265938  0.55093318  1
  O2-  O386  1  0.57235058  0.07754912  0.88144783  1
  O2-  O387  1  0.57417018  0.58389604  0.20606701  1
  O2-  O388  1  0.59300761  0.58444245  0.55633938  1
  O2-  O389  1  0.61375290  0.58193133  0.91757389  1
  O2-  O390  1  0.91813281  0.08399030  0.21608637  1
  O2-  O391  1  0.92853558  0.07750626  0.54502170  1
  O2-  O392  1  0.91636052  0.08523392  0.88720390  1
  O2-  O393  1  0.91845021  0.57511758  0.22116894  1
  O2-  O394  1  0.91394932  0.57813801  0.53611258  1
  O2-  O395  1  0.91021196  0.56247857  0.89437799  1
  O2-  O396  1  0.08666674  0.41896167  0.11270021  1
  O2-  O397  1  0.08896088  0.42409903  0.44473990  1
  O2-  O398  1  0.08597727  0.41329694  0.77875575  1
  O2-  O399  1  0.07659427  0.92010539  0.11845233  1
  O2-  O400  1  0.06890621  0.91586197  0.42104307  1
  O2-  O401  1  0.09602419  0.91751803  0.77058079  1
  O2-  O402  1  0.43160010  0.41878792  0.11934321  1
  O2-  O403  1  0.43284608  0.41400287  0.44157780  1
  O2-  O404  1  0.42485413  0.42140674  0.77971033  1
  O2-  O405  1  0.39938568  0.92315825  0.11265760  1
  O2-  O406  1  0.40765006  0.91419586  0.44010497  1
  O2-  O407  1  0.40995782  0.91053940  0.76261389  1
  O2-  O408  1  0.74940489  0.41725008  0.08932116  1
  O2-  O409  1  0.73014624  0.41247264  0.44543525  1
  O2-  O410  1  0.73587128  0.42182393  0.78486891  1
  O2-  O411  1  0.71957831  0.92275955  0.11688048  1
  O2-  O412  1  0.76741919  0.91691676  0.43290465  1
  O2-  O413  1  0.75170923  0.91595408  0.76369102  1
  O2-  O414  1  0.27084233  0.42226188  0.21502146  1
  O2-  O415  1  0.24216652  0.41695271  0.56939750  1
  O2-  O416  1  0.24615996  0.42668409  0.86213879  1
  O2-  O417  1  0.26356264  0.91628804  0.23220323  1
  O2-  O418  1  0.25913862  0.91370928  0.56419655  1
  O2-  O419  1  0.26148947  0.91076404  0.90056380  1
  O2-  O420  1  0.56098001  0.42156965  0.21848788  1
  O2-  O421  1  0.57708163  0.42088312  0.54616344  1
  O2-  O422  1  0.57225055  0.42447932  0.87954524  1
  O2-  O423  1  0.56870220  0.91640801  0.21743850  1
  O2-  O424  1  0.57562904  0.91819709  0.60293963  1
  O2-  O425  1  0.58341454  0.91865894  0.89210066  1
  O2-  O426  1  0.93068902  0.41856099  0.22142913  1
  O2-  O427  1  0.92885685  0.42040134  0.59637661  1
  O2-  O428  1  0.90128306  0.41822453  0.86598209  1
  O2-  O429  1  0.91798624  0.91759150  0.23859188  1
  O2-  O430  1  0.91783144  0.91767348  0.55110876  1
  O2-  O431  1  0.91447170  0.91865133  0.90233866  1
  O2-  O432  1  -0.01551672  0.01988982  0.00180978  1
  O2-  O433  1  0.00619908  0.01192281  0.32929321  1
  O2-  O434  1  0.00179287  0.02194843  0.67486085  1
  O2-  O435  1  0.00111699  0.50257924  -0.03511942  1
  O2-  O436  1  0.00775928  0.50651197  0.32073107  1
  O2-  O437  1  -0.01880096  0.50768587  0.68769371  1
  O2-  O438  1  0.34376184  0.00706208  0.00206189  1
  O2-  O439  1  0.33039808  0.00643402  0.34364106  1
  O2-  O440  1  0.33521612  0.01897353  0.66129604  1
  O2-  O441  1  0.33190998  0.49278755  -0.00198165  1
  O2-  O442  1  0.34341247  0.48818245  0.33063722  1
  O2-  O443  1  0.32264886  0.49487923  0.70318811  1
  O2-  O444  1  0.66444761  0.01047547  0.00981877  1
  O2-  O445  1  0.68967113  -0.00086214  0.29630691  1
  O2-  O446  1  0.64801428  0.00792627  0.70206909  1
  O2-  O447  1  0.65168086  0.48701491  0.01160543  1
  O2-  O448  1  0.65869208  0.49942664  0.35661648  1
  O2-  O449  1  0.66586796  0.50748145  0.66109568  1
  O2-  O450  1  0.17826946  -0.00587493  0.00902583  1
  O2-  O451  1  0.16624180  0.01192713  0.32744794  1
  O2-  O452  1  0.17830959  0.02079410  0.68455671  1
  O2-  O453  1  0.17685410  0.48866370  0.00929321  1
  O2-  O454  1  0.16810891  0.48937350  0.33604609  1
  O2-  O455  1  0.16711862  0.50920727  0.68442963  1
  O2-  O456  1  0.50556945  0.00774353  0.01354752  1
  O2-  O457  1  0.49387931  0.00444756  0.32773772  1
  O2-  O458  1  0.49433882  0.02646969  0.66810936  1
  O2-  O459  1  0.48870988  0.48834998  -0.01722607  1
  O2-  O460  1  0.50148168  0.49211841  0.33828174  1
  O2-  O461  1  0.50851165  0.48766434  0.68365314  1
  O2-  O462  1  0.82836885  0.01084354  0.01234725  1
  O2-  O463  1  0.84993396  0.00948557  0.35635413  1
  O2-  O464  1  0.82726915  0.01537160  0.67140676  1
  O2-  O465  1  0.81067001  0.49905184  -0.02507571  1
  O2-  O466  1  0.83231474  0.51463827  0.32777864  1
  O2-  O467  1  0.82191131  0.51389619  0.65487557  1
  O2-  O468  1  0.24889589  0.74795922  0.27635195  1
  O2-  O469  1  0.40947189  0.25398835  0.74054654  1
  O2-  O470  1  0.09428722  0.25174478  0.06694379  1
  O2-  O471  1  0.09100180  0.75169678  0.07348660  1
  O2-  O472  1  0.91437291  0.75044281  0.26302557  1
  O2-  O473  1  0.40391416  0.24989538  0.04836933  1
  O2-  O474  1  0.24771067  0.25693946  0.26575324  1
  O2-  O475  1  0.08301945  0.25297358  0.39023384  1
  O2-  O476  1  0.92041062  0.75477122  0.91586473  1
  O2-  O477  1  0.58274322  0.74627766  0.28060744  1
  O2-  O478  1  0.41310614  0.24962090  0.38751486  1
  O2-  O479  1  0.75710950  0.75027587  0.74410440  1
  O2-  O480  1  0.25495147  0.24444249  0.95028085  1
  O2-  O481  1  0.41653898  0.74799164  0.39186225  1
  O2-  O482  1  0.74394348  0.75127152  0.39205868  1
  O2-  O483  1  0.75340159  0.25176494  0.06702069  1
  O2-  O484  1  0.92166042  0.74621003  0.60752376  1
  O2-  O485  1  0.07872096  0.74419534  0.72625904  1
  O2-  O486  1  0.91480521  0.24892429  0.27117949  1
  O2-  O487  1  0.74968962  0.24709661  0.38836149  1
  O2-  O488  1  0.75780865  0.24471442  0.71966822  1
  O2-  O489  1  0.58752486  0.75050910  0.91967833  1
  O2-  O490  1  0.23296158  0.74937596  0.94415073  1
  O2-  O491  1  0.08810489  0.74794623  0.39728060  1
  O2-  O492  1  0.23385645  0.74896751  0.59237592  1
