# generated using pymatgen
data_Ca108Mn108O277
_symmetry_space_group_name_H-M   'P 1'
_cell_length_a   16.03087809
_cell_length_b   22.31046657
_cell_length_c   16.39092982
_cell_angle_alpha   90.00264894
_cell_angle_beta   89.99712882
_cell_angle_gamma   90.00115060
_symmetry_Int_Tables_number   1
_chemical_formula_structural   Ca108Mn108O277
_chemical_formula_sum   'Ca108 Mn108 O277'
_cell_volume   5862.32044150
_cell_formula_units_Z   1
loop_
 _symmetry_equiv_pos_site_id
 _symmetry_equiv_pos_as_xyz
  1  'x, y, z'
loop_
 _atom_type_symbol
 _atom_type_oxidation_number
  Ca2+  2.0
  Mn3.34+  3.34
  O2-  -2.0
loop_
 _atom_site_type_symbol
 _atom_site_label
 _atom_site_symmetry_multiplicity
 _atom_site_fract_x
 _atom_site_fract_y
 _atom_site_fract_z
 _atom_site_occupancy
  Ca2+  Ca0  1  0.06742263  0.25620108  0.24835838  1
  Ca2+  Ca1  1  0.06226956  0.25329386  0.58483383  1
  Ca2+  Ca2  1  0.06398508  0.24707415  0.91880897  1
  Ca2+  Ca3  1  0.09796398  0.74209866  0.24403475  1
  Ca2+  Ca4  1  0.08648476  0.75782061  0.56811174  1
  Ca2+  Ca5  1  0.08367959  0.73996108  0.92862581  1
  Ca2+  Ca6  1  0.41944436  0.26217668  0.25261101  1
  Ca2+  Ca7  1  0.43230482  0.25039785  0.57575912  1
  Ca2+  Ca8  1  0.41474398  0.25876179  0.91734988  1
  Ca2+  Ca9  1  0.43754771  0.73636406  0.24670402  1
  Ca2+  Ca10  1  0.41486159  0.75718624  0.58741068  1
  Ca2+  Ca11  1  0.42794890  0.75440972  0.92977661  1
  Ca2+  Ca12  1  0.76016957  0.25724041  0.25065006  1
  Ca2+  Ca13  1  0.75473592  0.25027476  0.58128013  1
  Ca2+  Ca14  1  0.77481828  0.24371638  0.92928968  1
  Ca2+  Ca15  1  0.73002649  0.75582402  0.24282342  1
  Ca2+  Ca16  1  0.75377963  0.76311053  0.56921731  1
  Ca2+  Ca17  1  0.73856484  0.75236521  0.93621215  1
  Ca2+  Ca18  1  0.25703470  0.25422171  0.07111235  1
  Ca2+  Ca19  1  0.26075200  0.25653920  0.41309037  1
  Ca2+  Ca20  1  0.25635191  0.25353875  0.77352471  1
  Ca2+  Ca21  1  0.24519452  0.73946486  0.08184744  1
  Ca2+  Ca22  1  0.23136348  0.73214127  0.40782040  1
  Ca2+  Ca23  1  0.27611717  0.74759622  0.75351115  1
  Ca2+  Ca24  1  0.57621846  0.25541616  0.07097714  1
  Ca2+  Ca25  1  0.57733931  0.25296364  0.42028025  1
  Ca2+  Ca26  1  0.57470329  0.24772936  0.75969577  1
  Ca2+  Ca27  1  0.59160832  0.72108404  0.07061496  1
  Ca2+  Ca28  1  0.60012560  0.73510341  0.39961876  1
  Ca2+  Ca29  1  0.55643194  0.74466579  0.78269494  1
  Ca2+  Ca30  1  0.91926588  0.25149207  0.07381333  1
  Ca2+  Ca31  1  0.91325031  0.25324479  0.41861236  1
  Ca2+  Ca32  1  0.92418074  0.25056597  0.76604667  1
  Ca2+  Ca33  1  0.91194341  0.74454409  0.07088018  1
  Ca2+  Ca34  1  0.91394406  0.75138321  0.42116797  1
  Ca2+  Ca35  1  0.91196137  0.76585778  0.76779106  1
  Ca2+  Ca36  1  0.07944449  0.60178299  0.56390196  1
  Ca2+  Ca37  1  0.24838679  0.59443963  0.06827905  1
  Ca2+  Ca38  1  0.90664807  0.07889170  0.74132015  1
  Ca2+  Ca39  1  0.24431463  0.08122086  0.74720615  1
  Ca2+  Ca40  1  0.56866760  0.09318468  0.45283564  1
  Ca2+  Ca41  1  0.89768576  0.08568237  0.05254950  1
  Ca2+  Ca42  1  0.05816289  0.07823255  0.58905454  1
  Ca2+  Ca43  1  0.75709522  0.60466621  0.55866340  1
  Ca2+  Ca44  1  0.71266498  0.60491901  0.22876363  1
  Ca2+  Ca45  1  0.93072524  0.58769925  0.42136884  1
  Ca2+  Ca46  1  0.57221446  0.58659054  0.37628327  1
  Ca2+  Ca47  1  0.70746267  0.61115758  0.22738168  1
  Ca2+  Ca48  1  0.08235465  0.58129225  0.96442427  1
  Ca2+  Ca49  1  0.26158684  0.08439478  0.40044022  1
  Ca2+  Ca50  1  0.91484409  0.08634893  0.41629233  1
  Ca2+  Ca51  1  0.61412062  0.08619380  0.07231197  1
  Ca2+  Ca52  1  0.08484315  0.60619034  0.57040535  1
  Ca2+  Ca53  1  0.40531556  0.61553076  0.92090635  1
  Ca2+  Ca54  1  0.92350472  0.59075428  0.41515646  1
  Ca2+  Ca55  1  0.93371676  0.59393374  0.75983070  1
  Ca2+  Ca56  1  0.39718925  0.61230041  0.92535706  1
  Ca2+  Ca57  1  0.09267974  0.60099620  0.22374915  1
  Ca2+  Ca58  1  0.76846169  0.59491680  0.96043106  1
  Ca2+  Ca59  1  0.42308171  0.60870620  0.58459994  1
  Ca2+  Ca60  1  0.43258306  0.60732007  0.58058336  1
  Ca2+  Ca61  1  0.41997558  0.09473806  0.92329637  1
  Ca2+  Ca62  1  0.59752797  0.07480005  0.69539703  1
  Ca2+  Ca63  1  0.25016105  0.61546805  0.77573069  1
  Ca2+  Ca64  1  0.41692223  0.08280290  0.27112462  1
  Ca2+  Ca65  1  0.58732068  0.07363372  0.69072535  1
  Ca2+  Ca66  1  0.55596397  0.61541964  0.76868548  1
  Ca2+  Ca67  1  0.74587433  0.60621220  0.55608940  1
  Ca2+  Ca68  1  0.08290778  0.08818401  0.25628943  1
  Ca2+  Ca69  1  0.74780660  0.08199403  0.24861837  1
  Ca2+  Ca70  1  0.76095696  0.59878507  0.96510421  1
  Ca2+  Ca71  1  0.24168471  0.61131939  0.78292406  1
  Ca2+  Ca72  1  0.42088323  0.89974436  0.25084189  1
  Ca2+  Ca73  1  0.91265029  0.89898227  0.42817378  1
  Ca2+  Ca74  1  0.44117284  0.42356263  0.25886523  1
  Ca2+  Ca75  1  0.76994618  0.40803454  0.92707895  1
  Ca2+  Ca76  1  0.06952111  0.91363273  0.93958798  1
  Ca2+  Ca77  1  0.76151676  0.91705100  0.59193017  1
  Ca2+  Ca78  1  0.24054121  0.89388058  0.08457411  1
  Ca2+  Ca79  1  0.42791364  0.90363088  0.58322567  1
  Ca2+  Ca80  1  0.56653239  0.42153693  0.09040682  1
  Ca2+  Ca81  1  0.59428494  0.39509567  0.74000308  1
  Ca2+  Ca82  1  0.05954824  0.42405921  0.58488647  1
  Ca2+  Ca83  1  0.93409320  0.41781297  0.41146619  1
  Ca2+  Ca84  1  0.23413598  0.40714267  0.76390779  1
  Ca2+  Ca85  1  0.07173302  0.42134073  0.58667298  1
  Ca2+  Ca86  1  0.92441126  0.41365133  0.41083154  1
  Ca2+  Ca87  1  0.24173855  0.42906786  0.06446973  1
  Ca2+  Ca88  1  0.25333789  0.89239402  0.74963693  1
  Ca2+  Ca89  1  0.73474794  0.41768879  0.25886501  1
  Ca2+  Ca90  1  0.24675539  0.40818686  0.76365054  1
  Ca2+  Ca91  1  0.60006713  0.89860586  0.08802690  1
  Ca2+  Ca92  1  0.07932586  0.42371464  0.92718022  1
  Ca2+  Ca93  1  0.39632224  0.42685854  0.94557640  1
  Ca2+  Ca94  1  0.08137689  0.89505810  0.23440251  1
  Ca2+  Ca95  1  0.76090893  0.41077108  0.58284037  1
  Ca2+  Ca96  1  0.58546593  0.90243959  0.41969873  1
  Ca2+  Ca97  1  0.91627852  0.40757156  0.75556344  1
  Ca2+  Ca98  1  0.93608583  0.43184580  0.05891093  1
  Ca2+  Ca99  1  0.24394129  0.89418230  0.75371841  1
  Ca2+  Ca100  1  0.24913169  0.40498724  0.40401558  1
  Ca2+  Ca101  1  0.09037190  0.89813007  0.23782608  1
  Ca2+  Ca102  1  0.58330731  0.40820154  0.40876082  1
  Ca2+  Ca103  1  0.58200253  0.39543784  0.73963012  1
  Ca2+  Ca104  1  0.58907270  0.90263633  0.74315543  1
  Ca2+  Ca105  1  0.76244264  0.91094886  0.93714226  1
  Ca2+  Ca106  1  0.23248223  0.43148039  0.06797481  1
  Ca2+  Ca107  1  0.07548564  0.41501090  0.25051745  1
  Mn3.34+  Mn108  1  0.08350693  0.33412010  0.08686885  1
  Mn3.34+  Mn109  1  0.08681230  0.33141309  0.41841122  1
  Mn3.34+  Mn110  1  0.08030303  0.33355730  0.75197749  1
  Mn3.34+  Mn111  1  0.07836208  0.82809782  0.08055450  1
  Mn3.34+  Mn112  1  0.08427946  0.82922928  0.41641079  1
  Mn3.34+  Mn113  1  0.07699219  0.83445824  0.74957785  1
  Mn3.34+  Mn114  1  0.41602757  0.33701360  0.09041984  1
  Mn3.34+  Mn115  1  0.41563818  0.33475225  0.42032206  1
  Mn3.34+  Mn116  1  0.41322938  0.33371700  0.74738431  1
  Mn3.34+  Mn117  1  0.41983291  0.82920158  0.08480850  1
  Mn3.34+  Mn118  1  0.41541697  0.83269943  0.41804271  1
  Mn3.34+  Mn119  1  0.42097727  0.83011879  0.75203415  1
  Mn3.34+  Mn120  1  0.74951085  0.33491424  0.08767123  1
  Mn3.34+  Mn121  1  0.74870962  0.33340343  0.41515131  1
  Mn3.34+  Mn122  1  0.75409243  0.32471563  0.75242031  1
  Mn3.34+  Mn123  1  0.75690396  0.83615428  0.09135771  1
  Mn3.34+  Mn124  1  0.75084350  0.83094272  0.41098309  1
  Mn3.34+  Mn125  1  0.75148730  0.83747022  0.75390855  1
  Mn3.34+  Mn126  1  0.24941959  0.33418968  0.24241905  1
  Mn3.34+  Mn127  1  0.24700238  0.33182095  0.58141705  1
  Mn3.34+  Mn128  1  0.24803841  0.33554471  0.92103442  1
  Mn3.34+  Mn129  1  0.25706623  0.83058027  0.25511767  1
  Mn3.34+  Mn130  1  0.24892063  0.82968005  0.57459292  1
  Mn3.34+  Mn131  1  0.25048269  0.82775999  0.91766985  1
  Mn3.34+  Mn132  1  0.58571229  0.33660403  0.24276608  1
  Mn3.34+  Mn133  1  0.58747814  0.32919381  0.57647816  1
  Mn3.34+  Mn134  1  0.58256728  0.33365839  0.91946864  1
  Mn3.34+  Mn135  1  0.58405778  0.83353510  0.24975319  1
  Mn3.34+  Mn136  1  0.58753046  0.83940640  0.57865058  1
  Mn3.34+  Mn137  1  0.58383724  0.83413464  0.91846747  1
  Mn3.34+  Mn138  1  0.91374355  0.33591860  0.24097995  1
  Mn3.34+  Mn139  1  0.91353805  0.33182539  0.58330161  1
  Mn3.34+  Mn140  1  0.91976879  0.33632147  0.91899363  1
  Mn3.34+  Mn141  1  0.91147051  0.83102226  0.24910765  1
  Mn3.34+  Mn142  1  0.92538824  0.84466786  0.59001373  1
  Mn3.34+  Mn143  1  0.91723578  0.83408155  0.91925036  1
  Mn3.34+  Mn144  1  0.07570659  0.15604320  0.08158892  1
  Mn3.34+  Mn145  1  0.07958347  0.67516270  0.75044828  1
  Mn3.34+  Mn146  1  0.42055565  0.16928361  0.42201475  1
  Mn3.34+  Mn147  1  0.58838036  0.16766034  0.92079012  1
  Mn3.34+  Mn148  1  0.75471013  0.16599372  0.08823302  1
  Mn3.34+  Mn149  1  0.08714772  0.16083397  0.75732021  1
  Mn3.34+  Mn150  1  0.91140209  0.66882104  0.24565703  1
  Mn3.34+  Mn151  1  0.25238201  0.16430317  0.92116873  1
  Mn3.34+  Mn152  1  0.74225418  0.67518543  0.75077889  1
  Mn3.34+  Mn153  1  0.25534945  0.66652610  0.24750293  1
  Mn3.34+  Mn154  1  0.92286985  0.66117641  0.24068497  1
  Mn3.34+  Mn155  1  0.24654578  0.16896593  0.24400245  1
  Mn3.34+  Mn156  1  0.74249916  0.16531061  0.42293868  1
  Mn3.34+  Mn157  1  0.41215149  0.66913748  0.40970589  1
  Mn3.34+  Mn158  1  0.41923088  0.16928025  0.08248651  1
  Mn3.34+  Mn159  1  0.58765301  0.17089336  0.24488141  1
  Mn3.34+  Mn160  1  0.24877839  0.17379648  0.57959819  1
  Mn3.34+  Mn161  1  0.41189720  0.15893802  0.74987095  1
  Mn3.34+  Mn162  1  0.75303902  0.16922114  0.76038564  1
  Mn3.34+  Mn163  1  0.75234114  0.16015421  0.42584023  1
  Mn3.34+  Mn164  1  0.25563004  0.17484652  0.24556210  1
  Mn3.34+  Mn165  1  0.74795764  0.16416608  0.74901527  1
  Mn3.34+  Mn166  1  0.75489506  0.66789869  0.75375810  1
  Mn3.34+  Mn167  1  0.08628102  0.16053022  0.07941619  1
  Mn3.34+  Mn168  1  0.42342386  0.16486580  0.74897620  1
  Mn3.34+  Mn169  1  0.92214738  0.66752433  0.91618442  1
  Mn3.34+  Mn170  1  0.24036293  0.16805841  0.57707469  1
  Mn3.34+  Mn171  1  0.07922436  0.16946696  0.41744421  1
  Mn3.34+  Mn172  1  0.91652171  0.67259842  0.58574574  1
  Mn3.34+  Mn173  1  0.58653494  0.67492679  0.58119732  1
  Mn3.34+  Mn174  1  0.07719030  0.15522624  0.75854021  1
  Mn3.34+  Mn175  1  0.91688159  0.16334010  0.58060116  1
  Mn3.34+  Mn176  1  0.57849645  0.16517896  0.24272130  1
  Mn3.34+  Mn177  1  0.24813352  0.66841012  0.58120864  1
  Mn3.34+  Mn178  1  0.91247321  0.16851810  0.24833344  1
  Mn3.34+  Mn179  1  0.42028726  0.65948479  0.09420601  1
  Mn3.34+  Mn180  1  0.40843253  0.50120887  0.75703533  1
  Mn3.34+  Mn181  1  0.25688589  0.00309326  0.57665758  1
  Mn3.34+  Mn182  1  0.91253089  0.00052366  0.23676756  1
  Mn3.34+  Mn183  1  0.91563835  0.49881329  0.24486651  1
  Mn3.34+  Mn184  1  0.58435232  0.50027824  0.58089542  1
  Mn3.34+  Mn185  1  0.08046662  0.50600496  0.75217508  1
  Mn3.34+  Mn186  1  0.25105211  -0.00050584  0.24642737  1
  Mn3.34+  Mn187  1  0.74727595  -0.00175944  0.41825776  1
  Mn3.34+  Mn188  1  0.58924131  -0.00122071  0.25727358  1
  Mn3.34+  Mn189  1  0.41791274  -0.00108671  0.41492324  1
  Mn3.34+  Mn190  1  0.08845107  -0.00618946  0.41973743  1
  Mn3.34+  Mn191  1  0.75689678  0.49418337  0.08664255  1
  Mn3.34+  Mn192  1  0.41265789  -0.00475973  0.75514691  1
  Mn3.34+  Mn193  1  0.25060719  0.51033726  0.25887455  1
  Mn3.34+  Mn194  1  0.42109118  0.49717178  0.42118134  1
  Mn3.34+  Mn195  1  0.26153380  0.49705900  0.56781714  1
  Mn3.34+  Mn196  1  0.74277368  0.49968795  0.75546621  1
  Mn3.34+  Mn197  1  0.58586229  -0.00085254  0.91601954  1
  Mn3.34+  Mn198  1  0.91506743  -0.00517659  0.93351147  1
  Mn3.34+  Mn199  1  0.25279095  0.50224646  0.57575925  1
  Mn3.34+  Mn200  1  0.07146640  -0.00689917  0.74094703  1
  Mn3.34+  Mn201  1  0.23281121  0.00505314  0.92841782  1
  Mn3.34+  Mn202  1  0.42372848  0.00029583  0.08552493  1
  Mn3.34+  Mn203  1  0.41108984  0.00712413  0.08790065  1
  Mn3.34+  Mn204  1  0.75671317  -0.00438086  0.74428121  1
  Mn3.34+  Mn205  1  0.57679345  0.50398626  0.91972114  1
  Mn3.34+  Mn206  1  0.90294301  -0.00434955  0.23851833  1
  Mn3.34+  Mn207  1  0.59631742  0.00402862  0.91748576  1
  Mn3.34+  Mn208  1  0.24516460  -0.00202069  0.92692059  1
  Mn3.34+  Mn209  1  0.74377099  0.49797485  0.40804238  1
  Mn3.34+  Mn210  1  0.25093416  0.50288279  0.26547218  1
  Mn3.34+  Mn211  1  0.59060989  0.49745163  0.92257590  1
  Mn3.34+  Mn212  1  0.24331042  -0.00341795  0.57710427  1
  Mn3.34+  Mn213  1  0.07780471  0.00013953  0.42184004  1
  Mn3.34+  Mn214  1  0.42357527  0.50612268  0.76004194  1
  Mn3.34+  Mn215  1  0.75851856  0.50393995  0.75610037  1
  O2-  O216  1  -0.00379070  0.15170992  0.00316407  1
  O2-  O217  1  -0.00198404  0.15093303  0.33325199  1
  O2-  O218  1  -0.00092034  0.15135768  0.66819386  1
  O2-  O219  1  0.00561867  0.66021700  -0.01658735  1
  O2-  O220  1  -0.00123833  0.64549265  0.32529019  1
  O2-  O221  1  0.00237737  0.65689681  0.66272450  1
  O2-  O222  1  0.34103737  0.15444135  -0.00241243  1
  O2-  O223  1  0.33327991  0.15963087  0.33411295  1
  O2-  O224  1  0.32703987  0.15773499  0.66772143  1
  O2-  O225  1  0.32674570  0.67389242  0.00645068  1
  O2-  O226  1  0.32585398  0.65685214  0.34202660  1
  O2-  O227  1  0.32387523  0.64081889  0.66507964  1
  O2-  O228  1  0.67093584  0.17581126  0.00726322  1
  O2-  O229  1  0.66702352  0.15700261  0.32909203  1
  O2-  O230  1  0.66548304  0.18327321  0.67563619  1
  O2-  O231  1  0.68147601  0.66486210  -0.00981018  1
  O2-  O232  1  0.66549751  0.65609615  0.33501631  1
  O2-  O233  1  0.66821327  0.64801349  0.66639883  1
  O2-  O234  1  0.16832810  0.15695431  0.00148994  1
  O2-  O235  1  0.16573563  0.17202541  0.33388348  1
  O2-  O236  1  0.16157113  0.14692424  0.66760687  1
  O2-  O237  1  0.17242196  0.66494618  -0.00906907  1
  O2-  O238  1  0.16734205  0.65590856  0.31763541  1
  O2-  O239  1  0.16265816  0.65310222  0.66561964  1
  O2-  O240  1  0.50968113  0.14453355  0.00931083  1
  O2-  O241  1  0.50082012  0.15656055  0.33055430  1
  O2-  O242  1  0.50432540  0.16434923  0.67056667  1
  O2-  O243  1  0.49104194  0.66291839  0.00568950  1
  O2-  O244  1  0.49560723  0.66528449  0.34122573  1
  O2-  O245  1  0.50453017  0.66798603  0.66080892  1
  O2-  O246  1  0.83357757  0.17320878  0.01448110  1
  O2-  O247  1  0.82616127  0.14270824  0.33901095  1
  O2-  O248  1  0.82862975  0.15651562  0.66793887  1
  O2-  O249  1  0.84556830  0.66971353  -0.00183793  1
  O2-  O250  1  0.84268993  0.64231186  0.32976465  1
  O2-  O251  1  0.83231604  0.65297046  0.66925037  1
  O2-  O252  1  0.00415249  0.35152505  0.00001236  1
  O2-  O253  1  0.00157703  0.34650884  0.33246790  1
  O2-  O254  1  0.00025348  0.35233887  0.66371510  1
  O2-  O255  1  -0.00325300  0.84314054  0.00204826  1
  O2-  O256  1  0.00031897  0.85115066  0.33356520  1
  O2-  O257  1  0.00036486  0.80184443  0.66788185  1
  O2-  O258  1  0.32461791  0.35239092  0.01249199  1
  O2-  O259  1  0.33105791  0.34182273  0.32883901  1
  O2-  O260  1  0.31523553  0.34064906  0.67862245  1
  O2-  O261  1  0.32578082  0.82375898  0.00546873  1
  O2-  O262  1  0.33494203  0.85045077  0.33489916  1
  O2-  O263  1  0.33316175  0.84076509  0.66864172  1
  O2-  O264  1  0.67220868  0.33565972  -0.00161971  1
  O2-  O265  1  0.66580633  0.33586373  0.32939659  1
  O2-  O266  1  0.66889242  0.32184603  0.66615838  1
  O2-  O267  1  0.67230384  0.84329717  -0.00817672  1
  O2-  O268  1  0.66416818  0.84567672  0.33437897  1
  O2-  O269  1  0.67390511  0.84574025  0.65840923  1
  O2-  O270  1  0.16633977  0.34775548  0.00319455  1
  O2-  O271  1  0.16921334  0.32490003  0.33325302  1
  O2-  O272  1  0.15907804  0.35475435  0.66003765  1
  O2-  O273  1  0.16066542  0.83757048  -0.00756646  1
  O2-  O274  1  0.16167945  0.84484923  0.32779779  1
  O2-  O275  1  0.16421085  0.83744840  0.66702785  1
  O2-  O276  1  0.49724550  0.35464052  0.00305119  1
  O2-  O277  1  0.50453640  0.34079924  0.32760485  1
  O2-  O278  1  0.50681239  0.32888926  0.66403996  1
  O2-  O279  1  0.50356152  0.84797268  0.00518672  1
  O2-  O280  1  0.50126815  0.84575659  0.33800100  1
  O2-  O281  1  0.50370304  0.84007872  0.66563094  1
  O2-  O282  1  0.83656300  0.34011755  0.00530685  1
  O2-  O283  1  0.83499654  0.35632310  0.33248505  1
  O2-  O284  1  0.83154900  0.34616925  0.66837744  1
  O2-  O285  1  0.83398452  0.83690025  -0.00162323  1
  O2-  O286  1  0.83775046  0.84817479  0.33507649  1
  O2-  O287  1  0.83689230  0.83905892  0.66406848  1
  O2-  O288  1  0.00309891  0.18336314  0.16625881  1
  O2-  O289  1  -0.00113193  0.18733958  0.49586272  1
  O2-  O290  1  -0.00265132  0.17410916  0.83253098  1
  O2-  O291  1  0.00374840  0.67774946  0.16887137  1
  O2-  O292  1  -0.00391122  0.67391329  0.50308779  1
  O2-  O293  1  -0.00937670  0.68492521  0.81990525  1
  O2-  O294  1  0.33441502  0.19008517  0.16402599  1
  O2-  O295  1  0.33270304  0.18721889  0.49891887  1
  O2-  O296  1  0.33481512  0.17600523  0.83081120  1
  O2-  O297  1  0.33793699  0.68426901  0.16997665  1
  O2-  O298  1  0.34088420  0.67302856  0.51394864  1
  O2-  O299  1  0.32148038  0.67594265  0.84117257  1
  O2-  O300  1  0.66752379  0.18925446  0.16467283  1
  O2-  O301  1  0.66393108  0.18598611  0.49911790  1
  O2-  O302  1  0.67301320  0.19293893  0.83652364  1
  O2-  O303  1  0.66415967  0.68308781  0.17168593  1
  O2-  O304  1  0.67404155  0.68393350  0.51249593  1
  O2-  O305  1  0.66096152  0.68143829  0.82550506  1
  O2-  O306  1  0.16082336  0.18514786  0.16560604  1
  O2-  O307  1  0.16055531  0.19513827  0.49761461  1
  O2-  O308  1  0.17320212  0.18095774  0.83152697  1
  O2-  O309  1  0.17697957  0.67434958  0.16570090  1
  O2-  O310  1  0.16122118  0.67876593  0.51020280  1
  O2-  O311  1  0.16434751  0.69292522  0.81836148  1
  O2-  O312  1  0.49774186  0.19264025  0.16872037  1
  O2-  O313  1  0.50245610  0.18380911  0.49357446  1
  O2-  O314  1  0.49467036  0.17571411  0.84101950  1
  O2-  O315  1  0.50067739  0.66407060  0.16521281  1
  O2-  O316  1  0.49625980  0.68215009  0.50647777  1
  O2-  O317  1  0.48608734  0.67115083  0.85209226  1
  O2-  O318  1  0.82814130  0.18858457  0.17243353  1
  O2-  O319  1  0.83715334  0.18601144  0.50088332  1
  O2-  O320  1  0.83443022  0.18318235  0.82915270  1
  O2-  O321  1  0.82730072  0.67929930  0.17512432  1
  O2-  O322  1  0.83442863  0.68627970  0.51114013  1
  O2-  O323  1  0.83143573  0.68874469  0.83382756  1
  O2-  O324  1  -0.00012134  0.31843011  0.16477216  1
  O2-  O325  1  -0.00278655  0.31628755  0.49534719  1
  O2-  O326  1  -0.00131700  0.32450260  0.83145382  1
  O2-  O327  1  0.00915533  0.81876550  0.17884868  1
  O2-  O328  1  -0.00359845  0.81830723  0.49930067  1
  O2-  O329  1  0.00653847  0.82492029  0.83854967  1
  O2-  O330  1  0.33187042  0.31029185  0.16750915  1
  O2-  O331  1  0.33091076  0.31078171  0.50861358  1
  O2-  O332  1  0.33305945  0.33091950  0.84009006  1
  O2-  O333  1  0.33121456  0.82740536  0.16861489  1
  O2-  O334  1  0.34468565  0.82764529  0.51120802  1
  O2-  O335  1  0.33238040  0.82083749  0.83111668  1
  O2-  O336  1  0.66578332  0.30869859  0.16587743  1
  O2-  O337  1  0.67015744  0.31118898  0.49920979  1
  O2-  O338  1  0.66051944  0.31831651  0.82268558  1
  O2-  O339  1  0.66117002  0.82644091  0.16346229  1
  O2-  O340  1  0.66375367  0.81938849  0.49626870  1
  O2-  O341  1  0.66102982  0.81922757  0.82344079  1
  O2-  O342  1  0.16602864  0.30845143  0.16759711  1
  O2-  O343  1  0.16475793  0.30974602  0.50212096  1
  O2-  O344  1  0.17265518  0.32261052  0.82817282  1
  O2-  O345  1  0.16650000  0.82145040  0.16632660  1
  O2-  O346  1  0.17371637  0.81369385  0.49166600  1
  O2-  O347  1  0.17787028  0.81662369  0.82361617  1
  O2-  O348  1  0.50292457  0.31666822  0.16651644  1
  O2-  O349  1  0.50668566  0.31788945  0.49705211  1
  O2-  O350  1  0.50442435  0.33073759  0.82292615  1
  O2-  O351  1  0.49314794  0.83061273  0.17427851  1
  O2-  O352  1  0.50265768  0.81586372  0.50461432  1
  O2-  O353  1  0.49900562  0.82813694  0.83340791  1
  O2-  O354  1  0.83214736  0.31406047  0.16427096  1
  O2-  O355  1  0.83327886  0.32726118  0.49673651  1
  O2-  O356  1  0.83232951  0.31931992  0.83637024  1
  O2-  O357  1  0.83650047  0.81303330  0.16918811  1
  O2-  O358  1  0.83743029  0.82151717  0.49661341  1
  O2-  O359  1  0.82638680  0.82560359  0.84167718  1
  O2-  O360  1  0.07181483  0.07881225  0.12252173  1
  O2-  O361  1  0.09628662  0.08099809  0.45135031  1
  O2-  O362  1  0.09846118  0.07305748  0.79000949  1
  O2-  O363  1  0.11481541  0.56223438  0.10078539  1
  O2-  O364  1  0.04452575  0.55596359  0.46407329  1
  O2-  O365  1  0.09162763  0.58548777  0.79215734  1
  O2-  O366  1  0.42396453  0.08352555  0.13330484  1
  O2-  O367  1  0.41345773  0.08364554  0.44060584  1
  O2-  O368  1  0.41599236  0.07682628  0.78425489  1
  O2-  O369  1  0.39664675  0.58506411  0.07098979  1
  O2-  O370  1  0.42623216  0.57900281  0.44948330  1
  O2-  O371  1  0.41817599  0.58682588  0.76973036  1
  O2-  O372  1  0.75366557  0.08695957  0.11193318  1
  O2-  O373  1  0.74712477  0.07928623  0.45884082  1
  O2-  O374  1  0.73716375  0.07717955  0.77025131  1
  O2-  O375  1  0.75566470  0.57521398  0.10092085  1
  O2-  O376  1  0.77435912  0.57389098  0.43488728  1
  O2-  O377  1  0.75975652  0.58426714  0.78330621  1
  O2-  O378  1  0.24727591  0.08292924  0.22374730  1
  O2-  O379  1  0.24296585  0.08241756  0.53763733  1
  O2-  O380  1  0.26266829  0.07795286  0.87942149  1
  O2-  O381  1  0.25644827  0.58203300  0.21150216  1
  O2-  O382  1  0.23220443  0.58205717  0.55015042  1
  O2-  O383  1  0.29570239  0.55241526  0.86692370  1
  O2-  O384  1  0.59527314  0.07909182  0.20934943  1
  O2-  O385  1  0.58182426  0.06749509  0.57024728  1
  O2-  O386  1  0.58968234  0.08235870  0.87276986  1
  O2-  O387  1  0.58636870  0.56735113  0.23814340  1
  O2-  O388  1  0.58272308  0.58133776  0.54722299  1
  O2-  O389  1  0.60794010  0.57699756  0.88413644  1
  O2-  O390  1  0.90354965  0.08253868  0.20598298  1
  O2-  O391  1  0.92662675  0.08565931  0.54768138  1
  O2-  O392  1  0.91090009  0.05578629  0.87330377  1
  O2-  O393  1  0.92390394  0.58033374  0.21483523  1
  O2-  O394  1  0.89243456  0.58153570  0.55181862  1
  O2-  O395  1  0.89140292  0.58733227  0.88992442  1
  O2-  O396  1  0.09787362  0.41380233  0.11442094  1
  O2-  O397  1  0.07078537  0.41734038  0.45158200  1
  O2-  O398  1  0.09599215  0.42290723  0.78621021  1
  O2-  O399  1  0.09012223  0.91231472  0.10590634  1
  O2-  O400  1  0.07309203  0.91458835  0.44513486  1
  O2-  O401  1  0.11594284  0.92367506  0.78803570  1
  O2-  O402  1  0.41554789  0.41435878  0.12543134  1
  O2-  O403  1  0.40779487  0.41723087  0.44858652  1
  O2-  O404  1  0.41089928  0.41912166  0.77050813  1
  O2-  O405  1  0.40356617  0.91962476  0.10620070  1
  O2-  O406  1  0.43320239  0.91933649  0.44597581  1
  O2-  O407  1  0.39246165  0.91602326  0.76155867  1
  O2-  O408  1  0.73992731  0.41842368  0.12285383  1
  O2-  O409  1  0.72811725  0.41992643  0.44590872  1
  O2-  O410  1  0.73162485  0.41717641  0.77427320  1
  O2-  O411  1  0.74612414  0.91563220  0.09258689  1
  O2-  O412  1  0.74898775  0.91907873  0.45038208  1
  O2-  O413  1  0.74611891  0.92195620  0.78677473  1
  O2-  O414  1  0.24911063  0.42541422  0.20661095  1
  O2-  O415  1  0.23005685  0.41961191  0.53687097  1
  O2-  O416  1  0.24349800  0.41904336  0.89663878  1
  O2-  O417  1  0.23226271  0.91853848  0.22293140  1
  O2-  O418  1  0.25640440  0.91550047  0.57537250  1
  O2-  O419  1  0.25273424  0.92104980  0.88445767  1
  O2-  O420  1  0.58586306  0.41694679  0.22509157  1
  O2-  O421  1  0.60368987  0.41673059  0.58082189  1
  O2-  O422  1  0.59334436  0.42237172  0.87195200  1
  O2-  O423  1  0.57000501  0.92291863  0.22305247  1
  O2-  O424  1  0.57758059  0.91719724  0.55874075  1
  O2-  O425  1  0.59363714  0.91953685  0.88337604  1
  O2-  O426  1  0.92207224  0.41993926  0.20414865  1
  O2-  O427  1  0.92379433  0.41877126  0.54884407  1
  O2-  O428  1  0.90994410  0.41799021  0.89033464  1
  O2-  O429  1  0.93478141  0.91532265  0.22053864  1
  O2-  O430  1  0.90597427  0.92123082  0.55957009  1
  O2-  O431  1  0.91961610  0.92329221  0.89200905  1
  O2-  O432  1  -0.00570062  0.00356623  -0.00311911  1
  O2-  O433  1  -0.00143190  0.01408944  0.32695327  1
  O2-  O434  1  -0.00725172  0.02077127  0.67670148  1
  O2-  O435  1  0.01455419  0.49632362  -0.00770706  1
  O2-  O436  1  -0.01231149  0.48980016  0.33320503  1
  O2-  O437  1  0.02259147  0.50569298  0.64730893  1
  O2-  O438  1  0.32958256  0.00855784  0.00527687  1
  O2-  O439  1  0.33229318  0.00993131  0.33164158  1
  O2-  O440  1  0.32396094  0.00995586  0.67663480  1
  O2-  O441  1  0.32283724  0.49295971  0.01894681  1
  O2-  O442  1  0.34537367  0.48754453  0.33150831  1
  O2-  O443  1  0.34310297  0.49741337  0.65760818  1
  O2-  O444  1  0.65313022  -0.00189869  0.01703449  1
  O2-  O445  1  0.66433831  0.01650266  0.33963772  1
  O2-  O446  1  0.67056442  -0.01101888  0.67749578  1
  O2-  O447  1  0.66210709  0.49235843  0.01253518  1
  O2-  O448  1  0.67360445  0.50002228  0.32920966  1
  O2-  O449  1  0.67755077  0.50795047  0.65781965  1
  O2-  O450  1  0.15856372  -0.01765453  0.00465779  1
  O2-  O451  1  0.16108128  0.01069364  0.32598960  1
  O2-  O452  1  0.15828112  0.01272090  0.65905244  1
  O2-  O453  1  0.16020481  0.49945348  -0.00044863  1
  O2-  O454  1  0.15671572  0.47959896  0.32296214  1
  O2-  O455  1  0.18272691  0.48514921  0.67303306  1
  O2-  O456  1  0.49197340  0.01738720  -0.00986737  1
  O2-  O457  1  0.49708175  0.00820039  0.32640975  1
  O2-  O458  1  0.51863903  -0.00851332  0.71536488  1
  O2-  O459  1  0.49655666  0.48516758  -0.00383740  1
  O2-  O460  1  0.51278549  0.48809250  0.36396449  1
  O2-  O461  1  0.50639318  0.50511120  0.67368519  1
  O2-  O462  1  0.83085181  0.00009379  -0.00643828  1
  O2-  O463  1  0.83488864  0.01022814  0.33558056  1
  O2-  O464  1  0.83381265  0.00203884  0.67610130  1
  O2-  O465  1  0.82404548  0.49245162  -0.00059208  1
  O2-  O466  1  0.83617610  0.48147422  0.33986554  1
  O2-  O467  1  0.84334888  0.48445016  0.68339228  1
  O2-  O468  1  0.07963401  0.74997755  0.06674446  1
  O2-  O469  1  0.41739815  0.25117771  0.39031524  1
  O2-  O470  1  0.07855900  0.75274823  0.39150743  1
  O2-  O471  1  0.75730451  0.75356189  0.71829376  1
  O2-  O472  1  0.41970633  0.75319287  0.73021146  1
  O2-  O473  1  0.92414959  0.75299833  0.93030657  1
  O2-  O474  1  0.40207339  0.75151735  0.39654146  1
  O2-  O475  1  0.26013521  0.25268921  0.93335718  1
  O2-  O476  1  0.76388959  0.24661369  0.38876717  1
  O2-  O477  1  0.91446042  0.24975542  0.61522093  1
  O2-  O478  1  0.58099340  0.75560211  0.26476444  1
  O2-  O479  1  0.43265941  0.75058282  0.07613112  1
  O2-  O480  1  0.74701668  0.75551334  0.07359611  1
  O2-  O481  1  0.56019295  0.25119202  0.93355375  1
  O2-  O482  1  0.40843091  0.24901990  0.73484402  1
  O2-  O483  1  0.07879663  0.24629518  0.05519344  1
  O2-  O484  1  0.91906148  0.74662051  0.28197802  1
  O2-  O485  1  0.75388376  0.75414642  0.38932761  1
  O2-  O486  1  0.91661490  0.25261641  0.28115086  1
  O2-  O487  1  0.57921734  0.75631657  0.93048655  1
  O2-  O488  1  0.08067966  0.24556996  0.72489776  1
  O2-  O489  1  0.42022712  0.25272351  0.05150762  1
  O2-  O490  1  0.92517872  0.25597130  0.93538457  1
  O2-  O491  1  0.24805354  0.75033770  0.27234892  1
  O2-  O492  1  0.25789743  0.74756333  0.60946121  1
