# generated using pymatgen
data_Ca108Mn108O277
_symmetry_space_group_name_H-M   'P 1'
_cell_length_a   16.02770967
_cell_length_b   22.30615130
_cell_length_c   16.38811606
_cell_angle_alpha   90.00403318
_cell_angle_beta   90.00006993
_cell_angle_gamma   90.00285640
_symmetry_Int_Tables_number   1
_chemical_formula_structural   Ca108Mn108O277
_chemical_formula_sum   'Ca108 Mn108 O277'
_cell_volume   5859.02215310
_cell_formula_units_Z   1
loop_
 _symmetry_equiv_pos_site_id
 _symmetry_equiv_pos_as_xyz
  1  'x, y, z'
loop_
 _atom_type_symbol
 _atom_type_oxidation_number
  Ca2+  2.0
  Mn3.34+  3.34
  O2-  -2.0
loop_
 _atom_site_type_symbol
 _atom_site_label
 _atom_site_symmetry_multiplicity
 _atom_site_fract_x
 _atom_site_fract_y
 _atom_site_fract_z
 _atom_site_occupancy
  Ca2+  Ca0  1  0.08791845  0.24938689  0.24526143  1
  Ca2+  Ca1  1  0.08432609  0.25437681  0.56730152  1
  Ca2+  Ca2  1  0.08972649  0.24657338  0.93705470  1
  Ca2+  Ca3  1  0.10515560  0.74108845  0.25054395  1
  Ca2+  Ca4  1  0.08333802  0.74852753  0.58475825  1
  Ca2+  Ca5  1  0.08538864  0.74970410  0.91655464  1
  Ca2+  Ca6  1  0.40644262  0.25082388  0.24634155  1
  Ca2+  Ca7  1  0.42188998  0.25580010  0.59199157  1
  Ca2+  Ca8  1  0.42152673  0.23424093  0.91488525  1
  Ca2+  Ca9  1  0.39252027  0.75293544  0.25301579  1
  Ca2+  Ca10  1  0.42873441  0.75627374  0.59011593  1
  Ca2+  Ca11  1  0.41202859  0.76104833  0.91203244  1
  Ca2+  Ca12  1  0.75935114  0.24270734  0.25102140  1
  Ca2+  Ca13  1  0.74800357  0.25237708  0.57942937  1
  Ca2+  Ca14  1  0.72943775  0.24582256  0.91457473  1
  Ca2+  Ca15  1  0.76186172  0.76104461  0.25236360  1
  Ca2+  Ca16  1  0.73005432  0.74166234  0.58966303  1
  Ca2+  Ca17  1  0.75263364  0.75783355  0.90655992  1
  Ca2+  Ca18  1  0.23895746  0.23989481  0.09014053  1
  Ca2+  Ca19  1  0.23947484  0.25557789  0.41077982  1
  Ca2+  Ca20  1  0.27313145  0.24852784  0.76229315  1
  Ca2+  Ca21  1  0.24001663  0.74976019  0.09549244  1
  Ca2+  Ca22  1  0.23879235  0.74256562  0.40796326  1
  Ca2+  Ca23  1  0.24901542  0.74204560  0.74674692  1
  Ca2+  Ca24  1  0.57261587  0.23358310  0.05991448  1
  Ca2+  Ca25  1  0.57216232  0.25988838  0.41429931  1
  Ca2+  Ca26  1  0.56105260  0.24105080  0.77034395  1
  Ca2+  Ca27  1  0.58119792  0.77414934  0.07990638  1
  Ca2+  Ca28  1  0.58224854  0.75901972  0.44352065  1
  Ca2+  Ca29  1  0.58220886  0.75170815  0.73526904  1
  Ca2+  Ca30  1  0.93354197  0.24215751  0.09165619  1
  Ca2+  Ca31  1  0.94036392  0.24715116  0.41325599  1
  Ca2+  Ca32  1  0.92317783  0.26908225  0.75832515  1
  Ca2+  Ca33  1  0.93587526  0.74758056  0.08433623  1
  Ca2+  Ca34  1  0.92976827  0.75022732  0.42651028  1
  Ca2+  Ca35  1  0.91203025  0.74929440  0.74351265  1
  Ca2+  Ca36  1  0.07521868  0.59628623  0.94208048  1
  Ca2+  Ca37  1  0.88928036  0.10506017  0.42273922  1
  Ca2+  Ca38  1  0.08370696  0.59863120  0.59261632  1
  Ca2+  Ca39  1  0.06775581  0.09856835  0.57349297  1
  Ca2+  Ca40  1  0.76072733  0.08555864  0.23723252  1
  Ca2+  Ca41  1  0.24302481  0.09833679  0.40808182  1
  Ca2+  Ca42  1  0.76124223  0.60404308  0.90884657  1
  Ca2+  Ca43  1  0.29359225  0.09539982  0.78328120  1
  Ca2+  Ca44  1  0.89996406  0.10419960  0.42140007  1
  Ca2+  Ca45  1  0.09595070  0.60253194  0.21717363  1
  Ca2+  Ca46  1  0.93754665  0.60710143  0.75564557  1
  Ca2+  Ca47  1  0.08591301  0.59748347  0.94237818  1
  Ca2+  Ca48  1  0.56138047  0.57427983  0.05848936  1
  Ca2+  Ca49  1  0.54660200  0.08425307  0.75579895  1
  Ca2+  Ca50  1  0.60468985  0.08743016  0.41183023  1
  Ca2+  Ca51  1  0.28438284  0.09694817  0.78690824  1
  Ca2+  Ca52  1  0.42662067  0.59164126  0.59026625  1
  Ca2+  Ca53  1  0.59137006  0.59558668  0.72103843  1
  Ca2+  Ca54  1  0.09479627  0.59781069  0.59227053  1
  Ca2+  Ca55  1  0.76869045  0.08933524  0.24154958  1
  Ca2+  Ca56  1  0.42935350  0.07013334  0.60906343  1
  Ca2+  Ca57  1  0.41227479  0.09245812  0.24555825  1
  Ca2+  Ca58  1  0.89833994  0.06912988  0.73744091  1
  Ca2+  Ca59  1  0.57383176  0.57629729  0.05637993  1
  Ca2+  Ca60  1  0.91088381  0.07143876  0.73491858  1
  Ca2+  Ca61  1  0.40516512  0.59369468  0.92147795  1
  Ca2+  Ca62  1  0.43896560  0.59205951  0.58763491  1
  Ca2+  Ca63  1  0.60436602  0.60452228  0.45706134  1
  Ca2+  Ca64  1  0.73441738  0.06947755  0.59390533  1
  Ca2+  Ca65  1  0.23405475  0.09538673  0.02669859  1
  Ca2+  Ca66  1  0.06610695  0.10065459  0.24308309  1
  Ca2+  Ca67  1  0.22689667  0.60574901  0.09059863  1
  Ca2+  Ca68  1  0.07576690  0.10478110  0.24167022  1
  Ca2+  Ca69  1  0.23591340  0.58777949  0.39493581  1
  Ca2+  Ca70  1  0.42207976  0.09697521  0.92131743  1
  Ca2+  Ca71  1  0.89722638  0.08861887  0.08716203  1
  Ca2+  Ca72  1  0.09335216  0.41381528  0.24498178  1
  Ca2+  Ca73  1  0.08136614  0.41202084  0.92181059  1
  Ca2+  Ca74  1  0.90361987  0.90700522  0.74821621  1
  Ca2+  Ca75  1  0.08953121  0.40436756  0.58440428  1
  Ca2+  Ca76  1  0.42641300  0.40685401  0.57892433  1
  Ca2+  Ca77  1  0.08837976  0.90462532  0.59793632  1
  Ca2+  Ca78  1  0.74429518  0.91109964  0.24222900  1
  Ca2+  Ca79  1  0.91053947  0.91551262  0.08574279  1
  Ca2+  Ca80  1  0.23848331  0.41453290  0.07588594  1
  Ca2+  Ca81  1  0.26542083  0.91019291  0.75141373  1
  Ca2+  Ca82  1  0.24316023  0.40202901  0.74824414  1
  Ca2+  Ca83  1  0.92217896  0.40094122  0.41430844  1
  Ca2+  Ca84  1  0.43599861  0.89976777  0.24443363  1
  Ca2+  Ca85  1  0.75820394  0.90962062  0.91593252  1
  Ca2+  Ca86  1  0.90146301  0.91652089  0.09176256  1
  Ca2+  Ca87  1  0.74960699  0.39609122  0.24950582  1
  Ca2+  Ca88  1  0.07572357  0.90387089  0.59711513  1
  Ca2+  Ca89  1  0.93601707  0.41181474  0.07194553  1
  Ca2+  Ca90  1  0.08229223  0.41453875  0.24574042  1
  Ca2+  Ca91  1  0.40633605  0.41295846  0.93278605  1
  Ca2+  Ca92  1  0.75852554  0.39575669  0.91516121  1
  Ca2+  Ca93  1  0.25346867  0.90218065  0.42123518  1
  Ca2+  Ca94  1  0.73011923  0.91995729  0.59945254  1
  Ca2+  Ca95  1  0.58426027  0.92639801  0.73213555  1
  Ca2+  Ca96  1  0.76261903  0.39618236  0.24932911  1
  Ca2+  Ca97  1  0.39216183  0.92048550  0.91868098  1
  Ca2+  Ca98  1  0.58896684  0.40919098  0.73567218  1
  Ca2+  Ca99  1  0.57747445  0.40355444  0.07953542  1
  Ca2+  Ca100  1  0.90323714  0.90797530  0.40661425  1
  Ca2+  Ca101  1  0.07488070  0.90051743  0.24383982  1
  Ca2+  Ca102  1  0.26602551  0.90309094  0.42308452  1
  Ca2+  Ca103  1  0.39976746  0.40967329  0.24658710  1
  Ca2+  Ca104  1  0.43952100  0.92230537  0.60118899  1
  Ca2+  Ca105  1  0.41738787  0.41269395  0.93050349  1
  Ca2+  Ca106  1  0.58495308  0.40603832  0.72723271  1
  Ca2+  Ca107  1  0.41111620  0.41006701  0.24694398  1
  Mn3.34+  Mn108  1  0.08526874  0.33377175  0.08289661  1
  Mn3.34+  Mn109  1  0.08679607  0.33544816  0.41683775  1
  Mn3.34+  Mn110  1  0.08361698  0.33482578  0.75081052  1
  Mn3.34+  Mn111  1  0.09032584  0.83738822  0.07665435  1
  Mn3.34+  Mn112  1  0.08123729  0.83114610  0.41794648  1
  Mn3.34+  Mn113  1  0.08379851  0.82971609  0.76059546  1
  Mn3.34+  Mn114  1  0.41372679  0.33344550  0.08685126  1
  Mn3.34+  Mn115  1  0.41428719  0.33235229  0.41935623  1
  Mn3.34+  Mn116  1  0.41395924  0.33067765  0.75209216  1
  Mn3.34+  Mn117  1  0.41318169  0.83867955  0.08076511  1
  Mn3.34+  Mn118  1  0.42499421  0.83826772  0.41943773  1
  Mn3.34+  Mn119  1  0.41795726  0.83663277  0.75479977  1
  Mn3.34+  Mn120  1  0.75044521  0.32200991  0.08122270  1
  Mn3.34+  Mn121  1  0.75229840  0.32842808  0.42368684  1
  Mn3.34+  Mn122  1  0.75570813  0.33083482  0.74561644  1
  Mn3.34+  Mn123  1  0.74761563  0.83763561  0.08297158  1
  Mn3.34+  Mn124  1  0.74388489  0.83724201  0.42043099  1
  Mn3.34+  Mn125  1  0.74708153  0.83751596  0.75241247  1
  Mn3.34+  Mn126  1  0.24794348  0.33289769  0.25250720  1
  Mn3.34+  Mn127  1  0.25205894  0.33449048  0.58176446  1
  Mn3.34+  Mn128  1  0.24797985  0.33067027  0.91643102  1
  Mn3.34+  Mn129  1  0.24865421  0.83235277  0.24453573  1
  Mn3.34+  Mn130  1  0.25671124  0.82996099  0.58624606  1
  Mn3.34+  Mn131  1  0.24357026  0.84046235  0.91589712  1
  Mn3.34+  Mn132  1  0.58260248  0.33225434  0.25185618  1
  Mn3.34+  Mn133  1  0.58911007  0.33611716  0.57533555  1
  Mn3.34+  Mn134  1  0.58347400  0.33208909  0.91288969  1
  Mn3.34+  Mn135  1  0.58610460  0.83047345  0.25360262  1
  Mn3.34+  Mn136  1  0.58436079  0.83770465  0.58527282  1
  Mn3.34+  Mn137  1  0.58146423  0.84018961  0.91049003  1
  Mn3.34+  Mn138  1  0.91994982  0.33015346  0.24652598  1
  Mn3.34+  Mn139  1  0.91465531  0.33184891  0.57984898  1
  Mn3.34+  Mn140  1  0.91888177  0.33386976  0.91665451  1
  Mn3.34+  Mn141  1  0.91636310  0.83696979  0.24847274  1
  Mn3.34+  Mn142  1  0.90939788  0.83159365  0.58057966  1
  Mn3.34+  Mn143  1  0.92362275  0.83469489  0.91274379  1
  Mn3.34+  Mn144  1  0.74799337  0.16276467  0.75647835  1
  Mn3.34+  Mn145  1  0.41076478  0.16567820  0.08101786  1
  Mn3.34+  Mn146  1  0.24957947  0.16640948  0.24580811  1
  Mn3.34+  Mn147  1  0.41648265  0.16502764  0.41402813  1
  Mn3.34+  Mn148  1  0.92094473  0.16597403  0.92386775  1
  Mn3.34+  Mn149  1  0.92463790  0.66250807  0.25397431  1
  Mn3.34+  Mn150  1  0.25991903  0.16806371  0.58110103  1
  Mn3.34+  Mn151  1  0.59376822  0.67040414  0.25163404  1
  Mn3.34+  Mn152  1  0.91056397  0.17451268  0.58576164  1
  Mn3.34+  Mn153  1  0.58204329  0.67099679  0.90761243  1
  Mn3.34+  Mn154  1  0.58975348  0.16866209  0.24392360  1
  Mn3.34+  Mn155  1  0.41713706  0.67017485  0.08736591  1
  Mn3.34+  Mn156  1  0.07806131  0.16122218  0.75655962  1
  Mn3.34+  Mn157  1  0.57699350  0.16336911  0.57526545  1
  Mn3.34+  Mn158  1  0.25130231  0.66681334  0.58718697  1
  Mn3.34+  Mn159  1  0.91168305  0.66641911  0.25854865  1
  Mn3.34+  Mn160  1  0.24592895  0.16190152  0.58001735  1
  Mn3.34+  Mn161  1  0.09008852  0.16833750  0.75320854  1
  Mn3.34+  Mn162  1  0.40767782  0.66446362  0.08811206  1
  Mn3.34+  Mn163  1  0.91279425  0.66941276  0.58106806  1
  Mn3.34+  Mn164  1  0.41362783  0.67209193  0.75468483  1
  Mn3.34+  Mn165  1  0.57803646  0.16057394  0.24154821  1
  Mn3.34+  Mn166  1  0.92164876  0.67332830  0.91022799  1
  Mn3.34+  Mn167  1  0.75661926  0.66980247  0.42356736  1
  Mn3.34+  Mn168  1  0.41863988  0.66094759  0.41449569  1
  Mn3.34+  Mn169  1  0.58396017  0.67557759  0.25341157  1
  Mn3.34+  Mn170  1  0.90766179  0.15941886  0.92274054  1
  Mn3.34+  Mn171  1  0.75860515  0.66595586  0.08218745  1
  Mn3.34+  Mn172  1  0.91480057  0.16930487  0.24781436  1
  Mn3.34+  Mn173  1  0.40864488  0.66624038  0.41453513  1
  Mn3.34+  Mn174  1  0.58728874  0.16809169  0.57511768  1
  Mn3.34+  Mn175  1  0.74813297  0.67156547  0.08161708  1
  Mn3.34+  Mn176  1  0.75177617  0.67277234  0.74630804  1
  Mn3.34+  Mn177  1  0.73885612  0.15688224  0.75742630  1
  Mn3.34+  Mn178  1  0.08415573  0.66335809  0.41947826  1
  Mn3.34+  Mn179  1  0.24585569  0.66830187  0.90741364  1
  Mn3.34+  Mn180  1  0.24780525  0.50268824  0.91661448  1
  Mn3.34+  Mn181  1  0.08671137  0.50097229  0.74717014  1
  Mn3.34+  Mn182  1  0.26041256  0.00088493  0.23563800  1
  Mn3.34+  Mn183  1  0.91922612  0.50114898  0.91394881  1
  Mn3.34+  Mn184  1  0.41055901  0.50779290  0.75405463  1
  Mn3.34+  Mn185  1  0.59853006  0.00616671  0.93893593  1
  Mn3.34+  Mn186  1  0.41402155  0.49420394  0.41460341  1
  Mn3.34+  Mn187  1  0.74771811  0.49699420  0.42800090  1
  Mn3.34+  Mn188  1  0.07449906  0.49991895  0.40785467  1
  Mn3.34+  Mn189  1  0.25022788  0.00069548  0.58814673  1
  Mn3.34+  Mn190  1  0.76028157  0.50338365  0.42582304  1
  Mn3.34+  Mn191  1  0.92195856  0.49919376  0.57545442  1
  Mn3.34+  Mn192  1  0.75056501  -0.00240480  0.40718925  1
  Mn3.34+  Mn193  1  0.58070519  0.50963858  0.25662660  1
  Mn3.34+  Mn194  1  0.39575894  0.50255516  0.75414752  1
  Mn3.34+  Mn195  1  0.58543201  0.49953334  0.90901260  1
  Mn3.34+  Mn196  1  0.09075304  -0.00191697  0.75480081  1
  Mn3.34+  Mn197  1  0.58801307  -0.00144623  0.93887645  1
  Mn3.34+  Mn198  1  0.58294571  -0.00073291  0.24228703  1
  Mn3.34+  Mn199  1  0.09166336  -0.00522897  0.06120598  1
  Mn3.34+  Mn200  1  0.08263738  0.00331284  0.41500842  1
  Mn3.34+  Mn201  1  0.91292538  -0.00298665  0.57729954  1
  Mn3.34+  Mn202  1  0.76682248  0.50549062  0.08532667  1
  Mn3.34+  Mn203  1  0.24566325  -0.00370758  0.23431352  1
  Mn3.34+  Mn204  1  0.24730594  0.49992230  0.57499614  1
  Mn3.34+  Mn205  1  0.76163151  0.50050624  0.74945559  1
  Mn3.34+  Mn206  1  0.91087868  0.50002570  0.24526175  1
  Mn3.34+  Mn207  1  0.42516911  0.00380902  0.40974383  1
  Mn3.34+  Mn208  1  0.25207691  0.50372566  0.25108821  1
  Mn3.34+  Mn209  1  0.75396424  0.49792076  0.08570409  1
  Mn3.34+  Mn210  1  0.75140674  0.50532223  0.74787047  1
  Mn3.34+  Mn211  1  0.59499910  0.50422055  0.25732727  1
  Mn3.34+  Mn212  1  0.40620623  0.00098647  0.07578630  1
  Mn3.34+  Mn213  1  0.07089394  -0.00121496  0.41264849  1
  Mn3.34+  Mn214  1  0.90913924  0.50554270  0.57486044  1
  Mn3.34+  Mn215  1  0.91594041  -0.00027041  0.92578948  1
  O2-  O216  1  -0.00771124  0.15102849  0.00767028  1
  O2-  O217  1  -0.01118484  0.15033504  0.33798368  1
  O2-  O218  1  -0.00943275  0.15072511  0.67554130  1
  O2-  O219  1  0.00136001  0.68013230  -0.00876410  1
  O2-  O220  1  0.00046107  0.65207936  0.33848899  1
  O2-  O221  1  0.00081252  0.65929751  0.65912019  1
  O2-  O222  1  0.33199419  0.16908275  0.00521782  1
  O2-  O223  1  0.33536400  0.15092753  0.33102707  1
  O2-  O224  1  0.33133955  0.14656995  0.66376412  1
  O2-  O225  1  0.33052229  0.65944759  -0.00426687  1
  O2-  O226  1  0.32810706  0.65641566  0.33924523  1
  O2-  O227  1  0.33533936  0.64952459  0.66653381  1
  O2-  O228  1  0.68104841  0.18636666  0.00875133  1
  O2-  O229  1  0.67054995  0.15484524  0.32299744  1
  O2-  O230  1  0.66979103  0.14848479  0.65664592  1
  O2-  O231  1  0.65767891  0.65237357  0.00099509  1
  O2-  O232  1  0.67628445  0.67725779  0.33252162  1
  O2-  O233  1  0.66860604  0.66697231  0.67512774  1
  O2-  O234  1  0.17870138  0.18576127  -0.00518363  1
  O2-  O235  1  0.16679544  0.14901782  0.32262009  1
  O2-  O236  1  0.15875326  0.14455587  0.65776847  1
  O2-  O237  1  0.17125438  0.67255601  -0.00888083  1
  O2-  O238  1  0.15878489  0.65651310  0.33719572  1
  O2-  O239  1  0.16435994  0.66684248  0.65917965  1
  O2-  O240  1  0.49160381  0.15994287  0.00535644  1
  O2-  O241  1  0.50832821  0.14218563  0.33098561  1
  O2-  O242  1  0.50175828  0.15208549  0.65675502  1
  O2-  O243  1  0.49891566  0.65909558  0.00243424  1
  O2-  O244  1  0.50499330  0.65477780  0.33480199  1
  O2-  O245  1  0.49224600  0.65583672  0.67423167  1
  O2-  O246  1  0.83112541  0.16990148  0.00412589  1
  O2-  O247  1  0.82729682  0.15967663  0.32751897  1
  O2-  O248  1  0.83038085  0.15262818  0.67222593  1
  O2-  O249  1  0.83204734  0.66855742  -0.01079455  1
  O2-  O250  1  0.83580689  0.67301388  0.33651504  1
  O2-  O251  1  0.83927558  0.65698504  0.67015549  1
  O2-  O252  1  0.00416926  0.34486367  0.00006194  1
  O2-  O253  1  0.00410546  0.35184824  0.32618888  1
  O2-  O254  1  0.00187401  0.33408537  0.65604520  1
  O2-  O255  1  0.00067914  0.82026656  0.00098647  1
  O2-  O256  1  -0.00406927  0.84936402  0.33741655  1
  O2-  O257  1  0.00010231  0.83784067  0.67149522  1
  O2-  O258  1  0.32886360  0.34611527  0.00374778  1
  O2-  O259  1  0.33433358  0.34473353  0.33011611  1
  O2-  O260  1  0.33424209  0.34753631  0.66927307  1
  O2-  O261  1  0.33322613  0.83691080  -0.01102446  1
  O2-  O262  1  0.33734572  0.85244191  0.33055684  1
  O2-  O263  1  0.33884063  0.85088507  0.66240790  1
  O2-  O264  1  0.66662750  0.34079341  -0.00183138  1
  O2-  O265  1  0.67626295  0.33059779  0.33025001  1
  O2-  O266  1  0.66995798  0.34285062  0.66419018  1
  O2-  O267  1  0.66944136  0.83269826  -0.00833948  1
  O2-  O268  1  0.66580612  0.80749511  0.33882073  1
  O2-  O269  1  0.66356874  0.84455773  0.67269149  1
  O2-  O270  1  0.16543331  0.34296790  -0.00194317  1
  O2-  O271  1  0.16396458  0.35379225  0.32962576  1
  O2-  O272  1  0.16591076  0.34522331  0.66523922  1
  O2-  O273  1  0.17087155  0.80897212  0.00035580  1
  O2-  O274  1  0.16933810  0.84781356  0.33899459  1
  O2-  O275  1  0.16565297  0.83564787  0.66710777  1
  O2-  O276  1  0.49681764  0.34831625  -0.00243536  1
  O2-  O277  1  0.49561528  0.35175646  0.32825704  1
  O2-  O278  1  0.49739876  0.34472173  0.66971471  1
  O2-  O279  1  0.49931562  0.83183560  -0.00658262  1
  O2-  O280  1  0.49983560  0.82667566  0.33035658  1
  O2-  O281  1  0.50199701  0.84620500  0.67167317  1
  O2-  O282  1  0.83687368  0.33594103  0.00517258  1
  O2-  O283  1  0.83547479  0.33772701  0.33328865  1
  O2-  O284  1  0.83813347  0.31220877  0.66192100  1
  O2-  O285  1  0.84134898  0.84781884  -0.00020460  1
  O2-  O286  1  0.82133373  0.84524530  0.32667177  1
  O2-  O287  1  0.82862211  0.85042143  0.66162164  1
  O2-  O288  1  0.00201618  0.17496904  0.17663338  1
  O2-  O289  1  -0.00398832  0.18163613  0.51280949  1
  O2-  O290  1  -0.00105934  0.17991344  0.84037771  1
  O2-  O291  1  0.00062611  0.68145481  0.17666851  1
  O2-  O292  1  0.00848888  0.67881085  0.50875013  1
  O2-  O293  1  -0.00153264  0.68320658  0.83215118  1
  O2-  O294  1  0.33425198  0.18366710  0.17103026  1
  O2-  O295  1  0.32913610  0.18477068  0.49313540  1
  O2-  O296  1  0.33808766  0.17893258  0.83665470  1
  O2-  O297  1  0.32766077  0.67567268  0.16489207  1
  O2-  O298  1  0.33961822  0.67257354  0.50990077  1
  O2-  O299  1  0.33574335  0.68749946  0.83874245  1
  O2-  O300  1  0.66832988  0.18499667  0.16748733  1
  O2-  O301  1  0.66086311  0.18214007  0.49401589  1
  O2-  O302  1  0.65510958  0.17030490  0.82960292  1
  O2-  O303  1  0.66438656  0.69356892  0.16366355  1
  O2-  O304  1  0.67040771  0.68815550  0.48899672  1
  O2-  O305  1  0.67369240  0.68413322  0.83954787  1
  O2-  O306  1  0.16325636  0.17064396  0.17400459  1
  O2-  O307  1  0.17041577  0.17965897  0.50080041  1
  O2-  O308  1  0.18057328  0.17427307  0.82111905  1
  O2-  O309  1  0.15952110  0.68159732  0.15653042  1
  O2-  O310  1  0.16873444  0.67976611  0.50098799  1
  O2-  O311  1  0.16785496  0.68704527  0.83773518  1
  O2-  O312  1  0.49304500  0.17392561  0.17101216  1
  O2-  O313  1  0.49793683  0.18656114  0.49494347  1
  O2-  O314  1  0.48809983  0.16777579  0.83085017  1
  O2-  O315  1  0.50196192  0.68868947  0.16952168  1
  O2-  O316  1  0.49683692  0.67332394  0.49627370  1
  O2-  O317  1  0.49904366  0.68966151  0.83455816  1
  O2-  O318  1  0.83433321  0.17874875  0.17081807  1
  O2-  O319  1  0.83777454  0.18293645  0.49941284  1
  O2-  O320  1  0.83527617  0.18248367  0.83735477  1
  O2-  O321  1  0.83318013  0.68001449  0.17404972  1
  O2-  O322  1  0.83495619  0.69346578  0.50105021  1
  O2-  O323  1  0.83521253  0.68319889  0.83189835  1
  O2-  O324  1  0.00312118  0.32908954  0.16793514  1
  O2-  O325  1  -0.00147077  0.31962640  0.49398456  1
  O2-  O326  1  0.00586322  0.32915495  0.83835665  1
  O2-  O327  1  -0.00119400  0.82546933  0.16277619  1
  O2-  O328  1  0.00798732  0.82414189  0.50887115  1
  O2-  O329  1  -0.00288522  0.80667876  0.83134180  1
  O2-  O330  1  0.33592436  0.32486394  0.17388044  1
  O2-  O331  1  0.33533072  0.31397827  0.50455616  1
  O2-  O332  1  0.34159750  0.31850582  0.84609540  1
  O2-  O333  1  0.33403116  0.82322373  0.16873026  1
  O2-  O334  1  0.32467047  0.82571696  0.49098972  1
  O2-  O335  1  0.32743370  0.81913355  0.83009182  1
  O2-  O336  1  0.67110185  0.32007788  0.16996547  1
  O2-  O337  1  0.66633428  0.30963695  0.49597247  1
  O2-  O338  1  0.66184616  0.32747230  0.82751570  1
  O2-  O339  1  0.67185926  0.81983352  0.17345651  1
  O2-  O340  1  0.67396028  0.82248364  0.50895950  1
  O2-  O341  1  0.66524890  0.81717631  0.83239167  1
  O2-  O342  1  0.16536950  0.32948404  0.16942217  1
  O2-  O343  1  0.16566841  0.32223912  0.50219701  1
  O2-  O344  1  0.17482808  0.31137233  0.83172858  1
  O2-  O345  1  0.15865773  0.81988425  0.17032507  1
  O2-  O346  1  0.16756771  0.82588603  0.50372780  1
  O2-  O347  1  0.16965732  0.81150141  0.83232407  1
  O2-  O348  1  0.49870122  0.33973291  0.16970261  1
  O2-  O349  1  0.49670780  0.32060157  0.50438975  1
  O2-  O350  1  0.50073417  0.33358964  0.82979158  1
  O2-  O351  1  0.49854890  0.81789463  0.17333131  1
  O2-  O352  1  0.49544446  0.82823220  0.50772657  1
  O2-  O353  1  0.50059616  0.81689586  0.83213768  1
  O2-  O354  1  0.83012762  0.31200212  0.17149589  1
  O2-  O355  1  0.83931498  0.30625519  0.49402717  1
  O2-  O356  1  0.82922998  0.32013814  0.84007319  1
  O2-  O357  1  0.83941488  0.82348016  0.16192180  1
  O2-  O358  1  0.84331516  0.82204542  0.48631547  1
  O2-  O359  1  0.83608750  0.82167468  0.83342582  1
  O2-  O360  1  0.09517705  0.05769383  0.12548211  1
  O2-  O361  1  0.08478042  0.08224345  0.44550650  1
  O2-  O362  1  0.07500461  0.08034961  0.78091175  1
  O2-  O363  1  0.09598720  0.57893944  0.07918625  1
  O2-  O364  1  0.09307589  0.57910115  0.45489596  1
  O2-  O365  1  0.07022103  0.57095530  0.80077948  1
  O2-  O366  1  0.40421127  0.08002951  0.10870049  1
  O2-  O367  1  0.41633275  0.08234190  0.45527269  1
  O2-  O368  1  0.41351395  0.06688963  0.78334118  1
  O2-  O369  1  0.43109843  0.58208323  0.10048107  1
  O2-  O370  1  0.40917572  0.57653608  0.45076556  1
  O2-  O371  1  0.41621056  0.58673152  0.78910673  1
  O2-  O372  1  0.77653528  0.05535133  0.12397998  1
  O2-  O373  1  0.75552294  0.07218243  0.45618058  1
  O2-  O374  1  0.76657039  0.07696094  0.77473810  1
  O2-  O375  1  0.73354271  0.58285547  0.11431535  1
  O2-  O376  1  0.74767854  0.58363434  0.44823552  1
  O2-  O377  1  0.75078044  0.58670990  0.77772334  1
  O2-  O378  1  0.26379217  0.08193691  0.21644311  1
  O2-  O379  1  0.25153686  0.07942752  0.54608523  1
  O2-  O380  1  0.26797114  0.06934025  0.90325249  1
  O2-  O381  1  0.23665661  0.57732452  0.22308057  1
  O2-  O382  1  0.23877329  0.58220029  0.54858940  1
  O2-  O383  1  0.23420393  0.58391946  0.89847710  1
  O2-  O384  1  0.59912165  0.08161885  0.20894547  1
  O2-  O385  1  0.58473817  0.08259741  0.54585148  1
  O2-  O386  1  0.57347387  0.07395596  0.88958967  1
  O2-  O387  1  0.58371235  0.58416364  0.19886710  1
  O2-  O388  1  0.55977051  0.56889835  0.56640724  1
  O2-  O389  1  0.57730582  0.58217119  0.89792914  1
  O2-  O390  1  0.91519230  0.08532357  0.22721054  1
  O2-  O391  1  0.91670583  0.08041440  0.55630867  1
  O2-  O392  1  0.91634825  0.07698869  0.87304330  1
  O2-  O393  1  0.92786350  0.58261854  0.22439036  1
  O2-  O394  1  0.92500004  0.58542863  0.54856198  1
  O2-  O395  1  0.91753808  0.58259278  0.89117553  1
  O2-  O396  1  0.08087799  0.42132343  0.11062053  1
  O2-  O397  1  0.06880279  0.42047409  0.45191295  1
  O2-  O398  1  0.10275983  0.42169584  0.77902527  1
  O2-  O399  1  0.06096638  0.92626998  0.11027164  1
  O2-  O400  1  0.09634389  0.92007268  0.45255652  1
  O2-  O401  1  0.08456695  0.91654353  0.75578487  1
  O2-  O402  1  0.40687485  0.42017876  0.10730013  1
  O2-  O403  1  0.41160312  0.41511171  0.44543901  1
  O2-  O404  1  0.40459219  0.42184311  0.78970533  1
  O2-  O405  1  0.41795688  0.92263671  0.11025800  1
  O2-  O406  1  0.39913193  0.92481265  0.45438705  1
  O2-  O407  1  0.41372584  0.91536228  0.77951530  1
  O2-  O408  1  0.75756222  0.41773609  0.11445519  1
  O2-  O409  1  0.76283260  0.41576358  0.44153861  1
  O2-  O410  1  0.74513180  0.41974345  0.77900144  1
  O2-  O411  1  0.76336328  0.91639585  0.10994750  1
  O2-  O412  1  0.76148122  0.92473061  0.45363789  1
  O2-  O413  1  0.75120216  0.91658661  0.77603223  1
  O2-  O414  1  0.25531368  0.42344081  0.21529695  1
  O2-  O415  1  0.25009496  0.41838989  0.56519231  1
  O2-  O416  1  0.26209995  0.42167187  0.88699407  1
  O2-  O417  1  0.23434908  0.91591515  0.22634359  1
  O2-  O418  1  0.23777283  0.91944343  0.55793736  1
  O2-  O419  1  0.25322634  0.91664820  0.88601084  1
  O2-  O420  1  0.61412250  0.42511890  0.21894741  1
  O2-  O421  1  0.57762627  0.41495154  0.58312747  1
  O2-  O422  1  0.58451330  0.41908924  0.88205832  1
  O2-  O423  1  0.59115592  0.91748152  0.23919807  1
  O2-  O424  1  0.58643584  0.91917054  0.57378342  1
  O2-  O425  1  0.58984623  0.92937913  0.88269483  1
  O2-  O426  1  0.89625579  0.41583973  0.20994231  1
  O2-  O427  1  0.91484494  0.41860878  0.55131017  1
  O2-  O428  1  0.90734261  0.41850770  0.91074765  1
  O2-  O429  1  0.91180910  0.91930510  0.22582923  1
  O2-  O430  1  0.93931434  0.91684347  0.55709530  1
  O2-  O431  1  0.91659668  0.92328761  0.88340125  1
  O2-  O432  1  -0.00701318  0.00585980  0.01582795  1
  O2-  O433  1  0.00175753  0.00240565  0.32386212  1
  O2-  O434  1  -0.01033975  0.00369642  0.67724253  1
  O2-  O435  1  0.01985298  0.50165748  -0.03842455  1
  O2-  O436  1  0.00123301  0.47699824  0.31722273  1
  O2-  O437  1  0.00244301  0.51378091  0.66134183  1
  O2-  O438  1  0.33504514  0.00027768  -0.00034444  1
  O2-  O439  1  0.32235325  -0.00453921  0.33945107  1
  O2-  O440  1  0.33652732  -0.00101709  0.65662577  1
  O2-  O441  1  0.35357503  0.50305297  -0.04138186  1
  O2-  O442  1  0.34252518  0.49308256  0.31619095  1
  O2-  O443  1  0.33370192  0.50945189  0.65473016  1
  O2-  O444  1  0.69828410  -0.00706038  -0.02565615  1
  O2-  O445  1  0.67978678  0.01432485  0.31749671  1
  O2-  O446  1  0.65748580  0.00191414  0.66504532  1
  O2-  O447  1  0.66194118  0.50309506  0.00992409  1
  O2-  O448  1  0.65680752  0.51005203  0.35426803  1
  O2-  O449  1  0.64047681  0.50067596  0.71593383  1
  O2-  O450  1  0.17606949  -0.00162946  0.00577310  1
  O2-  O451  1  0.16537608  0.00997114  0.32498127  1
  O2-  O452  1  0.14839982  -0.00399301  0.64506697  1
  O2-  O453  1  0.17615426  0.49291934  -0.00630273  1
  O2-  O454  1  0.15947436  0.49633057  0.31761454  1
  O2-  O455  1  0.15347708  0.50721557  0.64769991  1
  O2-  O456  1  0.49107187  0.00118259  -0.00985293  1
  O2-  O457  1  0.48841796  0.01037351  0.30964223  1
  O2-  O458  1  0.51122905  0.00156897  0.66967261  1
  O2-  O459  1  0.50743032  0.49370647  0.00002040  1
  O2-  O460  1  0.49606027  0.48889725  0.32698368  1
  O2-  O461  1  0.48965735  0.49025936  0.67319815  1
  O2-  O462  1  0.84613345  -0.01511791  0.00474705  1
  O2-  O463  1  0.83987855  0.01437057  0.34855199  1
  O2-  O464  1  0.82795142  0.00246781  0.65666794  1
  O2-  O465  1  0.82474152  0.50653567  -0.01515882  1
  O2-  O466  1  0.82076936  0.48485806  0.32478501  1
  O2-  O467  1  0.83826986  0.50359472  0.66629765  1
  O2-  O468  1  0.93059226  0.25109858  0.27439880  1
  O2-  O469  1  0.73660720  0.24299340  0.73607889  1
  O2-  O470  1  0.08873806  0.25757743  0.38997440  1
  O2-  O471  1  0.57707429  0.75579051  0.59631096  1
  O2-  O472  1  0.41854747  0.25347950  0.73095112  1
  O2-  O473  1  0.56492272  0.24541981  0.27527328  1
  O2-  O474  1  0.08210614  0.25422147  0.07545373  1
  O2-  O475  1  0.75890824  0.75372684  0.72680217  1
  O2-  O476  1  0.25068935  0.75527593  0.27101654  1
  O2-  O477  1  0.93051616  0.25061031  0.93484446  1
  O2-  O478  1  0.26232618  0.74921024  0.60309743  1
  O2-  O479  1  0.42160065  0.24920947  0.38486517  1
  O2-  O480  1  0.57597589  0.25307226  0.92212206  1
  O2-  O481  1  0.41061911  0.75072475  0.06407012  1
  O2-  O482  1  0.42657269  0.25236246  0.07272063  1
  O2-  O483  1  0.75897405  0.75428948  0.06130848  1
  O2-  O484  1  0.24399025  0.24954603  0.27168095  1
  O2-  O485  1  0.41091201  0.75131793  0.72421885  1
  O2-  O486  1  0.40845636  0.74997895  0.39981298  1
  O2-  O487  1  0.58113550  0.24764556  0.61260922  1
  O2-  O488  1  0.24650577  0.24831127  0.61730632  1
  O2-  O489  1  0.07330716  0.24673202  0.72447654  1
  O2-  O490  1  0.91693761  0.75186500  0.27278093  1
  O2-  O491  1  0.08182896  0.74803895  0.39654140  1
  O2-  O492  1  0.92237619  0.75090604  0.60437869  1
