# generated using pymatgen
data_Ca108Mn108O277
_symmetry_space_group_name_H-M   'P 1'
_cell_length_a   16.03392372
_cell_length_b   22.31702282
_cell_length_c   16.39549122
_cell_angle_alpha   89.99869460
_cell_angle_beta   89.99887448
_cell_angle_gamma   89.99621400
_symmetry_Int_Tables_number   1
_chemical_formula_structural   Ca108Mn108O277
_chemical_formula_sum   'Ca108 Mn108 O277'
_cell_volume   5866.78945254
_cell_formula_units_Z   1
loop_
 _symmetry_equiv_pos_site_id
 _symmetry_equiv_pos_as_xyz
  1  'x, y, z'
loop_
 _atom_type_symbol
 _atom_type_oxidation_number
  Ca2+  2.0
  Mn3.34+  3.34
  O2-  -2.0
loop_
 _atom_site_type_symbol
 _atom_site_label
 _atom_site_symmetry_multiplicity
 _atom_site_fract_x
 _atom_site_fract_y
 _atom_site_fract_z
 _atom_site_occupancy
  Ca2+  Ca0  1  0.10898579  0.24827763  0.26225999  1
  Ca2+  Ca1  1  0.08931788  0.24070419  0.55539349  1
  Ca2+  Ca2  1  0.08574705  0.25448402  0.92529333  1
  Ca2+  Ca3  1  0.07200897  0.75115015  0.26123927  1
  Ca2+  Ca4  1  0.09312712  0.74410223  0.56439224  1
  Ca2+  Ca5  1  0.10462221  0.75186215  0.91836495  1
  Ca2+  Ca6  1  0.40392155  0.24983149  0.24906912  1
  Ca2+  Ca7  1  0.40669382  0.24872225  0.57034517  1
  Ca2+  Ca8  1  0.41453868  0.25456589  0.93051474  1
  Ca2+  Ca9  1  0.42089743  0.74911660  0.24188959  1
  Ca2+  Ca10  1  0.39527178  0.75294791  0.57957672  1
  Ca2+  Ca11  1  0.41611451  0.74957350  0.92133014  1
  Ca2+  Ca12  1  0.73208040  0.26187798  0.24234973  1
  Ca2+  Ca13  1  0.75732657  0.25017333  0.59106178  1
  Ca2+  Ca14  1  0.75236760  0.24810550  0.91788179  1
  Ca2+  Ca15  1  0.75940503  0.73844569  0.26407201  1
  Ca2+  Ca16  1  0.75767724  0.75333325  0.55370182  1
  Ca2+  Ca17  1  0.72466417  0.75051730  0.93216926  1
  Ca2+  Ca18  1  0.25074532  0.23517766  0.10925688  1
  Ca2+  Ca19  1  0.24860622  0.25599394  0.40979465  1
  Ca2+  Ca20  1  0.25195053  0.25497743  0.74749195  1
  Ca2+  Ca21  1  0.27246328  0.74527267  0.06679504  1
  Ca2+  Ca22  1  0.24105028  0.74899997  0.42488160  1
  Ca2+  Ca23  1  0.25161131  0.73747374  0.76818456  1
  Ca2+  Ca24  1  0.57906846  0.24365639  0.08966897  1
  Ca2+  Ca25  1  0.56760593  0.25699083  0.40377245  1
  Ca2+  Ca26  1  0.60738204  0.24086661  0.75780603  1
  Ca2+  Ca27  1  0.56358076  0.75178165  0.07416653  1
  Ca2+  Ca28  1  0.59277156  0.75450749  0.40571960  1
  Ca2+  Ca29  1  0.56511576  0.75045785  0.78296746  1
  Ca2+  Ca30  1  0.91267673  0.24551107  0.07120439  1
  Ca2+  Ca31  1  0.93691871  0.25233597  0.42150772  1
  Ca2+  Ca32  1  0.89489871  0.24902536  0.75008193  1
  Ca2+  Ca33  1  0.91331614  0.75732650  0.09003403  1
  Ca2+  Ca34  1  0.91747614  0.76530257  0.41375343  1
  Ca2+  Ca35  1  0.93358786  0.75715474  0.75148963  1
  Ca2+  Ca36  1  0.08584636  0.60368494  0.56975532  1
  Ca2+  Ca37  1  0.58670558  0.06907580  0.38178855  1
  Ca2+  Ca38  1  0.55971717  0.60657514  0.09182262  1
  Ca2+  Ca39  1  0.09018218  0.06692591  0.96610651  1
  Ca2+  Ca40  1  0.10958293  0.09738305  0.23928481  1
  Ca2+  Ca41  1  0.74190292  0.10421209  0.92095763  1
  Ca2+  Ca42  1  0.92040418  0.61242046  0.42429403  1
  Ca2+  Ca43  1  0.55742841  0.60952349  0.08275424  1
  Ca2+  Ca44  1  0.11685935  0.60015100  0.92272868  1
  Ca2+  Ca45  1  0.25741065  0.07425361  0.74745799  1
  Ca2+  Ca46  1  0.26941252  0.59193475  0.07632919  1
  Ca2+  Ca47  1  0.26305393  0.58661933  0.07983140  1
  Ca2+  Ca48  1  0.91608385  0.60090101  0.07181007  1
  Ca2+  Ca49  1  0.41254267  0.10092617  0.24170012  1
  Ca2+  Ca50  1  0.57217987  0.59932276  0.76660488  1
  Ca2+  Ca51  1  0.23926033  0.10650788  0.41608646  1
  Ca2+  Ca52  1  0.61517047  0.60621094  0.40349296  1
  Ca2+  Ca53  1  0.23935566  0.58864466  0.41643244  1
  Ca2+  Ca54  1  0.89917655  0.10034564  0.75514050  1
  Ca2+  Ca55  1  0.41789266  0.60613303  0.91083201  1
  Ca2+  Ca56  1  0.89106688  0.09832984  0.76137992  1
  Ca2+  Ca57  1  0.92282023  0.59620633  0.74267078  1
  Ca2+  Ca58  1  0.74805383  0.08429285  0.58267249  1
  Ca2+  Ca59  1  0.70837468  0.07167755  0.23473604  1
  Ca2+  Ca60  1  0.90987924  0.61279395  0.42453202  1
  Ca2+  Ca61  1  0.96861380  0.10142550  0.42280251  1
  Ca2+  Ca62  1  0.10269493  0.09335809  0.23399855  1
  Ca2+  Ca63  1  0.71965891  0.59703235  0.93133629  1
  Ca2+  Ca64  1  0.40152201  0.08262544  0.94480589  1
  Ca2+  Ca65  1  0.10639938  0.60472703  0.92556061  1
  Ca2+  Ca66  1  0.39504138  0.59133265  0.58629258  1
  Ca2+  Ca67  1  0.40919198  0.60893296  0.91503919  1
  Ca2+  Ca68  1  0.76206076  0.60368622  0.57081203  1
  Ca2+  Ca69  1  0.08708085  0.58450118  0.25303152  1
  Ca2+  Ca70  1  0.23102394  0.10437562  0.42184314  1
  Ca2+  Ca71  1  0.76087820  0.08537478  0.58177005  1
  Ca2+  Ca72  1  0.93176522  0.40272594  0.08228958  1
  Ca2+  Ca73  1  0.93355817  0.93017974  0.07370669  1
  Ca2+  Ca74  1  0.23393121  0.92586517  0.05598782  1
  Ca2+  Ca75  1  0.06788217  0.91164997  0.93296731  1
  Ca2+  Ca76  1  0.25816634  0.91108399  0.75239667  1
  Ca2+  Ca77  1  0.40806665  0.91405788  0.92281244  1
  Ca2+  Ca78  1  0.10659506  0.41867599  0.25121149  1
  Ca2+  Ca79  1  0.58508041  0.91254282  0.40282351  1
  Ca2+  Ca80  1  0.25617135  0.90227216  0.41758490  1
  Ca2+  Ca81  1  0.58025044  0.41416877  0.40337875  1
  Ca2+  Ca82  1  0.40773614  0.40544640  0.58027136  1
  Ca2+  Ca83  1  0.57598257  0.40668379  0.75371818  1
  Ca2+  Ca84  1  0.58136581  0.91570436  0.08575639  1
  Ca2+  Ca85  1  0.25757720  0.40088387  0.75752792  1
  Ca2+  Ca86  1  0.91745399  0.39961021  0.41697754  1
  Ca2+  Ca87  1  0.42467922  0.90432815  0.58452127  1
  Ca2+  Ca88  1  0.76904810  0.90462624  0.92471732  1
  Ca2+  Ca89  1  0.57905360  0.40028997  0.08213537  1
  Ca2+  Ca90  1  0.58108338  0.89709060  0.74620293  1
  Ca2+  Ca91  1  0.76341368  0.40661885  0.58291701  1
  Ca2+  Ca92  1  0.75181789  0.40628621  0.58345697  1
  Ca2+  Ca93  1  0.74509621  0.40569188  0.92314246  1
  Ca2+  Ca94  1  0.25294634  0.40570580  0.08315208  1
  Ca2+  Ca95  1  0.39791243  0.40219540  0.57683556  1
  Ca2+  Ca96  1  0.73940757  0.90561526  0.55659774  1
  Ca2+  Ca97  1  0.07659709  0.90963953  0.93738183  1
  Ca2+  Ca98  1  0.39834886  0.91753277  0.92079792  1
  Ca2+  Ca99  1  0.73609940  0.92533148  0.27353071  1
  Ca2+  Ca100  1  0.74658425  0.92544311  0.27322947  1
  Ca2+  Ca101  1  0.07162369  0.89797263  0.57364832  1
  Ca2+  Ca102  1  0.09210964  0.40174514  0.57748197  1
  Ca2+  Ca103  1  0.24194022  0.40626115  0.08359915  1
  Ca2+  Ca104  1  0.08353393  0.89789468  0.57513882  1
  Ca2+  Ca105  1  0.91258065  0.40261045  0.75325703  1
  Ca2+  Ca106  1  0.40625086  0.41640213  0.25346473  1
  Ca2+  Ca107  1  0.91898707  0.40050148  0.08277672  1
  Mn3.34+  Mn108  1  0.08439146  0.33063848  0.08697037  1
  Mn3.34+  Mn109  1  0.08803531  0.33582619  0.41315969  1
  Mn3.34+  Mn110  1  0.08337888  0.33171272  0.75234516  1
  Mn3.34+  Mn111  1  0.08651667  0.83314037  0.09646400  1
  Mn3.34+  Mn112  1  0.08272593  0.83232993  0.40487946  1
  Mn3.34+  Mn113  1  0.08406017  0.83117997  0.75426632  1
  Mn3.34+  Mn114  1  0.41526146  0.33053658  0.08481941  1
  Mn3.34+  Mn115  1  0.41309282  0.33542660  0.41224767  1
  Mn3.34+  Mn116  1  0.41917535  0.33077587  0.75728791  1
  Mn3.34+  Mn117  1  0.41335121  0.83711845  0.09108018  1
  Mn3.34+  Mn118  1  0.41633627  0.83053478  0.41017375  1
  Mn3.34+  Mn119  1  0.41458994  0.83383454  0.75006152  1
  Mn3.34+  Mn120  1  0.74846518  0.33133776  0.08542019  1
  Mn3.34+  Mn121  1  0.74866327  0.33240434  0.41251371  1
  Mn3.34+  Mn122  1  0.74737328  0.33226065  0.75577296  1
  Mn3.34+  Mn123  1  0.74833075  0.83842023  0.09297747  1
  Mn3.34+  Mn124  1  0.75351973  0.83441216  0.41197133  1
  Mn3.34+  Mn125  1  0.75226245  0.82464400  0.75092085  1
  Mn3.34+  Mn126  1  0.25193283  0.33769400  0.25365813  1
  Mn3.34+  Mn127  1  0.24473749  0.33000642  0.58420082  1
  Mn3.34+  Mn128  1  0.24839918  0.33402750  0.91443641  1
  Mn3.34+  Mn129  1  0.25257288  0.83087916  0.24529975  1
  Mn3.34+  Mn130  1  0.25023216  0.83493634  0.58632348  1
  Mn3.34+  Mn131  1  0.25112763  0.83297915  0.91502862  1
  Mn3.34+  Mn132  1  0.58004844  0.33702174  0.24775972  1
  Mn3.34+  Mn133  1  0.58286925  0.33229789  0.58349600  1
  Mn3.34+  Mn134  1  0.58040496  0.33332237  0.91571477  1
  Mn3.34+  Mn135  1  0.58309542  0.83699956  0.24177103  1
  Mn3.34+  Mn136  1  0.58265439  0.83052702  0.57825196  1
  Mn3.34+  Mn137  1  0.58343951  0.83861999  0.91898260  1
  Mn3.34+  Mn138  1  0.91895964  0.32961926  0.24954586  1
  Mn3.34+  Mn139  1  0.92392134  0.33139571  0.58520958  1
  Mn3.34+  Mn140  1  0.92089422  0.33047502  0.91073684  1
  Mn3.34+  Mn141  1  0.91707265  0.83734655  0.24793594  1
  Mn3.34+  Mn142  1  0.91167922  0.83334576  0.58683056  1
  Mn3.34+  Mn143  1  0.91574120  0.82467954  0.91807391  1
  Mn3.34+  Mn144  1  0.41623521  0.66672004  0.41464905  1
  Mn3.34+  Mn145  1  0.24736899  0.66678254  0.25213003  1
  Mn3.34+  Mn146  1  0.91766712  0.67492655  0.91577149  1
  Mn3.34+  Mn147  1  0.57988500  0.16281546  0.58519800  1
  Mn3.34+  Mn148  1  0.75626361  0.67236930  0.75553401  1
  Mn3.34+  Mn149  1  0.08832608  0.66985045  0.75122319  1
  Mn3.34+  Mn150  1  0.40973599  0.16782184  0.75567275  1
  Mn3.34+  Mn151  1  0.42273338  0.16144771  0.75912188  1
  Mn3.34+  Mn152  1  0.57719597  0.16326654  0.24404162  1
  Mn3.34+  Mn153  1  0.08476335  0.16909221  0.08064663  1
  Mn3.34+  Mn154  1  0.58416995  0.66785421  0.25038638  1
  Mn3.34+  Mn155  1  0.08360958  0.66613383  0.09426941  1
  Mn3.34+  Mn156  1  0.91885581  0.16663258  0.23976098  1
  Mn3.34+  Mn157  1  0.92202428  0.67641914  0.58754423  1
  Mn3.34+  Mn158  1  0.74288052  0.16528407  0.41149136  1
  Mn3.34+  Mn159  1  0.57945449  0.16148162  0.91984063  1
  Mn3.34+  Mn160  1  0.25460486  0.16395001  0.58472086  1
  Mn3.34+  Mn161  1  0.91882782  0.15447645  0.92418845  1
  Mn3.34+  Mn162  1  0.40991130  0.66785162  0.74969530  1
  Mn3.34+  Mn163  1  0.92051725  0.16612816  0.57960202  1
  Mn3.34+  Mn164  1  0.74668708  0.67780092  0.75400540  1
  Mn3.34+  Mn165  1  0.41336052  0.16625051  0.08617590  1
  Mn3.34+  Mn166  1  0.58249470  0.67871523  0.58490680  1
  Mn3.34+  Mn167  1  0.90991016  0.16069808  0.23724025  1
  Mn3.34+  Mn168  1  0.91667121  0.66842432  0.24403474  1
  Mn3.34+  Mn169  1  0.75323006  0.16036079  0.41384539  1
  Mn3.34+  Mn170  1  0.57361491  0.67281390  0.58278094  1
  Mn3.34+  Mn171  1  0.74793779  0.66700749  0.09255833  1
  Mn3.34+  Mn172  1  0.09319452  0.16576124  0.75377302  1
  Mn3.34+  Mn173  1  0.24810858  0.15809576  0.91920205  1
  Mn3.34+  Mn174  1  0.08345774  0.17115462  0.75079185  1
  Mn3.34+  Mn175  1  0.41816661  0.16297216  0.41604634  1
  Mn3.34+  Mn176  1  0.25705615  0.66143899  0.25052933  1
  Mn3.34+  Mn177  1  0.24682714  0.66589378  0.58651817  1
  Mn3.34+  Mn178  1  0.56997101  0.15700087  0.58294046  1
  Mn3.34+  Mn179  1  0.74264459  0.16657651  0.08475055  1
  Mn3.34+  Mn180  1  0.90514612  0.50343843  0.25136752  1
  Mn3.34+  Mn181  1  0.25481320  0.00093270  0.58935319  1
  Mn3.34+  Mn182  1  0.92136677  0.50048648  0.58266849  1
  Mn3.34+  Mn183  1  0.07994804  0.00404794  0.75873040  1
  Mn3.34+  Mn184  1  0.91333729  0.50714713  0.91584363  1
  Mn3.34+  Mn185  1  0.73452768  -0.00107925  0.75045931  1
  Mn3.34+  Mn186  1  0.57956601  0.49513440  0.92670028  1
  Mn3.34+  Mn187  1  0.41856681  -0.00206063  0.41422025  1
  Mn3.34+  Mn188  1  0.58857625  0.50836114  0.58520324  1
  Mn3.34+  Mn189  1  0.74747285  -0.00738007  0.74942012  1
  Mn3.34+  Mn190  1  0.92802010  0.50104637  0.91674875  1
  Mn3.34+  Mn191  1  0.40460760  0.49835441  0.74673999  1
  Mn3.34+  Mn192  1  0.08302932  -0.00379067  0.40885394  1
  Mn3.34+  Mn193  1  0.25368461  -0.01378577  0.24303875  1
  Mn3.34+  Mn194  1  0.89507104  0.50674031  0.25486722  1
  Mn3.34+  Mn195  1  0.08104015  0.49343881  0.75327428  1
  Mn3.34+  Mn196  1  0.92323588  0.00044416  0.25442100  1
  Mn3.34+  Mn197  1  0.41395612  0.50701079  0.39935994  1
  Mn3.34+  Mn198  1  0.75536116  0.49992521  0.75047222  1
  Mn3.34+  Mn199  1  0.09356146  0.50038553  0.75211050  1
  Mn3.34+  Mn200  1  0.92261017  0.00348581  0.57987669  1
  Mn3.34+  Mn201  1  0.58938240  0.50087386  0.25754449  1
  Mn3.34+  Mn202  1  0.24789580  0.49613581  0.92472345  1
  Mn3.34+  Mn203  1  0.43135112  0.00495621  0.74248646  1
  Mn3.34+  Mn204  1  0.74770536  0.49907546  0.08603471  1
  Mn3.34+  Mn205  1  0.57249107  -0.00139167  0.57901028  1
  Mn3.34+  Mn206  1  0.41601021  -0.00003961  0.08164342  1
  Mn3.34+  Mn207  1  0.42110067  0.49803460  0.08949621  1
  Mn3.34+  Mn208  1  0.57390385  0.50251310  0.58460551  1
  Mn3.34+  Mn209  1  0.26415390  -0.00892763  0.24222550  1
  Mn3.34+  Mn210  1  0.08284041  0.49733565  0.40104029  1
  Mn3.34+  Mn211  1  0.58704853  0.00097904  0.91738508  1
  Mn3.34+  Mn212  1  0.24678666  0.49772372  0.57930122  1
  Mn3.34+  Mn213  1  0.75136431  0.50213090  0.40670781  1
  Mn3.34+  Mn214  1  0.06867245  -0.00041339  0.75794679  1
  Mn3.34+  Mn215  1  0.75596015  0.00174980  0.06796001  1
  O2-  O216  1  0.00299340  0.17347617  -0.00553073  1
  O2-  O217  1  0.00387939  0.16549168  0.31669556  1
  O2-  O218  1  -0.00371808  0.14385679  0.67959934  1
  O2-  O219  1  0.00959183  0.66223069  -0.00381589  1
  O2-  O220  1  -0.00254479  0.64738211  0.32051790  1
  O2-  O221  1  0.00042263  0.66159877  0.67109150  1
  O2-  O222  1  0.33093030  0.16463187  -0.00282661  1
  O2-  O223  1  0.33463897  0.14830994  0.34280865  1
  O2-  O224  1  0.33273199  0.14550028  0.67614509  1
  O2-  O225  1  0.32972226  0.64738734  -0.00183261  1
  O2-  O226  1  0.33158855  0.64061548  0.33472129  1
  O2-  O227  1  0.33197836  0.65740389  0.66648183  1
  O2-  O228  1  0.65806385  0.16277676  0.00699144  1
  O2-  O229  1  0.67090259  0.14467107  0.32653947  1
  O2-  O230  1  0.66511525  0.14306481  0.65836321  1
  O2-  O231  1  0.66253413  0.66435323  0.01492823  1
  O2-  O232  1  0.65996515  0.68210293  0.32949769  1
  O2-  O233  1  0.66631565  0.65892806  0.66725923  1
  O2-  O234  1  0.16634663  0.16358060  -0.00418180  1
  O2-  O235  1  0.16218014  0.15027101  0.32717233  1
  O2-  O236  1  0.17146345  0.14406234  0.67437741  1
  O2-  O237  1  0.17032854  0.66194530  0.01691825  1
  O2-  O238  1  0.16838869  0.65055590  0.32959966  1
  O2-  O239  1  0.16377038  0.64784330  0.66844703  1
  O2-  O240  1  0.49142724  0.16757783  -0.00662707  1
  O2-  O241  1  0.50402264  0.15558263  0.33775981  1
  O2-  O242  1  0.49838944  0.14233646  0.67423109  1
  O2-  O243  1  0.49554367  0.65560075  -0.00460570  1
  O2-  O244  1  0.50591873  0.66804883  0.34059891  1
  O2-  O245  1  0.49861497  0.65239156  0.66671274  1
  O2-  O246  1  0.83013283  0.17047280  -0.00122509  1
  O2-  O247  1  0.84725690  0.15634177  0.33636638  1
  O2-  O248  1  0.83214183  0.14994903  0.65803253  1
  O2-  O249  1  0.82936346  0.67273868  -0.00214705  1
  O2-  O250  1  0.83984897  0.65034096  0.32126180  1
  O2-  O251  1  0.83430181  0.66853254  0.66853127  1
  O2-  O252  1  -0.00404470  0.33301828  0.00260122  1
  O2-  O253  1  0.00457790  0.34792767  0.32924469  1
  O2-  O254  1  0.00245393  0.35719577  0.66837458  1
  O2-  O255  1  0.00282710  0.81394469  0.00230884  1
  O2-  O256  1  -0.00518064  0.84086257  0.33496124  1
  O2-  O257  1  0.00133859  0.83342361  0.66643438  1
  O2-  O258  1  0.32794943  0.34118626  0.00294075  1
  O2-  O259  1  0.33658729  0.34957074  0.32856183  1
  O2-  O260  1  0.33311909  0.34439854  0.66910811  1
  O2-  O261  1  0.32926348  0.85286744  0.00431812  1
  O2-  O262  1  0.33564042  0.85218840  0.32850597  1
  O2-  O263  1  0.33492054  0.85179244  0.66526881  1
  O2-  O264  1  0.66752602  0.34435629  -0.00130160  1
  O2-  O265  1  0.66280682  0.34610658  0.33465740  1
  O2-  O266  1  0.66708177  0.35566281  0.66988511  1
  O2-  O267  1  0.66849023  0.84917533  0.00243124  1
  O2-  O268  1  0.66760540  0.83730516  0.32761151  1
  O2-  O269  1  0.66737143  0.82079297  0.66444802  1
  O2-  O270  1  0.16611660  0.34655461  0.00288558  1
  O2-  O271  1  0.16811931  0.34943813  0.33232638  1
  O2-  O272  1  0.16962602  0.35178895  0.67345744  1
  O2-  O273  1  0.16131409  0.84149703  -0.00435513  1
  O2-  O274  1  0.17323143  0.84547112  0.33338995  1
  O2-  O275  1  0.16329734  0.85883397  0.67037270  1
  O2-  O276  1  0.50397604  0.33080764  0.00518108  1
  O2-  O277  1  0.49969087  0.35008048  0.33223776  1
  O2-  O278  1  0.49670559  0.35497607  0.66178637  1
  O2-  O279  1  0.49696439  0.86059858  -0.00147535  1
  O2-  O280  1  0.50989011  0.82504806  0.33289035  1
  O2-  O281  1  0.50145689  0.83906515  0.66654136  1
  O2-  O282  1  0.83887977  0.33620506  -0.00169541  1
  O2-  O283  1  0.84458512  0.32481612  0.33837828  1
  O2-  O284  1  0.83298078  0.34707876  0.66873016  1
  O2-  O285  1  0.82927756  0.82172629  0.00092789  1
  O2-  O286  1  0.82958526  0.85282091  0.32663112  1
  O2-  O287  1  0.83323125  0.80061806  0.66572421  1
  O2-  O288  1  -0.00766476  0.18950193  0.15838289  1
  O2-  O289  1  -0.00523532  0.18025698  0.49873690  1
  O2-  O290  1  -0.00056085  0.18419896  0.82837067  1
  O2-  O291  1  -0.00234987  0.68974721  0.16043016  1
  O2-  O292  1  -0.00236112  0.67919079  0.50367868  1
  O2-  O293  1  0.00130359  0.68556859  0.83428407  1
  O2-  O294  1  0.34347109  0.17472510  0.17023823  1
  O2-  O295  1  0.33363342  0.17876737  0.49661572  1
  O2-  O296  1  0.33158076  0.18810094  0.83855107  1
  O2-  O297  1  0.32339682  0.67505940  0.16142468  1
  O2-  O298  1  0.33355969  0.67308008  0.50400429  1
  O2-  O299  1  0.34147576  0.67716207  0.83587872  1
  O2-  O300  1  0.66775571  0.17734396  0.17268406  1
  O2-  O301  1  0.66695514  0.18349253  0.50538963  1
  O2-  O302  1  0.66417218  0.18563852  0.85578860  1
  O2-  O303  1  0.66574800  0.68808823  0.16730037  1
  O2-  O304  1  0.66432197  0.68646030  0.50491366  1
  O2-  O305  1  0.66570873  0.68093499  0.83544945  1
  O2-  O306  1  0.15264405  0.17727617  0.17035511  1
  O2-  O307  1  0.18185996  0.17873862  0.49938684  1
  O2-  O308  1  0.16970786  0.19054949  0.83569168  1
  O2-  O309  1  0.16176648  0.68918660  0.17599657  1
  O2-  O310  1  0.17114201  0.67249855  0.50436347  1
  O2-  O311  1  0.15791410  0.67455480  0.84011138  1
  O2-  O312  1  0.49649193  0.18264521  0.16839846  1
  O2-  O313  1  0.50017837  0.18462100  0.50053208  1
  O2-  O314  1  0.49922908  0.18839666  0.83573628  1
  O2-  O315  1  0.50822369  0.68380689  0.16770535  1
  O2-  O316  1  0.49424541  0.69054680  0.50301071  1
  O2-  O317  1  0.49341253  0.67304573  0.82933760  1
  O2-  O318  1  0.82627892  0.18788607  0.16973915  1
  O2-  O319  1  0.82470575  0.18563584  0.49846160  1
  O2-  O320  1  0.84393729  0.17580429  0.83976876  1
  O2-  O321  1  0.83782472  0.68553687  0.15972968  1
  O2-  O322  1  0.84319075  0.68178462  0.50556875  1
  O2-  O323  1  0.83763536  0.69502886  0.83257058  1
  O2-  O324  1  -0.00359819  0.31464131  0.16247539  1
  O2-  O325  1  0.00178222  0.32354865  0.49921006  1
  O2-  O326  1  -0.00486158  0.30847914  0.82644008  1
  O2-  O327  1  0.00051063  0.81765539  0.16837936  1
  O2-  O328  1  0.00430626  0.81950901  0.50740902  1
  O2-  O329  1  0.00612767  0.81097520  0.84323830  1
  O2-  O330  1  0.32431792  0.32635268  0.15963466  1
  O2-  O331  1  0.33601809  0.32445702  0.50604665  1
  O2-  O332  1  0.33170239  0.31250461  0.83417589  1
  O2-  O333  1  0.33326569  0.81033778  0.16574785  1
  O2-  O334  1  0.32714839  0.82531880  0.50027750  1
  O2-  O335  1  0.33688270  0.82185985  0.83648342  1
  O2-  O336  1  0.65721844  0.32630638  0.15917498  1
  O2-  O337  1  0.67458260  0.32337338  0.51217857  1
  O2-  O338  1  0.66763675  0.31767878  0.83763109  1
  O2-  O339  1  0.66350866  0.80938086  0.16441482  1
  O2-  O340  1  0.66669858  0.81824038  0.49563432  1
  O2-  O341  1  0.66421810  0.81584679  0.83331851  1
  O2-  O342  1  0.16835968  0.32854256  0.16577801  1
  O2-  O343  1  0.16287409  0.32233320  0.50504550  1
  O2-  O344  1  0.16866406  0.31200454  0.83316798  1
  O2-  O345  1  0.16855017  0.80498186  0.16210858  1
  O2-  O346  1  0.16226834  0.82551494  0.50766726  1
  O2-  O347  1  0.17026273  0.82460631  0.83209300  1
  O2-  O348  1  0.49256774  0.32236049  0.16981318  1
  O2-  O349  1  0.49557350  0.32657890  0.50149537  1
  O2-  O350  1  0.50700071  0.31183416  0.82829059  1
  O2-  O351  1  0.50266691  0.81998017  0.16352351  1
  O2-  O352  1  0.49569887  0.81327352  0.50397929  1
  O2-  O353  1  0.49505242  0.82824837  0.83752099  1
  O2-  O354  1  0.83879523  0.31506035  0.16159468  1
  O2-  O355  1  0.83268404  0.32353051  0.50476487  1
  O2-  O356  1  0.83255302  0.31609938  0.83633973  1
  O2-  O357  1  0.83112160  0.81731054  0.16887572  1
  O2-  O358  1  0.83150699  0.83168588  0.50337890  1
  O2-  O359  1  0.83175127  0.81213301  0.83879223  1
  O2-  O360  1  0.08131833  0.08713551  0.10176242  1
  O2-  O361  1  0.10269295  0.06959453  0.45158560  1
  O2-  O362  1  0.08894649  0.08273158  0.80519931  1
  O2-  O363  1  0.08649233  0.58865363  0.11300864  1
  O2-  O364  1  0.04437715  0.56503061  0.44993061  1
  O2-  O365  1  0.07069430  0.57859186  0.79439945  1
  O2-  O366  1  0.41712180  0.08109228  0.09923615  1
  O2-  O367  1  0.41842841  0.07724285  0.44238739  1
  O2-  O368  1  0.40708159  0.08162184  0.79978524  1
  O2-  O369  1  0.41554244  0.57568194  0.11701758  1
  O2-  O370  1  0.43316961  0.57633268  0.45222140  1
  O2-  O371  1  0.41956365  0.58137580  0.77783818  1
  O2-  O372  1  0.75245163  0.07985803  0.10023252  1
  O2-  O373  1  0.74475785  0.08025684  0.44753911  1
  O2-  O374  1  0.75979069  0.07534547  0.79293888  1
  O2-  O375  1  0.74373967  0.57978238  0.10294846  1
  O2-  O376  1  0.76447960  0.57929842  0.44293583  1
  O2-  O377  1  0.75802955  0.58439918  0.78523909  1
  O2-  O378  1  0.24693241  0.07130533  0.21235220  1
  O2-  O379  1  0.25512816  0.08066916  0.55398182  1
  O2-  O380  1  0.25278765  0.08324884  0.88580001  1
  O2-  O381  1  0.23687169  0.58194272  0.21183887  1
  O2-  O382  1  0.24632495  0.57916835  0.55599444  1
  O2-  O383  1  0.24597301  0.57195208  0.88662345  1
  O2-  O384  1  0.56588581  0.08344483  0.23192207  1
  O2-  O385  1  0.59489795  0.07907162  0.53363802  1
  O2-  O386  1  0.59296045  0.07985716  0.89032256  1
  O2-  O387  1  0.58809586  0.58097351  0.21740492  1
  O2-  O388  1  0.59338650  0.58641291  0.54368561  1
  O2-  O389  1  0.57723398  0.57253970  0.89385801  1
  O2-  O390  1  0.94017114  0.07954496  0.21062201  1
  O2-  O391  1  0.89430135  0.08155028  0.53716935  1
  O2-  O392  1  0.92088283  0.07650784  0.88595357  1
  O2-  O393  1  0.92232006  0.58250555  0.20281974  1
  O2-  O394  1  0.91025607  0.58302543  0.56340656  1
  O2-  O395  1  0.91531864  0.58625868  0.88143118  1
  O2-  O396  1  0.06730847  0.41447468  0.11170661  1
  O2-  O397  1  0.06839295  0.42340195  0.44433231  1
  O2-  O398  1  0.08461395  0.41746016  0.79527767  1
  O2-  O399  1  0.07613746  0.91220340  0.08815451  1
  O2-  O400  1  0.09060302  0.91767602  0.44204945  1
  O2-  O401  1  0.07013652  0.91880592  0.79465305  1
  O2-  O402  1  0.40599753  0.41608890  0.10730405  1
  O2-  O403  1  0.42864548  0.43493889  0.45265744  1
  O2-  O404  1  0.41278025  0.41461666  0.77735185  1
  O2-  O405  1  0.42522349  0.92355219  0.11839738  1
  O2-  O406  1  0.41894727  0.91840241  0.44889585  1
  O2-  O407  1  0.41450258  0.92238680  0.78547538  1
  O2-  O408  1  0.77633833  0.41677538  0.09671617  1
  O2-  O409  1  0.75172601  0.42296366  0.44770385  1
  O2-  O410  1  0.76035520  0.41772943  0.78677828  1
  O2-  O411  1  0.74574558  0.93072742  0.12748907  1
  O2-  O412  1  0.73513399  0.91794558  0.42470412  1
  O2-  O413  1  0.74012035  0.91338176  0.78005587  1
  O2-  O414  1  0.24904531  0.42393396  0.21469062  1
  O2-  O415  1  0.25651003  0.41559972  0.55830518  1
  O2-  O416  1  0.24994381  0.42036828  0.88963173  1
  O2-  O417  1  0.24604880  0.91042652  0.19705851  1
  O2-  O418  1  0.23766851  0.92127215  0.55413185  1
  O2-  O419  1  0.26402233  0.91710981  0.88821309  1
  O2-  O420  1  0.57572303  0.42180402  0.21693623  1
  O2-  O421  1  0.58819146  0.42490560  0.54208115  1
  O2-  O422  1  0.59306914  0.42038004  0.88667589  1
  O2-  O423  1  0.60411907  0.91541204  0.22227683  1
  O2-  O424  1  0.59238981  0.91859776  0.54554872  1
  O2-  O425  1  0.58275805  0.92327997  0.87819219  1
  O2-  O426  1  0.91004251  0.42118057  0.21464934  1
  O2-  O427  1  0.90997772  0.41856108  0.55379477  1
  O2-  O428  1  0.91187698  0.42030025  0.89209670  1
  O2-  O429  1  0.90850646  0.92249852  0.21572245  1
  O2-  O430  1  0.93594656  0.91987918  0.57025020  1
  O2-  O431  1  0.92665464  0.90359039  0.91458654  1
  O2-  O432  1  0.00676295  -0.01120016  -0.01704500  1
  O2-  O433  1  0.00360215  0.02376947  0.33249834  1
  O2-  O434  1  -0.00812039  0.02301563  0.67757802  1
  O2-  O435  1  -0.00071976  0.51748550  0.00339067  1
  O2-  O436  1  0.01759078  0.49568573  0.30046921  1
  O2-  O437  1  -0.01467094  0.50735445  0.68373170  1
  O2-  O438  1  0.33625650  -0.01018854  0.00372343  1
  O2-  O439  1  0.32962843  -0.00389687  0.34056839  1
  O2-  O440  1  0.32692511  -0.00381854  0.68230966  1
  O2-  O441  1  0.32949738  0.50427613  0.01435102  1
  O2-  O442  1  0.32274627  0.50480623  0.35160044  1
  O2-  O443  1  0.35642090  0.49485644  0.62989663  1
  O2-  O444  1  0.67507849  -0.01428814  -0.00806915  1
  O2-  O445  1  0.66641463  -0.00106731  0.32316394  1
  O2-  O446  1  0.68022928  0.00262843  0.64130188  1
  O2-  O447  1  0.67805582  0.49559186  -0.01181602  1
  O2-  O448  1  0.64160897  0.50702405  0.37034832  1
  O2-  O449  1  0.66645430  0.48763144  0.66645412  1
  O2-  O450  1  0.15759986  -0.01861788  -0.03091976  1
  O2-  O451  1  0.16643454  0.00538228  0.32355090  1
  O2-  O452  1  0.16359243  -0.00616481  0.67671051  1
  O2-  O453  1  0.17634194  0.51735378  0.00928482  1
  O2-  O454  1  0.16623753  0.51640556  0.34115445  1
  O2-  O455  1  0.15663520  0.49150574  0.65419866  1
  O2-  O456  1  0.48916210  -0.00634901  -0.01730553  1
  O2-  O457  1  0.50905767  -0.00922136  0.35944587  1
  O2-  O458  1  0.50947384  -0.02791945  0.66911967  1
  O2-  O459  1  0.51673344  0.50822747  0.02429581  1
  O2-  O460  1  0.48505537  0.49013897  0.31895013  1
  O2-  O461  1  0.51157612  0.50649304  0.68302329  1
  O2-  O462  1  0.83498024  -0.01853148  0.00302944  1
  O2-  O463  1  0.81659886  0.01203180  0.28054717  1
  O2-  O464  1  0.83372911  0.01807159  0.67055021  1
  O2-  O465  1  0.83903214  0.50511313  0.00662252  1
  O2-  O466  1  0.86535127  0.49714034  0.37146135  1
  O2-  O467  1  0.81995756  0.49269314  0.64333198  1
  O2-  O468  1  0.08928860  0.24914872  0.70373600  1
  O2-  O469  1  0.40901620  0.25007158  0.06853344  1
  O2-  O470  1  0.25276658  0.75406036  0.93151935  1
  O2-  O471  1  0.76916914  0.75618912  0.40129439  1
  O2-  O472  1  0.08814874  0.25687963  0.39940540  1
  O2-  O473  1  0.57445522  0.76053449  0.93697305  1
  O2-  O474  1  0.24697775  0.75123452  0.61029779  1
  O2-  O475  1  0.25339623  0.25717001  0.26865541  1
  O2-  O476  1  0.73750351  0.25057070  0.06277008  1
  O2-  O477  1  0.41700062  0.24654008  0.71426948  1
  O2-  O478  1  0.09933415  0.25171268  0.06166050  1
  O2-  O479  1  0.91672402  0.75069468  0.27621974  1
  O2-  O480  1  0.91821002  0.25020601  0.61249230  1
  O2-  O481  1  0.41784881  0.76079488  0.05590344  1
  O2-  O482  1  0.08979047  0.75379278  0.39883134  1
  O2-  O483  1  0.73320066  0.24447227  0.38513378  1
  O2-  O484  1  0.39244867  0.74848275  0.39115954  1
  O2-  O485  1  0.41655142  0.24758834  0.39303572  1
  O2-  O486  1  0.25458052  0.24701068  0.61093314  1
  O2-  O487  1  0.58612484  0.25227100  0.26902325  1
  O2-  O488  1  0.26236335  0.74659862  0.28391936  1
  O2-  O489  1  0.57978978  0.24459479  0.61773286  1
  O2-  O490  1  0.41597138  0.75038095  0.72438562  1
  O2-  O491  1  0.10136447  0.74961087  0.72230702  1
  O2-  O492  1  0.74719771  0.25441841  0.72549938  1
