# generated using pymatgen
data_Ca108Mn108O277
_symmetry_space_group_name_H-M   'P 1'
_cell_length_a   16.02102899
_cell_length_b   22.29786610
_cell_length_c   16.38280413
_cell_angle_alpha   90.00040495
_cell_angle_beta   90.00493694
_cell_angle_gamma   90.00267162
_symmetry_Int_Tables_number   1
_chemical_formula_structural   Ca108Mn108O277
_chemical_formula_sum   'Ca108 Mn108 O277'
_cell_volume   5852.50706424
_cell_formula_units_Z   1
loop_
 _symmetry_equiv_pos_site_id
 _symmetry_equiv_pos_as_xyz
  1  'x, y, z'
loop_
 _atom_type_symbol
 _atom_type_oxidation_number
  Ca2+  2.0
  Mn3.34+  3.34
  O2-  -2.0
loop_
 _atom_site_type_symbol
 _atom_site_label
 _atom_site_symmetry_multiplicity
 _atom_site_fract_x
 _atom_site_fract_y
 _atom_site_fract_z
 _atom_site_occupancy
  Ca2+  Ca0  1  0.10400233  0.25412984  0.25612827  1
  Ca2+  Ca1  1  0.10811836  0.24446555  0.57663062  1
  Ca2+  Ca2  1  0.06189505  0.24871173  0.91781949  1
  Ca2+  Ca3  1  0.09472592  0.74452376  0.27361287  1
  Ca2+  Ca4  1  0.09538127  0.74223861  0.57438274  1
  Ca2+  Ca5  1  0.09635549  0.75536548  0.90172113  1
  Ca2+  Ca6  1  0.39549599  0.23602321  0.26852147  1
  Ca2+  Ca7  1  0.39243348  0.23532583  0.58331185  1
  Ca2+  Ca8  1  0.41602407  0.25761643  0.90111217  1
  Ca2+  Ca9  1  0.42138725  0.74471303  0.24369478  1
  Ca2+  Ca10  1  0.39472175  0.74689317  0.57836650  1
  Ca2+  Ca11  1  0.41585138  0.74981512  0.92367947  1
  Ca2+  Ca12  1  0.74539923  0.25119977  0.24030352  1
  Ca2+  Ca13  1  0.74724520  0.25295319  0.58114665  1
  Ca2+  Ca14  1  0.76918763  0.24258598  0.92753251  1
  Ca2+  Ca15  1  0.73714965  0.74560820  0.25260051  1
  Ca2+  Ca16  1  0.74846241  0.75782316  0.56679429  1
  Ca2+  Ca17  1  0.73685435  0.74942870  0.92831834  1
  Ca2+  Ca18  1  0.24947790  0.25502439  0.10099893  1
  Ca2+  Ca19  1  0.26566537  0.24439672  0.42044731  1
  Ca2+  Ca20  1  0.27136973  0.24640649  0.73654965  1
  Ca2+  Ca21  1  0.26578152  0.75825107  0.08211526  1
  Ca2+  Ca22  1  0.23871427  0.74455851  0.42851241  1
  Ca2+  Ca23  1  0.24170400  0.75006105  0.73475788  1
  Ca2+  Ca24  1  0.60107603  0.25079102  0.08348130  1
  Ca2+  Ca25  1  0.56854436  0.24350923  0.41593908  1
  Ca2+  Ca26  1  0.56884079  0.25280498  0.74756096  1
  Ca2+  Ca27  1  0.58119217  0.74906426  0.09450881  1
  Ca2+  Ca28  1  0.58912871  0.75313758  0.40148316  1
  Ca2+  Ca29  1  0.58039221  0.75999147  0.75142685  1
  Ca2+  Ca30  1  0.89221849  0.24786670  0.06598141  1
  Ca2+  Ca31  1  0.91308253  0.25510763  0.41816587  1
  Ca2+  Ca32  1  0.90832905  0.25560198  0.77225586  1
  Ca2+  Ca33  1  0.89965639  0.75191528  0.08147649  1
  Ca2+  Ca34  1  0.92899002  0.75068815  0.41813332  1
  Ca2+  Ca35  1  0.93420932  0.75381439  0.74738191  1
  Ca2+  Ca36  1  0.08128404  0.08937801  0.91589328  1
  Ca2+  Ca37  1  0.25394683  0.08246783  0.08242314  1
  Ca2+  Ca38  1  0.92371403  0.60225874  0.41670492  1
  Ca2+  Ca39  1  0.24907803  0.59799991  0.73993180  1
  Ca2+  Ca40  1  0.93466913  0.60309245  0.41696050  1
  Ca2+  Ca41  1  0.27866680  0.11181802  0.41638865  1
  Ca2+  Ca42  1  0.26312474  0.58652028  0.07235103  1
  Ca2+  Ca43  1  0.56875851  0.57806469  0.73435774  1
  Ca2+  Ca44  1  0.40497441  0.10377088  0.58232031  1
  Ca2+  Ca45  1  0.73401807  0.07576212  0.57923284  1
  Ca2+  Ca46  1  0.26438274  0.09979504  0.74727337  1
  Ca2+  Ca47  1  0.56213612  0.59056291  0.09715372  1
  Ca2+  Ca48  1  0.88863776  0.09838934  0.06388889  1
  Ca2+  Ca49  1  0.38813225  0.60249751  0.58232887  1
  Ca2+  Ca50  1  0.27157275  0.10738046  0.41237453  1
  Ca2+  Ca51  1  0.91551299  0.10453420  0.76152320  1
  Ca2+  Ca52  1  0.27457496  0.58424468  0.07540499  1
  Ca2+  Ca53  1  0.56644491  0.08276279  0.73843307  1
  Ca2+  Ca54  1  0.08215657  0.58623882  0.90992204  1
  Ca2+  Ca55  1  0.75788693  0.59290138  0.92830716  1
  Ca2+  Ca56  1  0.40030166  0.08751308  0.91395759  1
  Ca2+  Ca57  1  0.24125843  0.61196183  0.43053677  1
  Ca2+  Ca58  1  0.77241586  0.10005941  0.92404788  1
  Ca2+  Ca59  1  0.09471049  0.58785225  0.91011458  1
  Ca2+  Ca60  1  0.40622952  0.58401381  0.92950165  1
  Ca2+  Ca61  1  0.09908623  0.10537736  0.58785267  1
  Ca2+  Ca62  1  0.11154087  0.09256536  0.25386751  1
  Ca2+  Ca63  1  0.91155242  0.59345113  0.08933910  1
  Ca2+  Ca64  1  0.07638767  0.59198365  0.27117949  1
  Ca2+  Ca65  1  0.90009376  0.09113581  0.42048585  1
  Ca2+  Ca66  1  0.58163784  0.57738013  0.73353528  1
  Ca2+  Ca67  1  0.09487736  0.60703510  0.57316043  1
  Ca2+  Ca68  1  0.92625087  0.10641161  0.76301876  1
  Ca2+  Ca69  1  0.60997565  0.09625232  0.09194541  1
  Ca2+  Ca70  1  0.27191544  0.10414518  0.74348987  1
  Ca2+  Ca71  1  0.73441146  0.09251203  0.25598461  1
  Ca2+  Ca72  1  0.25049635  0.91334556  0.06500652  1
  Ca2+  Ca73  1  0.42944824  0.90183751  0.58531305  1
  Ca2+  Ca74  1  0.57365628  0.40955341  0.40542811  1
  Ca2+  Ca75  1  0.06961647  0.40883613  0.24303228  1
  Ca2+  Ca76  1  0.25193004  0.40846092  0.76347446  1
  Ca2+  Ca77  1  0.42162083  0.90211256  0.25032167  1
  Ca2+  Ca78  1  0.74364644  0.41384021  0.59205775  1
  Ca2+  Ca79  1  0.91559591  0.41722338  0.40198339  1
  Ca2+  Ca80  1  0.26215392  0.40660104  0.42169512  1
  Ca2+  Ca81  1  0.43000661  0.40915755  0.24155809  1
  Ca2+  Ca82  1  0.39794495  0.91103282  0.91802329  1
  Ca2+  Ca83  1  0.07846941  0.89050270  0.58445867  1
  Ca2+  Ca84  1  0.60828426  0.91774112  0.43225015  1
  Ca2+  Ca85  1  0.74211253  0.90794756  0.26419987  1
  Ca2+  Ca86  1  0.07444049  0.40575870  0.59216133  1
  Ca2+  Ca87  1  0.74254926  0.90709485  0.91452804  1
  Ca2+  Ca88  1  0.89918024  0.89893009  0.41794741  1
  Ca2+  Ca89  1  0.42438143  0.41394294  0.59602433  1
  Ca2+  Ca90  1  0.25947658  0.89763713  0.41488165  1
  Ca2+  Ca91  1  0.75691932  0.39813906  0.91034375  1
  Ca2+  Ca92  1  0.73080494  0.41404101  0.59145454  1
  Ca2+  Ca93  1  0.57796872  0.90681610  0.08302924  1
  Ca2+  Ca94  1  0.57963858  0.40854334  0.74699239  1
  Ca2+  Ca95  1  0.58680946  0.91666875  0.72241370  1
  Ca2+  Ca96  1  0.08639447  0.40580349  0.59158560  1
  Ca2+  Ca97  1  0.75487263  0.90524866  0.91370032  1
  Ca2+  Ca98  1  0.26005163  0.41527335  0.05895856  1
  Ca2+  Ca99  1  0.92065850  0.41532717  0.39308768  1
  Ca2+  Ca100  1  0.08858026  0.89684084  0.24404320  1
  Ca2+  Ca101  1  0.57808924  0.41251295  0.41522708  1
  Ca2+  Ca102  1  0.27151296  0.41609258  0.05832847  1
  Ca2+  Ca103  1  0.91991633  0.90002712  0.07507582  1
  Ca2+  Ca104  1  0.57553748  0.40562382  0.08914554  1
  Ca2+  Ca105  1  0.25070552  0.40662277  0.42074727  1
  Ca2+  Ca106  1  0.10923012  0.91052057  0.91113379  1
  Ca2+  Ca107  1  0.08055632  0.40571271  0.91354173  1
  Mn3.34+  Mn108  1  0.07868790  0.33703543  0.08432184  1
  Mn3.34+  Mn109  1  0.08359309  0.33212073  0.41724536  1
  Mn3.34+  Mn110  1  0.08291775  0.32915060  0.75496126  1
  Mn3.34+  Mn111  1  0.08275940  0.82805441  0.08356467  1
  Mn3.34+  Mn112  1  0.08386057  0.82903019  0.41846404  1
  Mn3.34+  Mn113  1  0.08517923  0.83477750  0.74967941  1
  Mn3.34+  Mn114  1  0.42073493  0.33345436  0.08306159  1
  Mn3.34+  Mn115  1  0.41804007  0.33313923  0.41873380  1
  Mn3.34+  Mn116  1  0.41602136  0.33306784  0.75095930  1
  Mn3.34+  Mn117  1  0.41819519  0.83440171  0.08296073  1
  Mn3.34+  Mn118  1  0.41990982  0.83371800  0.41845684  1
  Mn3.34+  Mn119  1  0.41352725  0.83506936  0.75253372  1
  Mn3.34+  Mn120  1  0.74957297  0.33255747  0.08383171  1
  Mn3.34+  Mn121  1  0.74941594  0.32935926  0.41460635  1
  Mn3.34+  Mn122  1  0.74901074  0.33115731  0.75424964  1
  Mn3.34+  Mn123  1  0.74850602  0.83258894  0.08898558  1
  Mn3.34+  Mn124  1  0.75034270  0.83417485  0.41855592  1
  Mn3.34+  Mn125  1  0.75522622  0.83292000  0.74541914  1
  Mn3.34+  Mn126  1  0.25160489  0.33496589  0.24646868  1
  Mn3.34+  Mn127  1  0.25299786  0.33296479  0.58666591  1
  Mn3.34+  Mn128  1  0.24769432  0.33427404  0.91157897  1
  Mn3.34+  Mn129  1  0.25217128  0.83251333  0.24670959  1
  Mn3.34+  Mn130  1  0.25097562  0.82798720  0.58422159  1
  Mn3.34+  Mn131  1  0.25234844  0.83256297  0.91149266  1
  Mn3.34+  Mn132  1  0.58430178  0.33842127  0.24478037  1
  Mn3.34+  Mn133  1  0.58073945  0.33544778  0.58250535  1
  Mn3.34+  Mn134  1  0.58254918  0.33502256  0.91641232  1
  Mn3.34+  Mn135  1  0.58274658  0.83305938  0.24976816  1
  Mn3.34+  Mn136  1  0.58413954  0.83275113  0.58076725  1
  Mn3.34+  Mn137  1  0.57878459  0.83233628  0.91284039  1
  Mn3.34+  Mn138  1  0.91134207  0.33970044  0.23999975  1
  Mn3.34+  Mn139  1  0.91532187  0.33081410  0.58452167  1
  Mn3.34+  Mn140  1  0.91738568  0.33531208  0.91901839  1
  Mn3.34+  Mn141  1  0.91782790  0.82626574  0.24735910  1
  Mn3.34+  Mn142  1  0.91318512  0.82938977  0.58606764  1
  Mn3.34+  Mn143  1  0.91896264  0.82782143  0.91214564  1
  Mn3.34+  Mn144  1  0.57728325  0.16449058  0.58059882  1
  Mn3.34+  Mn145  1  0.07951068  0.66792748  0.74755983  1
  Mn3.34+  Mn146  1  0.07618507  0.67244651  0.08954779  1
  Mn3.34+  Mn147  1  0.91754868  0.17146026  0.58054394  1
  Mn3.34+  Mn148  1  0.75038303  0.16779009  0.74796019  1
  Mn3.34+  Mn149  1  0.41710899  0.66840730  0.75568832  1
  Mn3.34+  Mn150  1  0.08554123  0.67807305  0.08779607  1
  Mn3.34+  Mn151  1  0.58769262  0.16017870  0.58128979  1
  Mn3.34+  Mn152  1  0.58609231  0.16054093  0.91190364  1
  Mn3.34+  Mn153  1  0.41047808  0.16803031  0.08792789  1
  Mn3.34+  Mn154  1  0.91423660  0.66666530  0.58360672  1
  Mn3.34+  Mn155  1  0.74468587  0.66717887  0.08936491  1
  Mn3.34+  Mn156  1  0.07941561  0.16311136  0.08175793  1
  Mn3.34+  Mn157  1  0.74976738  0.66986818  0.41330239  1
  Mn3.34+  Mn158  1  0.58357106  0.65628018  0.25607082  1
  Mn3.34+  Mn159  1  0.91649934  0.66806169  0.91438264  1
  Mn3.34+  Mn160  1  0.74713230  0.16328358  0.42103740  1
  Mn3.34+  Mn161  1  0.58121403  0.16048892  0.25463340  1
  Mn3.34+  Mn162  1  0.24919091  0.16488705  0.91170225  1
  Mn3.34+  Mn163  1  0.90942945  0.16623106  0.25015097  1
  Mn3.34+  Mn164  1  0.75262590  0.67050605  0.74830641  1
  Mn3.34+  Mn165  1  0.41881714  0.66058759  0.40965622  1
  Mn3.34+  Mn166  1  0.58162982  0.66816614  0.91719217  1
  Mn3.34+  Mn167  1  0.57757968  0.66715531  0.57466899  1
  Mn3.34+  Mn168  1  0.25422820  0.66999378  0.25048533  1
  Mn3.34+  Mn169  1  0.57678671  0.16616493  0.91368683  1
  Mn3.34+  Mn170  1  0.08260547  0.16862787  0.42046345  1
  Mn3.34+  Mn171  1  0.25140104  0.66743659  0.91174959  1
  Mn3.34+  Mn172  1  0.41937818  0.66655240  0.08743422  1
  Mn3.34+  Mn173  1  0.76220847  0.66495719  0.75033818  1
  Mn3.34+  Mn174  1  0.42054794  0.16327737  0.09081848  1
  Mn3.34+  Mn175  1  0.91157056  0.66176281  0.24508402  1
  Mn3.34+  Mn176  1  0.58883980  0.65923261  0.57273553  1
  Mn3.34+  Mn177  1  0.08589768  0.17351605  0.75349315  1
  Mn3.34+  Mn178  1  0.09177056  0.16810604  0.08491915  1
  Mn3.34+  Mn179  1  0.92148481  0.17131085  0.25249969  1
  Mn3.34+  Mn180  1  0.26382285  0.50131819  0.25153664  1
  Mn3.34+  Mn181  1  0.91456187  0.50190348  0.59416903  1
  Mn3.34+  Mn182  1  0.75057842  0.50172725  0.09839134  1
  Mn3.34+  Mn183  1  0.57926879  0.49649556  0.92732945  1
  Mn3.34+  Mn184  1  0.56818981  0.50108338  0.92482955  1
  Mn3.34+  Mn185  1  0.24952984  0.50319637  0.58935619  1
  Mn3.34+  Mn186  1  0.73909554  0.51289140  0.39713552  1
  Mn3.34+  Mn187  1  0.07635021  0.50265284  0.08271693  1
  Mn3.34+  Mn188  1  0.41774380  -0.00358283  0.74471653  1
  Mn3.34+  Mn189  1  0.92299103  -0.00386764  0.58533922  1
  Mn3.34+  Mn190  1  0.09023742  0.00292919  0.41935539  1
  Mn3.34+  Mn191  1  0.42657789  0.50600628  0.40810698  1
  Mn3.34+  Mn192  1  0.58416610  -0.00089947  0.26196265  1
  Mn3.34+  Mn193  1  0.24095007  -0.00747333  0.58143044  1
  Mn3.34+  Mn194  1  0.74657017  0.50637310  0.40075287  1
  Mn3.34+  Mn195  1  0.07580659  0.49889380  0.74297215  1
  Mn3.34+  Mn196  1  0.91661528  -0.00408410  0.24611011  1
  Mn3.34+  Mn197  1  0.07541975  -0.00303149  0.41893817  1
  Mn3.34+  Mn198  1  0.91862465  -0.00308409  0.91597178  1
  Mn3.34+  Mn199  1  0.08357831  -0.00236632  0.07684969  1
  Mn3.34+  Mn200  1  0.25438096  -0.00073903  0.57842230  1
  Mn3.34+  Mn201  1  0.91663022  0.49879420  0.91454584  1
  Mn3.34+  Mn202  1  0.74793470  0.00218232  0.74744071  1
  Mn3.34+  Mn203  1  0.41233139  0.49717371  0.75334731  1
  Mn3.34+  Mn204  1  0.25682968  -0.00337865  0.25446028  1
  Mn3.34+  Mn205  1  0.75116316  -0.00260542  0.08068019  1
  Mn3.34+  Mn206  1  0.90530879  0.00056410  0.24612566  1
  Mn3.34+  Mn207  1  0.42222104  -0.00112742  0.41062189  1
  Mn3.34+  Mn208  1  0.75570288  0.49872614  0.74996045  1
  Mn3.34+  Mn209  1  0.90924610  0.00145118  0.58108376  1
  Mn3.34+  Mn210  1  0.25250430  0.50586620  0.25269067  1
  Mn3.34+  Mn211  1  0.57943414  -0.00437668  0.91708167  1
  Mn3.34+  Mn212  1  0.41483429  -0.00066690  0.07884732  1
  Mn3.34+  Mn213  1  0.08481074  0.50271290  0.42281723  1
  Mn3.34+  Mn214  1  0.76033766  0.49615210  0.09677372  1
  Mn3.34+  Mn215  1  0.08372482  -0.00111083  0.75038669  1
  O2-  O216  1  0.00485597  0.15116869  0.00497365  1
  O2-  O217  1  -0.00392750  0.15093545  0.33538630  1
  O2-  O218  1  0.00155204  0.16791233  0.66606901  1
  O2-  O219  1  -0.00226784  0.66893503  0.00230102  1
  O2-  O220  1  -0.00715995  0.66813645  0.32661403  1
  O2-  O221  1  -0.00011274  0.67411205  0.66394943  1
  O2-  O222  1  0.33326738  0.15630856  -0.00173254  1
  O2-  O223  1  0.32828985  0.17051452  0.33616518  1
  O2-  O224  1  0.33448673  0.15922683  0.66927960  1
  O2-  O225  1  0.33038771  0.65725347  -0.00130258  1
  O2-  O226  1  0.33423274  0.66894309  0.33102491  1
  O2-  O227  1  0.33699500  0.66882949  0.67612110  1
  O2-  O228  1  0.66427920  0.15398043  -0.00669729  1
  O2-  O229  1  0.66733266  0.16492836  0.33258300  1
  O2-  O230  1  0.66901981  0.14987632  0.66146387  1
  O2-  O231  1  0.66738425  0.64896621  -0.00064040  1
  O2-  O232  1  0.66821104  0.66592696  0.33259096  1
  O2-  O233  1  0.66314232  0.65441646  0.67088708  1
  O2-  O234  1  0.17208044  0.16047548  -0.00081903  1
  O2-  O235  1  0.16237636  0.15263458  0.34291877  1
  O2-  O236  1  0.16953937  0.16361173  0.67772185  1
  O2-  O237  1  0.16347911  0.65584725  0.00122591  1
  O2-  O238  1  0.17135380  0.65583893  0.32313246  1
  O2-  O239  1  0.16151892  0.65786384  0.67487733  1
  O2-  O240  1  0.49909813  0.14692633  0.00528177  1
  O2-  O241  1  0.50919230  0.19082655  0.32126769  1
  O2-  O242  1  0.50456486  0.15725482  0.66610562  1
  O2-  O243  1  0.49491295  0.65245165  -0.00389522  1
  O2-  O244  1  0.49961997  0.68084592  0.33344163  1
  O2-  O245  1  0.50023613  0.66274669  0.66868147  1
  O2-  O246  1  0.83236751  0.16708594  -0.00369496  1
  O2-  O247  1  0.83107604  0.15432325  0.33593107  1
  O2-  O248  1  0.83705033  0.15603280  0.66663950  1
  O2-  O249  1  0.83576755  0.66492830  0.00049570  1
  O2-  O250  1  0.83888421  0.66535175  0.33500269  1
  O2-  O251  1  0.83149540  0.68736655  0.66060341  1
  O2-  O252  1  0.00666452  0.34242003  -0.00611324  1
  O2-  O253  1  0.00120969  0.34515566  0.33846165  1
  O2-  O254  1  0.00691804  0.32334972  0.66133538  1
  O2-  O255  1  -0.00423656  0.81606261  0.00241373  1
  O2-  O256  1  -0.00026971  0.83396018  0.33350083  1
  O2-  O257  1  0.00146903  0.82651653  0.66378543  1
  O2-  O258  1  0.32988712  0.33322200  -0.00195823  1
  O2-  O259  1  0.33434865  0.35217664  0.33363404  1
  O2-  O260  1  0.33180678  0.34826109  0.66663524  1
  O2-  O261  1  0.33300774  0.83978016  0.00229726  1
  O2-  O262  1  0.33773572  0.84061339  0.33009619  1
  O2-  O263  1  0.33908992  0.82658945  0.66202716  1
  O2-  O264  1  0.66537105  0.34708883  -0.00076024  1
  O2-  O265  1  0.65685272  0.33677453  0.34037001  1
  O2-  O266  1  0.66487509  0.34692215  0.66688329  1
  O2-  O267  1  0.66926869  0.85064942  -0.00099563  1
  O2-  O268  1  0.66242165  0.84286787  0.33399229  1
  O2-  O269  1  0.66547920  0.83145736  0.67110463  1
  O2-  O270  1  0.17213136  0.33688608  0.00227140  1
  O2-  O271  1  0.16898543  0.35646984  0.33410185  1
  O2-  O272  1  0.16557422  0.34223728  0.66688458  1
  O2-  O273  1  0.16351266  0.83570158  -0.00120979  1
  O2-  O274  1  0.16755819  0.84473866  0.33227758  1
  O2-  O275  1  0.16595406  0.83946663  0.66415073  1
  O2-  O276  1  0.50528978  0.34268786  0.00594103  1
  O2-  O277  1  0.50026862  0.34221354  0.33308332  1
  O2-  O278  1  0.50008473  0.34716333  0.66649562  1
  O2-  O279  1  0.49705191  0.85077894  -0.00391096  1
  O2-  O280  1  0.49921437  0.83282372  0.33147321  1
  O2-  O281  1  0.50051333  0.83167781  0.67037624  1
  O2-  O282  1  0.83103269  0.34091449  -0.00179757  1
  O2-  O283  1  0.83657227  0.34409320  0.33942971  1
  O2-  O284  1  0.82573740  0.33810726  0.65890346  1
  O2-  O285  1  0.83115983  0.83267217  -0.00019826  1
  O2-  O286  1  0.83368751  0.83175426  0.32942273  1
  O2-  O287  1  0.83355757  0.80728787  0.66634676  1
  O2-  O288  1  0.00110672  0.17429583  0.16770146  1
  O2-  O289  1  -0.00010464  0.18947654  0.50189428  1
  O2-  O290  1  -0.00257904  0.18071525  0.82448803  1
  O2-  O291  1  -0.00467977  0.69188213  0.16940318  1
  O2-  O292  1  -0.00626991  0.67664869  0.50418240  1
  O2-  O293  1  0.00601439  0.68203245  0.84399972  1
  O2-  O294  1  0.32603174  0.17725905  0.15988778  1
  O2-  O295  1  0.32960532  0.17187032  0.49819884  1
  O2-  O296  1  0.32646155  0.18047104  0.83726420  1
  O2-  O297  1  0.32796264  0.68093193  0.15762341  1
  O2-  O298  1  0.33929779  0.68129020  0.48681596  1
  O2-  O299  1  0.33476147  0.67710082  0.83676258  1
  O2-  O300  1  0.65833572  0.18115395  0.17905096  1
  O2-  O301  1  0.66691443  0.17872320  0.50376888  1
  O2-  O302  1  0.66356523  0.17388456  0.82481908  1
  O2-  O303  1  0.66078086  0.67340941  0.16258088  1
  O2-  O304  1  0.67233512  0.67648314  0.49824442  1
  O2-  O305  1  0.67011137  0.68478837  0.83209498  1
  O2-  O306  1  0.16461419  0.17734027  0.16343256  1
  O2-  O307  1  0.16388739  0.17423949  0.49493077  1
  O2-  O308  1  0.16340817  0.18752129  0.83916221  1
  O2-  O309  1  0.16909279  0.68278827  0.16635599  1
  O2-  O310  1  0.16557523  0.67486155  0.50071706  1
  O2-  O311  1  0.16336957  0.67163446  0.83729683  1
  O2-  O312  1  0.50584180  0.17809881  0.16450368  1
  O2-  O313  1  0.49804650  0.17540860  0.50604576  1
  O2-  O314  1  0.49591435  0.17410568  0.83796686  1
  O2-  O315  1  0.50129550  0.67624266  0.16383990  1
  O2-  O316  1  0.49560703  0.68079294  0.49644806  1
  O2-  O317  1  0.50571307  0.68453823  0.82867258  1
  O2-  O318  1  0.83375736  0.17782810  0.16935212  1
  O2-  O319  1  0.83513941  0.18708296  0.50287766  1
  O2-  O320  1  0.83182533  0.17578276  0.82464169  1
  O2-  O321  1  0.83284785  0.68509258  0.16596161  1
  O2-  O322  1  0.84196681  0.68332817  0.49129458  1
  O2-  O323  1  0.83453491  0.68968958  0.83694828  1
  O2-  O324  1  0.00663180  0.32708308  0.17493442  1
  O2-  O325  1  0.00172519  0.32275669  0.50381770  1
  O2-  O326  1  0.00123148  0.31946139  0.83413206  1
  O2-  O327  1  0.00200522  0.80986298  0.16707568  1
  O2-  O328  1  0.00135907  0.81751581  0.50329764  1
  O2-  O329  1  0.00428019  0.81880572  0.83632127  1
  O2-  O330  1  0.33137699  0.32364732  0.16301091  1
  O2-  O331  1  0.32861961  0.33407294  0.49715909  1
  O2-  O332  1  0.32649420  0.31953227  0.82886827  1
  O2-  O333  1  0.33690728  0.82310976  0.16703562  1
  O2-  O334  1  0.33071325  0.81793475  0.49296625  1
  O2-  O335  1  0.33625034  0.81545844  0.83544872  1
  O2-  O336  1  0.66342235  0.31733191  0.16812603  1
  O2-  O337  1  0.67306015  0.32972334  0.50436172  1
  O2-  O338  1  0.66465464  0.32046892  0.83082930  1
  O2-  O339  1  0.66540261  0.83100034  0.16623561  1
  O2-  O340  1  0.66160647  0.82689761  0.49476348  1
  O2-  O341  1  0.67099645  0.81890039  0.83728309  1
  O2-  O342  1  0.16568640  0.32580398  0.16871862  1
  O2-  O343  1  0.16699304  0.33065073  0.50147077  1
  O2-  O344  1  0.16521250  0.31110470  0.83451470  1
  O2-  O345  1  0.16664569  0.82052332  0.16485884  1
  O2-  O346  1  0.16757049  0.83086383  0.49939258  1
  O2-  O347  1  0.16751695  0.82681382  0.83416213  1
  O2-  O348  1  0.49990258  0.31862990  0.16942485  1
  O2-  O349  1  0.50697966  0.33245364  0.49350797  1
  O2-  O350  1  0.50189702  0.32451950  0.82992457  1
  O2-  O351  1  0.50028558  0.82729633  0.16505496  1
  O2-  O352  1  0.49642372  0.81394486  0.50230358  1
  O2-  O353  1  0.49645894  0.81479164  0.83458426  1
  O2-  O354  1  0.83307471  0.31831915  0.16424939  1
  O2-  O355  1  0.83500181  0.32569898  0.49985933  1
  O2-  O356  1  0.82709954  0.32192770  0.83823241  1
  O2-  O357  1  0.83340141  0.81637132  0.16669888  1
  O2-  O358  1  0.83932063  0.81800168  0.49520688  1
  O2-  O359  1  0.82905810  0.81516012  0.83829677  1
  O2-  O360  1  0.08841170  0.07805090  0.11372313  1
  O2-  O361  1  0.06783523  0.08247586  0.45105553  1
  O2-  O362  1  0.07055654  0.08034917  0.78084911  1
  O2-  O363  1  0.06716854  0.58459985  0.11750224  1
  O2-  O364  1  0.07165302  0.58286641  0.43251277  1
  O2-  O365  1  0.08256646  0.58029080  0.77597952  1
  O2-  O366  1  0.41217344  0.08004434  0.10962928  1
  O2-  O367  1  0.39977112  0.06806861  0.45767005  1
  O2-  O368  1  0.40397944  0.07305764  0.78147754  1
  O2-  O369  1  0.40693174  0.58719394  0.10173665  1
  O2-  O370  1  0.39861201  0.57765580  0.45034781  1
  O2-  O371  1  0.43221823  0.57756370  0.78486898  1
  O2-  O372  1  0.74737839  0.07350218  0.11780704  1
  O2-  O373  1  0.76167852  0.08471498  0.44726567  1
  O2-  O374  1  0.76734938  0.08200116  0.77942290  1
  O2-  O375  1  0.76857169  0.58411025  0.11165727  1
  O2-  O376  1  0.76771156  0.58795174  0.43971916  1
  O2-  O377  1  0.74036009  0.58031071  0.78494046  1
  O2-  O378  1  0.24300891  0.07065384  0.21812947  1
  O2-  O379  1  0.23735251  0.07726080  0.54740659  1
  O2-  O380  1  0.24551919  0.08216764  0.88072477  1
  O2-  O381  1  0.24642510  0.58414039  0.21110509  1
  O2-  O382  1  0.24527927  0.57990048  0.56326133  1
  O2-  O383  1  0.24000229  0.58280816  0.89788379  1
  O2-  O384  1  0.58986153  0.07760294  0.22548965  1
  O2-  O385  1  0.58691301  0.07926175  0.56516520  1
  O2-  O386  1  0.57396209  0.07699433  0.88198611  1
  O2-  O387  1  0.58137639  0.58060657  0.23174728  1
  O2-  O388  1  0.56468760  0.57971122  0.58428345  1
  O2-  O389  1  0.58538103  0.57819337  0.87294775  1
  O2-  O390  1  0.91664837  0.08189207  0.21323475  1
  O2-  O391  1  0.92246052  0.08204558  0.55347313  1
  O2-  O392  1  0.92353265  0.07608138  0.88914229  1
  O2-  O393  1  0.93141127  0.58366743  0.22660048  1
  O2-  O394  1  0.92305905  0.57869664  0.55210316  1
  O2-  O395  1  0.93101270  0.58096328  0.89276095  1
  O2-  O396  1  0.10189295  0.42203063  0.10194668  1
  O2-  O397  1  0.08153033  0.42098515  0.45467839  1
  O2-  O398  1  0.09133590  0.41876791  0.77207354  1
  O2-  O399  1  0.07226570  0.91793600  0.10522735  1
  O2-  O400  1  0.07611171  0.91593226  0.44165290  1
  O2-  O401  1  0.07836473  0.91766193  0.77222341  1
  O2-  O402  1  0.40829995  0.41394990  0.10464695  1
  O2-  O403  1  0.41525219  0.42661673  0.45662372  1
  O2-  O404  1  0.40354604  0.41809592  0.76892265  1
  O2-  O405  1  0.41304169  0.91992970  0.10936836  1
  O2-  O406  1  0.41507169  0.92188996  0.45066573  1
  O2-  O407  1  0.43204329  0.92042563  0.78100377  1
  O2-  O408  1  0.73260220  0.41609827  0.10708068  1
  O2-  O409  1  0.75786467  0.42627766  0.44951541  1
  O2-  O410  1  0.74836407  0.41642881  0.77000585  1
  O2-  O411  1  0.76674710  0.91725315  0.11013887  1
  O2-  O412  1  0.75599011  0.91398553  0.42399718  1
  O2-  O413  1  0.74378933  0.92179248  0.77993644  1
  O2-  O414  1  0.25489226  0.42171239  0.21230456  1
  O2-  O415  1  0.23694245  0.42307766  0.55494526  1
  O2-  O416  1  0.23431894  0.41673900  0.90535911  1
  O2-  O417  1  0.25062071  0.91767641  0.21940429  1
  O2-  O418  1  0.26219651  0.91297685  0.56143604  1
  O2-  O419  1  0.25204264  0.91384693  0.91091259  1
  O2-  O420  1  0.57517026  0.41585625  0.22432937  1
  O2-  O421  1  0.59930080  0.42711680  0.54815077  1
  O2-  O422  1  0.59769803  0.42031625  0.88415804  1
  O2-  O423  1  0.58164637  0.92083161  0.22266211  1
  O2-  O424  1  0.57122394  0.91349200  0.56973550  1
  O2-  O425  1  0.59730845  0.91671076  0.88015711  1
  O2-  O426  1  0.92477096  0.41957558  0.25002761  1
  O2-  O427  1  0.92603755  0.42351584  0.54572757  1
  O2-  O428  1  0.91620753  0.41909216  0.89170579  1
  O2-  O429  1  0.92581078  0.91500031  0.21757619  1
  O2-  O430  1  0.92672562  0.91617852  0.55724651  1
  O2-  O431  1  0.89557762  0.91570130  0.91107925  1
  O2-  O432  1  0.00246821  0.00173020  -0.00355549  1
  O2-  O433  1  0.00375608  0.00967330  0.32678653  1
  O2-  O434  1  -0.00161210  0.01273026  0.67031629  1
  O2-  O435  1  0.01742336  0.50564555  -0.02426610  1
  O2-  O436  1  0.00202417  0.49571242  0.35195067  1
  O2-  O437  1  0.02294597  0.49466901  0.63426001  1
  O2-  O438  1  0.33299317  0.00320147  0.00824435  1
  O2-  O439  1  0.32012840  -0.00219879  0.35228057  1
  O2-  O440  1  0.33471644  0.00931619  0.66383563  1
  O2-  O441  1  0.31643912  0.50171297  0.03608887  1
  O2-  O442  1  0.32321198  0.48635911  0.35065116  1
  O2-  O443  1  0.34085071  0.50860219  0.66100916  1
  O2-  O444  1  0.67274058  -0.00989481  -0.00836368  1
  O2-  O445  1  0.68066657  -0.00362390  0.30981449  1
  O2-  O446  1  0.65753527  0.00845826  0.69071846  1
  O2-  O447  1  0.66817787  0.50996229  0.00719379  1
  O2-  O448  1  0.64215274  0.48681357  0.35088369  1
  O2-  O449  1  0.65548463  0.49627347  0.69642915  1
  O2-  O450  1  0.16813984  -0.00033154  0.01119162  1
  O2-  O451  1  0.15894417  -0.00477420  0.32345310  1
  O2-  O452  1  0.16924917  0.01567157  0.67027665  1
  O2-  O453  1  0.16704775  0.52009658  0.01945443  1
  O2-  O454  1  0.16229172  0.50002749  0.32929971  1
  O2-  O455  1  0.17460114  0.49361033  0.67589464  1
  O2-  O456  1  0.50401590  -0.00491360  0.00675497  1
  O2-  O457  1  0.49692850  -0.01836116  0.33032266  1
  O2-  O458  1  0.49990090  0.00142554  0.67792854  1
  O2-  O459  1  0.49665965  0.51422906  0.01049335  1
  O2-  O460  1  0.49056070  0.47354727  0.33300068  1
  O2-  O461  1  0.50435897  0.49369781  0.69250064  1
  O2-  O462  1  0.83242028  0.00975785  -0.00369515  1
  O2-  O463  1  0.84198673  0.00174986  0.34058228  1
  O2-  O464  1  0.82645322  0.00972210  0.66160482  1
  O2-  O465  1  0.83413730  0.50872408  0.00180121  1
  O2-  O466  1  0.85745976  0.50568688  0.36612144  1
  O2-  O467  1  0.81090264  0.49091107  0.64112708  1
  O2-  O468  1  0.42188027  0.75178028  0.06490237  1
  O2-  O469  1  0.74503946  0.24901490  0.72407783  1
  O2-  O470  1  0.24584082  0.25810320  0.26943978  1
  O2-  O471  1  0.24709501  0.74833652  0.93785782  1
  O2-  O472  1  0.08236718  0.25171397  0.06762969  1
  O2-  O473  1  0.24284987  0.74997683  0.59090901  1
  O2-  O474  1  0.25165666  0.25483559  0.59469208  1
  O2-  O475  1  0.08670263  0.25055696  0.39327225  1
  O2-  O476  1  0.73610675  0.74992668  0.06674688  1
  O2-  O477  1  0.24629063  0.75180321  0.26911747  1
  O2-  O478  1  0.74078148  0.75078237  0.40033183  1
  O2-  O479  1  0.09409464  0.75070939  0.74242138  1
  O2-  O480  1  0.41848787  0.24846355  0.05887796  1
  O2-  O481  1  0.57903858  0.24877259  0.93703701  1
  O2-  O482  1  0.91732030  0.25402373  0.27455577  1
  O2-  O483  1  0.58968566  0.75185695  0.25371875  1
  O2-  O484  1  0.58515507  0.75178901  0.94705886  1
  O2-  O485  1  0.91739729  0.25537847  0.93006186  1
  O2-  O486  1  0.74556407  0.25440145  0.06630467  1
  O2-  O487  1  0.59575329  0.74617911  0.59752635  1
  O2-  O488  1  0.58984763  0.24685255  0.60093917  1
  O2-  O489  1  0.75331374  0.24910440  0.39959075  1
  O2-  O490  1  0.41333411  0.25589690  0.41098030  1
  O2-  O491  1  0.09112736  0.75110475  0.40870011  1
  O2-  O492  1  0.41966404  0.25581522  0.73050077  1
