# generated using pymatgen
data_Ca108Mn108O277
_symmetry_space_group_name_H-M   'P 1'
_cell_length_a   16.03447958
_cell_length_b   22.31504118
_cell_length_c   16.39393877
_cell_angle_alpha   89.99935780
_cell_angle_beta   89.99467030
_cell_angle_gamma   89.99401326
_symmetry_Int_Tables_number   1
_chemical_formula_structural   Ca108Mn108O277
_chemical_formula_sum   'Ca108 Mn108 O277'
_cell_volume   5865.91635448
_cell_formula_units_Z   1
loop_
 _symmetry_equiv_pos_site_id
 _symmetry_equiv_pos_as_xyz
  1  'x, y, z'
loop_
 _atom_type_symbol
 _atom_type_oxidation_number
  Ca2+  2.0
  Mn3.34+  3.34
  O2-  -2.0
loop_
 _atom_site_type_symbol
 _atom_site_label
 _atom_site_symmetry_multiplicity
 _atom_site_fract_x
 _atom_site_fract_y
 _atom_site_fract_z
 _atom_site_occupancy
  Ca2+  Ca0  1  0.08436045  0.26126928  0.25454332  1
  Ca2+  Ca1  1  0.08125048  0.25287512  0.58330491  1
  Ca2+  Ca2  1  0.10101438  0.24789207  0.89969264  1
  Ca2+  Ca3  1  0.09299409  0.74462931  0.24374758  1
  Ca2+  Ca4  1  0.08635749  0.74433331  0.58078806  1
  Ca2+  Ca5  1  0.07177166  0.74517128  0.92081674  1
  Ca2+  Ca6  1  0.42467824  0.26378311  0.25300198  1
  Ca2+  Ca7  1  0.41223418  0.26045268  0.58998929  1
  Ca2+  Ca8  1  0.39690701  0.24657584  0.90450018  1
  Ca2+  Ca9  1  0.41680149  0.73241640  0.25961310  1
  Ca2+  Ca10  1  0.40107620  0.74693647  0.55697318  1
  Ca2+  Ca11  1  0.40123788  0.76003235  0.92319594  1
  Ca2+  Ca12  1  0.74584863  0.26709808  0.25003472  1
  Ca2+  Ca13  1  0.75196872  0.25300315  0.57874048  1
  Ca2+  Ca14  1  0.75719188  0.25107521  0.92460535  1
  Ca2+  Ca15  1  0.75512928  0.75190170  0.24664367  1
  Ca2+  Ca16  1  0.76108217  0.76209836  0.58050668  1
  Ca2+  Ca17  1  0.77870449  0.74695986  0.92677407  1
  Ca2+  Ca18  1  0.24227768  0.25286952  0.06370581  1
  Ca2+  Ca19  1  0.24351995  0.25326663  0.42802782  1
  Ca2+  Ca20  1  0.25270016  0.25650550  0.75481940  1
  Ca2+  Ca21  1  0.24040407  0.74907810  0.08786521  1
  Ca2+  Ca22  1  0.26814832  0.72536886  0.40908416  1
  Ca2+  Ca23  1  0.24874083  0.75067283  0.74929303  1
  Ca2+  Ca24  1  0.61171264  0.24090567  0.08422543  1
  Ca2+  Ca25  1  0.59217380  0.25522591  0.42276668  1
  Ca2+  Ca26  1  0.57370941  0.25839590  0.74562183  1
  Ca2+  Ca27  1  0.58963794  0.75786053  0.08764267  1
  Ca2+  Ca28  1  0.56858891  0.75323128  0.40160365  1
  Ca2+  Ca29  1  0.58334460  0.76601931  0.76397041  1
  Ca2+  Ca30  1  0.89726454  0.25136231  0.07710546  1
  Ca2+  Ca31  1  0.91676513  0.25040072  0.42449098  1
  Ca2+  Ca32  1  0.92228812  0.24211254  0.74244568  1
  Ca2+  Ca33  1  0.91841542  0.74078405  0.07611632  1
  Ca2+  Ca34  1  0.91425710  0.74684473  0.41766351  1
  Ca2+  Ca35  1  0.91996921  0.73657640  0.76532746  1
  Ca2+  Ca36  1  0.37878262  0.06373313  0.25741804  1
  Ca2+  Ca37  1  0.40462623  0.07702658  0.61561379  1
  Ca2+  Ca38  1  0.56624038  0.61301103  0.11586735  1
  Ca2+  Ca39  1  0.25342022  0.59460738  0.08829359  1
  Ca2+  Ca40  1  0.11351841  0.58513960  0.26577648  1
  Ca2+  Ca41  1  0.26895352  0.10197083  0.78010580  1
  Ca2+  Ca42  1  0.89989449  0.08523682  0.06150717  1
  Ca2+  Ca43  1  0.25583822  0.06725154  0.01164817  1
  Ca2+  Ca44  1  0.73988740  0.09648775  0.24224086  1
  Ca2+  Ca45  1  0.59329365  0.08964879  0.41291816  1
  Ca2+  Ca46  1  0.04897336  0.59948184  0.90885224  1
  Ca2+  Ca47  1  0.11151015  0.08024826  0.27307418  1
  Ca2+  Ca48  1  0.93818820  0.11357252  0.43651889  1
  Ca2+  Ca49  1  0.22824468  0.10532074  0.42813113  1
  Ca2+  Ca50  1  0.75005833  0.10380332  0.91795231  1
  Ca2+  Ca51  1  0.73063893  0.10058721  0.23911762  1
  Ca2+  Ca52  1  0.07464956  0.60406120  0.58881435  1
  Ca2+  Ca53  1  0.75851480  0.10138715  0.91284273  1
  Ca2+  Ca54  1  0.24021984  0.58214204  0.74033751  1
  Ca2+  Ca55  1  0.73927183  0.59771441  0.25430058  1
  Ca2+  Ca56  1  0.78773165  0.60067388  0.57747971  1
  Ca2+  Ca57  1  0.92898057  0.60431220  0.42044554  1
  Ca2+  Ca58  1  0.53889028  0.60077795  0.38275397  1
  Ca2+  Ca59  1  0.59819212  0.09523679  0.08105043  1
  Ca2+  Ca60  1  0.54667798  0.60445213  0.37802766  1
  Ca2+  Ca61  1  0.91619158  0.58936622  0.05657902  1
  Ca2+  Ca62  1  0.81873778  0.09989318  0.59185114  1
  Ca2+  Ca63  1  0.77682318  0.59806818  0.57888639  1
  Ca2+  Ca64  1  0.12194027  0.07799309  0.26981824  1
  Ca2+  Ca65  1  0.05381407  0.11665220  0.57003080  1
  Ca2+  Ca66  1  0.79305708  0.58331909  0.92465841  1
  Ca2+  Ca67  1  0.26019139  0.10473238  0.78405289  1
  Ca2+  Ca68  1  0.57405605  0.09502910  0.74316028  1
  Ca2+  Ca69  1  0.73047648  0.60120713  0.25118302  1
  Ca2+  Ca70  1  0.56444814  0.57471425  0.74029252  1
  Ca2+  Ca71  1  0.39513464  0.58874241  0.93077778  1
  Ca2+  Ca72  1  0.42862748  0.91060946  0.25604856  1
  Ca2+  Ca73  1  0.90424581  0.90445343  0.42107600  1
  Ca2+  Ca74  1  0.74587252  0.90822176  0.91354934  1
  Ca2+  Ca75  1  0.11244261  0.93368946  0.94442080  1
  Ca2+  Ca76  1  0.25253458  0.92137339  0.09624975  1
  Ca2+  Ca77  1  0.09015398  0.90382971  0.24879178  1
  Ca2+  Ca78  1  0.58524961  0.40306773  0.41680676  1
  Ca2+  Ca79  1  0.91285667  0.91011047  0.73402394  1
  Ca2+  Ca80  1  0.41632146  0.91126689  0.59259104  1
  Ca2+  Ca81  1  0.10407908  0.93630660  0.94971331  1
  Ca2+  Ca82  1  0.40202303  0.41783814  0.25788229  1
  Ca2+  Ca83  1  0.23893852  0.41581147  0.40111423  1
  Ca2+  Ca84  1  0.92905602  0.90684087  0.07757652  1
  Ca2+  Ca85  1  0.55909360  0.91441211  0.74998670  1
  Ca2+  Ca86  1  0.73430626  0.90135227  0.25457524  1
  Ca2+  Ca87  1  0.24990502  0.40680842  0.08098641  1
  Ca2+  Ca88  1  0.92442970  0.39573518  0.75677686  1
  Ca2+  Ca89  1  0.77544978  0.40581977  0.91252731  1
  Ca2+  Ca90  1  0.08542434  0.90669199  0.58007562  1
  Ca2+  Ca91  1  0.24382409  0.91969297  0.39460325  1
  Ca2+  Ca92  1  0.25478591  0.91991883  0.39665568  1
  Ca2+  Ca93  1  0.07537524  0.90979151  0.58052259  1
  Ca2+  Ca94  1  0.76346407  0.40807862  0.91365019  1
  Ca2+  Ca95  1  0.26301861  0.92172150  0.09616573  1
  Ca2+  Ca96  1  0.75736586  0.90741976  0.91447539  1
  Ca2+  Ca97  1  0.40956478  0.42124287  0.60608176  1
  Ca2+  Ca98  1  0.92224766  0.39415161  0.42121589  1
  Ca2+  Ca99  1  0.90213435  0.90866455  0.73228518  1
  Ca2+  Ca100  1  0.37764060  0.93216226  0.92130655  1
  Ca2+  Ca101  1  0.40681184  0.40241610  0.91018732  1
  Ca2+  Ca102  1  0.57197859  0.40181432  0.08864351  1
  Ca2+  Ca103  1  0.58724310  0.89985388  0.41087763  1
  Ca2+  Ca104  1  0.27115685  0.92051241  0.74835291  1
  Ca2+  Ca105  1  0.58486427  0.40214212  0.08878129  1
  Ca2+  Ca106  1  0.91740115  0.40970079  0.06989021  1
  Ca2+  Ca107  1  0.25634206  0.41248630  0.74885925  1
  Mn3.34+  Mn108  1  0.08130334  0.33057793  0.08301159  1
  Mn3.34+  Mn109  1  0.08475563  0.33510835  0.42122868  1
  Mn3.34+  Mn110  1  0.08756326  0.33546780  0.74564951  1
  Mn3.34+  Mn111  1  0.08413124  0.83345445  0.08724341  1
  Mn3.34+  Mn112  1  0.08298509  0.82747586  0.41615423  1
  Mn3.34+  Mn113  1  0.08585101  0.83487212  0.75652657  1
  Mn3.34+  Mn114  1  0.41311705  0.33102263  0.08499000  1
  Mn3.34+  Mn115  1  0.41359513  0.33913729  0.42182819  1
  Mn3.34+  Mn116  1  0.41864608  0.33997296  0.75107330  1
  Mn3.34+  Mn117  1  0.42056297  0.84174469  0.08765513  1
  Mn3.34+  Mn118  1  0.41467106  0.83247604  0.41760416  1
  Mn3.34+  Mn119  1  0.41315800  0.83573897  0.75324730  1
  Mn3.34+  Mn120  1  0.75089785  0.33338311  0.08740878  1
  Mn3.34+  Mn121  1  0.75314409  0.33392104  0.41752827  1
  Mn3.34+  Mn122  1  0.75007279  0.33217618  0.74666535  1
  Mn3.34+  Mn123  1  0.75057405  0.83360243  0.08803923  1
  Mn3.34+  Mn124  1  0.74695807  0.82977090  0.41605638  1
  Mn3.34+  Mn125  1  0.74333643  0.83446584  0.74441986  1
  Mn3.34+  Mn126  1  0.24617917  0.33867530  0.24527305  1
  Mn3.34+  Mn127  1  0.24595544  0.33828943  0.58200603  1
  Mn3.34+  Mn128  1  0.24343007  0.33608470  0.91450271  1
  Mn3.34+  Mn129  1  0.25509353  0.82953042  0.24770152  1
  Mn3.34+  Mn130  1  0.25020944  0.83160774  0.58260881  1
  Mn3.34+  Mn131  1  0.24569026  0.83176786  0.91399738  1
  Mn3.34+  Mn132  1  0.58116291  0.33308041  0.25534264  1
  Mn3.34+  Mn133  1  0.58509450  0.33326949  0.58471988  1
  Mn3.34+  Mn134  1  0.58161588  0.32956789  0.91028649  1
  Mn3.34+  Mn135  1  0.57837484  0.83179857  0.24489283  1
  Mn3.34+  Mn136  1  0.58139274  0.83157932  0.57898634  1
  Mn3.34+  Mn137  1  0.57635264  0.83722222  0.92371830  1
  Mn3.34+  Mn138  1  0.91886204  0.33532179  0.24804810  1
  Mn3.34+  Mn139  1  0.91724152  0.32922162  0.58366288  1
  Mn3.34+  Mn140  1  0.93070322  0.33022671  0.91273607  1
  Mn3.34+  Mn141  1  0.91722275  0.82752164  0.24809487  1
  Mn3.34+  Mn142  1  0.91819502  0.83071082  0.57560946  1
  Mn3.34+  Mn143  1  0.92323496  0.83643090  0.91252863  1
  Mn3.34+  Mn144  1  0.41001745  0.15661075  0.08592255  1
  Mn3.34+  Mn145  1  0.57717623  0.16911442  0.25143673  1
  Mn3.34+  Mn146  1  0.57867308  0.66351215  0.91914590  1
  Mn3.34+  Mn147  1  0.40672515  0.66181222  0.75279778  1
  Mn3.34+  Mn148  1  0.09044219  0.66211314  0.41758739  1
  Mn3.34+  Mn149  1  0.59057512  0.66717329  0.92024227  1
  Mn3.34+  Mn150  1  0.08279633  0.17084900  0.74768847  1
  Mn3.34+  Mn151  1  0.41704407  0.66653211  0.74995050  1
  Mn3.34+  Mn152  1  0.76017661  0.65675788  0.75589642  1
  Mn3.34+  Mn153  1  0.25044859  0.66206379  0.57801411  1
  Mn3.34+  Mn154  1  0.58553144  0.16875726  0.58335133  1
  Mn3.34+  Mn155  1  0.07861919  0.16376554  0.07762327  1
  Mn3.34+  Mn156  1  0.92333204  0.16901623  0.24670588  1
  Mn3.34+  Mn157  1  0.91193546  0.16245268  0.24620835  1
  Mn3.34+  Mn158  1  0.24552441  0.16981910  0.58834845  1
  Mn3.34+  Mn159  1  0.08403055  0.66695555  0.08516520  1
  Mn3.34+  Mn160  1  0.41977062  0.16219714  0.08546428  1
  Mn3.34+  Mn161  1  0.92363236  0.66590017  0.24465762  1
  Mn3.34+  Mn162  1  0.25362405  0.16998135  0.24180767  1
  Mn3.34+  Mn163  1  0.25811312  0.66037571  0.25026910  1
  Mn3.34+  Mn164  1  0.74667555  0.66372559  0.75541008  1
  Mn3.34+  Mn165  1  0.92408667  0.16856828  0.90915618  1
  Mn3.34+  Mn166  1  0.42290283  0.16073916  0.41931711  1
  Mn3.34+  Mn167  1  0.75007190  0.66719137  0.08654377  1
  Mn3.34+  Mn168  1  0.41287876  0.16794114  0.41718735  1
  Mn3.34+  Mn169  1  0.42024147  0.16996475  0.74783768  1
  Mn3.34+  Mn170  1  0.75631011  0.66854518  0.42001174  1
  Mn3.34+  Mn171  1  0.58052093  0.17075818  0.91061316  1
  Mn3.34+  Mn172  1  0.75042135  0.16612387  0.42570226  1
  Mn3.34+  Mn173  1  0.24168555  0.66754550  0.91755572  1
  Mn3.34+  Mn174  1  0.75000474  0.17227002  0.74708027  1
  Mn3.34+  Mn175  1  0.08255583  0.66397217  0.75235743  1
  Mn3.34+  Mn176  1  0.41087500  0.66971804  0.08689603  1
  Mn3.34+  Mn177  1  0.58096588  0.66722997  0.57929684  1
  Mn3.34+  Mn178  1  0.09130247  0.15676425  0.08145231  1
  Mn3.34+  Mn179  1  0.58959012  0.67319738  0.58232145  1
  Mn3.34+  Mn180  1  0.74438852  -0.00829347  0.07998415  1
  Mn3.34+  Mn181  1  0.07658986  0.00738500  0.75121674  1
  Mn3.34+  Mn182  1  0.55587032  0.00718036  0.92950375  1
  Mn3.34+  Mn183  1  0.24712671  0.50179488  0.91966526  1
  Mn3.34+  Mn184  1  0.41383441  0.50143981  0.08678035  1
  Mn3.34+  Mn185  1  0.58594525  0.49571600  0.25724849  1
  Mn3.34+  Mn186  1  0.24842522  0.00314809  0.58312734  1
  Mn3.34+  Mn187  1  0.92305480  0.00390420  0.91172631  1
  Mn3.34+  Mn188  1  0.58114074  0.00179391  0.24752220  1
  Mn3.34+  Mn189  1  0.74877236  0.00124975  0.41985289  1
  Mn3.34+  Mn190  1  0.75002376  0.49971962  0.08032914  1
  Mn3.34+  Mn191  1  0.91430484  0.49733629  0.25199918  1
  Mn3.34+  Mn192  1  0.08195984  0.49708119  0.75554344  1
  Mn3.34+  Mn193  1  0.59947689  -0.00263472  0.58424349  1
  Mn3.34+  Mn194  1  0.75104090  0.49919595  0.73827844  1
  Mn3.34+  Mn195  1  0.92699365  0.50389336  0.25219796  1
  Mn3.34+  Mn196  1  0.75656969  0.00563768  0.74070473  1
  Mn3.34+  Mn197  1  0.75319614  0.49695225  0.41336019  1
  Mn3.34+  Mn198  1  0.92493671  0.49332296  0.58322261  1
  Mn3.34+  Mn199  1  0.08938107  0.49577081  0.08668846  1
  Mn3.34+  Mn200  1  0.90969988  -0.00499336  0.24478790  1
  Mn3.34+  Mn201  1  0.56654159  0.00771188  0.92322035  1
  Mn3.34+  Mn202  1  0.08753774  0.00327928  0.75443775  1
  Mn3.34+  Mn203  1  0.57210000  0.50543659  0.57908028  1
  Mn3.34+  Mn204  1  0.58596482  0.00357722  0.58420913  1
  Mn3.34+  Mn205  1  0.58451432  0.49438582  0.91060430  1
  Mn3.34+  Mn206  1  0.58512752  0.49917177  0.58123166  1
  Mn3.34+  Mn207  1  0.42459181  0.00045623  0.41977304  1
  Mn3.34+  Mn208  1  0.56989110  0.49957590  0.91199507  1
  Mn3.34+  Mn209  1  0.24552254  0.50049402  0.59213632  1
  Mn3.34+  Mn210  1  0.92082307  0.00026672  0.24521687  1
  Mn3.34+  Mn211  1  0.94008281  0.49586182  0.58346867  1
  Mn3.34+  Mn212  1  0.08732498  0.50073043  0.41517591  1
  Mn3.34+  Mn213  1  0.07905233  0.50070532  0.08744620  1
  Mn3.34+  Mn214  1  0.07495745  0.00287615  0.42393991  1
  Mn3.34+  Mn215  1  0.40696474  0.49919718  0.40997536  1
  O2-  O216  1  0.00320895  0.13855055  -0.00217746  1
  O2-  O217  1  0.01067538  0.14955429  0.31279123  1
  O2-  O218  1  0.00468929  0.17909905  0.66598261  1
  O2-  O219  1  0.00116412  0.65987957  0.01084953  1
  O2-  O220  1  0.00825948  0.65328862  0.32560440  1
  O2-  O221  1  0.01098683  0.69269422  0.67291658  1
  O2-  O222  1  0.33616083  0.17608048  0.00511787  1
  O2-  O223  1  0.33189943  0.15246401  0.33502825  1
  O2-  O224  1  0.33089247  0.15608103  0.66996578  1
  O2-  O225  1  0.32612665  0.65923846  0.00334507  1
  O2-  O226  1  0.33647248  0.65568645  0.32329919  1
  O2-  O227  1  0.32788165  0.64543182  0.67109828  1
  O2-  O228  1  0.66341396  0.15132037  -0.00857975  1
  O2-  O229  1  0.66464375  0.15131278  0.33697421  1
  O2-  O230  1  0.66045160  0.15819053  0.67025413  1
  O2-  O231  1  0.66227566  0.64152528  0.00893541  1
  O2-  O232  1  0.66561026  0.65039476  0.35170310  1
  O2-  O233  1  0.67285824  0.64640091  0.66429675  1
  O2-  O234  1  0.17289629  0.15111671  0.00688734  1
  O2-  O235  1  0.17372984  0.16836099  0.32225236  1
  O2-  O236  1  0.16665401  0.14268083  0.66707966  1
  O2-  O237  1  0.16015862  0.64449273  -0.00233863  1
  O2-  O238  1  0.16806879  0.66501086  0.33101719  1
  O2-  O239  1  0.16452399  0.65999326  0.66705516  1
  O2-  O240  1  0.49930070  0.15140127  0.00264926  1
  O2-  O241  1  0.49284095  0.14020227  0.32854448  1
  O2-  O242  1  0.49636418  0.14948774  0.65648222  1
  O2-  O243  1  0.48796558  0.66417660  -0.00538731  1
  O2-  O244  1  0.51399650  0.68325348  0.32300734  1
  O2-  O245  1  0.50670828  0.65219038  0.66946517  1
  O2-  O246  1  0.83832889  0.15915192  -0.00720113  1
  O2-  O247  1  0.83410179  0.13785734  0.33419677  1
  O2-  O248  1  0.82365854  0.18698165  0.66634720  1
  O2-  O249  1  0.82946495  0.66114584  0.00788394  1
  O2-  O250  1  0.83344498  0.64694679  0.33034313  1
  O2-  O251  1  0.83470718  0.66497206  0.66736568  1
  O2-  O252  1  -0.00169496  0.34564332  0.00357094  1
  O2-  O253  1  0.00213251  0.32956261  0.33823265  1
  O2-  O254  1  -0.00324665  0.32748351  0.66933183  1
  O2-  O255  1  0.01384439  0.85563779  -0.01370216  1
  O2-  O256  1  -0.00006489  0.84078021  0.33409894  1
  O2-  O257  1  0.00517895  0.83939313  0.66241127  1
  O2-  O258  1  0.33302230  0.33962174  0.00136842  1
  O2-  O259  1  0.32848326  0.34294951  0.33190378  1
  O2-  O260  1  0.33312084  0.34805873  0.66536532  1
  O2-  O261  1  0.33784694  0.84887344  -0.00233470  1
  O2-  O262  1  0.33739425  0.85445792  0.33103665  1
  O2-  O263  1  0.33242103  0.85099215  0.66496393  1
  O2-  O264  1  0.66734626  0.35296677  -0.00473090  1
  O2-  O265  1  0.66461055  0.34347765  0.33569643  1
  O2-  O266  1  0.66899257  0.31698726  0.66916397  1
  O2-  O267  1  0.66982210  0.85511456  -0.00046566  1
  O2-  O268  1  0.66122524  0.82886822  0.33144012  1
  O2-  O269  1  0.66092908  0.81938780  0.66184363  1
  O2-  O270  1  0.17025282  0.34555466  0.00588293  1
  O2-  O271  1  0.17098684  0.31732686  0.33647367  1
  O2-  O272  1  0.16943292  0.35462903  0.66723077  1
  O2-  O273  1  0.17555746  0.85420323  0.00965219  1
  O2-  O274  1  0.16959920  0.84474074  0.33705498  1
  O2-  O275  1  0.16629869  0.85195283  0.67101562  1
  O2-  O276  1  0.49958179  0.34759561  -0.00078055  1
  O2-  O277  1  0.49199527  0.35308780  0.33005788  1
  O2-  O278  1  0.49832514  0.34840420  0.66290195  1
  O2-  O279  1  0.49514975  0.81420171  0.00812446  1
  O2-  O280  1  0.50171723  0.83903594  0.33695634  1
  O2-  O281  1  0.50184243  0.84308625  0.67039023  1
  O2-  O282  1  0.83205601  0.34464154  0.00072637  1
  O2-  O283  1  0.83613719  0.34784620  0.33342640  1
  O2-  O284  1  0.83769971  0.31861642  0.67075262  1
  O2-  O285  1  0.83806478  0.85320893  -0.00280464  1
  O2-  O286  1  0.83073273  0.84934052  0.32753309  1
  O2-  O287  1  0.83692308  0.83526715  0.66433420  1
  O2-  O288  1  -0.00887977  0.18420665  0.15044006  1
  O2-  O289  1  0.00091737  0.19174632  0.49505946  1
  O2-  O290  1  0.00602783  0.18798159  0.83225345  1
  O2-  O291  1  0.00198602  0.68703089  0.16625576  1
  O2-  O292  1  0.00737978  0.68515688  0.48620668  1
  O2-  O293  1  0.01096194  0.68107588  0.83327446  1
  O2-  O294  1  0.33942410  0.19215413  0.16643835  1
  O2-  O295  1  0.33427345  0.18275223  0.50058227  1
  O2-  O296  1  0.33829451  0.18159049  0.82466146  1
  O2-  O297  1  0.32844718  0.68387641  0.16155892  1
  O2-  O298  1  0.33126831  0.67099492  0.50744736  1
  O2-  O299  1  0.33414559  0.68478813  0.84176829  1
  O2-  O300  1  0.66620105  0.17838149  0.18058799  1
  O2-  O301  1  0.66676172  0.18652888  0.50192864  1
  O2-  O302  1  0.67307593  0.18509235  0.83843031  1
  O2-  O303  1  0.67255890  0.67445478  0.17438016  1
  O2-  O304  1  0.68496984  0.68518190  0.51504639  1
  O2-  O305  1  0.65364561  0.67643541  0.82026994  1
  O2-  O306  1  0.16102513  0.18861871  0.16513289  1
  O2-  O307  1  0.17000964  0.18044921  0.50726479  1
  O2-  O308  1  0.17504077  0.17317848  0.82057599  1
  O2-  O309  1  0.16836557  0.67957043  0.16398852  1
  O2-  O310  1  0.16722914  0.68495094  0.50090070  1
  O2-  O311  1  0.17129566  0.68426979  0.82914816  1
  O2-  O312  1  0.50237428  0.18770657  0.15908347  1
  O2-  O313  1  0.50989154  0.17830096  0.48898742  1
  O2-  O314  1  0.50713127  0.18224974  0.82365935  1
  O2-  O315  1  0.49668070  0.69543797  0.14824916  1
  O2-  O316  1  0.51026107  0.68622225  0.49314934  1
  O2-  O317  1  0.49771208  0.69023729  0.83228427  1
  O2-  O318  1  0.82715843  0.17391302  0.17543603  1
  O2-  O319  1  0.83430464  0.17872613  0.49564204  1
  O2-  O320  1  0.83060870  0.18302688  0.83640820  1
  O2-  O321  1  0.82946356  0.67807862  0.17330787  1
  O2-  O322  1  0.83812431  0.67757967  0.49876272  1
  O2-  O323  1  0.82902892  0.67401485  0.84225133  1
  O2-  O324  1  -0.00294567  0.31093710  0.16288067  1
  O2-  O325  1  -0.00209117  0.31631988  0.49823172  1
  O2-  O326  1  0.00213854  0.31564073  0.82764478  1
  O2-  O327  1  -0.00197388  0.81563147  0.16133133  1
  O2-  O328  1  0.00154788  0.80787078  0.49899297  1
  O2-  O329  1  -0.01322399  0.82137037  0.81604445  1
  O2-  O330  1  0.33274274  0.31240470  0.16682092  1
  O2-  O331  1  0.33149765  0.31989835  0.50136004  1
  O2-  O332  1  0.33377220  0.32351112  0.83316012  1
  O2-  O333  1  0.32711880  0.81534028  0.15868965  1
  O2-  O334  1  0.32602713  0.83161973  0.49410141  1
  O2-  O335  1  0.32559997  0.81755177  0.82907106  1
  O2-  O336  1  0.65967905  0.32242107  0.16073834  1
  O2-  O337  1  0.66732080  0.32048474  0.49805957  1
  O2-  O338  1  0.67419641  0.31904992  0.83964340  1
  O2-  O339  1  0.66852534  0.81606934  0.17302174  1
  O2-  O340  1  0.66079463  0.80947655  0.49528435  1
  O2-  O341  1  0.66358381  0.83830346  0.82898409  1
  O2-  O342  1  0.16922075  0.31355516  0.16478951  1
  O2-  O343  1  0.16627093  0.31780618  0.50005322  1
  O2-  O344  1  0.17101765  0.33117044  0.82655036  1
  O2-  O345  1  0.16441063  0.82042444  0.17271933  1
  O2-  O346  1  0.15690295  0.82141460  0.50880400  1
  O2-  O347  1  0.15798934  0.80914055  0.83771366  1
  O2-  O348  1  0.50433216  0.31621547  0.15715966  1
  O2-  O349  1  0.50522229  0.32451984  0.49369783  1
  O2-  O350  1  0.49411103  0.31580178  0.83901493  1
  O2-  O351  1  0.49208464  0.81618179  0.17283934  1
  O2-  O352  1  0.49553063  0.81639950  0.50192102  1
  O2-  O353  1  0.49469341  0.82003932  0.83898743  1
  O2-  O354  1  0.83427337  0.32385109  0.16341867  1
  O2-  O355  1  0.83702882  0.31393875  0.49767003  1
  O2-  O356  1  0.83385386  0.31760314  0.83827328  1
  O2-  O357  1  0.83693247  0.81420062  0.16370916  1
  O2-  O358  1  0.83861900  0.81828640  0.49328523  1
  O2-  O359  1  0.82635845  0.82901512  0.84087958  1
  O2-  O360  1  0.07779225  0.08332295  0.13576930  1
  O2-  O361  1  0.08684830  0.08341346  0.42420022  1
  O2-  O362  1  0.06914890  0.08774210  0.77152911  1
  O2-  O363  1  0.08333372  0.58068181  0.12390096  1
  O2-  O364  1  0.07315960  0.57600757  0.45582318  1
  O2-  O365  1  0.09643775  0.57865916  0.77940403  1
  O2-  O366  1  0.42167623  0.08009404  0.12888473  1
  O2-  O367  1  0.41961538  0.08158089  0.45873310  1
  O2-  O368  1  0.40707935  0.08613753  0.76482892  1
  O2-  O369  1  0.42171803  0.58320428  0.10399251  1
  O2-  O370  1  0.44034713  0.56372590  0.46009378  1
  O2-  O371  1  0.42117860  0.58351704  0.79079743  1
  O2-  O372  1  0.75247017  0.07345513  0.11278629  1
  O2-  O373  1  0.74244901  0.08132878  0.46134406  1
  O2-  O374  1  0.74221873  0.08256574  0.77944226  1
  O2-  O375  1  0.75965480  0.57933257  0.11717851  1
  O2-  O376  1  0.76146091  0.58038267  0.45091519  1
  O2-  O377  1  0.74040065  0.57819669  0.79411191  1
  O2-  O378  1  0.24584376  0.08179258  0.22178498  1
  O2-  O379  1  0.26147008  0.08267869  0.55827695  1
  O2-  O380  1  0.23295142  0.04647328  0.87937044  1
  O2-  O381  1  0.24357796  0.58340939  0.22079405  1
  O2-  O382  1  0.22415165  0.57785459  0.56370708  1
  O2-  O383  1  0.25494500  0.58226942  0.88373824  1
  O2-  O384  1  0.59125587  0.08324724  0.21477128  1
  O2-  O385  1  0.58725643  0.08227109  0.54963425  1
  O2-  O386  1  0.59282520  0.08333209  0.87616813  1
  O2-  O387  1  0.59171935  0.57827646  0.23729997  1
  O2-  O388  1  0.59241900  0.58204146  0.52783529  1
  O2-  O389  1  0.56991024  0.57990814  0.87606779  1
  O2-  O390  1  0.91448796  0.07904306  0.20143438  1
  O2-  O391  1  0.93589391  0.06512479  0.54690534  1
  O2-  O392  1  0.89406295  0.08364300  0.89161354  1
  O2-  O393  1  0.92144998  0.57992108  0.20224270  1
  O2-  O394  1  0.92294065  0.57896885  0.55086697  1
  O2-  O395  1  0.92192930  0.56959529  0.91038386  1
  O2-  O396  1  0.08604504  0.41530074  0.11539101  1
  O2-  O397  1  0.08224011  0.42273348  0.43980111  1
  O2-  O398  1  0.06519402  0.41767649  0.77233214  1
  O2-  O399  1  0.08311298  0.91400403  0.11426313  1
  O2-  O400  1  0.08130416  0.91942499  0.44352294  1
  O2-  O401  1  0.07909364  0.92635961  0.80931350  1
  O2-  O402  1  0.42823241  0.42085256  0.11990844  1
  O2-  O403  1  0.42228956  0.43020929  0.46129050  1
  O2-  O404  1  0.40804021  0.41791878  0.77575703  1
  O2-  O405  1  0.39678507  0.91731719  0.12820037  1
  O2-  O406  1  0.42757278  0.91947768  0.44807069  1
  O2-  O407  1  0.41570851  0.91571997  0.78155380  1
  O2-  O408  1  0.72543205  0.42082994  0.10654876  1
  O2-  O409  1  0.75731282  0.41649841  0.44257856  1
  O2-  O410  1  0.76878789  0.41964714  0.77850533  1
  O2-  O411  1  0.76395186  0.91446736  0.12233057  1
  O2-  O412  1  0.73637626  0.91573760  0.43129461  1
  O2-  O413  1  0.76375825  0.92499010  0.77664359  1
  O2-  O414  1  0.25945272  0.41609876  0.21803854  1
  O2-  O415  1  0.25668542  0.42531063  0.54542720  1
  O2-  O416  1  0.26088353  0.42211602  0.89188486  1
  O2-  O417  1  0.24553820  0.91698987  0.23443697  1
  O2-  O418  1  0.23172838  0.92556651  0.53759660  1
  O2-  O419  1  0.23472210  0.91327175  0.88342384  1
  O2-  O420  1  0.57419652  0.41704046  0.22167941  1
  O2-  O421  1  0.58688832  0.41940456  0.55359133  1
  O2-  O422  1  0.58082648  0.41444870  0.88052015  1
  O2-  O423  1  0.58798304  0.91972647  0.24024423  1
  O2-  O424  1  0.58151152  0.91951552  0.54604160  1
  O2-  O425  1  0.59203213  0.92906048  0.88260191  1
  O2-  O426  1  0.92525208  0.42069499  0.21209142  1
  O2-  O427  1  0.91544605  0.41384641  0.55608461  1
  O2-  O428  1  0.90802437  0.41172652  0.89037693  1
  O2-  O429  1  0.92631994  0.91395309  0.21794936  1
  O2-  O430  1  0.94056241  0.91344745  0.55103079  1
  O2-  O431  1  0.90826275  0.92426635  0.87089619  1
  O2-  O432  1  -0.00177630  -0.01403999  -0.00488081  1
  O2-  O433  1  0.01730660  0.00340268  0.31258384  1
  O2-  O434  1  0.00703361  -0.03386180  0.67412037  1
  O2-  O435  1  -0.01838696  0.49920276  0.03141329  1
  O2-  O436  1  -0.00964724  0.50706334  0.35050506  1
  O2-  O437  1  -0.00066707  0.51009859  0.67572110  1
  O2-  O438  1  0.32080796  -0.01685997  0.01690101  1
  O2-  O439  1  0.32579579  -0.00064305  0.35974339  1
  O2-  O440  1  0.32872314  -0.00931968  0.65318596  1
  O2-  O441  1  0.34365311  0.50280983  -0.00845068  1
  O2-  O442  1  0.32943770  0.48389751  0.34270690  1
  O2-  O443  1  0.32528262  0.49696799  0.66347975  1
  O2-  O444  1  0.66658733  0.01361213  -0.01222180  1
  O2-  O445  1  0.67583363  0.01831713  0.32152780  1
  O2-  O446  1  0.65488170  -0.00107779  0.68818663  1
  O2-  O447  1  0.66561496  0.50724039  -0.00766702  1
  O2-  O448  1  0.65694076  0.51474759  0.34825547  1
  O2-  O449  1  0.66599583  0.52713332  0.65861962  1
  O2-  O450  1  0.17426644  -0.01165366  0.03443478  1
  O2-  O451  1  0.16853986  -0.00182256  0.34913225  1
  O2-  O452  1  0.16293913  -0.01670620  0.66549198  1
  O2-  O453  1  0.18449680  0.50330730  0.02300160  1
  O2-  O454  1  0.16597462  0.50366951  0.34548216  1
  O2-  O455  1  0.17163114  0.49791258  0.68029566  1
  O2-  O456  1  0.47306008  -0.00883682  -0.00364088  1
  O2-  O457  1  0.48511267  0.00241911  0.31471611  1
  O2-  O458  1  0.49377707  -0.00584718  0.65483080  1
  O2-  O459  1  0.50716382  0.48676723  0.00988425  1
  O2-  O460  1  0.49443230  0.49915538  0.33636734  1
  O2-  O461  1  0.49703989  0.50529373  0.66478482  1
  O2-  O462  1  0.82570399  -0.00781782  -0.01552623  1
  O2-  O463  1  0.84266345  -0.00319370  0.34090855  1
  O2-  O464  1  0.85561643  0.00105613  0.69437718  1
  O2-  O465  1  0.82008287  0.48401858  -0.00551398  1
  O2-  O466  1  0.81981010  0.52089271  0.31437965  1
  O2-  O467  1  0.82642914  0.51538823  0.64508421  1
  O2-  O468  1  0.57422293  0.24999524  0.28323414  1
  O2-  O469  1  0.24753845  0.75059290  0.94861815  1
  O2-  O470  1  0.92248940  0.75917641  0.93819995  1
  O2-  O471  1  0.74358779  0.75043739  0.05910568  1
  O2-  O472  1  0.25065034  0.75052761  0.27441567  1
  O2-  O473  1  0.90389525  0.24829346  0.27881101  1
  O2-  O474  1  0.09131954  0.75072077  0.05722812  1
  O2-  O475  1  0.75082537  0.24761899  0.38744656  1
  O2-  O476  1  0.56432326  0.24889831  0.60298875  1
  O2-  O477  1  0.08502429  0.24408743  0.04504780  1
  O2-  O478  1  0.91084065  0.74728686  0.27864822  1
  O2-  O479  1  0.40392385  0.75524297  0.40132518  1
  O2-  O480  1  0.10845682  0.25308127  0.72890857  1
  O2-  O481  1  0.76225420  0.74708674  0.38683141  1
  O2-  O482  1  0.61182595  0.74984953  0.93382194  1
  O2-  O483  1  0.75374251  0.74587163  0.74086777  1
  O2-  O484  1  0.42132057  0.25284691  0.72457552  1
  O2-  O485  1  0.92365786  0.24857157  0.94327367  1
  O2-  O486  1  0.75059584  0.25550341  0.06383302  1
  O2-  O487  1  0.40934647  0.74679010  0.71770521  1
  O2-  O488  1  0.58519360  0.25078639  0.94753683  1
  O2-  O489  1  0.42182324  0.24733577  0.38934011  1
  O2-  O490  1  0.25710235  0.74895072  0.60834649  1
  O2-  O491  1  0.25068648  0.25271688  0.61160936  1
  O2-  O492  1  0.24310286  0.25693755  0.92641235  1
