# generated using pymatgen
data_Ca108Mn108O277
_symmetry_space_group_name_H-M   'P 1'
_cell_length_a   16.02824381
_cell_length_b   22.30843792
_cell_length_c   16.39068272
_cell_angle_alpha   90.00121070
_cell_angle_beta   89.99515202
_cell_angle_gamma   90.00230859
_symmetry_Int_Tables_number   1
_chemical_formula_structural   Ca108Mn108O277
_chemical_formula_sum   'Ca108 Mn108 O277'
_cell_volume   5860.73578518
_cell_formula_units_Z   1
loop_
 _symmetry_equiv_pos_site_id
 _symmetry_equiv_pos_as_xyz
  1  'x, y, z'
loop_
 _atom_type_symbol
 _atom_type_oxidation_number
  Ca2+  2.0
  Mn3.34+  3.34
  O2-  -2.0
loop_
 _atom_site_type_symbol
 _atom_site_label
 _atom_site_symmetry_multiplicity
 _atom_site_fract_x
 _atom_site_fract_y
 _atom_site_fract_z
 _atom_site_occupancy
  Ca2+  Ca0  1  0.07043423  0.25322096  0.26392743  1
  Ca2+  Ca1  1  0.06704133  0.24317323  0.57950622  1
  Ca2+  Ca2  1  0.07898308  0.24745928  0.90976794  1
  Ca2+  Ca3  1  0.08221610  0.73808595  0.23399978  1
  Ca2+  Ca4  1  0.07438410  0.73329145  0.58247618  1
  Ca2+  Ca5  1  0.09313537  0.73367130  0.93016645  1
  Ca2+  Ca6  1  0.43778861  0.25341132  0.25862963  1
  Ca2+  Ca7  1  0.42253627  0.25486208  0.57177053  1
  Ca2+  Ca8  1  0.42660523  0.26087018  0.91332367  1
  Ca2+  Ca9  1  0.40385642  0.75529299  0.23469038  1
  Ca2+  Ca10  1  0.41089848  0.74955423  0.58975157  1
  Ca2+  Ca11  1  0.40132240  0.72733336  0.93020382  1
  Ca2+  Ca12  1  0.74725516  0.25898020  0.25897207  1
  Ca2+  Ca13  1  0.77235424  0.25873651  0.57714433  1
  Ca2+  Ca14  1  0.73717671  0.25530108  0.91012374  1
  Ca2+  Ca15  1  0.75844471  0.75367457  0.24928404  1
  Ca2+  Ca16  1  0.76754259  0.75390045  0.58333736  1
  Ca2+  Ca17  1  0.73932156  0.75835123  0.91944320  1
  Ca2+  Ca18  1  0.23503358  0.26853724  0.07468743  1
  Ca2+  Ca19  1  0.23128035  0.25223196  0.42064687  1
  Ca2+  Ca20  1  0.24025140  0.25754733  0.76327468  1
  Ca2+  Ca21  1  0.24009662  0.74310296  0.07604307  1
  Ca2+  Ca22  1  0.24378616  0.75807285  0.40869436  1
  Ca2+  Ca23  1  0.24047160  0.74120532  0.76106246  1
  Ca2+  Ca24  1  0.58122388  0.25460714  0.07659425  1
  Ca2+  Ca25  1  0.58791954  0.24344518  0.40556144  1
  Ca2+  Ca26  1  0.58700523  0.25681421  0.76942007  1
  Ca2+  Ca27  1  0.57018632  0.73435833  0.05696242  1
  Ca2+  Ca28  1  0.58969477  0.76518746  0.42365407  1
  Ca2+  Ca29  1  0.58139306  0.74822381  0.77160350  1
  Ca2+  Ca30  1  0.93508694  0.25650869  0.08543820  1
  Ca2+  Ca31  1  0.93002741  0.23736815  0.42382160  1
  Ca2+  Ca32  1  0.93163801  0.25018004  0.73821494  1
  Ca2+  Ca33  1  0.94051344  0.74913030  0.07980113  1
  Ca2+  Ca34  1  0.91971407  0.75234433  0.43116342  1
  Ca2+  Ca35  1  0.92485769  0.74906663  0.73888037  1
  Ca2+  Ca36  1  0.05470076  0.10194620  0.56342763  1
  Ca2+  Ca37  1  0.22168224  0.08702837  0.42751100  1
  Ca2+  Ca38  1  0.72245371  0.10305683  0.25284638  1
  Ca2+  Ca39  1  0.23201667  0.08809713  0.42834027  1
  Ca2+  Ca40  1  0.58031323  0.59080651  0.75459711  1
  Ca2+  Ca41  1  0.77678477  0.58871008  0.58738014  1
  Ca2+  Ca42  1  0.94762946  0.10637834  0.75051056  1
  Ca2+  Ca43  1  0.94614557  0.59436481  0.37742176  1
  Ca2+  Ca44  1  0.73863484  0.58317321  0.92138244  1
  Ca2+  Ca45  1  0.96907405  0.60239649  0.11958711  1
  Ca2+  Ca46  1  0.22764356  0.60055729  0.44279365  1
  Ca2+  Ca47  1  0.78790542  0.58973146  0.58151504  1
  Ca2+  Ca48  1  0.58581412  0.10288631  0.06874058  1
  Ca2+  Ca49  1  0.37417095  0.58117512  0.59684270  1
  Ca2+  Ca50  1  0.93022309  0.08620190  0.05788331  1
  Ca2+  Ca51  1  0.23092061  0.60007115  0.06379947  1
  Ca2+  Ca52  1  0.06468254  0.07994982  0.29703735  1
  Ca2+  Ca53  1  0.75417747  0.09716357  0.91954075  1
  Ca2+  Ca54  1  0.40264932  0.59542887  0.24367616  1
  Ca2+  Ca55  1  0.73473930  0.10223705  0.25369590  1
  Ca2+  Ca56  1  0.22211269  0.60472303  0.43629829  1
  Ca2+  Ca57  1  0.79760207  0.58044554  0.24646092  1
  Ca2+  Ca58  1  0.93709805  0.08970182  0.05111161  1
  Ca2+  Ca59  1  0.44269218  0.08517061  0.26999948  1
  Ca2+  Ca60  1  0.44977863  0.10229911  0.92007615  1
  Ca2+  Ca61  1  0.06561591  0.10753329  0.90579647  1
  Ca2+  Ca62  1  0.22720301  0.08028101  0.05891608  1
  Ca2+  Ca63  1  0.21514532  0.10102379  0.75121263  1
  Ca2+  Ca64  1  0.43143533  0.08473513  0.26860659  1
  Ca2+  Ca65  1  0.94305381  0.58929637  0.38438801  1
  Ca2+  Ca66  1  0.75130491  0.58303659  0.92235214  1
  Ca2+  Ca67  1  0.57637043  0.08727660  0.40947504  1
  Ca2+  Ca68  1  0.20967994  0.10817266  0.74667338  1
  Ca2+  Ca69  1  0.94567738  0.10161881  0.75798590  1
  Ca2+  Ca70  1  0.41008604  0.08388819  0.56489596  1
  Ca2+  Ca71  1  0.80498183  0.09818980  0.57698517  1
  Ca2+  Ca72  1  0.06981239  0.90946576  0.91834530  1
  Ca2+  Ca73  1  0.56624688  0.91876895  0.40839663  1
  Ca2+  Ca74  1  0.40514722  0.40665831  0.58366608  1
  Ca2+  Ca75  1  0.41186838  0.40965973  0.92401582  1
  Ca2+  Ca76  1  0.40155742  0.90093513  0.91455684  1
  Ca2+  Ca77  1  0.57626444  0.89733038  0.08863673  1
  Ca2+  Ca78  1  0.75430969  0.40574042  0.91917435  1
  Ca2+  Ca79  1  0.42549625  0.91386723  0.56967381  1
  Ca2+  Ca80  1  0.58754750  0.89782194  0.08988737  1
  Ca2+  Ca81  1  0.76493076  0.89822541  0.25009171  1
  Ca2+  Ca82  1  0.08449338  0.40726586  0.91849679  1
  Ca2+  Ca83  1  0.76882068  0.41437812  0.25666203  1
  Ca2+  Ca84  1  0.58140195  0.40563754  0.07319735  1
  Ca2+  Ca85  1  0.76648228  0.91543399  0.58482846  1
  Ca2+  Ca86  1  0.58460550  0.40669095  0.75513332  1
  Ca2+  Ca87  1  0.40228133  0.91126601  0.27900919  1
  Ca2+  Ca88  1  0.08028655  0.91010743  0.91806884  1
  Ca2+  Ca89  1  0.91847269  0.40571771  0.41762262  1
  Ca2+  Ca90  1  0.92384898  0.40651282  0.74424570  1
  Ca2+  Ca91  1  0.23777222  0.89629228  0.74371273  1
  Ca2+  Ca92  1  0.41319991  0.91182380  0.56795565  1
  Ca2+  Ca93  1  0.58776276  0.91137082  0.74574551  1
  Ca2+  Ca94  1  0.23931860  0.40702575  0.42040881  1
  Ca2+  Ca95  1  0.39571022  0.41010948  0.58106199  1
  Ca2+  Ca96  1  0.94491962  0.91576456  0.42674047  1
  Ca2+  Ca97  1  0.41441030  0.90139907  0.91463931  1
  Ca2+  Ca98  1  0.58926387  0.39672205  0.41663718  1
  Ca2+  Ca99  1  0.06404216  0.41023443  0.25621161  1
  Ca2+  Ca100  1  0.41184653  0.40471423  0.25548750  1
  Ca2+  Ca101  1  0.92576996  0.90261048  0.08258032  1
  Ca2+  Ca102  1  0.09239009  0.90871228  0.26708323  1
  Ca2+  Ca103  1  0.59855768  0.91170739  0.74270621  1
  Ca2+  Ca104  1  0.92274982  0.41118053  0.08891775  1
  Ca2+  Ca105  1  0.24420580  0.41583221  0.74107443  1
  Ca2+  Ca106  1  0.91828553  0.91640154  0.74601254  1
  Ca2+  Ca107  1  0.75727726  0.91293781  0.58848040  1
  Mn3.34+  Mn108  1  0.08596202  0.33774715  0.08612691  1
  Mn3.34+  Mn109  1  0.08074361  0.33158056  0.41940777  1
  Mn3.34+  Mn110  1  0.08425930  0.33909904  0.74843318  1
  Mn3.34+  Mn111  1  0.09048388  0.83351822  0.08930597  1
  Mn3.34+  Mn112  1  0.08863808  0.83784146  0.42214064  1
  Mn3.34+  Mn113  1  0.08120662  0.82731623  0.74911361  1
  Mn3.34+  Mn114  1  0.41163059  0.33853006  0.08944683  1
  Mn3.34+  Mn115  1  0.41365669  0.33223155  0.41694297  1
  Mn3.34+  Mn116  1  0.41431206  0.33766821  0.75213279  1
  Mn3.34+  Mn117  1  0.40772856  0.82960368  0.08887099  1
  Mn3.34+  Mn118  1  0.41074158  0.83216759  0.41953214  1
  Mn3.34+  Mn119  1  0.41266360  0.83101938  0.74814611  1
  Mn3.34+  Mn120  1  0.75303602  0.33179428  0.08503562  1
  Mn3.34+  Mn121  1  0.75275356  0.33323919  0.41920359  1
  Mn3.34+  Mn122  1  0.75380656  0.33677296  0.74724074  1
  Mn3.34+  Mn123  1  0.75883671  0.83035236  0.08141926  1
  Mn3.34+  Mn124  1  0.75350548  0.83431671  0.41599791  1
  Mn3.34+  Mn125  1  0.75785739  0.83569794  0.75572949  1
  Mn3.34+  Mn126  1  0.24720411  0.33206891  0.24922668  1
  Mn3.34+  Mn127  1  0.23381720  0.33969693  0.58505292  1
  Mn3.34+  Mn128  1  0.24913237  0.33873311  0.91679567  1
  Mn3.34+  Mn129  1  0.24654980  0.83285627  0.25235555  1
  Mn3.34+  Mn130  1  0.24157527  0.83022595  0.57769575  1
  Mn3.34+  Mn131  1  0.24525516  0.82883865  0.91815797  1
  Mn3.34+  Mn132  1  0.58654606  0.32928363  0.24611678  1
  Mn3.34+  Mn133  1  0.58909128  0.33221179  0.58450494  1
  Mn3.34+  Mn134  1  0.58360414  0.33513263  0.91699146  1
  Mn3.34+  Mn135  1  0.58444631  0.83372935  0.25400426  1
  Mn3.34+  Mn136  1  0.58357653  0.83353234  0.58058296  1
  Mn3.34+  Mn137  1  0.58634448  0.83479544  0.91333469  1
  Mn3.34+  Mn138  1  0.91452911  0.33398920  0.24895417  1
  Mn3.34+  Mn139  1  0.92016379  0.33614402  0.58128443  1
  Mn3.34+  Mn140  1  0.91711395  0.33180731  0.91230935  1
  Mn3.34+  Mn141  1  0.92513584  0.83063957  0.25096244  1
  Mn3.34+  Mn142  1  0.92476825  0.83551192  0.58253810  1
  Mn3.34+  Mn143  1  0.91479055  0.83652903  0.91103425  1
  Mn3.34+  Mn144  1  0.41070579  0.16777125  0.41917800  1
  Mn3.34+  Mn145  1  0.41198794  0.66113550  0.07960065  1
  Mn3.34+  Mn146  1  0.75397477  0.16798925  0.75317959  1
  Mn3.34+  Mn147  1  0.57697981  0.66938677  0.24865454  1
  Mn3.34+  Mn148  1  0.75532105  0.17083324  0.42072018  1
  Mn3.34+  Mn149  1  0.76140578  0.66903431  0.08339814  1
  Mn3.34+  Mn150  1  0.75930191  0.18265279  0.08283765  1
  Mn3.34+  Mn151  1  0.74979145  0.17684391  0.08354340  1
  Mn3.34+  Mn152  1  0.42092686  0.66767111  0.42403331  1
  Mn3.34+  Mn153  1  0.08049188  0.68047703  0.41259133  1
  Mn3.34+  Mn154  1  0.57989194  0.16081702  0.58484733  1
  Mn3.34+  Mn155  1  0.59242358  0.15380866  0.58096939  1
  Mn3.34+  Mn156  1  0.24590468  0.17009785  0.91629485  1
  Mn3.34+  Mn157  1  0.76298130  0.66602728  0.75443436  1
  Mn3.34+  Mn158  1  0.41897432  0.66023221  0.75336426  1
  Mn3.34+  Mn159  1  0.58572135  0.66279011  0.24704906  1
  Mn3.34+  Mn160  1  0.75227180  0.67041079  0.75234772  1
  Mn3.34+  Mn161  1  0.25077792  0.17245168  0.58190325  1
  Mn3.34+  Mn162  1  0.08880980  0.65648291  0.74571181  1
  Mn3.34+  Mn163  1  0.75031859  0.66606676  0.41634450  1
  Mn3.34+  Mn164  1  0.58205830  0.67055001  0.58510817  1
  Mn3.34+  Mn165  1  0.24332386  0.66858825  0.24102028  1
  Mn3.34+  Mn166  1  0.41126119  0.67312653  0.42194026  1
  Mn3.34+  Mn167  1  0.08239586  0.17083955  0.08207621  1
  Mn3.34+  Mn168  1  0.74133456  0.16393151  0.75735832  1
  Mn3.34+  Mn169  1  0.41454137  0.18018780  0.08316304  1
  Mn3.34+  Mn170  1  0.23825819  0.16123407  0.24418076  1
  Mn3.34+  Mn171  1  0.40509099  0.66683499  0.75234977  1
  Mn3.34+  Mn172  1  0.40627737  0.17344944  0.08459101  1
  Mn3.34+  Mn173  1  0.91959921  0.16723800  0.25051571  1
  Mn3.34+  Mn174  1  0.75232049  0.66295264  0.08491241  1
  Mn3.34+  Mn175  1  0.41319989  0.17163618  0.74698868  1
  Mn3.34+  Mn176  1  0.24847821  0.16648557  0.24576379  1
  Mn3.34+  Mn177  1  0.42657444  0.16544256  0.74983138  1
  Mn3.34+  Mn178  1  0.92864130  0.65963047  0.91005959  1
  Mn3.34+  Mn179  1  0.73683391  0.65980809  0.41787932  1
  Mn3.34+  Mn180  1  0.93704713  0.49976552  0.58787928  1
  Mn3.34+  Mn181  1  0.40712887  0.00207588  0.74160857  1
  Mn3.34+  Mn182  1  0.08111293  -0.00446834  0.72790187  1
  Mn3.34+  Mn183  1  0.40083814  -0.00241715  0.09078554  1
  Mn3.34+  Mn184  1  0.23509053  0.50312454  0.24384179  1
  Mn3.34+  Mn185  1  0.58702431  0.00386499  0.91847512  1
  Mn3.34+  Mn186  1  0.76466313  0.49797347  0.74274533  1
  Mn3.34+  Mn187  1  0.24937782  -0.00071682  0.24773770  1
  Mn3.34+  Mn188  1  0.24489982  0.49766519  0.24249320  1
  Mn3.34+  Mn189  1  0.57348070  0.50178409  0.92823798  1
  Mn3.34+  Mn190  1  0.41489875  0.50248783  0.41463279  1
  Mn3.34+  Mn191  1  0.24584584  0.00093356  0.90733097  1
  Mn3.34+  Mn192  1  0.08981554  0.50318982  0.73531349  1
  Mn3.34+  Mn193  1  0.76424871  0.00772585  0.41644397  1
  Mn3.34+  Mn194  1  0.91864116  -0.00047325  0.24630335  1
  Mn3.34+  Mn195  1  0.58745140  -0.00016249  0.24495126  1
  Mn3.34+  Mn196  1  0.41178526  0.00161991  0.08977177  1
  Mn3.34+  Mn197  1  0.40601394  0.49919646  0.74945806  1
  Mn3.34+  Mn198  1  0.59269250  0.50291689  0.58201085  1
  Mn3.34+  Mn199  1  0.57782302  0.49445169  0.24224474  1
  Mn3.34+  Mn200  1  0.75910241  0.00329018  0.08683539  1
  Mn3.34+  Mn201  1  0.75367419  0.49705272  0.07843206  1
  Mn3.34+  Mn202  1  0.92503423  0.50200573  0.91860764  1
  Mn3.34+  Mn203  1  0.75368700  0.00238178  0.41789529  1
  Mn3.34+  Mn204  1  0.74928757  0.00118858  0.73974377  1
  Mn3.34+  Mn205  1  0.08399099  0.49605303  0.42556640  1
  Mn3.34+  Mn206  1  0.58773817  0.49996820  0.24289821  1
  Mn3.34+  Mn207  1  0.23084945  -0.00394580  0.58404081  1
  Mn3.34+  Mn208  1  0.24926267  0.50166412  0.92540488  1
  Mn3.34+  Mn209  1  0.74631238  -0.00418673  0.08871412  1
  Mn3.34+  Mn210  1  0.08694304  0.49739333  0.07325519  1
  Mn3.34+  Mn211  1  0.57854947  0.50885595  0.58287516  1
  Mn3.34+  Mn212  1  0.75148928  0.49735172  0.41318490  1
  Mn3.34+  Mn213  1  0.42218075  0.00735242  0.74285342  1
  Mn3.34+  Mn214  1  0.41337579  0.50061826  0.07680858  1
  Mn3.34+  Mn215  1  0.08644870  -0.00289704  0.08641709  1
  O2-  O216  1  0.00240942  0.16582372  0.00130388  1
  O2-  O217  1  -0.00288023  0.16155971  0.32546470  1
  O2-  O218  1  0.00943392  0.16647353  0.67074074  1
  O2-  O219  1  -0.00764554  0.66952299  -0.00316338  1
  O2-  O220  1  -0.00400963  0.68289986  0.33546349  1
  O2-  O221  1  0.00893222  0.67893755  0.68339479  1
  O2-  O222  1  0.33461063  0.15207545  -0.00247308  1
  O2-  O223  1  0.33065555  0.14754230  0.32738211  1
  O2-  O224  1  0.33510498  0.15025564  0.66771794  1
  O2-  O225  1  0.32686688  0.66296527  0.01220264  1
  O2-  O226  1  0.33133630  0.65473020  0.33896032  1
  O2-  O227  1  0.33380865  0.66757606  0.66614989  1
  O2-  O228  1  0.67368795  0.17389794  0.00040871  1
  O2-  O229  1  0.66471116  0.15242326  0.34408968  1
  O2-  O230  1  0.67321520  0.14330484  0.66635695  1
  O2-  O231  1  0.67681922  0.65044222  0.00051973  1
  O2-  O232  1  0.66621793  0.64825528  0.33066654  1
  O2-  O233  1  0.67634740  0.64179779  0.66762130  1
  O2-  O234  1  0.16360039  0.15372268  -0.00290643  1
  O2-  O235  1  0.16558908  0.14828133  0.33315438  1
  O2-  O236  1  0.17798772  0.18069314  0.66916990  1
  O2-  O237  1  0.16815526  0.67127403  0.00285001  1
  O2-  O238  1  0.17001096  0.66380369  0.33383890  1
  O2-  O239  1  0.16101824  0.67885470  0.67369500  1
  O2-  O240  1  0.49891052  0.17234218  0.00629039  1
  O2-  O241  1  0.49417226  0.15539338  0.34101973  1
  O2-  O242  1  0.49377763  0.13925259  0.66013676  1
  O2-  O243  1  0.49122872  0.66278236  0.00427506  1
  O2-  O244  1  0.49487738  0.66202584  0.33475334  1
  O2-  O245  1  0.49395083  0.64778220  0.66629819  1
  O2-  O246  1  0.84123386  0.16258430  0.00650334  1
  O2-  O247  1  0.82564578  0.15303366  0.32546344  1
  O2-  O248  1  0.83858052  0.15883298  0.68410082  1
  O2-  O249  1  0.83327896  0.66580910  -0.00953105  1
  O2-  O250  1  0.82899329  0.65687255  0.33480060  1
  O2-  O251  1  0.83651857  0.65839036  0.66827534  1
  O2-  O252  1  -0.00456477  0.34123673  0.00190433  1
  O2-  O253  1  -0.00150502  0.34415061  0.33195067  1
  O2-  O254  1  -0.00026286  0.33612553  0.67125028  1
  O2-  O255  1  0.00100046  0.84246456  -0.00176193  1
  O2-  O256  1  0.00399240  0.82311579  0.33815099  1
  O2-  O257  1  -0.00538270  0.83915660  0.67522586  1
  O2-  O258  1  0.33878588  0.33316802  -0.00135286  1
  O2-  O259  1  0.32953663  0.34707800  0.33614281  1
  O2-  O260  1  0.32622198  0.34415146  0.66753027  1
  O2-  O261  1  0.33513063  0.84199453  -0.00311035  1
  O2-  O262  1  0.33583857  0.82910056  0.33353866  1
  O2-  O263  1  0.33771634  0.83654175  0.65851329  1
  O2-  O264  1  0.66909742  0.34198378  0.00070732  1
  O2-  O265  1  0.67189738  0.34726966  0.32414465  1
  O2-  O266  1  0.65961950  0.34396128  0.67570588  1
  O2-  O267  1  0.66563987  0.85129377  -0.00043144  1
  O2-  O268  1  0.66670402  0.85586071  0.33878723  1
  O2-  O269  1  0.67380230  0.85512163  0.66144941  1
  O2-  O270  1  0.16500519  0.34717584  -0.00050404  1
  O2-  O271  1  0.16393406  0.34742763  0.33126899  1
  O2-  O272  1  0.16501801  0.31039299  0.66964113  1
  O2-  O273  1  0.16192726  0.85142024  -0.00402709  1
  O2-  O274  1  0.16378259  0.82790564  0.33675207  1
  O2-  O275  1  0.17161862  0.81669226  0.67247299  1
  O2-  O276  1  0.49810272  0.33896714  0.00172614  1
  O2-  O277  1  0.50024204  0.34695636  0.33045385  1
  O2-  O278  1  0.49308385  0.35499252  0.66355626  1
  O2-  O279  1  0.50075352  0.84955754  -0.00212635  1
  O2-  O280  1  0.49849189  0.83459372  0.33911731  1
  O2-  O281  1  0.50180785  0.85288418  0.66941161  1
  O2-  O282  1  0.83216082  0.31526658  -0.00223084  1
  O2-  O283  1  0.83224156  0.34402512  0.33106932  1
  O2-  O284  1  0.83733945  0.34299785  0.66907199  1
  O2-  O285  1  0.84182006  0.82075914  0.00012690  1
  O2-  O286  1  0.83656633  0.83039640  0.33059151  1
  O2-  O287  1  0.83383095  0.84892515  0.66675684  1
  O2-  O288  1  -0.00730774  0.17603187  0.15645936  1
  O2-  O289  1  -0.00332240  0.17537958  0.50218850  1
  O2-  O290  1  0.00043952  0.18453023  0.82638263  1
  O2-  O291  1  -0.01408371  0.68890995  0.17307566  1
  O2-  O292  1  -0.00179683  0.68013656  0.48718059  1
  O2-  O293  1  -0.00362890  0.68896531  0.83537703  1
  O2-  O294  1  0.32914043  0.18803299  0.16715965  1
  O2-  O295  1  0.33299808  0.18733631  0.50119549  1
  O2-  O296  1  0.32764408  0.18021176  0.82902342  1
  O2-  O297  1  0.33780713  0.67750738  0.17560376  1
  O2-  O298  1  0.32900948  0.68535596  0.50015539  1
  O2-  O299  1  0.33148604  0.67832092  0.83149848  1
  O2-  O300  1  0.67184583  0.18505405  0.16676721  1
  O2-  O301  1  0.66573544  0.18205146  0.50004453  1
  O2-  O302  1  0.66508341  0.17674929  0.83126039  1
  O2-  O303  1  0.67052031  0.67787290  0.16815218  1
  O2-  O304  1  0.67094524  0.68390981  0.50645077  1
  O2-  O305  1  0.67344052  0.67594981  0.83315699  1
  O2-  O306  1  0.16732355  0.18027240  0.15857328  1
  O2-  O307  1  0.17192229  0.17785876  0.50333636  1
  O2-  O308  1  0.16673750  0.17829879  0.83537346  1
  O2-  O309  1  0.17221527  0.67640872  0.16207589  1
  O2-  O310  1  0.16787822  0.68587208  0.48873186  1
  O2-  O311  1  0.14719268  0.68713858  0.82226220  1
  O2-  O312  1  0.49464752  0.18461905  0.16507900  1
  O2-  O313  1  0.49784471  0.17561718  0.50009855  1
  O2-  O314  1  0.49221800  0.18336244  0.83702640  1
  O2-  O315  1  0.49396010  0.68016999  0.16926346  1
  O2-  O316  1  0.50075787  0.69689814  0.49682147  1
  O2-  O317  1  0.50006356  0.67253697  0.82749319  1
  O2-  O318  1  0.82966607  0.18030320  0.17253611  1
  O2-  O319  1  0.83016094  0.18258281  0.49995263  1
  O2-  O320  1  0.82637240  0.18183915  0.84013974  1
  O2-  O321  1  0.83227064  0.68209620  0.16802831  1
  O2-  O322  1  0.82634936  0.67233555  0.50178954  1
  O2-  O323  1  0.83458454  0.69056985  0.83958594  1
  O2-  O324  1  -0.00027395  0.32405826  0.16841793  1
  O2-  O325  1  -0.00452967  0.32231846  0.49452490  1
  O2-  O326  1  0.00133156  0.31654353  0.83210592  1
  O2-  O327  1  0.00066138  0.82085171  0.16539506  1
  O2-  O328  1  -0.00104185  0.82652799  0.49511425  1
  O2-  O329  1  0.00564012  0.81424788  0.83935875  1
  O2-  O330  1  0.33586674  0.31094068  0.17113258  1
  O2-  O331  1  0.33341225  0.31831377  0.50556026  1
  O2-  O332  1  0.33538117  0.32039164  0.83415886  1
  O2-  O333  1  0.33578625  0.83204943  0.17719680  1
  O2-  O334  1  0.33169409  0.80995179  0.50097320  1
  O2-  O335  1  0.33245762  0.82174006  0.83335924  1
  O2-  O336  1  0.66671164  0.31275321  0.15970017  1
  O2-  O337  1  0.66308556  0.31828289  0.49214570  1
  O2-  O338  1  0.66847026  0.32901575  0.83638058  1
  O2-  O339  1  0.67268818  0.83706639  0.16644033  1
  O2-  O340  1  0.67260264  0.82804931  0.50454652  1
  O2-  O341  1  0.65846616  0.83069741  0.82079796  1
  O2-  O342  1  0.16088948  0.31832781  0.17359770  1
  O2-  O343  1  0.16545881  0.31894592  0.49946609  1
  O2-  O344  1  0.16353344  0.32479400  0.83302353  1
  O2-  O345  1  0.16379050  0.82575095  0.17530724  1
  O2-  O346  1  0.15986805  0.80779133  0.50130536  1
  O2-  O347  1  0.16451124  0.82837089  0.83474970  1
  O2-  O348  1  0.50042202  0.31645744  0.16296473  1
  O2-  O349  1  0.49701428  0.32568700  0.50346373  1
  O2-  O350  1  0.50178609  0.32740530  0.83042701  1
  O2-  O351  1  0.50869504  0.82095218  0.15832446  1
  O2-  O352  1  0.49198426  0.81707698  0.50560682  1
  O2-  O353  1  0.49667844  0.83218955  0.83326751  1
  O2-  O354  1  0.83357262  0.31326177  0.16487043  1
  O2-  O355  1  0.83749375  0.32494606  0.49386381  1
  O2-  O356  1  0.83246635  0.31585437  0.83379683  1
  O2-  O357  1  0.83801550  0.81353278  0.16999949  1
  O2-  O358  1  0.83155469  0.82301177  0.50172816  1
  O2-  O359  1  0.83630418  0.81229904  0.83257444  1
  O2-  O360  1  0.08103842  0.08146789  0.10598871  1
  O2-  O361  1  0.10747978  0.06046218  0.45470317  1
  O2-  O362  1  0.08750293  0.07299191  0.77825642  1
  O2-  O363  1  0.10348665  0.56609886  0.11885557  1
  O2-  O364  1  0.08462708  0.58124144  0.43446131  1
  O2-  O365  1  0.08355961  0.57828818  0.76984989  1
  O2-  O366  1  0.42055520  0.08398646  0.12108206  1
  O2-  O367  1  0.39396527  0.08360431  0.43269694  1
  O2-  O368  1  0.41518448  0.08275250  0.79265656  1
  O2-  O369  1  0.40159958  0.57836572  0.11013481  1
  O2-  O370  1  0.41132754  0.58410344  0.45603293  1
  O2-  O371  1  0.41956655  0.57993900  0.77363533  1
  O2-  O372  1  0.73218030  0.08435045  0.11490681  1
  O2-  O373  1  0.75162970  0.08644818  0.45045697  1
  O2-  O374  1  0.75423299  0.07813982  0.78589075  1
  O2-  O375  1  0.76166260  0.57907217  0.11235201  1
  O2-  O376  1  0.73476519  0.57581882  0.45477163  1
  O2-  O377  1  0.75653238  0.58071883  0.78745528  1
  O2-  O378  1  0.25797114  0.07624645  0.19548328  1
  O2-  O379  1  0.25726862  0.08113536  0.55988786  1
  O2-  O380  1  0.24628381  0.08448986  0.88247171  1
  O2-  O381  1  0.25614546  0.58356193  0.21747160  1
  O2-  O382  1  0.26326299  0.55754083  0.54044571  1
  O2-  O383  1  0.24590768  0.57365280  0.90376881  1
  O2-  O384  1  0.58998207  0.08118182  0.21122904  1
  O2-  O385  1  0.57372550  0.07583576  0.54598121  1
  O2-  O386  1  0.59045891  0.08285728  0.92097015  1
  O2-  O387  1  0.56822601  0.57997923  0.21494653  1
  O2-  O388  1  0.58036973  0.58765982  0.54893252  1
  O2-  O389  1  0.61243522  0.56709391  0.87641785  1
  O2-  O390  1  0.91123364  0.07807956  0.20200905  1
  O2-  O391  1  0.92991636  0.07319233  0.58756232  1
  O2-  O392  1  0.93264516  0.07615868  0.88253926  1
  O2-  O393  1  0.92906007  0.57512600  0.24587376  1
  O2-  O394  1  0.90024136  0.56165929  0.51342154  1
  O2-  O395  1  0.89196486  0.58062391  0.89045817  1
  O2-  O396  1  0.07339662  0.42237704  0.11641080  1
  O2-  O397  1  0.09188067  0.41646383  0.43637367  1
  O2-  O398  1  0.08809931  0.42863666  0.78300986  1
  O2-  O399  1  0.07278653  0.91823977  0.11408055  1
  O2-  O400  1  0.08293106  0.91527688  0.41580774  1
  O2-  O401  1  0.08743059  0.92055554  0.77903457  1
  O2-  O402  1  0.42739725  0.42494802  0.12263685  1
  O2-  O403  1  0.41113155  0.41803550  0.44633313  1
  O2-  O404  1  0.41312475  0.42057521  0.78497066  1
  O2-  O405  1  0.42621878  0.91551497  0.10814548  1
  O2-  O406  1  0.42454457  0.92140920  0.43572572  1
  O2-  O407  1  0.40313761  0.92345221  0.78352307  1
  O2-  O408  1  0.75507664  0.41796323  0.11390713  1
  O2-  O409  1  0.74811408  0.41743504  0.43391725  1
  O2-  O410  1  0.75338251  0.41861529  0.78238972  1
  O2-  O411  1  0.77596316  0.91643856  0.10599203  1
  O2-  O412  1  0.76396219  0.92108841  0.44220216  1
  O2-  O413  1  0.75630356  0.92297047  0.78235181  1
  O2-  O414  1  0.25354872  0.41617252  0.21876865  1
  O2-  O415  1  0.26171201  0.41675412  0.55354152  1
  O2-  O416  1  0.25373896  0.42698170  0.87769915  1
  O2-  O417  1  0.24387265  0.91854947  0.24925469  1
  O2-  O418  1  0.27348884  0.91649014  0.56497623  1
  O2-  O419  1  0.26506341  0.91851163  0.88416275  1
  O2-  O420  1  0.58886100  0.41466935  0.21009462  1
  O2-  O421  1  0.57779614  0.42417598  0.54814260  1
  O2-  O422  1  0.57830175  0.42238574  0.89226126  1
  O2-  O423  1  0.57219319  0.91749662  0.22483791  1
  O2-  O424  1  0.56815556  0.91535093  0.54655226  1
  O2-  O425  1  0.56425900  0.92512121  0.88198750  1
  O2-  O426  1  0.91242829  0.41580593  0.22636284  1
  O2-  O427  1  0.92420215  0.42162113  0.55709993  1
  O2-  O428  1  0.92451392  0.42114517  0.88662914  1
  O2-  O429  1  0.90859475  0.91912476  0.22287224  1
  O2-  O430  1  0.89743896  0.92033572  0.55494707  1
  O2-  O431  1  0.94046145  0.91891765  0.88600628  1
  O2-  O432  1  -0.01243708  -0.00283085  0.02809124  1
  O2-  O433  1  0.00619249  -0.01036893  0.31261938  1
  O2-  O434  1  -0.02811108  0.00434921  0.71333183  1
  O2-  O435  1  -0.01560196  0.49967357  0.02523731  1
  O2-  O436  1  -0.01382040  0.49375264  0.37505608  1
  O2-  O437  1  -0.00753161  0.48945606  0.68732055  1
  O2-  O438  1  0.33159110  0.00624309  -0.00417767  1
  O2-  O439  1  0.35481392  0.00566241  0.28637691  1
  O2-  O440  1  0.35260757  0.00733041  0.63938645  1
  O2-  O441  1  0.33639502  0.48800656  -0.00937018  1
  O2-  O442  1  0.33962746  0.50334294  0.31596378  1
  O2-  O443  1  0.34582269  0.48460525  0.65658053  1
  O2-  O444  1  0.66431910  -0.00706196  0.00556982  1
  O2-  O445  1  0.66183405  0.01109282  0.34382351  1
  O2-  O446  1  0.66791566  -0.02476094  0.66737994  1
  O2-  O447  1  0.67031602  0.49596829  -0.00893260  1
  O2-  O448  1  0.67881010  0.49450469  0.31526131  1
  O2-  O449  1  0.67091421  0.51637994  0.66705877  1
  O2-  O450  1  0.15245690  -0.00226378  -0.01558833  1
  O2-  O451  1  0.17902001  0.02176260  0.32474643  1
  O2-  O452  1  0.19701868  0.00225121  0.70516444  1
  O2-  O453  1  0.15716294  0.48700661  -0.01306495  1
  O2-  O454  1  0.17633271  0.50144108  0.34808569  1
  O2-  O455  1  0.17683596  0.49383118  0.68219118  1
  O2-  O456  1  0.50091449  -0.00237713  0.00717186  1
  O2-  O457  1  0.50434782  0.01072170  0.32860523  1
  O2-  O458  1  0.50244942  -0.02308754  0.66994580  1
  O2-  O459  1  0.50232140  0.48115151  0.00838555  1
  O2-  O460  1  0.49976037  0.49012090  0.32673761  1
  O2-  O461  1  0.50872854  0.49440851  0.67738641  1
  O2-  O462  1  0.83173493  0.02666520  0.00267819  1
  O2-  O463  1  0.81585419  0.00606698  0.30824682  1
  O2-  O464  1  0.81785650  -0.00418762  0.65772013  1
  O2-  O465  1  0.82270187  0.49429172  -0.02174123  1
  O2-  O466  1  0.83508530  0.51204681  0.34748886  1
  O2-  O467  1  0.83643704  0.51319780  0.64944674  1
  O2-  O468  1  0.91854631  0.25002471  0.27092566  1
  O2-  O469  1  0.58958416  0.75603797  0.92472181  1
  O2-  O470  1  0.25517445  0.74944788  0.26421873  1
  O2-  O471  1  0.57697389  0.24084739  0.61500949  1
  O2-  O472  1  0.60281759  0.75134416  0.27594750  1
  O2-  O473  1  0.58442149  0.25384197  0.27295593  1
  O2-  O474  1  0.42241922  0.25014891  0.39457367  1
  O2-  O475  1  0.58891252  0.75095538  0.61840441  1
  O2-  O476  1  0.91612328  0.25549145  0.59638786  1
  O2-  O477  1  0.72487511  0.74988263  0.06260634  1
  O2-  O478  1  0.43492363  0.74583164  0.72801523  1
  O2-  O479  1  0.42617957  0.25357303  0.71876916  1
  O2-  O480  1  0.74027597  0.75277848  0.72095570  1
  O2-  O481  1  0.58282024  0.25756155  0.92756688  1
  O2-  O482  1  0.74076058  0.25028661  0.72412610  1
  O2-  O483  1  0.08643909  0.25257914  0.05988548  1
  O2-  O484  1  0.09076367  0.75562345  0.07059932  1
  O2-  O485  1  0.08264105  0.25304327  0.40010210  1
  O2-  O486  1  0.73599989  0.75011379  0.39337675  1
  O2-  O487  1  0.24181936  0.24912508  0.28176119  1
  O2-  O488  1  0.74636027  0.25081220  0.39353098  1
  O2-  O489  1  0.91334884  0.75636961  0.59539784  1
  O2-  O490  1  0.24570970  0.75138363  0.93342495  1
  O2-  O491  1  0.24590307  0.24995648  0.93680098  1
  O2-  O492  1  0.41451720  0.75014859  0.07039727  1
