# generated using pymatgen
data_Ca108Mn108O277
_symmetry_space_group_name_H-M   'P 1'
_cell_length_a   16.03148453
_cell_length_b   22.31331790
_cell_length_c   16.39288532
_cell_angle_alpha   89.99598415
_cell_angle_beta   89.99821592
_cell_angle_gamma   89.99733554
_symmetry_Int_Tables_number   1
_chemical_formula_structural   Ca108Mn108O277
_chemical_formula_sum   'Ca108 Mn108 O277'
_cell_volume   5863.99096118
_cell_formula_units_Z   1
loop_
 _symmetry_equiv_pos_site_id
 _symmetry_equiv_pos_as_xyz
  1  'x, y, z'
loop_
 _atom_type_symbol
 _atom_type_oxidation_number
  Ca2+  2.0
  Mn3.34+  3.34
  O2-  -2.0
loop_
 _atom_site_type_symbol
 _atom_site_label
 _atom_site_symmetry_multiplicity
 _atom_site_fract_x
 _atom_site_fract_y
 _atom_site_fract_z
 _atom_site_occupancy
  Ca2+  Ca0  1  0.09413950  0.25019833  0.25191081  1
  Ca2+  Ca1  1  0.10504325  0.24272716  0.58713664  1
  Ca2+  Ca2  1  0.08425873  0.25320345  0.90886157  1
  Ca2+  Ca3  1  0.06886672  0.74875660  0.22910996  1
  Ca2+  Ca4  1  0.07129661  0.74800581  0.59302903  1
  Ca2+  Ca5  1  0.07867148  0.74726715  0.92433940  1
  Ca2+  Ca6  1  0.42289607  0.25437038  0.24735774  1
  Ca2+  Ca7  1  0.39072592  0.25910327  0.57837613  1
  Ca2+  Ca8  1  0.40860596  0.24998634  0.92897357  1
  Ca2+  Ca9  1  0.43322544  0.73751760  0.24111626  1
  Ca2+  Ca10  1  0.42570671  0.75545845  0.57240769  1
  Ca2+  Ca11  1  0.41694248  0.74622123  0.93988420  1
  Ca2+  Ca12  1  0.72806903  0.24127243  0.24485100  1
  Ca2+  Ca13  1  0.75776700  0.27449198  0.58695241  1
  Ca2+  Ca14  1  0.75752408  0.25228485  0.93151358  1
  Ca2+  Ca15  1  0.73745277  0.75148214  0.25042490  1
  Ca2+  Ca16  1  0.74825957  0.75040056  0.58550876  1
  Ca2+  Ca17  1  0.75256615  0.75480310  0.91682266  1
  Ca2+  Ca18  1  0.25768158  0.25542652  0.07924587  1
  Ca2+  Ca19  1  0.25399497  0.24827014  0.41854877  1
  Ca2+  Ca20  1  0.22245184  0.23559263  0.74698748  1
  Ca2+  Ca21  1  0.24823638  0.74578679  0.08767517  1
  Ca2+  Ca22  1  0.26325607  0.75858080  0.41674870  1
  Ca2+  Ca23  1  0.23566370  0.75339128  0.75529553  1
  Ca2+  Ca24  1  0.58391340  0.25822300  0.10244502  1
  Ca2+  Ca25  1  0.57512941  0.24781036  0.39011595  1
  Ca2+  Ca26  1  0.57993341  0.26027856  0.75607219  1
  Ca2+  Ca27  1  0.56685177  0.73634474  0.11397983  1
  Ca2+  Ca28  1  0.58445919  0.73385226  0.39973060  1
  Ca2+  Ca29  1  0.58858145  0.75985417  0.74952377  1
  Ca2+  Ca30  1  0.91402311  0.24297807  0.07409125  1
  Ca2+  Ca31  1  0.91971175  0.25530545  0.40982445  1
  Ca2+  Ca32  1  0.94260697  0.24920535  0.75952642  1
  Ca2+  Ca33  1  0.93081390  0.74220669  0.08238274  1
  Ca2+  Ca34  1  0.90208309  0.75004941  0.42024496  1
  Ca2+  Ca35  1  0.91919875  0.74241345  0.75003000  1
  Ca2+  Ca36  1  0.95650091  0.09158530  0.76299926  1
  Ca2+  Ca37  1  0.08097994  0.59860288  0.92207269  1
  Ca2+  Ca38  1  0.42818464  0.10457178  0.25002205  1
  Ca2+  Ca39  1  0.24081360  0.10346250  0.08334486  1
  Ca2+  Ca40  1  0.79055747  0.60550675  0.59213268  1
  Ca2+  Ca41  1  0.70541529  0.59313828  0.25147298  1
  Ca2+  Ca42  1  0.27430920  0.60815319  0.08758351  1
  Ca2+  Ca43  1  0.58942148  0.11004482  0.09853388  1
  Ca2+  Ca44  1  0.59880761  0.09498105  0.39246325  1
  Ca2+  Ca45  1  0.75255751  0.07742024  0.57070355  1
  Ca2+  Ca46  1  0.73989518  0.07627757  0.57153336  1
  Ca2+  Ca47  1  0.55847099  0.59346637  0.08915864  1
  Ca2+  Ca48  1  0.58319539  0.07407780  0.74574316  1
  Ca2+  Ca49  1  0.46230862  0.58761356  0.26605866  1
  Ca2+  Ca50  1  0.70767846  0.59019600  0.24224345  1
  Ca2+  Ca51  1  0.26791984  0.57691457  0.39283263  1
  Ca2+  Ca52  1  0.92163634  0.58410549  0.40855187  1
  Ca2+  Ca53  1  0.10835300  0.09427196  0.60265668  1
  Ca2+  Ca54  1  0.46236586  0.58086095  0.26190391  1
  Ca2+  Ca55  1  0.94921555  0.09359109  0.75613214  1
  Ca2+  Ca56  1  0.07229305  0.11287735  0.91717126  1
  Ca2+  Ca57  1  0.38556535  0.10390819  0.57324352  1
  Ca2+  Ca58  1  0.21562004  0.57505571  0.75061079  1
  Ca2+  Ca59  1  0.39794505  0.10294491  0.57309868  1
  Ca2+  Ca60  1  0.23798280  0.10593402  0.41981761  1
  Ca2+  Ca61  1  0.60971232  0.57862998  0.74266866  1
  Ca2+  Ca62  1  0.25740004  0.57692360  0.39336554  1
  Ca2+  Ca63  1  0.91654781  0.59367675  0.08070591  1
  Ca2+  Ca64  1  0.76885472  0.58337659  0.91761608  1
  Ca2+  Ca65  1  0.08543860  0.60663102  0.23028694  1
  Ca2+  Ca66  1  0.78010671  0.60339197  0.59284923  1
  Ca2+  Ca67  1  0.77698101  0.09654185  0.93802688  1
  Ca2+  Ca68  1  0.08437898  0.59576298  0.91337979  1
  Ca2+  Ca69  1  0.59893971  0.10740513  0.09556583  1
  Ca2+  Ca70  1  0.59800695  0.57521675  0.74181441  1
  Ca2+  Ca71  1  0.08079817  0.10919932  0.92058587  1
  Ca2+  Ca72  1  0.08473032  0.42136565  0.59708617  1
  Ca2+  Ca73  1  0.74774472  0.90641096  0.58559724  1
  Ca2+  Ca74  1  0.75362335  0.90467657  0.91583513  1
  Ca2+  Ca75  1  0.09221048  0.90965549  0.25076425  1
  Ca2+  Ca76  1  0.40524190  0.40384197  0.92628954  1
  Ca2+  Ca77  1  0.94165515  0.41125687  0.40486364  1
  Ca2+  Ca78  1  0.41498280  0.90353017  0.91733484  1
  Ca2+  Ca79  1  0.08559083  0.91334604  0.90794294  1
  Ca2+  Ca80  1  0.75461330  0.41781333  0.94152881  1
  Ca2+  Ca81  1  0.60273833  0.40716672  0.75597214  1
  Ca2+  Ca82  1  0.90620648  0.40109722  0.08809822  1
  Ca2+  Ca83  1  0.59779970  0.90131867  0.07689403  1
  Ca2+  Ca84  1  0.93174799  0.40715088  0.40375798  1
  Ca2+  Ca85  1  0.75903493  0.90703410  0.58561203  1
  Ca2+  Ca86  1  0.25081823  0.90851529  0.40791335  1
  Ca2+  Ca87  1  0.91894813  0.41624301  0.75334429  1
  Ca2+  Ca88  1  0.41412809  0.90347552  0.25650019  1
  Ca2+  Ca89  1  0.73906023  0.40822847  0.23616031  1
  Ca2+  Ca90  1  0.26284186  0.41358227  0.39505263  1
  Ca2+  Ca91  1  0.54516360  0.42920617  0.38316823  1
  Ca2+  Ca92  1  0.90615674  0.90007705  0.08166452  1
  Ca2+  Ca93  1  0.58078507  0.90857100  0.75099500  1
  Ca2+  Ca94  1  0.24701080  0.90636524  0.07706503  1
  Ca2+  Ca95  1  0.41741455  0.90395414  0.58311438  1
  Ca2+  Ca96  1  0.90428815  0.90913320  0.41735319  1
  Ca2+  Ca97  1  0.06695360  0.91233082  0.60582835  1
  Ca2+  Ca98  1  0.59035782  0.40921304  0.75444001  1
  Ca2+  Ca99  1  0.07447980  0.41986394  0.59545291  1
  Ca2+  Ca100  1  0.07293141  0.91312607  0.90750537  1
  Ca2+  Ca101  1  0.54637500  0.43062962  0.37316498  1
  Ca2+  Ca102  1  0.09047534  0.40335092  0.90620020  1
  Ca2+  Ca103  1  0.07930841  0.90942046  0.25105914  1
  Ca2+  Ca104  1  0.23758231  0.90850318  0.74738556  1
  Ca2+  Ca105  1  0.27392110  0.41449551  0.39335274  1
  Ca2+  Ca106  1  0.59521388  0.90478429  0.42037668  1
  Ca2+  Ca107  1  0.41428940  0.40682343  0.93092278  1
  Mn3.34+  Mn108  1  0.08293722  0.32736555  0.08522880  1
  Mn3.34+  Mn109  1  0.08901614  0.33444745  0.42232466  1
  Mn3.34+  Mn110  1  0.08628661  0.33771355  0.75040005  1
  Mn3.34+  Mn111  1  0.08213576  0.83273825  0.08260626  1
  Mn3.34+  Mn112  1  0.07967794  0.83467854  0.42322540  1
  Mn3.34+  Mn113  1  0.08031473  0.83178596  0.75133849  1
  Mn3.34+  Mn114  1  0.41640682  0.33415309  0.09135051  1
  Mn3.34+  Mn115  1  0.41580349  0.33005098  0.41890341  1
  Mn3.34+  Mn116  1  0.41123139  0.33806135  0.74578935  1
  Mn3.34+  Mn117  1  0.41775529  0.83012993  0.08854153  1
  Mn3.34+  Mn118  1  0.42175344  0.83361092  0.41614113  1
  Mn3.34+  Mn119  1  0.41292083  0.83329167  0.75140430  1
  Mn3.34+  Mn120  1  0.74915375  0.33506990  0.08662579  1
  Mn3.34+  Mn121  1  0.74524468  0.33099564  0.41866860  1
  Mn3.34+  Mn122  1  0.75802785  0.33619887  0.75565272  1
  Mn3.34+  Mn123  1  0.75087412  0.83227685  0.08731248  1
  Mn3.34+  Mn124  1  0.74912985  0.83315840  0.41501839  1
  Mn3.34+  Mn125  1  0.75217746  0.83298316  0.75508441  1
  Mn3.34+  Mn126  1  0.25016024  0.33002936  0.24286489  1
  Mn3.34+  Mn127  1  0.24953621  0.33457631  0.58505041  1
  Mn3.34+  Mn128  1  0.24786192  0.33173430  0.91483915  1
  Mn3.34+  Mn129  1  0.25151470  0.83237514  0.24738085  1
  Mn3.34+  Mn130  1  0.24803800  0.83150234  0.58255457  1
  Mn3.34+  Mn131  1  0.25240312  0.83316346  0.91534804  1
  Mn3.34+  Mn132  1  0.58243815  0.33527709  0.24721833  1
  Mn3.34+  Mn133  1  0.58032267  0.33611582  0.57332084  1
  Mn3.34+  Mn134  1  0.58642962  0.33283596  0.92061193  1
  Mn3.34+  Mn135  1  0.58640061  0.83294141  0.24945769  1
  Mn3.34+  Mn136  1  0.58313770  0.83234512  0.58285909  1
  Mn3.34+  Mn137  1  0.58282013  0.83502327  0.91787210  1
  Mn3.34+  Mn138  1  0.91934465  0.33042748  0.24413108  1
  Mn3.34+  Mn139  1  0.91298239  0.33569616  0.58448314  1
  Mn3.34+  Mn140  1  0.91872664  0.33394730  0.91596380  1
  Mn3.34+  Mn141  1  0.90863515  0.83119467  0.25079522  1
  Mn3.34+  Mn142  1  0.91771498  0.83075167  0.58386380  1
  Mn3.34+  Mn143  1  0.91618222  0.83044164  0.91392077  1
  Mn3.34+  Mn144  1  0.24885732  0.16924442  0.92204871  1
  Mn3.34+  Mn145  1  0.58197982  0.66739801  0.57741642  1
  Mn3.34+  Mn146  1  0.07922870  0.17035773  0.09251749  1
  Mn3.34+  Mn147  1  0.75462955  0.66912110  0.75609246  1
  Mn3.34+  Mn148  1  0.24371340  0.65885737  0.58238491  1
  Mn3.34+  Mn149  1  0.75018287  0.66733562  0.41868476  1
  Mn3.34+  Mn150  1  0.58778493  0.66167366  0.91772400  1
  Mn3.34+  Mn151  1  0.42162269  0.66711982  0.74904334  1
  Mn3.34+  Mn152  1  0.41123842  0.16364695  0.76166058  1
  Mn3.34+  Mn153  1  0.57735987  0.66665684  0.91829054  1
  Mn3.34+  Mn154  1  0.08656719  0.67037820  0.41673434  1
  Mn3.34+  Mn155  1  0.91181746  0.16896932  0.57256858  1
  Mn3.34+  Mn156  1  0.59191014  0.17465914  0.57777087  1
  Mn3.34+  Mn157  1  0.07469234  0.66304273  0.42173082  1
  Mn3.34+  Mn158  1  0.41600950  0.16936232  0.08380440  1
  Mn3.34+  Mn159  1  0.40966997  0.66009355  0.75305561  1
  Mn3.34+  Mn160  1  0.58417764  0.18093796  0.57970793  1
  Mn3.34+  Mn161  1  0.92323736  0.16284787  0.56953417  1
  Mn3.34+  Mn162  1  0.75680655  0.17074776  0.75577247  1
  Mn3.34+  Mn163  1  0.07540058  0.66476851  0.74739389  1
  Mn3.34+  Mn164  1  0.58445147  0.16324220  0.91584396  1
  Mn3.34+  Mn165  1  0.76551201  0.15910459  0.40184807  1
  Mn3.34+  Mn166  1  0.91573237  0.66733716  0.91512250  1
  Mn3.34+  Mn167  1  0.42083373  0.16926538  0.76058823  1
  Mn3.34+  Mn168  1  0.25226168  0.66776695  0.24815313  1
  Mn3.34+  Mn169  1  0.24925541  0.16714862  0.24750560  1
  Mn3.34+  Mn170  1  0.91167079  0.66521552  0.24722814  1
  Mn3.34+  Mn171  1  0.25688967  0.66486146  0.58460126  1
  Mn3.34+  Mn172  1  0.25261876  0.66508555  0.91386893  1
  Mn3.34+  Mn173  1  0.75403376  0.65919011  0.08727890  1
  Mn3.34+  Mn174  1  0.91962827  0.17172781  0.24751608  1
  Mn3.34+  Mn175  1  0.76088748  0.17116480  0.08854350  1
  Mn3.34+  Mn176  1  0.41559832  0.16744583  0.41183893  1
  Mn3.34+  Mn177  1  0.07841874  0.16262698  0.40937984  1
  Mn3.34+  Mn178  1  0.74305533  0.16496718  0.75957155  1
  Mn3.34+  Mn179  1  0.41832479  0.66652101  0.42084913  1
  Mn3.34+  Mn180  1  0.40900871  0.49597806  0.08217723  1
  Mn3.34+  Mn181  1  0.41050337  0.00255986  0.08038538  1
  Mn3.34+  Mn182  1  0.92057914  0.50240884  0.92192752  1
  Mn3.34+  Mn183  1  0.42041173  -0.00325911  0.08086151  1
  Mn3.34+  Mn184  1  0.08246958  0.00170064  0.07660530  1
  Mn3.34+  Mn185  1  0.89243020  0.00377039  0.26056159  1
  Mn3.34+  Mn186  1  0.58956229  0.00154578  0.92658472  1
  Mn3.34+  Mn187  1  0.73901168  0.50315562  0.42431675  1
  Mn3.34+  Mn188  1  0.92480754  0.50141612  0.25661060  1
  Mn3.34+  Mn189  1  0.90974889  0.49863661  0.59848802  1
  Mn3.34+  Mn190  1  0.57119092  0.00201364  0.58054177  1
  Mn3.34+  Mn191  1  0.41410570  0.50142415  0.76506804  1
  Mn3.34+  Mn192  1  0.27051099  0.49369028  0.59766156  1
  Mn3.34+  Mn193  1  0.26083096  0.49957483  0.59369465  1
  Mn3.34+  Mn194  1  0.25014105  0.49862882  0.91914592  1
  Mn3.34+  Mn195  1  0.41183056  0.00082784  0.75205055  1
  Mn3.34+  Mn196  1  0.07770224  0.00052072  0.41528517  1
  Mn3.34+  Mn197  1  0.91098568  -0.00344606  0.92312475  1
  Mn3.34+  Mn198  1  0.57071281  0.49586609  0.57674850  1
  Mn3.34+  Mn199  1  0.24571723  0.00331612  0.91567937  1
  Mn3.34+  Mn200  1  0.08627671  0.49678080  0.09068761  1
  Mn3.34+  Mn201  1  0.24510638  0.00377272  0.25631589  1
  Mn3.34+  Mn202  1  0.41804199  -0.00141677  0.40619008  1
  Mn3.34+  Mn203  1  0.58266397  0.50095247  0.57682583  1
  Mn3.34+  Mn204  1  0.76208736  0.00121045  0.74848509  1
  Mn3.34+  Mn205  1  0.75268935  0.00096962  0.08435750  1
  Mn3.34+  Mn206  1  0.75363857  0.49722763  0.42458102  1
  Mn3.34+  Mn207  1  0.60932258  -0.00275152  0.26252884  1
  Mn3.34+  Mn208  1  0.90354401  0.01152383  0.26115051  1
  Mn3.34+  Mn209  1  0.60088360  -0.00916588  0.25898741  1
  Mn3.34+  Mn210  1  0.09543601  0.48991558  0.08740144  1
  Mn3.34+  Mn211  1  0.25008987  -0.00539343  0.58607542  1
  Mn3.34+  Mn212  1  0.24189399  0.49531996  0.24565346  1
  Mn3.34+  Mn213  1  0.92572426  0.00334935  0.57561669  1
  Mn3.34+  Mn214  1  0.23997820  -0.00086619  0.58351873  1
  Mn3.34+  Mn215  1  0.58629214  0.50099258  0.93933055  1
  O2-  O216  1  0.01094811  0.18157807  0.00207676  1
  O2-  O217  1  0.00111234  0.19218980  0.33056001  1
  O2-  O218  1  -0.00081195  0.15019338  0.65256331  1
  O2-  O219  1  -0.00234229  0.65125302  -0.00694009  1
  O2-  O220  1  0.00137918  0.64679101  0.33293841  1
  O2-  O221  1  -0.00049306  0.67379195  0.66977878  1
  O2-  O222  1  0.33045657  0.15702048  0.00668566  1
  O2-  O223  1  0.33150530  0.14810645  0.33403365  1
  O2-  O224  1  0.33828352  0.15388917  0.67354335  1
  O2-  O225  1  0.32185746  0.68244679  -0.00266704  1
  O2-  O226  1  0.32585026  0.66475055  0.33932995  1
  O2-  O227  1  0.33322370  0.63921578  0.66911978  1
  O2-  O228  1  0.66855331  0.15922479  -0.00379619  1
  O2-  O229  1  0.67303378  0.17459820  0.34497004  1
  O2-  O230  1  0.66813901  0.14750093  0.66991029  1
  O2-  O231  1  0.67570690  0.65500736  -0.00425891  1
  O2-  O232  1  0.66783571  0.65656002  0.33972288  1
  O2-  O233  1  0.67361945  0.64856837  0.66491648  1
  O2-  O234  1  0.16594678  0.17467350  0.00559594  1
  O2-  O235  1  0.16334095  0.16137736  0.32649141  1
  O2-  O236  1  0.16368902  0.16827122  0.66606376  1
  O2-  O237  1  0.16830851  0.65825685  -0.00930545  1
  O2-  O238  1  0.17027705  0.65163931  0.33993985  1
  O2-  O239  1  0.16904909  0.64985605  0.66871298  1
  O2-  O240  1  0.50651230  0.15948056  0.00339166  1
  O2-  O241  1  0.50114327  0.15783268  0.34122881  1
  O2-  O242  1  0.50469059  0.15160040  0.66554661  1
  O2-  O243  1  0.50081394  0.65500604  -0.00160064  1
  O2-  O244  1  0.49454280  0.66137824  0.34049904  1
  O2-  O245  1  0.50972160  0.64465871  0.67735221  1
  O2-  O246  1  0.83313206  0.17363512  0.00235759  1
  O2-  O247  1  0.83591565  0.19915216  0.32739520  1
  O2-  O248  1  0.83481903  0.13299996  0.66708628  1
  O2-  O249  1  0.83642882  0.65919365  0.00328474  1
  O2-  O250  1  0.82593039  0.64253247  0.33047371  1
  O2-  O251  1  0.83489908  0.67274352  0.67537148  1
  O2-  O252  1  -0.00353243  0.31707630  0.00091049  1
  O2-  O253  1  0.00219698  0.33021822  0.33640014  1
  O2-  O254  1  -0.00161168  0.35236376  0.66524162  1
  O2-  O255  1  0.00142979  0.85364320  -0.00025939  1
  O2-  O256  1  -0.00119707  0.85569193  0.33404198  1
  O2-  O257  1  -0.00222925  0.83053797  0.66715222  1
  O2-  O258  1  0.33020025  0.33976329  0.00039470  1
  O2-  O259  1  0.33796856  0.34125352  0.33056930  1
  O2-  O260  1  0.33731626  0.34817297  0.65857779  1
  O2-  O261  1  0.33209759  0.83741139  0.00250146  1
  O2-  O262  1  0.33024194  0.84142669  0.33610113  1
  O2-  O263  1  0.32840044  0.85155354  0.66860923  1
  O2-  O264  1  0.67200690  0.33637125  -0.00360919  1
  O2-  O265  1  0.66720504  0.33011158  0.33467285  1
  O2-  O266  1  0.66411405  0.34282505  0.66512001  1
  O2-  O267  1  0.67410196  0.84022288  -0.00431055  1
  O2-  O268  1  0.66674377  0.84367779  0.33541045  1
  O2-  O269  1  0.66528034  0.84960033  0.66823687  1
  O2-  O270  1  0.15677979  0.33134415  -0.00983174  1
  O2-  O271  1  0.17624558  0.33458843  0.34637339  1
  O2-  O272  1  0.16297047  0.35389009  0.66069620  1
  O2-  O273  1  0.16356904  0.84620205  -0.00402112  1
  O2-  O274  1  0.16653177  0.84537172  0.33008886  1
  O2-  O275  1  0.16255775  0.84659234  0.66418903  1
  O2-  O276  1  0.49434033  0.33247280  -0.00743288  1
  O2-  O277  1  0.50310053  0.33821226  0.33984822  1
  O2-  O278  1  0.51049119  0.34428494  0.67274757  1
  O2-  O279  1  0.49893877  0.85169878  0.00277017  1
  O2-  O280  1  0.50415089  0.85286731  0.33395508  1
  O2-  O281  1  0.49915106  0.84890671  0.66569866  1
  O2-  O282  1  0.83576838  0.33527032  -0.00093910  1
  O2-  O283  1  0.84018995  0.34160556  0.33796675  1
  O2-  O284  1  0.83522611  0.35269522  0.67219403  1
  O2-  O285  1  0.83178849  0.83561914  -0.00328653  1
  O2-  O286  1  0.83494269  0.84196785  0.33894032  1
  O2-  O287  1  0.82612194  0.83707125  0.66027692  1
  O2-  O288  1  0.00148592  0.19191938  0.16889138  1
  O2-  O289  1  0.00289502  0.19249383  0.49274801  1
  O2-  O290  1  0.00174345  0.16925206  0.83144021  1
  O2-  O291  1  -0.00767156  0.67335728  0.16917678  1
  O2-  O292  1  -0.00485343  0.68437881  0.49266581  1
  O2-  O293  1  0.00143953  0.68072848  0.83820614  1
  O2-  O294  1  0.33946332  0.17753395  0.17166896  1
  O2-  O295  1  0.33562080  0.17345093  0.49749872  1
  O2-  O296  1  0.32916827  0.17726819  0.84059212  1
  O2-  O297  1  0.32804143  0.68321478  0.17324465  1
  O2-  O298  1  0.32825329  0.68368193  0.49937158  1
  O2-  O299  1  0.33081577  0.68726609  0.82890042  1
  O2-  O300  1  0.66661835  0.17835151  0.15616017  1
  O2-  O301  1  0.68456579  0.18991112  0.51103869  1
  O2-  O302  1  0.66433303  0.19737556  0.84036371  1
  O2-  O303  1  0.67263016  0.67452766  0.16012385  1
  O2-  O304  1  0.67336737  0.68200297  0.50670478  1
  O2-  O305  1  0.65731837  0.67778432  0.82914917  1
  O2-  O306  1  0.17435989  0.18383140  0.16179228  1
  O2-  O307  1  0.16047244  0.18427459  0.48036882  1
  O2-  O308  1  0.16269012  0.17796934  0.84981318  1
  O2-  O309  1  0.16874900  0.68849273  0.18156724  1
  O2-  O310  1  0.16252332  0.69008275  0.50088811  1
  O2-  O311  1  0.16314857  0.68070836  0.83700857  1
  O2-  O312  1  0.50201336  0.17419636  0.15747123  1
  O2-  O313  1  0.49070996  0.18143177  0.50628275  1
  O2-  O314  1  0.50153639  0.18978594  0.83763675  1
  O2-  O315  1  0.50040810  0.66021182  0.17900202  1
  O2-  O316  1  0.49818931  0.68419016  0.50232789  1
  O2-  O317  1  0.49873383  0.68929905  0.83530750  1
  O2-  O318  1  0.83514050  0.18794660  0.17003921  1
  O2-  O319  1  0.83606433  0.18524959  0.49281633  1
  O2-  O320  1  0.83835091  0.18153316  0.83160762  1
  O2-  O321  1  0.83037596  0.68671832  0.16720564  1
  O2-  O322  1  0.83041591  0.67864323  0.50273067  1
  O2-  O323  1  0.82638011  0.68483076  0.84197548  1
  O2-  O324  1  -0.00124658  0.30829134  0.16531345  1
  O2-  O325  1  -0.00483629  0.32166548  0.49728441  1
  O2-  O326  1  0.00370818  0.32045782  0.83671180  1
  O2-  O327  1  0.00140434  0.82982094  0.17006519  1
  O2-  O328  1  -0.00408722  0.81140164  0.50212556  1
  O2-  O329  1  0.00785645  0.82113062  0.84313136  1
  O2-  O330  1  0.33441642  0.31888965  0.16756085  1
  O2-  O331  1  0.32168609  0.32425950  0.48896516  1
  O2-  O332  1  0.34645118  0.32954397  0.84582809  1
  O2-  O333  1  0.33226186  0.81436468  0.16965062  1
  O2-  O334  1  0.33895674  0.82039304  0.50392132  1
  O2-  O335  1  0.33425344  0.81180555  0.83812118  1
  O2-  O336  1  0.67118821  0.32805079  0.17175188  1
  O2-  O337  1  0.66068097  0.30530001  0.49739235  1
  O2-  O338  1  0.66282534  0.32101480  0.82927024  1
  O2-  O339  1  0.66197063  0.81397946  0.15831989  1
  O2-  O340  1  0.67271691  0.82195948  0.50900680  1
  O2-  O341  1  0.66746072  0.82096794  0.83573854  1
  O2-  O342  1  0.16840590  0.31190608  0.16326577  1
  O2-  O343  1  0.16151517  0.31685897  0.50624422  1
  O2-  O344  1  0.16914352  0.32146557  0.83088552  1
  O2-  O345  1  0.16444105  0.82160812  0.16766345  1
  O2-  O346  1  0.16994691  0.81717024  0.49568193  1
  O2-  O347  1  0.16613310  0.81961708  0.83840617  1
  O2-  O348  1  0.49947728  0.32721500  0.16666197  1
  O2-  O349  1  0.49472429  0.30702740  0.50308878  1
  O2-  O350  1  0.50458554  0.31833844  0.83711598  1
  O2-  O351  1  0.49644508  0.82696296  0.17297918  1
  O2-  O352  1  0.50457395  0.82496942  0.49919340  1
  O2-  O353  1  0.50182028  0.82566023  0.83142848  1
  O2-  O354  1  0.83461321  0.31888593  0.16692409  1
  O2-  O355  1  0.83571503  0.31943033  0.49394318  1
  O2-  O356  1  0.83725017  0.31182175  0.83486979  1
  O2-  O357  1  0.83724944  0.81153839  0.15938290  1
  O2-  O358  1  0.83107059  0.81776422  0.50518749  1
  O2-  O359  1  0.83441236  0.81626432  0.83439450  1
  O2-  O360  1  0.09646280  0.08288163  0.07920408  1
  O2-  O361  1  0.09456753  0.07792376  0.45615655  1
  O2-  O362  1  0.06188699  0.05380373  0.81244801  1
  O2-  O363  1  0.11525089  0.57538878  0.10671092  1
  O2-  O364  1  0.09417830  0.58584800  0.44609444  1
  O2-  O365  1  0.08320003  0.58298807  0.78500092  1
  O2-  O366  1  0.42909008  0.08260925  0.11112621  1
  O2-  O367  1  0.42261363  0.07957005  0.44481917  1
  O2-  O368  1  0.43491449  0.08316435  0.78521467  1
  O2-  O369  1  0.40204453  0.56595459  0.13647423  1
  O2-  O370  1  0.39774647  0.58620148  0.42399024  1
  O2-  O371  1  0.43491511  0.58480190  0.79480050  1
  O2-  O372  1  0.73872217  0.08477799  0.09551948  1
  O2-  O373  1  0.73601021  0.08391635  0.43977081  1
  O2-  O374  1  0.74781501  0.08388520  0.79248327  1
  O2-  O375  1  0.76172592  0.58004497  0.12085296  1
  O2-  O376  1  0.75184916  0.58221831  0.45963811  1
  O2-  O377  1  0.74155760  0.58536943  0.77724920  1
  O2-  O378  1  0.25751283  0.08156118  0.21847388  1
  O2-  O379  1  0.25407127  0.08004273  0.55334565  1
  O2-  O380  1  0.21927560  0.08439602  0.92135017  1
  O2-  O381  1  0.23824819  0.57937414  0.22962207  1
  O2-  O382  1  0.25691284  0.57582925  0.53407597  1
  O2-  O383  1  0.23436121  0.57743630  0.88602357  1
  O2-  O384  1  0.58209720  0.07502081  0.22447368  1
  O2-  O385  1  0.59776466  0.08561050  0.54191006  1
  O2-  O386  1  0.59966837  0.07778515  0.88136749  1
  O2-  O387  1  0.58615045  0.56028381  0.20808452  1
  O2-  O388  1  0.58561925  0.58223546  0.55768809  1
  O2-  O389  1  0.58734672  0.57648562  0.87758319  1
  O2-  O390  1  0.92239528  0.08488283  0.22282651  1
  O2-  O391  1  0.89362818  0.08212545  0.53440774  1
  O2-  O392  1  0.90889356  0.07430221  0.89026225  1
  O2-  O393  1  0.92470382  0.57877474  0.21777011  1
  O2-  O394  1  0.90683317  0.56476049  0.53902283  1
  O2-  O395  1  0.91811815  0.58223395  0.88755775  1
  O2-  O396  1  0.05589909  0.41218630  0.09478944  1
  O2-  O397  1  0.06951817  0.42040624  0.45839083  1
  O2-  O398  1  0.07073949  0.41849610  0.77536700  1
  O2-  O399  1  0.08322358  0.92271999  0.11717799  1
  O2-  O400  1  0.07473155  0.92244180  0.46201123  1
  O2-  O401  1  0.09014992  0.91411252  0.77460563  1
  O2-  O402  1  0.42081986  0.41593521  0.07449202  1
  O2-  O403  1  0.41264916  0.41352741  0.43330513  1
  O2-  O404  1  0.44596284  0.42038747  0.79157072  1
  O2-  O405  1  0.39878101  0.91831411  0.12041109  1
  O2-  O406  1  0.41775114  0.91915664  0.44518588  1
  O2-  O407  1  0.40511262  0.91859802  0.78259263  1
  O2-  O408  1  0.76471999  0.41581173  0.09844831  1
  O2-  O409  1  0.74507297  0.41682014  0.43974270  1
  O2-  O410  1  0.74108986  0.41468391  0.79070817  1
  O2-  O411  1  0.75932677  0.91990409  0.10561708  1
  O2-  O412  1  0.75305620  0.91270849  0.45334539  1
  O2-  O413  1  0.74351299  0.91811220  0.77588772  1
  O2-  O414  1  0.24074972  0.41386840  0.24552545  1
  O2-  O415  1  0.23894261  0.42248594  0.53540887  1
  O2-  O416  1  0.26221487  0.41765872  0.89632039  1
  O2-  O417  1  0.23515491  0.92413171  0.21446283  1
  O2-  O418  1  0.25629646  0.91648776  0.54568808  1
  O2-  O419  1  0.24729388  0.92301907  0.88050595  1
  O2-  O420  1  0.59611693  0.41777271  0.25352180  1
  O2-  O421  1  0.57529298  0.42240918  0.51987154  1
  O2-  O422  1  0.57812229  0.42479570  0.89075566  1
  O2-  O423  1  0.58617797  0.91803461  0.20960987  1
  O2-  O424  1  0.59595023  0.91811443  0.55749439  1
  O2-  O425  1  0.59294374  0.92131403  0.89061945  1
  O2-  O426  1  0.91000246  0.42157615  0.23009071  1
  O2-  O427  1  0.92021142  0.43025770  0.53859512  1
  O2-  O428  1  0.92440635  0.42235724  0.89370358  1
  O2-  O429  1  0.92094831  0.92950994  0.20978002  1
  O2-  O430  1  0.91241610  0.92024654  0.55680288  1
  O2-  O431  1  0.92110130  0.91576099  0.89372379  1
  O2-  O432  1  0.01270031  -0.00482931  -0.02237780  1
  O2-  O433  1  0.00503521  -0.01072123  0.32073865  1
  O2-  O434  1  -0.00603583  0.03034002  0.65700162  1
  O2-  O435  1  -0.00361238  0.51820502  0.01152846  1
  O2-  O436  1  -0.01309986  0.49600807  0.35124222  1
  O2-  O437  1  -0.01059976  0.48484864  0.66589785  1
  O2-  O438  1  0.32446990  -0.01025060  0.00329240  1
  O2-  O439  1  0.32515558  -0.01162657  0.33680152  1
  O2-  O440  1  0.35312718  0.00646971  0.64155414  1
  O2-  O441  1  0.33913420  0.50317118  -0.01109693  1
  O2-  O442  1  0.33014684  0.50100927  0.32541912  1
  O2-  O443  1  0.31864908  0.51420616  0.69763581  1
  O2-  O444  1  0.64386038  -0.00040551  0.03275657  1
  O2-  O445  1  0.64358615  -0.00399051  0.37064266  1
  O2-  O446  1  0.67130900  0.01445814  0.65842123  1
  O2-  O447  1  0.68907662  0.50701269  -0.03171547  1
  O2-  O448  1  0.67297968  0.50722389  0.33010051  1
  O2-  O449  1  0.65268992  0.49492744  0.67774541  1
  O2-  O450  1  0.16418941  -0.02319337  -0.00401389  1
  O2-  O451  1  0.16198763  -0.02058000  0.33555713  1
  O2-  O452  1  0.14850736  -0.00991305  0.64965912  1
  O2-  O453  1  0.14545651  0.49599128  -0.02499757  1
  O2-  O454  1  0.18550527  0.49700831  0.35460023  1
  O2-  O455  1  0.15818952  0.49599478  0.65085611  1
  O2-  O456  1  0.48881789  -0.01124925  -0.01337531  1
  O2-  O457  1  0.48758645  -0.00320671  0.30879962  1
  O2-  O458  1  0.51234726  -0.00273491  0.68601411  1
  O2-  O459  1  0.49834969  0.50974925  0.00645966  1
  O2-  O460  1  0.50061413  0.51089752  0.33866396  1
  O2-  O461  1  0.50626814  0.50328327  0.68076572  1
  O2-  O462  1  0.80777650  -0.00519839  -0.02443596  1
  O2-  O463  1  0.83816893  -0.01303581  0.35341738  1
  O2-  O464  1  0.81724456  -0.00126541  0.63185877  1
  O2-  O465  1  0.83667250  0.50179308  -0.01376981  1
  O2-  O466  1  0.83328733  0.50633137  0.33848335  1
  O2-  O467  1  0.82023597  0.51151977  0.65225361  1
  O2-  O468  1  0.41831800  0.75247497  0.39424506  1
  O2-  O469  1  0.92461934  0.74954889  0.94239948  1
  O2-  O470  1  0.26262167  0.25109692  0.93542001  1
  O2-  O471  1  0.74845859  0.24899463  0.71798957  1
  O2-  O472  1  0.41804595  0.24875428  0.72327469  1
  O2-  O473  1  0.25736454  0.24822586  0.27429352  1
  O2-  O474  1  0.58110157  0.75028984  0.94340601  1
  O2-  O475  1  0.25121062  0.25658755  0.60752403  1
  O2-  O476  1  0.41510937  0.25054004  0.06726608  1
  O2-  O477  1  0.25139361  0.74702685  0.61552493  1
  O2-  O478  1  0.73549153  0.75126905  0.73034384  1
  O2-  O479  1  0.58160812  0.75450398  0.26491489  1
  O2-  O480  1  0.41745695  0.74614586  0.71284267  1
  O2-  O481  1  0.90587274  0.24522167  0.61870403  1
  O2-  O482  1  0.58089100  0.74964894  0.61210141  1
  O2-  O483  1  0.07632294  0.75521941  0.06394546  1
  O2-  O484  1  0.08160377  0.25728700  0.72489671  1
  O2-  O485  1  0.43115389  0.75337369  0.07354288  1
  O2-  O486  1  0.74106558  0.25191296  0.06900189  1
  O2-  O487  1  0.75090913  0.74859820  0.39065212  1
  O2-  O488  1  0.09333793  0.74958290  0.73030626  1
  O2-  O489  1  0.40868991  0.24787491  0.38915187  1
  O2-  O490  1  0.92305287  0.74519522  0.28018331  1
  O2-  O491  1  0.08181013  0.74786540  0.37848107  1
  O2-  O492  1  0.57645562  0.25392360  0.25273661  1
