# generated using pymatgen
data_Ca108Mn108O277
_symmetry_space_group_name_H-M   'P 1'
_cell_length_a   16.03372807
_cell_length_b   22.31635952
_cell_length_c   16.39446912
_cell_angle_alpha   90.00242223
_cell_angle_beta   89.99772496
_cell_angle_gamma   90.01273921
_symmetry_Int_Tables_number   1
_chemical_formula_structural   Ca108Mn108O277
_chemical_formula_sum   'Ca108 Mn108 O277'
_cell_volume   5866.17763428
_cell_formula_units_Z   1
loop_
 _symmetry_equiv_pos_site_id
 _symmetry_equiv_pos_as_xyz
  1  'x, y, z'
loop_
 _atom_type_symbol
 _atom_type_oxidation_number
  Ca2+  2.0
  Mn3.34+  3.34
  O2-  -2.0
loop_
 _atom_site_type_symbol
 _atom_site_label
 _atom_site_symmetry_multiplicity
 _atom_site_fract_x
 _atom_site_fract_y
 _atom_site_fract_z
 _atom_site_occupancy
  Ca2+  Ca0  1  0.08263703  0.25482563  0.24338145  1
  Ca2+  Ca1  1  0.04853683  0.24636948  0.57281009  1
  Ca2+  Ca2  1  0.10113450  0.24916852  0.92469088  1
  Ca2+  Ca3  1  0.08124600  0.74840187  0.26662208  1
  Ca2+  Ca4  1  0.05990114  0.75581791  0.58546030  1
  Ca2+  Ca5  1  0.05971326  0.75146178  0.91783482  1
  Ca2+  Ca6  1  0.41525328  0.24767897  0.24681275  1
  Ca2+  Ca7  1  0.42095544  0.24879840  0.56978256  1
  Ca2+  Ca8  1  0.41977751  0.24855441  0.92769271  1
  Ca2+  Ca9  1  0.42265288  0.75141107  0.25583124  1
  Ca2+  Ca10  1  0.42598120  0.75491756  0.56942413  1
  Ca2+  Ca11  1  0.41169179  0.76498413  0.91616037  1
  Ca2+  Ca12  1  0.75075634  0.25894578  0.26368519  1
  Ca2+  Ca13  1  0.75765581  0.24592895  0.58751173  1
  Ca2+  Ca14  1  0.74672818  0.24222704  0.90913537  1
  Ca2+  Ca15  1  0.74581960  0.74459154  0.23013907  1
  Ca2+  Ca16  1  0.76213181  0.76694183  0.57817636  1
  Ca2+  Ca17  1  0.77264591  0.75060741  0.92599453  1
  Ca2+  Ca18  1  0.25237010  0.25148922  0.07192745  1
  Ca2+  Ca19  1  0.24901346  0.25849498  0.41567333  1
  Ca2+  Ca20  1  0.25254612  0.25333114  0.77598409  1
  Ca2+  Ca21  1  0.24771033  0.75586652  0.09235012  1
  Ca2+  Ca22  1  0.24667483  0.74232973  0.40656433  1
  Ca2+  Ca23  1  0.22263478  0.73912491  0.75032737  1
  Ca2+  Ca24  1  0.58011314  0.25593706  0.06714615  1
  Ca2+  Ca25  1  0.60685931  0.24578332  0.41895557  1
  Ca2+  Ca26  1  0.60774143  0.24010399  0.77205094  1
  Ca2+  Ca27  1  0.59639919  0.74973101  0.10297574  1
  Ca2+  Ca28  1  0.57871477  0.74814545  0.39403914  1
  Ca2+  Ca29  1  0.58682536  0.77145491  0.74749531  1
  Ca2+  Ca30  1  0.92685212  0.25229072  0.07084890  1
  Ca2+  Ca31  1  0.88181278  0.23313625  0.43313470  1
  Ca2+  Ca32  1  0.88949775  0.23282860  0.74314386  1
  Ca2+  Ca33  1  0.89478865  0.73565143  0.07165036  1
  Ca2+  Ca34  1  0.92657818  0.74463519  0.42626302  1
  Ca2+  Ca35  1  0.92416963  0.75054727  0.74436398  1
  Ca2+  Ca36  1  0.62258645  0.60410903  0.11752251  1
  Ca2+  Ca37  1  0.04942768  0.08837992  0.93329046  1
  Ca2+  Ca38  1  0.24345413  0.10161725  0.77004071  1
  Ca2+  Ca39  1  0.76901901  0.09455338  0.27571419  1
  Ca2+  Ca40  1  0.96201166  0.60847718  0.40952136  1
  Ca2+  Ca41  1  0.42453485  0.09639161  0.54383767  1
  Ca2+  Ca42  1  0.40813970  0.08436756  0.28088737  1
  Ca2+  Ca43  1  0.78286170  0.58321730  0.57566577  1
  Ca2+  Ca44  1  0.40417010  0.58883794  0.56580872  1
  Ca2+  Ca45  1  0.63211708  0.60261879  0.11436051  1
  Ca2+  Ca46  1  0.06670414  0.61920593  0.58043268  1
  Ca2+  Ca47  1  0.55396261  0.10561903  0.04960552  1
  Ca2+  Ca48  1  0.62660125  0.09780349  0.78308152  1
  Ca2+  Ca49  1  0.79488452  0.58549348  0.57440133  1
  Ca2+  Ca50  1  0.39440437  0.56773036  0.91642742  1
  Ca2+  Ca51  1  0.23030577  0.10211366  0.08897731  1
  Ca2+  Ca52  1  0.25962065  0.08702231  0.40258238  1
  Ca2+  Ca53  1  0.78082169  0.58411627  0.96641960  1
  Ca2+  Ca54  1  0.41086365  0.11983224  0.91804636  1
  Ca2+  Ca55  1  0.91130592  0.08182453  0.05389767  1
  Ca2+  Ca56  1  0.94185779  0.61606539  0.76008565  1
  Ca2+  Ca57  1  0.77830617  0.09331038  0.60312180  1
  Ca2+  Ca58  1  0.55665597  0.09994679  0.05579666  1
  Ca2+  Ca59  1  0.06962266  0.60817290  0.89551814  1
  Ca2+  Ca60  1  0.05958472  0.08904467  0.93219487  1
  Ca2+  Ca61  1  0.78255796  0.59143084  0.96686091  1
  Ca2+  Ca62  1  0.39953401  0.07938558  0.28130647  1
  Ca2+  Ca63  1  0.75966782  0.09729690  0.28354510  1
  Ca2+  Ca64  1  0.22641883  0.59068066  0.39314203  1
  Ca2+  Ca65  1  0.23863287  0.10420757  0.08355275  1
  Ca2+  Ca66  1  0.25622996  0.10192946  0.76934235  1
  Ca2+  Ca67  1  0.06250064  0.62483258  0.58568455  1
  Ca2+  Ca68  1  0.41640006  0.58613987  0.56639686  1
  Ca2+  Ca69  1  0.39465625  0.58000226  0.27863323  1
  Ca2+  Ca70  1  0.24912980  0.08702373  0.40253461  1
  Ca2+  Ca71  1  0.56728754  0.58590405  0.39055058  1
  Ca2+  Ca72  1  0.07301503  0.39865441  0.58048484  1
  Ca2+  Ca73  1  0.27176850  0.92949396  0.36880235  1
  Ca2+  Ca74  1  0.77504190  0.91997591  0.91307198  1
  Ca2+  Ca75  1  0.21889618  0.91095442  0.10556075  1
  Ca2+  Ca76  1  0.91753689  0.90001280  0.42264712  1
  Ca2+  Ca77  1  0.41416650  0.40814956  0.57561355  1
  Ca2+  Ca78  1  0.24512678  0.40668398  0.76501111  1
  Ca2+  Ca79  1  0.59664700  0.40817941  0.41533566  1
  Ca2+  Ca80  1  0.23136941  0.89618612  0.75062415  1
  Ca2+  Ca81  1  0.25762232  0.40652462  0.76482736  1
  Ca2+  Ca82  1  0.58518721  0.90483984  0.08991209  1
  Ca2+  Ca83  1  0.90223114  0.40585054  0.41495884  1
  Ca2+  Ca84  1  0.74248836  0.41031848  0.93344398  1
  Ca2+  Ca85  1  0.58330966  0.40383070  0.75917377  1
  Ca2+  Ca86  1  0.91515720  0.40200125  0.07964613  1
  Ca2+  Ca87  1  0.93149550  0.89949544  0.42164736  1
  Ca2+  Ca88  1  0.59620254  0.40429723  0.75918437  1
  Ca2+  Ca89  1  0.42067032  0.90612118  0.92087694  1
  Ca2+  Ca90  1  0.10592815  0.40948669  0.25062969  1
  Ca2+  Ca91  1  0.26489813  0.41767584  0.39328452  1
  Ca2+  Ca92  1  0.78554964  0.92096483  0.90893374  1
  Ca2+  Ca93  1  0.59612860  0.90522455  0.09117760  1
  Ca2+  Ca94  1  0.92248003  0.39752186  0.74506105  1
  Ca2+  Ca95  1  0.94953416  0.92808407  0.04408623  1
  Ca2+  Ca96  1  0.10356256  0.40776515  0.92640744  1
  Ca2+  Ca97  1  0.24398942  0.89639550  0.74948453  1
  Ca2+  Ca98  1  0.43431826  0.90984513  0.57033146  1
  Ca2+  Ca99  1  0.75542619  0.40909512  0.57907731  1
  Ca2+  Ca100  1  0.75366114  0.40644197  0.24901408  1
  Ca2+  Ca101  1  0.40488468  0.41584993  0.27034199  1
  Ca2+  Ca102  1  0.27741244  0.92336910  0.36631682  1
  Ca2+  Ca103  1  0.42177297  0.91020054  0.57123107  1
  Ca2+  Ca104  1  0.42643474  0.41064939  0.57571241  1
  Ca2+  Ca105  1  0.60964066  0.92160239  0.74657288  1
  Ca2+  Ca106  1  0.57507141  0.91026898  0.40244224  1
  Ca2+  Ca107  1  0.06662882  0.91101662  0.60276382  1
  Mn3.34+  Mn108  1  0.08807451  0.33450903  0.08557406  1
  Mn3.34+  Mn109  1  0.08155160  0.33447497  0.41446094  1
  Mn3.34+  Mn110  1  0.08026874  0.33023283  0.75319460  1
  Mn3.34+  Mn111  1  0.07477607  0.83535608  0.09165148  1
  Mn3.34+  Mn112  1  0.09246936  0.83414975  0.42270866  1
  Mn3.34+  Mn113  1  0.07055700  0.84024978  0.75799792  1
  Mn3.34+  Mn114  1  0.41939264  0.33568077  0.08894230  1
  Mn3.34+  Mn115  1  0.42008025  0.33277624  0.41430729  1
  Mn3.34+  Mn116  1  0.42022912  0.32957630  0.75219983  1
  Mn3.34+  Mn117  1  0.41193089  0.83110013  0.08494117  1
  Mn3.34+  Mn118  1  0.41624102  0.83300733  0.41264372  1
  Mn3.34+  Mn119  1  0.41910692  0.83453310  0.74891999  1
  Mn3.34+  Mn120  1  0.74881647  0.33683639  0.08732285  1
  Mn3.34+  Mn121  1  0.74912630  0.33629967  0.41682584  1
  Mn3.34+  Mn122  1  0.75358808  0.33310719  0.75171166  1
  Mn3.34+  Mn123  1  0.75801215  0.83618568  0.08593219  1
  Mn3.34+  Mn124  1  0.74926913  0.83474374  0.40972917  1
  Mn3.34+  Mn125  1  0.75492563  0.84037209  0.75015632  1
  Mn3.34+  Mn126  1  0.25521308  0.33360591  0.24268843  1
  Mn3.34+  Mn127  1  0.24585321  0.33392497  0.58038292  1
  Mn3.34+  Mn128  1  0.25818890  0.33336843  0.92850022  1
  Mn3.34+  Mn129  1  0.24710378  0.83043598  0.24602496  1
  Mn3.34+  Mn130  1  0.24535701  0.82500738  0.57842973  1
  Mn3.34+  Mn131  1  0.24026970  0.82939649  0.92361077  1
  Mn3.34+  Mn132  1  0.58166003  0.33090129  0.24480506  1
  Mn3.34+  Mn133  1  0.58703892  0.33076387  0.58031858  1
  Mn3.34+  Mn134  1  0.58320412  0.33068289  0.92438245  1
  Mn3.34+  Mn135  1  0.58254880  0.83321838  0.25130312  1
  Mn3.34+  Mn136  1  0.59519836  0.83928618  0.57826267  1
  Mn3.34+  Mn137  1  0.58795408  0.83568728  0.91443895  1
  Mn3.34+  Mn138  1  0.91909575  0.33403391  0.24566812  1
  Mn3.34+  Mn139  1  0.91219738  0.33117899  0.58011813  1
  Mn3.34+  Mn140  1  0.92011690  0.32650601  0.91241597  1
  Mn3.34+  Mn141  1  0.91623248  0.83064359  0.24283638  1
  Mn3.34+  Mn142  1  0.91097264  0.83444718  0.58896345  1
  Mn3.34+  Mn143  1  0.92265648  0.83414470  0.91602905  1
  Mn3.34+  Mn144  1  0.57005078  0.66170549  0.91106294  1
  Mn3.34+  Mn145  1  0.25204660  0.66412947  0.91954090  1
  Mn3.34+  Mn146  1  0.76071289  0.16523838  0.07907849  1
  Mn3.34+  Mn147  1  0.58356202  0.66640819  0.58408291  1
  Mn3.34+  Mn148  1  0.06411634  0.15642833  0.75051300  1
  Mn3.34+  Mn149  1  0.58463048  0.16151367  0.24804738  1
  Mn3.34+  Mn150  1  0.91583158  0.67290038  0.24746136  1
  Mn3.34+  Mn151  1  0.58298347  0.66744244  0.91522460  1
  Mn3.34+  Mn152  1  0.07357058  0.65673575  0.09564418  1
  Mn3.34+  Mn153  1  0.59115896  0.15966284  0.57885854  1
  Mn3.34+  Mn154  1  0.59351028  0.66072346  0.58108749  1
  Mn3.34+  Mn155  1  0.40469221  0.65591555  0.08855250  1
  Mn3.34+  Mn156  1  0.57610848  0.16791778  0.24876262  1
  Mn3.34+  Mn157  1  0.40871666  0.66239891  0.74842714  1
  Mn3.34+  Mn158  1  0.24603679  0.67581624  0.57426846  1
  Mn3.34+  Mn159  1  0.41419519  0.66786968  0.41267999  1
  Mn3.34+  Mn160  1  0.24721137  0.16966059  0.24526367  1
  Mn3.34+  Mn161  1  0.07677457  0.16638361  0.41182312  1
  Mn3.34+  Mn162  1  0.42030828  0.66670380  0.74688521  1
  Mn3.34+  Mn163  1  0.74441583  0.65705549  0.40876894  1
  Mn3.34+  Mn164  1  0.42249464  0.17221632  0.74775138  1
  Mn3.34+  Mn165  1  0.74268094  0.66025956  0.75530582  1
  Mn3.34+  Mn166  1  0.24143542  0.65963897  0.91895984  1
  Mn3.34+  Mn167  1  0.08637243  0.65279344  0.09718948  1
  Mn3.34+  Mn168  1  0.07327693  0.16248559  0.74998767  1
  Mn3.34+  Mn169  1  0.06626057  0.16162752  0.41092548  1
  Mn3.34+  Mn170  1  0.75761840  0.66409156  0.40737205  1
  Mn3.34+  Mn171  1  0.25264823  0.17321699  0.58315742  1
  Mn3.34+  Mn172  1  0.24235375  0.16765343  0.58208879  1
  Mn3.34+  Mn173  1  0.24300267  0.66505793  0.25230191  1
  Mn3.34+  Mn174  1  0.07646313  0.17016448  0.08742423  1
  Mn3.34+  Mn175  1  0.74996318  0.16978247  0.07891187  1
  Mn3.34+  Mn176  1  0.58175899  0.16511330  0.58042729  1
  Mn3.34+  Mn177  1  0.41811744  0.66172666  0.08561175  1
  Mn3.34+  Mn178  1  0.92008205  0.17057331  0.24016080  1
  Mn3.34+  Mn179  1  0.75568022  0.66715644  0.75190749  1
  Mn3.34+  Mn180  1  0.08417625  0.49618322  0.40851954  1
  Mn3.34+  Mn181  1  0.40171487  -0.00437367  0.09924164  1
  Mn3.34+  Mn182  1  0.09781692  0.49477461  0.06703509  1
  Mn3.34+  Mn183  1  0.23843608  0.50358253  0.57978221  1
  Mn3.34+  Mn184  1  0.07596820  0.00065368  0.42989872  1
  Mn3.34+  Mn185  1  0.92857586  0.49619626  0.91060830  1
  Mn3.34+  Mn186  1  0.93136051  0.49501163  0.58192798  1
  Mn3.34+  Mn187  1  0.93751575  -0.00543856  0.24632517  1
  Mn3.34+  Mn188  1  0.40602188  0.49545599  0.07765909  1
  Mn3.34+  Mn189  1  0.75607430  0.50180053  0.74779207  1
  Mn3.34+  Mn190  1  0.91629135  0.50801532  0.24555410  1
  Mn3.34+  Mn191  1  0.42773631  0.50352612  0.73925416  1
  Mn3.34+  Mn192  1  0.57641352  0.49332459  0.24762334  1
  Mn3.34+  Mn193  1  0.22550913  0.50024457  0.57923652  1
  Mn3.34+  Mn194  1  0.24223384  -0.00211435  0.92491852  1
  Mn3.34+  Mn195  1  0.08114588  0.49937172  0.75462928  1
  Mn3.34+  Mn196  1  0.41305833  0.00009969  0.09807636  1
  Mn3.34+  Mn197  1  0.60725701  0.00079350  0.59945992  1
  Mn3.34+  Mn198  1  0.90100176  0.51049473  0.24621426  1
  Mn3.34+  Mn199  1  0.58590651  0.00110436  0.25499037  1
  Mn3.34+  Mn200  1  0.22489911  0.00407538  0.59105995  1
  Mn3.34+  Mn201  1  0.41429174  -0.00034799  0.74234009  1
  Mn3.34+  Mn202  1  0.92031589  -0.00001962  0.60591254  1
  Mn3.34+  Mn203  1  0.94280131  0.49343816  0.91883631  1
  Mn3.34+  Mn204  1  0.23474577  -0.00160635  0.58653423  1
  Mn3.34+  Mn205  1  0.59177914  0.49336124  0.25342599  1
  Mn3.34+  Mn206  1  0.42880718  0.00596565  0.74261446  1
  Mn3.34+  Mn207  1  0.58345639  0.00252218  0.92205732  1
  Mn3.34+  Mn208  1  0.76064566  0.00703180  0.42973728  1
  Mn3.34+  Mn209  1  0.39735883  0.48909170  0.07490200  1
  Mn3.34+  Mn210  1  0.74808471  0.00107284  0.42987532  1
  Mn3.34+  Mn211  1  0.58112970  0.50316732  0.92129632  1
  Mn3.34+  Mn212  1  0.74974254  0.00178290  0.08505161  1
  Mn3.34+  Mn213  1  0.92650437  -0.00215644  0.24652657  1
  Mn3.34+  Mn214  1  0.23040721  -0.00621926  0.92803986  1
  Mn3.34+  Mn215  1  0.59310522  0.50043360  0.57667884  1
  O2-  O216  1  -0.00472319  0.16330285  0.00952008  1
  O2-  O217  1  -0.00299104  0.18181880  0.32295720  1
  O2-  O218  1  -0.00386214  0.17787000  0.66687618  1
  O2-  O219  1  0.00956795  0.66322649  0.00503438  1
  O2-  O220  1  -0.00289970  0.68028197  0.32995083  1
  O2-  O221  1  0.00034980  0.67673172  0.66833035  1
  O2-  O222  1  0.32650199  0.14781314  0.01775959  1
  O2-  O223  1  0.32043533  0.16502428  0.33381223  1
  O2-  O224  1  0.33217444  0.15425217  0.66858499  1
  O2-  O225  1  0.33331897  0.64166802  -0.00138124  1
  O2-  O226  1  0.32462424  0.66071102  0.34175184  1
  O2-  O227  1  0.33156778  0.65958219  0.65611238  1
  O2-  O228  1  0.66875755  0.14730644  0.00580940  1
  O2-  O229  1  0.65857791  0.15085843  0.33233490  1
  O2-  O230  1  0.65975498  0.14695128  0.66534482  1
  O2-  O231  1  0.66083695  0.64537672  -0.00752326  1
  O2-  O232  1  0.65836306  0.65877266  0.34083403  1
  O2-  O233  1  0.67769143  0.63495078  0.66375403  1
  O2-  O234  1  0.15068865  0.15375875  -0.00335480  1
  O2-  O235  1  0.16288514  0.15572858  0.33411439  1
  O2-  O236  1  0.15829511  0.14608625  0.67147178  1
  O2-  O237  1  0.16635091  0.67135863  0.01280855  1
  O2-  O238  1  0.16499228  0.67092099  0.32952227  1
  O2-  O239  1  0.16190246  0.68492526  0.65147148  1
  O2-  O240  1  0.49244910  0.17597630  0.00343025  1
  O2-  O241  1  0.48605145  0.16075774  0.32114836  1
  O2-  O242  1  0.49200168  0.15564215  0.65474083  1
  O2-  O243  1  0.49163146  0.63674654  0.00123451  1
  O2-  O244  1  0.48862276  0.65867296  0.33397865  1
  O2-  O245  1  0.49634967  0.63555690  0.66133795  1
  O2-  O246  1  0.83907290  0.17530391  -0.00169323  1
  O2-  O247  1  0.83436916  0.17465064  0.31692204  1
  O2-  O248  1  0.82990284  0.16751048  0.66334651  1
  O2-  O249  1  0.82585928  0.67229582  -0.00740494  1
  O2-  O250  1  0.83872293  0.64096831  0.33427063  1
  O2-  O251  1  0.83348878  0.64435341  0.67211505  1
  O2-  O252  1  0.00348391  0.33917649  -0.00255207  1
  O2-  O253  1  0.00660252  0.34497357  0.32414177  1
  O2-  O254  1  0.00199865  0.33573781  0.66326861  1
  O2-  O255  1  0.00105896  0.83228535  0.00499009  1
  O2-  O256  1  0.00146734  0.83372581  0.34241069  1
  O2-  O257  1  0.00233267  0.83339124  0.66495482  1
  O2-  O258  1  0.34028878  0.32359507  0.00584791  1
  O2-  O259  1  0.33586081  0.31804991  0.33071047  1
  O2-  O260  1  0.33467600  0.34721070  0.66368638  1
  O2-  O261  1  0.33230791  0.84909776  -0.00429947  1
  O2-  O262  1  0.33502249  0.83918250  0.33193004  1
  O2-  O263  1  0.33321033  0.85428119  0.65976971  1
  O2-  O264  1  0.66331623  0.34862225  0.00596041  1
  O2-  O265  1  0.66781475  0.34909577  0.33170499  1
  O2-  O266  1  0.66666923  0.35465367  0.66647471  1
  O2-  O267  1  0.67410584  0.86078045  -0.00646803  1
  O2-  O268  1  0.65880198  0.84197609  0.33755999  1
  O2-  O269  1  0.66736961  0.84796802  0.66984645  1
  O2-  O270  1  0.17055162  0.34220960  0.00424739  1
  O2-  O271  1  0.17524808  0.33574146  0.33372953  1
  O2-  O272  1  0.16789594  0.35502570  0.67335618  1
  O2-  O273  1  0.16313621  0.82312294  0.01444724  1
  O2-  O274  1  0.17731190  0.83588378  0.34528732  1
  O2-  O275  1  0.17004684  0.82044528  0.67176049  1
  O2-  O276  1  0.49574099  0.32304980  -0.00083349  1
  O2-  O277  1  0.49898202  0.34310412  0.33029544  1
  O2-  O278  1  0.49866475  0.34560413  0.66157313  1
  O2-  O279  1  0.50447040  0.85276377  0.00180463  1
  O2-  O280  1  0.49835468  0.84388950  0.33332947  1
  O2-  O281  1  0.50269497  0.85606269  0.66548916  1
  O2-  O282  1  0.83689710  0.33373181  -0.00181021  1
  O2-  O283  1  0.83408995  0.34138051  0.32953087  1
  O2-  O284  1  0.83252472  0.35065206  0.66558364  1
  O2-  O285  1  0.83516996  0.85107211  -0.00051597  1
  O2-  O286  1  0.83940960  0.85763401  0.33023076  1
  O2-  O287  1  0.83367465  0.84257592  0.66897626  1
  O2-  O288  1  -0.00211086  0.19403914  0.16489505  1
  O2-  O289  1  -0.01031855  0.17433187  0.48999957  1
  O2-  O290  1  -0.00299996  0.17674089  0.83729498  1
  O2-  O291  1  -0.00004813  0.69236833  0.16548469  1
  O2-  O292  1  0.00771829  0.68164137  0.49686480  1
  O2-  O293  1  0.00495591  0.68781343  0.82866456  1
  O2-  O294  1  0.32756709  0.19007965  0.17600173  1
  O2-  O295  1  0.33428678  0.18610511  0.49914499  1
  O2-  O296  1  0.33636980  0.18241463  0.82347660  1
  O2-  O297  1  0.33530567  0.68157832  0.17119192  1
  O2-  O298  1  0.34014301  0.68510483  0.50510892  1
  O2-  O299  1  0.33271549  0.68700743  0.83401767  1
  O2-  O300  1  0.67562665  0.17386725  0.17239983  1
  O2-  O301  1  0.67289125  0.17983660  0.50814416  1
  O2-  O302  1  0.68656596  0.17302888  0.83714026  1
  O2-  O303  1  0.67006739  0.68163489  0.16238854  1
  O2-  O304  1  0.67523380  0.68596045  0.49759176  1
  O2-  O305  1  0.66263258  0.69003548  0.82779863  1
  O2-  O306  1  0.16969752  0.18601919  0.16232134  1
  O2-  O307  1  0.16334410  0.17979944  0.49578185  1
  O2-  O308  1  0.16208677  0.18435596  0.81950433  1
  O2-  O309  1  0.16348813  0.68612323  0.16786395  1
  O2-  O310  1  0.17055928  0.67443827  0.49512204  1
  O2-  O311  1  0.15890106  0.68498956  0.84646696  1
  O2-  O312  1  0.51084671  0.18147460  0.15927283  1
  O2-  O313  1  0.50570499  0.18299686  0.49919788  1
  O2-  O314  1  0.49868350  0.18622979  0.82272501  1
  O2-  O315  1  0.50537734  0.67217152  0.15524790  1
  O2-  O316  1  0.49658716  0.68002081  0.50153182  1
  O2-  O317  1  0.49738780  0.69228075  0.83396931  1
  O2-  O318  1  0.83349504  0.18766347  0.16184746  1
  O2-  O319  1  0.82650484  0.17086620  0.52527276  1
  O2-  O320  1  0.81814352  0.16876005  0.82946728  1
  O2-  O321  1  0.83712966  0.67910562  0.17251747  1
  O2-  O322  1  0.83046927  0.66748900  0.49500028  1
  O2-  O323  1  0.83585501  0.68455997  0.82531774  1
  O2-  O324  1  -0.00102046  0.31929646  0.16200693  1
  O2-  O325  1  -0.00455170  0.32276580  0.49689696  1
  O2-  O326  1  0.00002450  0.30217516  0.82910910  1
  O2-  O327  1  0.00157989  0.80651216  0.16884219  1
  O2-  O328  1  -0.00010248  0.82776041  0.50100384  1
  O2-  O329  1  -0.00608942  0.81624353  0.82971488  1
  O2-  O330  1  0.33448983  0.31011112  0.16623439  1
  O2-  O331  1  0.33896042  0.31570195  0.49925015  1
  O2-  O332  1  0.33160905  0.32527203  0.82821612  1
  O2-  O333  1  0.32928583  0.81997728  0.16297563  1
  O2-  O334  1  0.33762997  0.82281543  0.50535002  1
  O2-  O335  1  0.32526932  0.82462722  0.82247031  1
  O2-  O336  1  0.67474686  0.32387509  0.17638021  1
  O2-  O337  1  0.66724930  0.32336589  0.50105358  1
  O2-  O338  1  0.66682781  0.32800396  0.83061844  1
  O2-  O339  1  0.66328482  0.82974343  0.16042906  1
  O2-  O340  1  0.66661566  0.81525095  0.49375838  1
  O2-  O341  1  0.66883828  0.82193880  0.83357731  1
  O2-  O342  1  0.16512586  0.32082451  0.17309322  1
  O2-  O343  1  0.16141702  0.32470165  0.50418597  1
  O2-  O344  1  0.16708072  0.32220762  0.83051548  1
  O2-  O345  1  0.16258028  0.81808107  0.16929739  1
  O2-  O346  1  0.16516134  0.79921835  0.50289477  1
  O2-  O347  1  0.16196338  0.81751773  0.83096265  1
  O2-  O348  1  0.50189919  0.30675433  0.16654139  1
  O2-  O349  1  0.50085616  0.31401937  0.49798015  1
  O2-  O350  1  0.51191770  0.32122992  0.82261595  1
  O2-  O351  1  0.50807015  0.82552177  0.15530881  1
  O2-  O352  1  0.49711171  0.83089085  0.50114037  1
  O2-  O353  1  0.49688193  0.82289849  0.83858049  1
  O2-  O354  1  0.83710063  0.31109846  0.16778922  1
  O2-  O355  1  0.83062503  0.32526707  0.49924298  1
  O2-  O356  1  0.83617929  0.31640561  0.83057886  1
  O2-  O357  1  0.83649009  0.81691104  0.16172020  1
  O2-  O358  1  0.84213454  0.82944801  0.49020849  1
  O2-  O359  1  0.82707224  0.82859880  0.84224490  1
  O2-  O360  1  0.09037080  0.09159734  0.11103763  1
  O2-  O361  1  0.09733799  0.08260460  0.44243102  1
  O2-  O362  1  0.10322129  0.07950020  0.80047993  1
  O2-  O363  1  0.09211063  0.57001546  0.11566699  1
  O2-  O364  1  0.09259233  0.56625076  0.46738529  1
  O2-  O365  1  0.07335128  0.57822047  0.76267204  1
  O2-  O366  1  0.43141857  0.07676555  0.13988669  1
  O2-  O367  1  0.38604740  0.07582462  0.42541298  1
  O2-  O368  1  0.39768302  0.08217148  0.78295074  1
  O2-  O369  1  0.41299866  0.57236842  0.13425371  1
  O2-  O370  1  0.41417421  0.58389716  0.43356627  1
  O2-  O371  1  0.41129051  0.58133874  0.78625545  1
  O2-  O372  1  0.76673525  0.08205940  0.12323310  1
  O2-  O373  1  0.76276667  0.08721979  0.42829642  1
  O2-  O374  1  0.76879245  0.08804385  0.75690978  1
  O2-  O375  1  0.74671646  0.56750567  0.09331835  1
  O2-  O376  1  0.73879625  0.57869095  0.44885931  1
  O2-  O377  1  0.75988264  0.58288175  0.80355171  1
  O2-  O378  1  0.26708757  0.08168947  0.21800787  1
  O2-  O379  1  0.25606390  0.08023430  0.54490615  1
  O2-  O380  1  0.25584876  0.07894387  0.89636865  1
  O2-  O381  1  0.25354312  0.58611479  0.24786244  1
  O2-  O382  1  0.26436908  0.58063419  0.54323197  1
  O2-  O383  1  0.24412251  0.58354181  0.88064832  1
  O2-  O384  1  0.59342835  0.07782654  0.19877215  1
  O2-  O385  1  0.57090169  0.07736941  0.54850580  1
  O2-  O386  1  0.55405087  0.08119436  0.91053638  1
  O2-  O387  1  0.58004817  0.57622859  0.23839815  1
  O2-  O388  1  0.56615097  0.58016326  0.53176961  1
  O2-  O389  1  0.57296679  0.58238630  0.87609421  1
  O2-  O390  1  0.90411011  0.08065197  0.21601280  1
  O2-  O391  1  0.90647678  0.04982559  0.53118289  1
  O2-  O392  1  0.92811909  0.06922217  0.91678547  1
  O2-  O393  1  0.93666875  0.58896386  0.22399424  1
  O2-  O394  1  0.92828227  0.57562191  0.54751740  1
  O2-  O395  1  0.92484256  0.57785478  0.89369251  1
  O2-  O396  1  0.08240584  0.41929875  0.11483833  1
  O2-  O397  1  0.07649083  0.41846610  0.44130783  1
  O2-  O398  1  0.08957512  0.41999056  0.78867958  1
  O2-  O399  1  0.08048756  0.91334792  0.10171235  1
  O2-  O400  1  0.07794283  0.92179224  0.46062643  1
  O2-  O401  1  0.10383546  0.91918465  0.74405232  1
  O2-  O402  1  0.41709253  0.41848171  0.13409021  1
  O2-  O403  1  0.41094246  0.41897494  0.44293540  1
  O2-  O404  1  0.41960676  0.42075939  0.76651699  1
  O2-  O405  1  0.41416954  0.91400471  0.11269358  1
  O2-  O406  1  0.40057181  0.91962541  0.43934817  1
  O2-  O407  1  0.41687769  0.92330536  0.78753386  1
  O2-  O408  1  0.77196400  0.41396066  0.10858169  1
  O2-  O409  1  0.75065150  0.41736855  0.44396413  1
  O2-  O410  1  0.74085632  0.42005723  0.78761552  1
  O2-  O411  1  0.73348881  0.92313353  0.11034630  1
  O2-  O412  1  0.75302197  0.92084656  0.44459783  1
  O2-  O413  1  0.74590080  0.92033206  0.78102285  1
  O2-  O414  1  0.25853138  0.41282241  0.24389785  1
  O2-  O415  1  0.26570973  0.42120563  0.54175759  1
  O2-  O416  1  0.24317378  0.41517983  0.89348992  1
  O2-  O417  1  0.24319635  0.91576911  0.23678137  1
  O2-  O418  1  0.22061727  0.91629984  0.57117379  1
  O2-  O419  1  0.24501896  0.91702980  0.88154791  1
  O2-  O420  1  0.57558298  0.41395643  0.21969352  1
  O2-  O421  1  0.56588430  0.41597690  0.54878654  1
  O2-  O422  1  0.58662536  0.42175778  0.89285445  1
  O2-  O423  1  0.58305394  0.92134596  0.22655088  1
  O2-  O424  1  0.56951786  0.93094190  0.53581366  1
  O2-  O425  1  0.58124564  0.92451102  0.88351866  1
  O2-  O426  1  0.91862006  0.42679601  0.21331637  1
  O2-  O427  1  0.91989014  0.41595941  0.55471239  1
  O2-  O428  1  0.93303156  0.41491033  0.87924645  1
  O2-  O429  1  0.93208714  0.91479251  0.20697375  1
  O2-  O430  1  0.92497533  0.92767847  0.55634698  1
  O2-  O431  1  0.91748303  0.91776262  0.90411924  1
  O2-  O432  1  0.00450542  0.01473753  0.00602652  1
  O2-  O433  1  -0.01299234  -0.01488221  0.35507889  1
  O2-  O434  1  0.01487153  0.00367704  0.64814307  1
  O2-  O435  1  -0.01733135  0.48814321  0.02455295  1
  O2-  O436  1  0.00104789  0.50060005  0.32657576  1
  O2-  O437  1  0.00616108  0.48632595  0.66707885  1
  O2-  O438  1  0.34033640  -0.00779179  -0.00469719  1
  O2-  O439  1  0.32109834  0.01214336  0.32893776  1
  O2-  O440  1  0.34980155  -0.00401183  0.63442169  1
  O2-  O441  1  0.32529648  0.50510675  -0.00859574  1
  O2-  O442  1  0.32922050  0.49733788  0.33117234  1
  O2-  O443  1  0.33254207  0.50205081  0.65620380  1
  O2-  O444  1  0.64561371  0.00857684  0.03078162  1
  O2-  O445  1  0.67035054  0.01209977  0.33780781  1
  O2-  O446  1  0.64821997  0.01581861  0.70170023  1
  O2-  O447  1  0.67649539  0.51161970  -0.03257277  1
  O2-  O448  1  0.64680803  0.49400748  0.34968919  1
  O2-  O449  1  0.65801559  0.48958513  0.67469053  1
  O2-  O450  1  0.18366128  0.01222282  0.03110283  1
  O2-  O451  1  0.18499887  -0.00049292  0.38757155  1
  O2-  O452  1  0.20957977  0.01118444  0.70749284  1
  O2-  O453  1  0.12978968  0.50620762  -0.03473590  1
  O2-  O454  1  0.17916762  0.49391029  0.36061149  1
  O2-  O455  1  0.17406922  0.48310797  0.67921093  1
  O2-  O456  1  0.49860889  -0.00258144  0.01491798  1
  O2-  O457  1  0.48809478  0.00416464  0.30362748  1
  O2-  O458  1  0.49880080  -0.01396021  0.65399731  1
  O2-  O459  1  0.49566838  0.50768482  0.00128026  1
  O2-  O460  1  0.48479009  0.49780393  0.31202655  1
  O2-  O461  1  0.47686868  0.50162539  0.62161795  1
  O2-  O462  1  0.83021448  -0.01024438  0.01029807  1
  O2-  O463  1  0.82869540  0.00512703  0.32298738  1
  O2-  O464  1  0.83284948  0.00178819  0.65804957  1
  O2-  O465  1  0.82724719  0.48904760  -0.03561707  1
  O2-  O466  1  0.83155885  0.48586768  0.32590874  1
  O2-  O467  1  0.82468906  0.50165115  0.64131282  1
  O2-  O468  1  0.23589285  0.25272829  0.62288604  1
  O2-  O469  1  0.72792565  0.25126211  0.05964506  1
  O2-  O470  1  0.42478986  0.74895394  0.71384173  1
  O2-  O471  1  0.57747702  0.74915015  0.61392162  1
  O2-  O472  1  0.76192226  0.74548357  0.38879081  1
  O2-  O473  1  0.58981003  0.24818456  0.61725839  1
  O2-  O474  1  0.74194778  0.76032212  0.06119564  1
  O2-  O475  1  0.90591888  0.25368403  0.59373828  1
  O2-  O476  1  0.59713173  0.25045757  0.27878033  1
  O2-  O477  1  0.74295185  0.74731728  0.71706833  1
  O2-  O478  1  0.74552023  0.25631787  0.72577376  1
  O2-  O479  1  0.41093673  0.74663990  0.05354108  1
  O2-  O480  1  0.60125413  0.25301693  0.92740384  1
  O2-  O481  1  0.09091008  0.25333100  0.06105815  1
  O2-  O482  1  0.91568120  0.75492615  0.93190320  1
  O2-  O483  1  0.57849147  0.75497162  0.25847884  1
  O2-  O484  1  0.26023449  0.75046189  0.26651207  1
  O2-  O485  1  0.09275185  0.25013838  0.40131064  1
  O2-  O486  1  0.74618670  0.25497393  0.39988803  1
  O2-  O487  1  0.24866900  0.25346442  0.92919616  1
  O2-  O488  1  0.57280649  0.74646561  0.95263957  1
  O2-  O489  1  0.90447322  0.75622258  0.59394671  1
  O2-  O490  1  0.42469712  0.75182121  0.39681797  1
  O2-  O491  1  0.26891435  0.74385587  0.94569779  1
  O2-  O492  1  0.89399313  0.75297248  0.27991274  1
