# generated using pymatgen
data_Ca108Mn108O277
_symmetry_space_group_name_H-M   'P 1'
_cell_length_a   16.01827934
_cell_length_b   22.29303282
_cell_length_c   16.38071771
_cell_angle_alpha   90.00061543
_cell_angle_beta   90.00293818
_cell_angle_gamma   89.99836222
_symmetry_Int_Tables_number   1
_chemical_formula_structural   Ca108Mn108O277
_chemical_formula_sum   'Ca108 Mn108 O277'
_cell_volume   5849.48920521
_cell_formula_units_Z   1
loop_
 _symmetry_equiv_pos_site_id
 _symmetry_equiv_pos_as_xyz
  1  'x, y, z'
loop_
 _atom_type_symbol
 _atom_type_oxidation_number
  Ca2+  2.0
  Mn3.34+  3.34
  O2-  -2.0
loop_
 _atom_site_type_symbol
 _atom_site_label
 _atom_site_symmetry_multiplicity
 _atom_site_fract_x
 _atom_site_fract_y
 _atom_site_fract_z
 _atom_site_occupancy
  Ca2+  Ca0  1  0.09691330  0.25204748  0.26840887  1
  Ca2+  Ca1  1  0.09106192  0.25990121  0.56996418  1
  Ca2+  Ca2  1  0.09088419  0.25423156  0.91299701  1
  Ca2+  Ca3  1  0.07865241  0.73632636  0.23013949  1
  Ca2+  Ca4  1  0.08366472  0.75852567  0.57728769  1
  Ca2+  Ca5  1  0.07535993  0.74244573  0.94516180  1
  Ca2+  Ca6  1  0.41635239  0.24289418  0.25462290  1
  Ca2+  Ca7  1  0.41200947  0.24525375  0.58984063  1
  Ca2+  Ca8  1  0.42654631  0.22422862  0.91873708  1
  Ca2+  Ca9  1  0.40546405  0.75635583  0.25677728  1
  Ca2+  Ca10  1  0.41591836  0.75231567  0.57892519  1
  Ca2+  Ca11  1  0.42715414  0.74945687  0.91349868  1
  Ca2+  Ca12  1  0.73373177  0.25725265  0.26030637  1
  Ca2+  Ca13  1  0.75512635  0.24949961  0.58130957  1
  Ca2+  Ca14  1  0.72400667  0.24672717  0.90799204  1
  Ca2+  Ca15  1  0.76309232  0.75015349  0.23109399  1
  Ca2+  Ca16  1  0.75042068  0.75026094  0.57446617  1
  Ca2+  Ca17  1  0.75023308  0.74609470  0.94393720  1
  Ca2+  Ca18  1  0.27185992  0.24288314  0.08809273  1
  Ca2+  Ca19  1  0.26084628  0.24459872  0.41920335  1
  Ca2+  Ca20  1  0.26892590  0.23276240  0.74543093  1
  Ca2+  Ca21  1  0.23956441  0.75818793  0.09346356  1
  Ca2+  Ca22  1  0.25751044  0.75141669  0.40883510  1
  Ca2+  Ca23  1  0.26123881  0.75764305  0.74429020  1
  Ca2+  Ca24  1  0.56913451  0.24401057  0.07872022  1
  Ca2+  Ca25  1  0.57370225  0.24998193  0.40918189  1
  Ca2+  Ca26  1  0.56607425  0.24796224  0.76138102  1
  Ca2+  Ca27  1  0.59838049  0.75249616  0.07330681  1
  Ca2+  Ca28  1  0.57275875  0.75649065  0.42490744  1
  Ca2+  Ca29  1  0.56796885  0.75468829  0.75307568  1
  Ca2+  Ca30  1  0.91247308  0.25661363  0.08339815  1
  Ca2+  Ca31  1  0.91504624  0.25681539  0.42712356  1
  Ca2+  Ca32  1  0.90664569  0.25524534  0.73946867  1
  Ca2+  Ca33  1  0.91377131  0.74935277  0.09281910  1
  Ca2+  Ca34  1  0.91739292  0.74545565  0.40786274  1
  Ca2+  Ca35  1  0.92749388  0.75443626  0.75076379  1
  Ca2+  Ca36  1  0.10654958  0.09525038  0.57880917  1
  Ca2+  Ca37  1  0.27962969  0.08449743  0.06119180  1
  Ca2+  Ca38  1  0.72644634  0.09975218  0.90192828  1
  Ca2+  Ca39  1  0.90891100  0.09132085  0.73703641  1
  Ca2+  Ca40  1  0.26642556  0.09217017  0.40894031  1
  Ca2+  Ca41  1  0.90113543  0.60433376  0.09092664  1
  Ca2+  Ca42  1  0.38291944  0.57113755  0.28270774  1
  Ca2+  Ca43  1  0.92768141  0.09608178  0.41622760  1
  Ca2+  Ca44  1  0.08466192  0.59122413  0.93423251  1
  Ca2+  Ca45  1  0.56177387  0.11107471  0.75723721  1
  Ca2+  Ca46  1  0.44667800  0.58818678  0.55810632  1
  Ca2+  Ca47  1  0.75894244  0.59514324  0.24948312  1
  Ca2+  Ca48  1  0.22920764  0.60847192  0.09179507  1
  Ca2+  Ca49  1  0.24775976  0.58632235  0.75288597  1
  Ca2+  Ca50  1  0.91186943  0.60417101  0.09080723  1
  Ca2+  Ca51  1  0.09429468  0.09374992  0.58171062  1
  Ca2+  Ca52  1  0.40883854  0.09439579  0.25266904  1
  Ca2+  Ca53  1  0.25749752  0.59037776  0.75448384  1
  Ca2+  Ca54  1  0.28921027  0.08660137  0.06419808  1
  Ca2+  Ca55  1  0.06697016  0.59069073  0.57547942  1
  Ca2+  Ca56  1  0.13701922  0.10273085  0.90207618  1
  Ca2+  Ca57  1  0.74426340  0.59071966  0.93890112  1
  Ca2+  Ca58  1  0.73241361  0.58948903  0.57353201  1
  Ca2+  Ca59  1  0.43626879  0.58852688  0.56294512  1
  Ca2+  Ca60  1  0.60262185  0.59824552  0.07573606  1
  Ca2+  Ca61  1  0.92560109  0.58062356  0.74186744  1
  Ca2+  Ca62  1  0.07842564  0.59108246  0.57495120  1
  Ca2+  Ca63  1  0.89981523  0.07743868  0.08736600  1
  Ca2+  Ca64  1  0.58007376  0.59867057  0.74426167  1
  Ca2+  Ca65  1  0.24187238  0.60806964  0.09034951  1
  Ca2+  Ca66  1  0.74081858  0.09836012  0.58830543  1
  Ca2+  Ca67  1  0.41464790  0.09796645  0.58673183  1
  Ca2+  Ca68  1  0.91156000  0.08084933  0.08698673  1
  Ca2+  Ca69  1  0.39286552  0.57301752  0.28571171  1
  Ca2+  Ca70  1  0.73391353  0.08882118  0.25275814  1
  Ca2+  Ca71  1  0.91613213  0.09627540  0.41623621  1
  Ca2+  Ca72  1  0.91334945  0.90689074  0.75049324  1
  Ca2+  Ca73  1  0.25090245  0.39759954  0.09255773  1
  Ca2+  Ca74  1  0.41724135  0.91705001  0.24730434  1
  Ca2+  Ca75  1  0.92699116  0.90008331  0.41535814  1
  Ca2+  Ca76  1  0.24929844  0.91867881  0.73991747  1
  Ca2+  Ca77  1  0.40508790  0.91651497  0.57011537  1
  Ca2+  Ca78  1  0.90239314  0.40375107  0.09147723  1
  Ca2+  Ca79  1  0.08984632  0.89766519  0.25465884  1
  Ca2+  Ca80  1  0.42460198  0.39656498  0.91286838  1
  Ca2+  Ca81  1  0.26658185  0.41302316  0.40054450  1
  Ca2+  Ca82  1  0.58939570  0.40090512  0.08792962  1
  Ca2+  Ca83  1  0.92121322  0.40751906  0.41526991  1
  Ca2+  Ca84  1  0.89688699  0.90751611  0.09144861  1
  Ca2+  Ca85  1  0.25715264  0.91380641  0.41332263  1
  Ca2+  Ca86  1  0.90944450  0.40666152  0.08379937  1
  Ca2+  Ca87  1  0.41179193  0.39591347  0.91357540  1
  Ca2+  Ca88  1  0.74867758  0.91038857  0.93707711  1
  Ca2+  Ca89  1  0.74524253  0.40152865  0.91821248  1
  Ca2+  Ca90  1  0.26039812  0.91850187  0.74125744  1
  Ca2+  Ca91  1  0.23778497  0.39663448  0.75062846  1
  Ca2+  Ca92  1  0.93231517  0.40725035  0.74495524  1
  Ca2+  Ca93  1  0.39034000  0.92210463  0.94970613  1
  Ca2+  Ca94  1  0.75198968  0.90224976  0.58218387  1
  Ca2+  Ca95  1  0.58242131  0.90800337  0.74806469  1
  Ca2+  Ca96  1  0.43928819  0.40453158  0.56784058  1
  Ca2+  Ca97  1  0.41478867  0.91299972  0.57280207  1
  Ca2+  Ca98  1  0.73937284  0.90412194  0.58201453  1
  Ca2+  Ca99  1  0.38076788  0.92413159  0.94629238  1
  Ca2+  Ca100  1  0.90704588  0.90546243  0.08778624  1
  Ca2+  Ca101  1  0.41710591  0.41220812  0.26710831  1
  Ca2+  Ca102  1  0.74346073  0.40664291  0.57755250  1
  Ca2+  Ca103  1  0.25607293  0.41330881  0.40101088  1
  Ca2+  Ca104  1  0.73119990  0.40502922  0.57526322  1
  Ca2+  Ca105  1  0.90075929  0.90592180  0.75066305  1
  Ca2+  Ca106  1  0.09626204  0.90191850  0.92313877  1
  Ca2+  Ca107  1  0.08301449  0.40465353  0.91124149  1
  Mn3.34+  Mn108  1  0.08434343  0.33012642  0.08812757  1
  Mn3.34+  Mn109  1  0.08468987  0.33648772  0.41780078  1
  Mn3.34+  Mn110  1  0.08453122  0.33630581  0.74939935  1
  Mn3.34+  Mn111  1  0.08377746  0.82971109  0.08652210  1
  Mn3.34+  Mn112  1  0.08813110  0.83155029  0.41588154  1
  Mn3.34+  Mn113  1  0.08658077  0.83393170  0.74986247  1
  Mn3.34+  Mn114  1  0.41821557  0.32922060  0.09030174  1
  Mn3.34+  Mn115  1  0.42076584  0.33151530  0.41885809  1
  Mn3.34+  Mn116  1  0.41590236  0.32630868  0.74642650  1
  Mn3.34+  Mn117  1  0.42100986  0.83601813  0.09010526  1
  Mn3.34+  Mn118  1  0.41958897  0.83869546  0.41132955  1
  Mn3.34+  Mn119  1  0.41794339  0.83731394  0.75453170  1
  Mn3.34+  Mn120  1  0.74447360  0.33138183  0.08788369  1
  Mn3.34+  Mn121  1  0.74555763  0.33418581  0.41219741  1
  Mn3.34+  Mn122  1  0.74678211  0.33160548  0.75119734  1
  Mn3.34+  Mn123  1  0.74013664  0.83578376  0.09038371  1
  Mn3.34+  Mn124  1  0.74373779  0.82913050  0.40820620  1
  Mn3.34+  Mn125  1  0.74531707  0.82861118  0.75626353  1
  Mn3.34+  Mn126  1  0.24878705  0.33645394  0.24622370  1
  Mn3.34+  Mn127  1  0.25089481  0.33080635  0.58215222  1
  Mn3.34+  Mn128  1  0.24854312  0.32719075  0.91537571  1
  Mn3.34+  Mn129  1  0.25146526  0.83419163  0.24660052  1
  Mn3.34+  Mn130  1  0.24735512  0.83553213  0.57630929  1
  Mn3.34+  Mn131  1  0.24942773  0.83058306  0.91662315  1
  Mn3.34+  Mn132  1  0.58131095  0.33475090  0.25303648  1
  Mn3.34+  Mn133  1  0.58113529  0.33427123  0.58178753  1
  Mn3.34+  Mn134  1  0.58266914  0.33082217  0.91506701  1
  Mn3.34+  Mn135  1  0.58819164  0.84140697  0.25035617  1
  Mn3.34+  Mn136  1  0.58065023  0.83260871  0.58033757  1
  Mn3.34+  Mn137  1  0.58155106  0.83427525  0.91871190  1
  Mn3.34+  Mn138  1  0.91801870  0.33631523  0.25339449  1
  Mn3.34+  Mn139  1  0.91949900  0.33646092  0.58206514  1
  Mn3.34+  Mn140  1  0.91692260  0.33464999  0.91181561  1
  Mn3.34+  Mn141  1  0.91599465  0.83282310  0.25224360  1
  Mn3.34+  Mn142  1  0.92005882  0.82918210  0.57705026  1
  Mn3.34+  Mn143  1  0.91668333  0.83082592  0.91665962  1
  Mn3.34+  Mn144  1  0.25607572  0.67148587  0.91695367  1
  Mn3.34+  Mn145  1  0.91424953  0.16957500  0.25208609  1
  Mn3.34+  Mn146  1  0.73664021  0.16181418  0.08589116  1
  Mn3.34+  Mn147  1  0.08241368  0.16361340  0.09481708  1
  Mn3.34+  Mn148  1  0.25670072  0.16486703  0.58125851  1
  Mn3.34+  Mn149  1  0.41893265  0.67281731  0.08567455  1
  Mn3.34+  Mn150  1  0.74741519  0.67377833  0.74759591  1
  Mn3.34+  Mn151  1  0.08890247  0.66806247  0.75505154  1
  Mn3.34+  Mn152  1  0.91744199  0.16824369  0.58251245  1
  Mn3.34+  Mn153  1  0.41479553  0.66912511  0.41641108  1
  Mn3.34+  Mn154  1  0.24998032  0.66985874  0.57560681  1
  Mn3.34+  Mn155  1  0.58093149  0.16598621  0.57719329  1
  Mn3.34+  Mn156  1  0.57998307  0.66655663  0.91553506  1
  Mn3.34+  Mn157  1  0.74232400  0.16969923  0.41826570  1
  Mn3.34+  Mn158  1  0.09167485  0.17085777  0.41202463  1
  Mn3.34+  Mn159  1  0.42717876  0.16197663  0.08509135  1
  Mn3.34+  Mn160  1  0.09132319  0.17357120  0.09174503  1
  Mn3.34+  Mn161  1  0.92696621  0.16940097  0.91187163  1
  Mn3.34+  Mn162  1  0.75081430  0.66255125  0.41654073  1
  Mn3.34+  Mn163  1  0.58638096  0.66976514  0.57583781  1
  Mn3.34+  Mn164  1  0.57556030  0.66833368  0.25203637  1
  Mn3.34+  Mn165  1  0.91495566  0.66562888  0.91777154  1
  Mn3.34+  Mn166  1  0.91597115  0.16455838  0.90974925  1
  Mn3.34+  Mn167  1  0.08458889  0.65888302  0.40974128  1
  Mn3.34+  Mn168  1  0.58965455  0.66822964  0.24873613  1
  Mn3.34+  Mn169  1  0.24606794  0.66907487  0.25356744  1
  Mn3.34+  Mn170  1  0.41984165  0.16166366  0.41811351  1
  Mn3.34+  Mn171  1  0.08889640  0.17577299  0.74829028  1
  Mn3.34+  Mn172  1  0.74677840  0.16726473  0.08582032  1
  Mn3.34+  Mn173  1  0.91345048  0.66846140  0.57340174  1
  Mn3.34+  Mn174  1  0.91918609  0.66722717  0.25365364  1
  Mn3.34+  Mn175  1  0.41616794  0.66822169  0.75029856  1
  Mn3.34+  Mn176  1  0.74332770  0.16933066  0.74654060  1
  Mn3.34+  Mn177  1  0.75753953  0.67432163  0.75408295  1
  Mn3.34+  Mn178  1  0.07868098  0.66262254  0.75656917  1
  Mn3.34+  Mn179  1  0.57756534  0.16328621  0.25302933  1
  Mn3.34+  Mn180  1  0.09212852  0.49570597  0.09785153  1
  Mn3.34+  Mn181  1  0.08996520  0.49775938  0.39371373  1
  Mn3.34+  Mn182  1  0.58391711  0.50137578  0.91470806  1
  Mn3.34+  Mn183  1  0.57061346  0.00152215  0.25456854  1
  Mn3.34+  Mn184  1  0.41791471  0.00404117  0.74047401  1
  Mn3.34+  Mn185  1  0.09327597  0.00742276  0.75502508  1
  Mn3.34+  Mn186  1  0.91475529  0.50049087  0.91845982  1
  Mn3.34+  Mn187  1  0.73448181  0.49679269  0.74928487  1
  Mn3.34+  Mn188  1  0.58552662  0.49840339  0.25981089  1
  Mn3.34+  Mn189  1  0.43959294  0.50017213  0.74673254  1
  Mn3.34+  Mn190  1  0.58861801  -0.00018229  0.93945717  1
  Mn3.34+  Mn191  1  0.08273349  0.00255335  0.75425106  1
  Mn3.34+  Mn192  1  0.74438413  0.50015157  0.40324784  1
  Mn3.34+  Mn193  1  0.23695625  0.50224776  0.57898130  1
  Mn3.34+  Mn194  1  0.42320547  0.49835895  0.08923748  1
  Mn3.34+  Mn195  1  0.73847688  -0.00215642  0.41228328  1
  Mn3.34+  Mn196  1  0.91743052  -0.00357638  0.58135406  1
  Mn3.34+  Mn197  1  0.72822540  0.00369093  0.41144753  1
  Mn3.34+  Mn198  1  0.09721868  0.00085072  0.08628898  1
  Mn3.34+  Mn199  1  0.24803530  0.49765669  0.57961964  1
  Mn3.34+  Mn200  1  0.57831974  0.00724302  0.94070381  1
  Mn3.34+  Mn201  1  0.92264014  0.50190731  0.58575305  1
  Mn3.34+  Mn202  1  0.91886158  0.50177146  0.26221625  1
  Mn3.34+  Mn203  1  0.10903292  -0.00359425  0.08387619  1
  Mn3.34+  Mn204  1  0.41268605  0.50351150  0.08740544  1
  Mn3.34+  Mn205  1  0.91160105  0.00041797  0.92195863  1
  Mn3.34+  Mn206  1  0.24910641  0.49998873  0.91753044  1
  Mn3.34+  Mn207  1  0.74409899  0.00087238  0.74981633  1
  Mn3.34+  Mn208  1  0.25094653  -0.00146890  0.25997573  1
  Mn3.34+  Mn209  1  0.92157041  0.00027444  0.26014980  1
  Mn3.34+  Mn210  1  0.42716028  0.49603326  0.74704465  1
  Mn3.34+  Mn211  1  0.74869262  0.50274209  0.75186315  1
  Mn3.34+  Mn212  1  0.08584748  -0.00148783  0.41620807  1
  Mn3.34+  Mn213  1  0.07849412  0.50183662  0.09808306  1
  Mn3.34+  Mn214  1  0.58457719  -0.00027477  0.57795729  1
  Mn3.34+  Mn215  1  0.74581328  0.49813553  0.08777746  1
  O2-  O216  1  0.00059088  0.14453318  0.00910014  1
  O2-  O217  1  -0.00374297  0.16591999  0.33922073  1
  O2-  O218  1  0.00351277  0.15662725  0.66328227  1
  O2-  O219  1  -0.00651401  0.65135982  -0.00348181  1
  O2-  O220  1  0.00264071  0.67974792  0.33470144  1
  O2-  O221  1  -0.00083750  0.65142476  0.66474376  1
  O2-  O222  1  0.33767031  0.16922078  0.00760538  1
  O2-  O223  1  0.33798062  0.16243163  0.33786541  1
  O2-  O224  1  0.33349818  0.16179728  0.65680662  1
  O2-  O225  1  0.32939113  0.67783627  0.00796037  1
  O2-  O226  1  0.33505403  0.66060499  0.33282964  1
  O2-  O227  1  0.32995147  0.64812245  0.66902977  1
  O2-  O228  1  0.67298929  0.16107362  -0.00597145  1
  O2-  O229  1  0.67015442  0.16225336  0.32991144  1
  O2-  O230  1  0.66780444  0.16835422  0.66013255  1
  O2-  O231  1  0.66375411  0.66255481  -0.00838768  1
  O2-  O232  1  0.66586821  0.67562994  0.33403172  1
  O2-  O233  1  0.66636226  0.66355824  0.66756567  1
  O2-  O234  1  0.16884834  0.16224381  0.00754816  1
  O2-  O235  1  0.17332908  0.17481810  0.34004782  1
  O2-  O236  1  0.16256795  0.16639229  0.65875483  1
  O2-  O237  1  0.17130211  0.66553121  -0.00583140  1
  O2-  O238  1  0.16766808  0.67982940  0.33687273  1
  O2-  O239  1  0.16650991  0.64845435  0.66707512  1
  O2-  O240  1  0.50457930  0.16551022  0.00885193  1
  O2-  O241  1  0.49838869  0.16144327  0.33266471  1
  O2-  O242  1  0.50673188  0.17340311  0.65694639  1
  O2-  O243  1  0.50268107  0.66914176  0.00596893  1
  O2-  O244  1  0.49739665  0.66491078  0.32912540  1
  O2-  O245  1  0.49376614  0.65155705  0.66149629  1
  O2-  O246  1  0.84035989  0.14819432  0.00678570  1
  O2-  O247  1  0.83241237  0.15424847  0.33616165  1
  O2-  O248  1  0.83404884  0.15677131  0.66325422  1
  O2-  O249  1  0.83372944  0.65746365  -0.00493073  1
  O2-  O250  1  0.82762475  0.67130978  0.33147402  1
  O2-  O251  1  0.83403840  0.65490084  0.66511227  1
  O2-  O252  1  -0.00424609  0.35262005  0.00212965  1
  O2-  O253  1  -0.00059384  0.32710469  0.33490760  1
  O2-  O254  1  -0.00289327  0.32803994  0.67310093  1
  O2-  O255  1  -0.00384041  0.85175249  0.00210227  1
  O2-  O256  1  0.00406582  0.83451450  0.32989393  1
  O2-  O257  1  -0.00677831  0.84750763  0.67366135  1
  O2-  O258  1  0.33303638  0.33897120  0.00115574  1
  O2-  O259  1  0.32936831  0.33606699  0.33414010  1
  O2-  O260  1  0.33329844  0.34465693  0.66671355  1
  O2-  O261  1  0.33565380  0.82072679  -0.00285523  1
  O2-  O262  1  0.33454718  0.84610656  0.33022818  1
  O2-  O263  1  0.33509233  0.85047352  0.66804627  1
  O2-  O264  1  0.66631859  0.34322930  -0.00130238  1
  O2-  O265  1  0.66313616  0.33161098  0.33414215  1
  O2-  O266  1  0.67139367  0.33078087  0.65891050  1
  O2-  O267  1  0.66890212  0.83555456  -0.00457827  1
  O2-  O268  1  0.66401848  0.80297547  0.33033765  1
  O2-  O269  1  0.66797191  0.83989821  0.66518114  1
  O2-  O270  1  0.16552319  0.33430409  -0.00230562  1
  O2-  O271  1  0.17261836  0.33294373  0.33431904  1
  O2-  O272  1  0.16643604  0.32624649  0.66897028  1
  O2-  O273  1  0.16262768  0.82697905  -0.00412401  1
  O2-  O274  1  0.17294668  0.83649189  0.33647756  1
  O2-  O275  1  0.17517363  0.84586368  0.67157115  1
  O2-  O276  1  0.49821082  0.34695397  0.00289639  1
  O2-  O277  1  0.49362739  0.33806835  0.32884258  1
  O2-  O278  1  0.49790598  0.32626725  0.66256885  1
  O2-  O279  1  0.49112421  0.83691884  -0.00572087  1
  O2-  O280  1  0.49995623  0.82972746  0.32655001  1
  O2-  O281  1  0.49764306  0.85379407  0.66350748  1
  O2-  O282  1  0.83515097  0.34701405  0.00052855  1
  O2-  O283  1  0.83933263  0.33134392  0.33764439  1
  O2-  O284  1  0.83162719  0.34966307  0.66612568  1
  O2-  O285  1  0.83544506  0.84093370  -0.00121556  1
  O2-  O286  1  0.83974643  0.83128732  0.34010050  1
  O2-  O287  1  0.82696478  0.83921623  0.66988504  1
  O2-  O288  1  -0.00567945  0.18439262  0.16610524  1
  O2-  O289  1  0.00118983  0.16905966  0.50133915  1
  O2-  O290  1  -0.00065382  0.19120567  0.82218738  1
  O2-  O291  1  -0.01123869  0.66887151  0.16513651  1
  O2-  O292  1  0.00621099  0.67795392  0.50310424  1
  O2-  O293  1  -0.00224819  0.67865067  0.83644535  1
  O2-  O294  1  0.33618060  0.17318947  0.16227296  1
  O2-  O295  1  0.33317047  0.17481347  0.49881107  1
  O2-  O296  1  0.32658026  0.17411684  0.84438458  1
  O2-  O297  1  0.33303891  0.68060555  0.16402651  1
  O2-  O298  1  0.34584107  0.67242378  0.50978791  1
  O2-  O299  1  0.32897979  0.68257155  0.82748769  1
  O2-  O300  1  0.66491319  0.17658241  0.17460255  1
  O2-  O301  1  0.67052002  0.18441910  0.50461233  1
  O2-  O302  1  0.66375097  0.17621600  0.82237549  1
  O2-  O303  1  0.66439697  0.67752866  0.16976796  1
  O2-  O304  1  0.67161947  0.68533031  0.50000074  1
  O2-  O305  1  0.66383691  0.68519937  0.82919399  1
  O2-  O306  1  0.16995494  0.18400601  0.16957127  1
  O2-  O307  1  0.16251475  0.17315423  0.50242657  1
  O2-  O308  1  0.16440546  0.19138761  0.83040557  1
  O2-  O309  1  0.17544000  0.67740550  0.16740076  1
  O2-  O310  1  0.15688057  0.67864926  0.50638239  1
  O2-  O311  1  0.17214374  0.68884767  0.83579210  1
  O2-  O312  1  0.49704994  0.17717785  0.17539896  1
  O2-  O313  1  0.49912414  0.18365316  0.50276845  1
  O2-  O314  1  0.49702850  0.17750603  0.82784158  1
  O2-  O315  1  0.50161703  0.68983234  0.16792183  1
  O2-  O316  1  0.49719729  0.67790993  0.49981911  1
  O2-  O317  1  0.50328093  0.67607189  0.82401070  1
  O2-  O318  1  0.82961000  0.18217820  0.16526656  1
  O2-  O319  1  0.83989881  0.16999603  0.49500574  1
  O2-  O320  1  0.82662839  0.17484017  0.83163686  1
  O2-  O321  1  0.83674617  0.67017681  0.17168327  1
  O2-  O322  1  0.83061469  0.68594861  0.49771015  1
  O2-  O323  1  0.83615977  0.68666276  0.83144287  1
  O2-  O324  1  -0.00813421  0.32212430  0.16186474  1
  O2-  O325  1  -0.00344300  0.32956713  0.49748208  1
  O2-  O326  1  0.00345651  0.31866069  0.83434614  1
  O2-  O327  1  -0.00791420  0.83204459  0.16047510  1
  O2-  O328  1  -0.00014579  0.81503430  0.48849378  1
  O2-  O329  1  -0.00158347  0.83017582  0.83208147  1
  O2-  O330  1  0.33338337  0.31668231  0.17018582  1
  O2-  O331  1  0.33372527  0.32673745  0.49959695  1
  O2-  O332  1  0.33339787  0.32423244  0.83618725  1
  O2-  O333  1  0.33479750  0.82033358  0.16540107  1
  O2-  O334  1  0.33710250  0.82407116  0.50423025  1
  O2-  O335  1  0.33237045  0.81782600  0.83386561  1
  O2-  O336  1  0.66117489  0.32118860  0.16274356  1
  O2-  O337  1  0.67000872  0.32026851  0.50648716  1
  O2-  O338  1  0.66830329  0.32521048  0.83684689  1
  O2-  O339  1  0.66396741  0.81747098  0.16985220  1
  O2-  O340  1  0.66862821  0.81880904  0.50263473  1
  O2-  O341  1  0.66019894  0.82343313  0.82994189  1
  O2-  O342  1  0.17154070  0.31139491  0.16614667  1
  O2-  O343  1  0.17560599  0.32863709  0.49096563  1
  O2-  O344  1  0.16694324  0.31832129  0.83170562  1
  O2-  O345  1  0.15947984  0.82197594  0.17545638  1
  O2-  O346  1  0.17070303  0.81423099  0.49542553  1
  O2-  O347  1  0.16843652  0.82086326  0.83270366  1
  O2-  O348  1  0.50329478  0.32750177  0.16365763  1
  O2-  O349  1  0.49906860  0.31939204  0.50305903  1
  O2-  O350  1  0.49206626  0.32597851  0.83981530  1
  O2-  O351  1  0.49843713  0.80930703  0.16274008  1
  O2-  O352  1  0.49313391  0.82990314  0.50643438  1
  O2-  O353  1  0.50233348  0.83101036  0.83141722  1
  O2-  O354  1  0.83703432  0.32217938  0.16296476  1
  O2-  O355  1  0.82921323  0.33063442  0.50529415  1
  O2-  O356  1  0.83439229  0.32430477  0.83293296  1
  O2-  O357  1  0.83660471  0.83032530  0.16382525  1
  O2-  O358  1  0.82563140  0.81870193  0.50128302  1
  O2-  O359  1  0.83865751  0.81678204  0.82719062  1
  O2-  O360  1  0.06890987  0.08006359  0.12322583  1
  O2-  O361  1  0.07488415  0.08067339  0.44635710  1
  O2-  O362  1  0.07938252  0.08833589  0.77637606  1
  O2-  O363  1  0.09511187  0.58326556  0.10048274  1
  O2-  O364  1  0.08435515  0.57145096  0.44526052  1
  O2-  O365  1  0.09501149  0.58228472  0.79226420  1
  O2-  O366  1  0.41217992  0.08190258  0.10869297  1
  O2-  O367  1  0.40742503  0.08325358  0.44390736  1
  O2-  O368  1  0.42707157  0.07819608  0.75668579  1
  O2-  O369  1  0.41724469  0.58409340  0.11954818  1
  O2-  O370  1  0.42004029  0.58345596  0.42647563  1
  O2-  O371  1  0.40327493  0.58015046  0.78199570  1
  O2-  O372  1  0.76127565  0.08027118  0.11455154  1
  O2-  O373  1  0.75027931  0.08262999  0.44979510  1
  O2-  O374  1  0.74932123  0.08353277  0.76404706  1
  O2-  O375  1  0.75668901  0.57806566  0.10815693  1
  O2-  O376  1  0.74857573  0.57633140  0.44285020  1
  O2-  O377  1  0.74389154  0.58311352  0.78542210  1
  O2-  O378  1  0.25472925  0.06327780  0.20054044  1
  O2-  O379  1  0.23767006  0.08207802  0.55557615  1
  O2-  O380  1  0.26555248  0.07825235  0.91994021  1
  O2-  O381  1  0.26221500  0.58326201  0.21918015  1
  O2-  O382  1  0.24407600  0.58392217  0.55301004  1
  O2-  O383  1  0.24066702  0.58134013  0.88790868  1
  O2-  O384  1  0.58640194  0.07977349  0.22509194  1
  O2-  O385  1  0.58592546  0.08131555  0.57085485  1
  O2-  O386  1  0.58729430  0.07531849  0.88587990  1
  O2-  O387  1  0.58097372  0.57903064  0.21418013  1
  O2-  O388  1  0.58382999  0.58864617  0.56209924  1
  O2-  O389  1  0.59370854  0.58225411  0.88426637  1
  O2-  O390  1  0.90904261  0.08076469  0.22074452  1
  O2-  O391  1  0.92135822  0.08039840  0.55581529  1
  O2-  O392  1  0.92279297  0.08064084  0.87794416  1
  O2-  O393  1  0.90787969  0.58050802  0.22881052  1
  O2-  O394  1  0.92332462  0.58367671  0.55357812  1
  O2-  O395  1  0.91127614  0.58299131  0.88267246  1
  O2-  O396  1  0.08733094  0.41435053  0.11014043  1
  O2-  O397  1  0.08960961  0.42034345  0.43289873  1
  O2-  O398  1  0.08488498  0.41706452  0.77467753  1
  O2-  O399  1  0.08679537  0.91529785  0.10628764  1
  O2-  O400  1  0.08136988  0.91834469  0.42717554  1
  O2-  O401  1  0.08957138  0.92161221  0.78464540  1
  O2-  O402  1  0.40592273  0.41579640  0.10688886  1
  O2-  O403  1  0.40000405  0.41620125  0.43654574  1
  O2-  O404  1  0.41198523  0.41658703  0.77815615  1
  O2-  O405  1  0.41014300  0.91505006  0.09062526  1
  O2-  O406  1  0.40785164  0.91987317  0.43692838  1
  O2-  O407  1  0.40761678  0.93091742  0.79637957  1
  O2-  O408  1  0.75615339  0.41563163  0.10210733  1
  O2-  O409  1  0.75631346  0.42151783  0.44380020  1
  O2-  O410  1  0.74889055  0.41649670  0.77479764  1
  O2-  O411  1  0.76240601  0.91693265  0.08727686  1
  O2-  O412  1  0.75232402  0.91850346  0.44878526  1
  O2-  O413  1  0.76251493  0.91985368  0.78152963  1
  O2-  O414  1  0.25673077  0.41478716  0.22918432  1
  O2-  O415  1  0.24875353  0.41594696  0.56497635  1
  O2-  O416  1  0.25637601  0.41899030  0.89046232  1
  O2-  O417  1  0.24540856  0.92044341  0.23167099  1
  O2-  O418  1  0.26528601  0.91731404  0.55548441  1
  O2-  O419  1  0.25894595  0.92062054  0.88037573  1
  O2-  O420  1  0.57745912  0.42023089  0.22453141  1
  O2-  O421  1  0.59235040  0.41480373  0.56749356  1
  O2-  O422  1  0.56453628  0.41916097  0.89869397  1
  O2-  O423  1  0.56320489  0.92333662  0.22315694  1
  O2-  O424  1  0.59846940  0.91670142  0.55791136  1
  O2-  O425  1  0.58965095  0.92487749  0.89520663  1
  O2-  O426  1  0.91870867  0.42471980  0.21972233  1
  O2-  O427  1  0.90357129  0.42185314  0.56102345  1
  O2-  O428  1  0.92242233  0.41818848  0.88424929  1
  O2-  O429  1  0.92690576  0.91801073  0.23068305  1
  O2-  O430  1  0.89408841  0.91350090  0.55776979  1
  O2-  O431  1  0.90651465  0.91738376  0.88613987  1
  O2-  O432  1  0.00448659  -0.00143207  0.00663916  1
  O2-  O433  1  -0.01619416  0.00703575  0.36420422  1
  O2-  O434  1  -0.00323504  0.00045182  0.67500392  1
  O2-  O435  1  0.00526215  0.50016194  0.00213463  1
  O2-  O436  1  -0.01021239  0.49035950  0.34790788  1
  O2-  O437  1  0.00847699  0.52096801  0.65789088  1
  O2-  O438  1  0.32571121  0.00184266  0.00107895  1
  O2-  O439  1  0.32906393  0.00087700  0.33015156  1
  O2-  O440  1  0.33873824  -0.01655856  0.66802313  1
  O2-  O441  1  0.32996224  0.50063373  0.00443853  1
  O2-  O442  1  0.33494652  0.48881280  0.32427977  1
  O2-  O443  1  0.32675141  0.50190934  0.67498459  1
  O2-  O444  1  0.69599695  0.00625375  -0.03422447  1
  O2-  O445  1  0.66875682  0.00286818  0.31306326  1
  O2-  O446  1  0.67748697  -0.01229077  0.65309870  1
  O2-  O447  1  0.67400162  0.50358378  -0.00606020  1
  O2-  O448  1  0.67907643  0.51685920  0.31373017  1
  O2-  O449  1  0.68005418  0.50732252  0.64851380  1
  O2-  O450  1  0.16435063  0.01318433  -0.01131374  1
  O2-  O451  1  0.17181077  0.00099652  0.33921268  1
  O2-  O452  1  0.17433862  -0.00353386  0.67400278  1
  O2-  O453  1  0.16661212  0.50356932  0.00262420  1
  O2-  O454  1  0.19268771  0.49684567  0.36219373  1
  O2-  O455  1  0.17538870  0.52039927  0.67528077  1
  O2-  O456  1  0.47689991  -0.00308422  -0.02242123  1
  O2-  O457  1  0.47723556  0.00524902  0.30348757  1
  O2-  O458  1  0.49660589  -0.01624110  0.66022056  1
  O2-  O459  1  0.50423674  0.50042974  0.00503411  1
  O2-  O460  1  0.48304826  0.50013918  0.29771105  1
  O2-  O461  1  0.48910218  0.51143177  0.64459123  1
  O2-  O462  1  0.85436724  -0.00141292  0.02970637  1
  O2-  O463  1  0.83218553  0.01265956  0.34385945  1
  O2-  O464  1  0.84102422  -0.00576942  0.67955175  1
  O2-  O465  1  0.84507201  0.49766254  0.01920857  1
  O2-  O466  1  0.83330538  0.49934210  0.33499743  1
  O2-  O467  1  0.84321201  0.50361967  0.67821586  1
  O2-  O468  1  0.25295923  0.75032482  0.60606744  1
  O2-  O469  1  0.58100540  0.24970013  0.26467484  1
  O2-  O470  1  0.07586595  0.74790572  0.72136379  1
  O2-  O471  1  0.92576674  0.74943930  0.93974733  1
  O2-  O472  1  0.75598051  0.75480928  0.07709366  1
  O2-  O473  1  0.25975845  0.75232224  0.26519098  1
  O2-  O474  1  0.57671125  0.75108055  0.92701620  1
  O2-  O475  1  0.41246235  0.75133741  0.40476371  1
  O2-  O476  1  0.75998655  0.24956036  0.40468680  1
  O2-  O477  1  0.91640527  0.75131127  0.25044109  1
  O2-  O478  1  0.91007165  0.25054680  0.59274119  1
  O2-  O479  1  0.57302870  0.75186141  0.60486127  1
  O2-  O480  1  0.58102742  0.25259803  0.92842967  1
  O2-  O481  1  0.41180361  0.24815574  0.74371546  1
  O2-  O482  1  0.25135849  0.24964848  0.58831269  1
  O2-  O483  1  0.92106190  0.74855306  0.60871713  1
  O2-  O484  1  0.91637139  0.25130716  0.94455050  1
  O2-  O485  1  0.75337584  0.24889638  0.05821498  1
  O2-  O486  1  0.41567889  0.24984468  0.40186498  1
  O2-  O487  1  0.06273889  0.25014936  0.05262252  1
  O2-  O488  1  0.41931184  0.74939446  0.72541948  1
  O2-  O489  1  0.76155457  0.25113678  0.73254612  1
  O2-  O490  1  0.07838385  0.25221690  0.41851108  1
  O2-  O491  1  0.07299194  0.75127443  0.07937387  1
  O2-  O492  1  0.42399254  0.25078233  0.07005108  1
