# generated using pymatgen
data_Ca108Mn108O277
_symmetry_space_group_name_H-M   'P 1'
_cell_length_a   16.02720147
_cell_length_b   22.30717449
_cell_length_c   16.38731927
_cell_angle_alpha   89.99641152
_cell_angle_beta   89.99904980
_cell_angle_gamma   90.00103885
_symmetry_Int_Tables_number   1
_chemical_formula_structural   Ca108Mn108O277
_chemical_formula_sum   'Ca108 Mn108 O277'
_cell_volume   5858.82026075
_cell_formula_units_Z   1
loop_
 _symmetry_equiv_pos_site_id
 _symmetry_equiv_pos_as_xyz
  1  'x, y, z'
loop_
 _atom_type_symbol
 _atom_type_oxidation_number
  Ca2+  2.0
  Mn3.34+  3.34
  O2-  -2.0
loop_
 _atom_site_type_symbol
 _atom_site_label
 _atom_site_symmetry_multiplicity
 _atom_site_fract_x
 _atom_site_fract_y
 _atom_site_fract_z
 _atom_site_occupancy
  Ca2+  Ca0  1  0.08729904  0.23357432  0.25379850  1
  Ca2+  Ca1  1  0.08901726  0.24829205  0.57001946  1
  Ca2+  Ca2  1  0.09119292  0.25789219  0.92606416  1
  Ca2+  Ca3  1  0.09748443  0.75383517  0.25443406  1
  Ca2+  Ca4  1  0.09845158  0.75915012  0.58799783  1
  Ca2+  Ca5  1  0.11392962  0.75056333  0.90739544  1
  Ca2+  Ca6  1  0.41074024  0.25159243  0.24539516  1
  Ca2+  Ca7  1  0.42586508  0.25098819  0.58383399  1
  Ca2+  Ca8  1  0.41105467  0.25280824  0.92186570  1
  Ca2+  Ca9  1  0.40323494  0.75457698  0.25902047  1
  Ca2+  Ca10  1  0.41905850  0.74086519  0.58597620  1
  Ca2+  Ca11  1  0.39965793  0.75556779  0.90777690  1
  Ca2+  Ca12  1  0.74376557  0.24159649  0.24956694  1
  Ca2+  Ca13  1  0.73117077  0.25133160  0.59188340  1
  Ca2+  Ca14  1  0.74798315  0.25830913  0.90530823  1
  Ca2+  Ca15  1  0.74190179  0.75984511  0.25076597  1
  Ca2+  Ca16  1  0.73119955  0.74453143  0.58340992  1
  Ca2+  Ca17  1  0.74419362  0.75178657  0.91486266  1
  Ca2+  Ca18  1  0.25685357  0.24817411  0.09021662  1
  Ca2+  Ca19  1  0.24313776  0.24268389  0.41536898  1
  Ca2+  Ca20  1  0.27112081  0.24824914  0.74162943  1
  Ca2+  Ca21  1  0.25493861  0.74505202  0.06972275  1
  Ca2+  Ca22  1  0.25421060  0.75148327  0.41836485  1
  Ca2+  Ca23  1  0.25627366  0.74717937  0.75356684  1
  Ca2+  Ca24  1  0.56829470  0.24812461  0.08629259  1
  Ca2+  Ca25  1  0.58019849  0.24951255  0.42808551  1
  Ca2+  Ca26  1  0.57537257  0.23449627  0.73578202  1
  Ca2+  Ca27  1  0.57305104  0.75642901  0.08545398  1
  Ca2+  Ca28  1  0.57545593  0.75016074  0.42991582  1
  Ca2+  Ca29  1  0.56902980  0.74286798  0.73564941  1
  Ca2+  Ca30  1  0.91896544  0.25597311  0.09939779  1
  Ca2+  Ca31  1  0.92679493  0.23875715  0.42420771  1
  Ca2+  Ca32  1  0.89721368  0.24931485  0.73288042  1
  Ca2+  Ca33  1  0.92058519  0.75498950  0.08502880  1
  Ca2+  Ca34  1  0.92753157  0.75371591  0.42845426  1
  Ca2+  Ca35  1  0.92771726  0.76149183  0.74256997  1
  Ca2+  Ca36  1  0.91115578  0.08655888  0.11124404  1
  Ca2+  Ca37  1  0.10386035  0.59387029  0.57681918  1
  Ca2+  Ca38  1  0.25040045  0.60218962  0.75021675  1
  Ca2+  Ca39  1  0.58962223  0.58993555  0.70536671  1
  Ca2+  Ca40  1  0.91465688  0.59927952  0.43138662  1
  Ca2+  Ca41  1  0.89494004  0.58126425  0.72537780  1
  Ca2+  Ca42  1  0.76203504  0.10464168  0.58530070  1
  Ca2+  Ca43  1  0.28495736  0.61088711  0.42425138  1
  Ca2+  Ca44  1  0.56728462  0.58602524  0.08116266  1
  Ca2+  Ca45  1  0.37509660  0.59600726  0.91065527  1
  Ca2+  Ca46  1  0.90618785  0.58099446  0.72471530  1
  Ca2+  Ca47  1  0.11244243  0.07740170  0.91594795  1
  Ca2+  Ca48  1  0.38319590  0.59785364  0.91673566  1
  Ca2+  Ca49  1  0.12538562  0.07780005  0.91765084  1
  Ca2+  Ca50  1  0.74246935  0.59399228  0.59111678  1
  Ca2+  Ca51  1  0.58361706  0.10494337  0.42168829  1
  Ca2+  Ca52  1  0.08977542  0.59821351  0.24724385  1
  Ca2+  Ca53  1  0.92347525  0.08909373  0.11153688  1
  Ca2+  Ca54  1  0.90501537  0.09226534  0.72276574  1
  Ca2+  Ca55  1  0.41471761  0.10268747  0.91004142  1
  Ca2+  Ca56  1  0.41952612  0.10593579  0.59291125  1
  Ca2+  Ca57  1  0.92726314  0.59875005  0.43291176  1
  Ca2+  Ca58  1  0.94823903  0.57557845  0.07269420  1
  Ca2+  Ca59  1  0.92681439  0.09147191  0.41381659  1
  Ca2+  Ca60  1  0.55774864  0.61351326  0.46379236  1
  Ca2+  Ca61  1  0.13481535  0.59111663  0.91761426  1
  Ca2+  Ca62  1  0.26913922  0.08891239  0.08299548  1
  Ca2+  Ca63  1  0.57252937  0.10445968  0.42039101  1
  Ca2+  Ca64  1  0.27045045  0.08775296  0.72909164  1
  Ca2+  Ca65  1  0.23284820  0.58353137  0.06731280  1
  Ca2+  Ca66  1  0.74626320  0.58744024  0.90591139  1
  Ca2+  Ca67  1  0.57974941  0.58386124  0.07861143  1
  Ca2+  Ca68  1  0.41273176  0.09279585  0.23941781  1
  Ca2+  Ca69  1  0.40512983  0.10018245  0.91334952  1
  Ca2+  Ca70  1  0.75203179  0.10314529  0.58822206  1
  Ca2+  Ca71  1  0.10433416  0.08891626  0.57608664  1
  Ca2+  Ca72  1  0.61807351  0.42439527  0.70131332  1
  Ca2+  Ca73  1  0.11245308  0.42542639  0.92699409  1
  Ca2+  Ca74  1  0.25829832  0.39392642  0.43244840  1
  Ca2+  Ca75  1  0.25148062  0.91380668  0.74886481  1
  Ca2+  Ca76  1  0.09967231  0.40483189  0.58190509  1
  Ca2+  Ca77  1  0.09650644  0.40551543  0.24767050  1
  Ca2+  Ca78  1  0.75400654  0.91080121  0.59738688  1
  Ca2+  Ca79  1  0.08412525  0.90800257  0.25743659  1
  Ca2+  Ca80  1  0.73208973  0.39780167  0.24784368  1
  Ca2+  Ca81  1  0.57862703  0.39590611  0.43333080  1
  Ca2+  Ca82  1  0.76449088  0.91084180  0.59846635  1
  Ca2+  Ca83  1  0.93201589  0.91267336  0.41093055  1
  Ca2+  Ca84  1  0.74483719  0.39871279  0.24853886  1
  Ca2+  Ca85  1  0.10058865  0.42278999  0.93050849  1
  Ca2+  Ca86  1  0.93063262  0.41588347  0.07623312  1
  Ca2+  Ca87  1  0.58109423  0.90235244  0.74420266  1
  Ca2+  Ca88  1  0.87523320  0.42080145  0.72806335  1
  Ca2+  Ca89  1  0.88695461  0.41872215  0.72502954  1
  Ca2+  Ca90  1  0.08521674  0.40582928  0.24894504  1
  Ca2+  Ca91  1  0.91956983  0.41515363  0.07491249  1
  Ca2+  Ca92  1  0.26033581  0.41954554  0.06109986  1
  Ca2+  Ca93  1  0.40453357  0.40535762  0.91721478  1
  Ca2+  Ca94  1  0.28588449  0.92382801  0.05646189  1
  Ca2+  Ca95  1  0.57466045  0.39514702  0.08215231  1
  Ca2+  Ca96  1  0.54966215  0.91291556  0.09027111  1
  Ca2+  Ca97  1  0.92451045  0.40212470  0.43585713  1
  Ca2+  Ca98  1  0.92229044  0.91027614  0.40708856  1
  Ca2+  Ca99  1  0.75726053  0.91440143  0.25998583  1
  Ca2+  Ca100  1  0.56139284  0.91601034  0.08856456  1
  Ca2+  Ca101  1  0.25233784  0.90874410  0.43164315  1
  Ca2+  Ca102  1  0.75438697  0.90270046  0.90288004  1
  Ca2+  Ca103  1  0.74271454  0.90264591  0.90483819  1
  Ca2+  Ca104  1  0.91287846  0.90237143  0.09345133  1
  Ca2+  Ca105  1  0.24095558  0.91381725  0.74896980  1
  Ca2+  Ca106  1  0.27568083  0.92303896  0.05868800  1
  Ca2+  Ca107  1  0.57252410  0.90400593  0.40793768  1
  Mn3.34+  Mn108  1  0.08535550  0.33500819  0.08472326  1
  Mn3.34+  Mn109  1  0.08497063  0.33226421  0.41970807  1
  Mn3.34+  Mn110  1  0.08358757  0.33090268  0.75220747  1
  Mn3.34+  Mn111  1  0.08684060  0.83286707  0.08429261  1
  Mn3.34+  Mn112  1  0.09161606  0.83463239  0.42060354  1
  Mn3.34+  Mn113  1  0.08207102  0.83612411  0.75129478  1
  Mn3.34+  Mn114  1  0.41268939  0.33224213  0.08246062  1
  Mn3.34+  Mn115  1  0.41447709  0.32941032  0.42128726  1
  Mn3.34+  Mn116  1  0.42046880  0.33719875  0.75030209  1
  Mn3.34+  Mn117  1  0.41262689  0.82837873  0.08383206  1
  Mn3.34+  Mn118  1  0.41214600  0.83747894  0.42210082  1
  Mn3.34+  Mn119  1  0.41736967  0.83426571  0.74963968  1
  Mn3.34+  Mn120  1  0.74847920  0.33340085  0.07504065  1
  Mn3.34+  Mn121  1  0.75148703  0.32762856  0.42598164  1
  Mn3.34+  Mn122  1  0.73953126  0.33051312  0.75129719  1
  Mn3.34+  Mn123  1  0.74859622  0.83683141  0.08652252  1
  Mn3.34+  Mn124  1  0.74889186  0.83236689  0.42035733  1
  Mn3.34+  Mn125  1  0.75084175  0.83328100  0.75061992  1
  Mn3.34+  Mn126  1  0.25679816  0.33117820  0.24947042  1
  Mn3.34+  Mn127  1  0.25616563  0.33174360  0.58902956  1
  Mn3.34+  Mn128  1  0.25219307  0.33184835  0.90890501  1
  Mn3.34+  Mn129  1  0.25161782  0.83773917  0.24619560  1
  Mn3.34+  Mn130  1  0.25507681  0.83697168  0.58439865  1
  Mn3.34+  Mn131  1  0.25095072  0.83749687  0.91222516  1
  Mn3.34+  Mn132  1  0.57280401  0.33020472  0.25077790  1
  Mn3.34+  Mn133  1  0.57947467  0.33225702  0.58542616  1
  Mn3.34+  Mn134  1  0.57880762  0.33005045  0.90790506  1
  Mn3.34+  Mn135  1  0.57801772  0.83573687  0.25234948  1
  Mn3.34+  Mn136  1  0.57509395  0.82988196  0.57971977  1
  Mn3.34+  Mn137  1  0.57584349  0.82930565  0.91385053  1
  Mn3.34+  Mn138  1  0.91593434  0.33029377  0.25408240  1
  Mn3.34+  Mn139  1  0.91642695  0.33238845  0.58162611  1
  Mn3.34+  Mn140  1  0.91683665  0.33593518  0.90560844  1
  Mn3.34+  Mn141  1  0.91856788  0.83368103  0.24617421  1
  Mn3.34+  Mn142  1  0.92528230  0.83360383  0.58554509  1
  Mn3.34+  Mn143  1  0.92483993  0.83098364  0.91520711  1
  Mn3.34+  Mn144  1  0.91929933  0.67055216  0.58528481  1
  Mn3.34+  Mn145  1  0.91575792  0.66302479  0.91142476  1
  Mn3.34+  Mn146  1  0.74671605  0.66877123  0.75339754  1
  Mn3.34+  Mn147  1  0.25635717  0.16635880  0.57831596  1
  Mn3.34+  Mn148  1  0.58419201  0.66587008  0.25712447  1
  Mn3.34+  Mn149  1  0.08757475  0.16343357  0.41726307  1
  Mn3.34+  Mn150  1  0.74721802  0.16510030  0.08209438  1
  Mn3.34+  Mn151  1  0.92051348  0.67431532  0.25054995  1
  Mn3.34+  Mn152  1  0.41991122  0.16431398  0.08744356  1
  Mn3.34+  Mn153  1  0.92587371  0.66893488  0.91361920  1
  Mn3.34+  Mn154  1  0.92003720  0.16937371  0.91704143  1
  Mn3.34+  Mn155  1  0.25559856  0.67102989  0.25038364  1
  Mn3.34+  Mn156  1  0.73631721  0.15996595  0.08170943  1
  Mn3.34+  Mn157  1  0.08460962  0.66468080  0.09098348  1
  Mn3.34+  Mn158  1  0.57327281  0.66101320  0.25638772  1
  Mn3.34+  Mn159  1  0.41748701  0.66679884  0.74575514  1
  Mn3.34+  Mn160  1  0.08552288  0.16645134  0.08686850  1
  Mn3.34+  Mn161  1  0.57828411  0.16751283  0.24920031  1
  Mn3.34+  Mn162  1  0.75211023  0.67265258  0.41749353  1
  Mn3.34+  Mn163  1  0.74376291  0.16359166  0.75136793  1
  Mn3.34+  Mn164  1  0.40581878  0.16172131  0.41630532  1
  Mn3.34+  Mn165  1  0.08845213  0.66840626  0.74847944  1
  Mn3.34+  Mn166  1  0.58230127  0.16997972  0.90999036  1
  Mn3.34+  Mn167  1  0.90954395  0.16410163  0.91462863  1
  Mn3.34+  Mn168  1  0.91732345  0.16412915  0.25796832  1
  Mn3.34+  Mn169  1  0.09170320  0.66807271  0.41728673  1
  Mn3.34+  Mn170  1  0.74936989  0.66807298  0.08783652  1
  Mn3.34+  Mn171  1  0.75983753  0.66280948  0.09088337  1
  Mn3.34+  Mn172  1  0.58066714  0.66729879  0.90978606  1
  Mn3.34+  Mn173  1  0.25695621  0.66752482  0.58081191  1
  Mn3.34+  Mn174  1  0.75253668  0.16924765  0.41699597  1
  Mn3.34+  Mn175  1  0.24754987  0.16319078  0.25046009  1
  Mn3.34+  Mn176  1  0.40996537  0.66565671  0.08956803  1
  Mn3.34+  Mn177  1  0.08803292  0.17395891  0.74777355  1
  Mn3.34+  Mn178  1  0.07815396  0.16891646  0.74914226  1
  Mn3.34+  Mn179  1  0.25198635  0.17272763  0.91472822  1
  Mn3.34+  Mn180  1  0.10112562  0.50020475  0.73803937  1
  Mn3.34+  Mn181  1  0.09982461  0.49926845  0.41957801  1
  Mn3.34+  Mn182  1  0.73382078  0.50309592  0.42881921  1
  Mn3.34+  Mn183  1  0.75103617  -0.00084022  0.41340188  1
  Mn3.34+  Mn184  1  0.90195901  0.50545305  0.25514555  1
  Mn3.34+  Mn185  1  0.92245015  -0.00021532  0.58697044  1
  Mn3.34+  Mn186  1  0.09669422  -0.00051077  0.09234074  1
  Mn3.34+  Mn187  1  0.58607599  0.00424603  0.91236921  1
  Mn3.34+  Mn188  1  0.08971918  0.00179159  0.40695766  1
  Mn3.34+  Mn189  1  0.74863805  0.50221057  0.08712928  1
  Mn3.34+  Mn190  1  0.27242807  0.50130878  0.25268053  1
  Mn3.34+  Mn191  1  0.57802662  -0.00015569  0.58293824  1
  Mn3.34+  Mn192  1  0.57664088  -0.00170788  0.91222054  1
  Mn3.34+  Mn193  1  0.41629953  -0.00512512  0.75004157  1
  Mn3.34+  Mn194  1  0.56757982  -0.00502598  0.58294862  1
  Mn3.34+  Mn195  1  0.08478343  -0.00458185  0.09022458  1
  Mn3.34+  Mn196  1  0.59078045  0.50087334  0.90219350  1
  Mn3.34+  Mn197  1  0.92357618  -0.00308515  0.90847780  1
  Mn3.34+  Mn198  1  0.41177892  0.49910921  0.43945833  1
  Mn3.34+  Mn199  1  0.74646892  0.49665058  0.43136981  1
  Mn3.34+  Mn200  1  0.74460461  -0.00179010  0.08255455  1
  Mn3.34+  Mn201  1  0.57829156  0.49682300  0.90328222  1
  Mn3.34+  Mn202  1  0.07530782  -0.00399651  0.73675637  1
  Mn3.34+  Mn203  1  0.41265707  0.50035738  0.08739941  1
  Mn3.34+  Mn204  1  0.25278717  0.00030326  0.25927570  1
  Mn3.34+  Mn205  1  0.25938838  0.50754458  0.25218683  1
  Mn3.34+  Mn206  1  0.57036781  0.49594074  0.26161503  1
  Mn3.34+  Mn207  1  0.40586291  0.50261250  0.71975181  1
  Mn3.34+  Mn208  1  0.91023427  0.00377852  0.91002238  1
  Mn3.34+  Mn209  1  0.58231310  0.00324679  0.26235852  1
  Mn3.34+  Mn210  1  0.42703647  0.50140575  0.44161914  1
  Mn3.34+  Mn211  1  0.91281313  0.49729975  0.91667518  1
  Mn3.34+  Mn212  1  0.41385427  -0.00005966  0.41598937  1
  Mn3.34+  Mn213  1  0.11144748  0.49718380  0.73430166  1
  Mn3.34+  Mn214  1  0.41091877  0.49302612  0.71289122  1
  Mn3.34+  Mn215  1  0.91740626  0.51013603  0.25567876  1
  O2-  O216  1  0.00043936  0.13763715  -0.00276556  1
  O2-  O217  1  0.00032528  0.16003367  0.33573985  1
  O2-  O218  1  -0.00242736  0.17516327  0.66868701  1
  O2-  O219  1  -0.00400201  0.66010763  0.00966226  1
  O2-  O220  1  0.00107090  0.65245561  0.33366658  1
  O2-  O221  1  -0.00061385  0.64438498  0.66640431  1
  O2-  O222  1  0.33151328  0.15753763  -0.00039637  1
  O2-  O223  1  0.33712858  0.17030442  0.32532977  1
  O2-  O224  1  0.33343958  0.17017176  0.66364437  1
  O2-  O225  1  0.32759173  0.65136725  0.01382009  1
  O2-  O226  1  0.33427217  0.67346446  0.32791913  1
  O2-  O227  1  0.33105912  0.65967780  0.67032485  1
  O2-  O228  1  0.66175557  0.17979802  -0.00207067  1
  O2-  O229  1  0.66080465  0.16647643  0.33687105  1
  O2-  O230  1  0.67003280  0.15972124  0.66743279  1
  O2-  O231  1  0.66386458  0.64347919  0.00034823  1
  O2-  O232  1  0.67454980  0.66550867  0.32984053  1
  O2-  O233  1  0.67322122  0.67176835  0.67188255  1
  O2-  O234  1  0.16395436  0.14926257  -0.00388202  1
  O2-  O235  1  0.16809298  0.16048981  0.33042763  1
  O2-  O236  1  0.16602902  0.15543221  0.66649926  1
  O2-  O237  1  0.15902895  0.66869202  0.00905215  1
  O2-  O238  1  0.17304346  0.64818928  0.33491640  1
  O2-  O239  1  0.16454834  0.65543200  0.66501442  1
  O2-  O240  1  0.49500027  0.16657997  -0.00332933  1
  O2-  O241  1  0.49544456  0.16369881  0.33302940  1
  O2-  O242  1  0.48103119  0.17834921  0.66480275  1
  O2-  O243  1  0.49496799  0.64088483  -0.00598598  1
  O2-  O244  1  0.50272204  0.67106498  0.34297815  1
  O2-  O245  1  0.49924362  0.66078570  0.67340752  1
  O2-  O246  1  0.83516716  0.14221770  0.00687939  1
  O2-  O247  1  0.83495014  0.17714644  0.33704505  1
  O2-  O248  1  0.83031767  0.16796425  0.66689267  1
  O2-  O249  1  0.83459895  0.63819779  -0.00158111  1
  O2-  O250  1  0.84689050  0.67932425  0.34325621  1
  O2-  O251  1  0.83315663  0.66564865  0.66890446  1
  O2-  O252  1  0.00532181  0.35673706  -0.01027498  1
  O2-  O253  1  0.00160828  0.35296169  0.33157933  1
  O2-  O254  1  -0.00368263  0.31925576  0.66786352  1
  O2-  O255  1  -0.00388214  0.83218124  0.01089921  1
  O2-  O256  1  -0.00087247  0.84124702  0.33220070  1
  O2-  O257  1  -0.00000762  0.84459327  0.66988453  1
  O2-  O258  1  0.33198535  0.34293230  -0.00198559  1
  O2-  O259  1  0.33190953  0.32439061  0.33808791  1
  O2-  O260  1  0.34130640  0.32019983  0.66722107  1
  O2-  O261  1  0.33915581  0.84265458  -0.00468851  1
  O2-  O262  1  0.33190431  0.83285581  0.33872563  1
  O2-  O263  1  0.32973827  0.84724414  0.67530477  1
  O2-  O264  1  0.65737342  0.32362323  -0.00049680  1
  O2-  O265  1  0.66923408  0.33694367  0.33563501  1
  O2-  O266  1  0.66931629  0.33492777  0.66134201  1
  O2-  O267  1  0.66353490  0.85666305  0.00101565  1
  O2-  O268  1  0.67141083  0.84324444  0.33153239  1
  O2-  O269  1  0.66948954  0.84215019  0.66194578  1
  O2-  O270  1  0.16678950  0.34996490  0.00041174  1
  O2-  O271  1  0.16990234  0.35318283  0.33499194  1
  O2-  O272  1  0.15948282  0.33312127  0.66495600  1
  O2-  O273  1  0.17642378  0.84386974  0.00797674  1
  O2-  O274  1  0.16920789  0.85123070  0.33438258  1
  O2-  O275  1  0.16961609  0.84621813  0.67231422  1
  O2-  O276  1  0.49648446  0.33436782  -0.00358192  1
  O2-  O277  1  0.50126203  0.32545415  0.34225624  1
  O2-  O278  1  0.50705739  0.33362938  0.67644874  1
  O2-  O279  1  0.50477518  0.84356634  0.00640418  1
  O2-  O280  1  0.49943350  0.82675095  0.34065856  1
  O2-  O281  1  0.50316113  0.84143743  0.66963696  1
  O2-  O282  1  0.84131539  0.35374722  0.00077037  1
  O2-  O283  1  0.83098414  0.34271669  0.33570335  1
  O2-  O284  1  0.83488928  0.33467518  0.66493482  1
  O2-  O285  1  0.82957428  0.85159929  -0.00117855  1
  O2-  O286  1  0.83695714  0.83084128  0.33562539  1
  O2-  O287  1  0.82951711  0.83390681  0.66292825  1
  O2-  O288  1  -0.01068122  0.17460165  0.15826859  1
  O2-  O289  1  0.00791249  0.17530595  0.49503412  1
  O2-  O290  1  0.00404281  0.19103193  0.83390610  1
  O2-  O291  1  0.00352753  0.69058501  0.17172866  1
  O2-  O292  1  -0.00328129  0.67416963  0.49579588  1
  O2-  O293  1  0.00088803  0.68126830  0.82613580  1
  O2-  O294  1  0.33366484  0.17655449  0.16599049  1
  O2-  O295  1  0.33535187  0.18566041  0.49966953  1
  O2-  O296  1  0.33468341  0.18196434  0.84192288  1
  O2-  O297  1  0.33277611  0.68788597  0.16625809  1
  O2-  O298  1  0.32880093  0.68758323  0.50193780  1
  O2-  O299  1  0.33712537  0.67149501  0.83165067  1
  O2-  O300  1  0.66151325  0.17544143  0.16643993  1
  O2-  O301  1  0.66677365  0.17317216  0.49279609  1
  O2-  O302  1  0.66565782  0.18560900  0.83467103  1
  O2-  O303  1  0.65699511  0.67667908  0.16669399  1
  O2-  O304  1  0.67076994  0.68124554  0.49141253  1
  O2-  O305  1  0.66804443  0.68788601  0.83424936  1
  O2-  O306  1  0.17164973  0.17641152  0.16028889  1
  O2-  O307  1  0.16587738  0.17353068  0.50056723  1
  O2-  O308  1  0.16399631  0.18245232  0.83473353  1
  O2-  O309  1  0.16377572  0.68265913  0.16920277  1
  O2-  O310  1  0.16542244  0.68262304  0.50082831  1
  O2-  O311  1  0.16652562  0.67837551  0.82525685  1
  O2-  O312  1  0.49527716  0.18084535  0.17165901  1
  O2-  O313  1  0.49503262  0.17949112  0.48355614  1
  O2-  O314  1  0.49382092  0.18457352  0.84598436  1
  O2-  O315  1  0.50457427  0.67662021  0.16041294  1
  O2-  O316  1  0.49511362  0.69221317  0.50059633  1
  O2-  O317  1  0.49182554  0.67594245  0.83936765  1
  O2-  O318  1  0.83277883  0.17511990  0.16634264  1
  O2-  O319  1  0.82453484  0.17889328  0.50226481  1
  O2-  O320  1  0.83349506  0.18305568  0.83123981  1
  O2-  O321  1  0.83480050  0.69478084  0.17487587  1
  O2-  O322  1  0.83790795  0.68525415  0.50046110  1
  O2-  O323  1  0.83220023  0.68786787  0.83064094  1
  O2-  O324  1  -0.00631083  0.33384699  0.16391568  1
  O2-  O325  1  -0.00163814  0.31569852  0.49936298  1
  O2-  O326  1  0.00247575  0.30975833  0.83414638  1
  O2-  O327  1  0.00072348  0.81167033  0.17098146  1
  O2-  O328  1  -0.00492901  0.82946171  0.49101494  1
  O2-  O329  1  0.00653012  0.81284242  0.83850301  1
  O2-  O330  1  0.32919672  0.32186670  0.16100474  1
  O2-  O331  1  0.32894715  0.31325319  0.49690997  1
  O2-  O332  1  0.33597458  0.31576513  0.83356079  1
  O2-  O333  1  0.32757189  0.81788817  0.15825254  1
  O2-  O334  1  0.33358262  0.81559184  0.50094399  1
  O2-  O335  1  0.32945480  0.82568678  0.82615161  1
  O2-  O336  1  0.67060368  0.32334752  0.16694179  1
  O2-  O337  1  0.66296142  0.31450522  0.49680115  1
  O2-  O338  1  0.65976643  0.31419814  0.82949491  1
  O2-  O339  1  0.66175024  0.82649838  0.16112952  1
  O2-  O340  1  0.66709686  0.81844732  0.49989652  1
  O2-  O341  1  0.66994483  0.81880869  0.83573119  1
  O2-  O342  1  0.15822268  0.32868027  0.17661505  1
  O2-  O343  1  0.16666551  0.32166416  0.49610051  1
  O2-  O344  1  0.16521228  0.31386529  0.83522888  1
  O2-  O345  1  0.16150984  0.82019485  0.16933716  1
  O2-  O346  1  0.17329973  0.82269300  0.49715084  1
  O2-  O347  1  0.17308178  0.82311105  0.82678355  1
  O2-  O348  1  0.49922017  0.32277830  0.16027403  1
  O2-  O349  1  0.49947392  0.31827827  0.49886836  1
  O2-  O350  1  0.49378238  0.30859006  0.83517999  1
  O2-  O351  1  0.49897792  0.82407381  0.16332832  1
  O2-  O352  1  0.49896481  0.82107837  0.49559465  1
  O2-  O353  1  0.50224110  0.81567150  0.82865533  1
  O2-  O354  1  0.83113197  0.32846630  0.17303388  1
  O2-  O355  1  0.83901763  0.30819519  0.49933806  1
  O2-  O356  1  0.83609384  0.32053500  0.82643254  1
  O2-  O357  1  0.83469231  0.81639809  0.16791629  1
  O2-  O358  1  0.83219682  0.81754297  0.50002898  1
  O2-  O359  1  0.82781653  0.81754699  0.83529860  1
  O2-  O360  1  0.06619372  0.07930275  0.12305996  1
  O2-  O361  1  0.07773972  0.07922682  0.44271643  1
  O2-  O362  1  0.07878041  0.08063283  0.78862491  1
  O2-  O363  1  0.08439187  0.58394660  0.11093225  1
  O2-  O364  1  0.06621678  0.58084609  0.44449553  1
  O2-  O365  1  0.09517391  0.58006551  0.78262685  1
  O2-  O366  1  0.41622088  0.08569136  0.10047409  1
  O2-  O367  1  0.43481571  0.07737803  0.45488463  1
  O2-  O368  1  0.40506850  0.07128134  0.78433406  1
  O2-  O369  1  0.43100326  0.58030112  0.11700772  1
  O2-  O370  1  0.42082128  0.58297454  0.45466528  1
  O2-  O371  1  0.41721939  0.57399278  0.77582813  1
  O2-  O372  1  0.76669238  0.07911823  0.11758615  1
  O2-  O373  1  0.73853336  0.07758093  0.44510639  1
  O2-  O374  1  0.76531383  0.08400371  0.74544393  1
  O2-  O375  1  0.73766178  0.58186194  0.12640864  1
  O2-  O376  1  0.76702750  0.58337767  0.44648623  1
  O2-  O377  1  0.75636949  0.58930601  0.77162308  1
  O2-  O378  1  0.26252323  0.07877908  0.22100494  1
  O2-  O379  1  0.26183170  0.08577485  0.57791820  1
  O2-  O380  1  0.25358004  0.08696311  0.88508120  1
  O2-  O381  1  0.25091448  0.58340313  0.20947536  1
  O2-  O382  1  0.24492258  0.58870828  0.55156020  1
  O2-  O383  1  0.26074665  0.56846931  0.87623441  1
  O2-  O384  1  0.56569607  0.08385160  0.24712207  1
  O2-  O385  1  0.57853159  0.08052478  0.55267392  1
  O2-  O386  1  0.55549990  0.08363338  0.89206158  1
  O2-  O387  1  0.58000609  0.57792294  0.21711461  1
  O2-  O388  1  0.61560153  0.56003947  0.56059467  1
  O2-  O389  1  0.59906208  0.58129431  0.86955584  1
  O2-  O390  1  0.91191235  0.08218841  0.24230627  1
  O2-  O391  1  0.89357796  0.07445023  0.54975565  1
  O2-  O392  1  0.92695971  0.08095620  0.86405687  1
  O2-  O393  1  0.92412058  0.58664684  0.21024155  1
  O2-  O394  1  0.90274575  0.58418751  0.56417332  1
  O2-  O395  1  0.90505783  0.57929378  0.86883193  1
  O2-  O396  1  0.06779872  0.42436038  0.11937760  1
  O2-  O397  1  0.07592839  0.41660936  0.44772332  1
  O2-  O398  1  0.09020456  0.42142938  0.79208658  1
  O2-  O399  1  0.05967033  0.91765070  0.12070344  1
  O2-  O400  1  0.07274260  0.92048000  0.43876860  1
  O2-  O401  1  0.09759094  0.92074322  0.77848219  1
  O2-  O402  1  0.41938237  0.41785474  0.09005449  1
  O2-  O403  1  0.41140230  0.41645575  0.43963289  1
  O2-  O404  1  0.41396006  0.42650919  0.78158433  1
  O2-  O405  1  0.41532484  0.91273828  0.10508207  1
  O2-  O406  1  0.40934818  0.92111887  0.44101233  1
  O2-  O407  1  0.42445234  0.91698172  0.77957661  1
  O2-  O408  1  0.75171869  0.41954979  0.11554922  1
  O2-  O409  1  0.74458555  0.41637586  0.44379877  1
  O2-  O410  1  0.74640257  0.41269298  0.76609784  1
  O2-  O411  1  0.76311908  0.91844192  0.12326959  1
  O2-  O412  1  0.75058295  0.92212664  0.45821561  1
  O2-  O413  1  0.73799079  0.91968534  0.77240943  1
  O2-  O414  1  0.25111224  0.42249814  0.21375290  1
  O2-  O415  1  0.24522806  0.41010604  0.56390171  1
  O2-  O416  1  0.25042401  0.41361401  0.89978222  1
  O2-  O417  1  0.23871800  0.92759640  0.19569101  1
  O2-  O418  1  0.25246673  0.91616579  0.56783173  1
  O2-  O419  1  0.25178654  0.92052148  0.89256558  1
  O2-  O420  1  0.59654401  0.41578923  0.22019340  1
  O2-  O421  1  0.58227740  0.41262945  0.56568337  1
  O2-  O422  1  0.56560188  0.41558899  0.89177595  1
  O2-  O423  1  0.58444049  0.92353651  0.22209947  1
  O2-  O424  1  0.58396916  0.91566002  0.54655929  1
  O2-  O425  1  0.59690910  0.91839596  0.87615154  1
  O2-  O426  1  0.90460777  0.42367114  0.22166566  1
  O2-  O427  1  0.92804733  0.41366257  0.57701087  1
  O2-  O428  1  0.92291317  0.41926623  0.86249095  1
  O2-  O429  1  0.91703559  0.91430509  0.23338569  1
  O2-  O430  1  0.90113708  0.91966510  0.54853191  1
  O2-  O431  1  0.89807900  0.91730583  0.88509454  1
  O2-  O432  1  0.01110065  0.00813876  -0.00853584  1
  O2-  O433  1  -0.01360272  -0.00147347  0.36656367  1
  O2-  O434  1  0.00538110  0.02965796  0.65610799  1
  O2-  O435  1  -0.00179430  0.48093200  -0.00366770  1
  O2-  O436  1  -0.00307523  0.49772937  0.33995829  1
  O2-  O437  1  -0.01500466  0.50072678  0.70390532  1
  O2-  O438  1  0.32254785  0.00939498  0.02582045  1
  O2-  O439  1  0.34172660  0.00853631  0.32838242  1
  O2-  O440  1  0.32147893  -0.00673057  0.69790246  1
  O2-  O441  1  0.32948274  0.51138260  0.01439260  1
  O2-  O442  1  0.32713045  0.50733168  0.35536489  1
  O2-  O443  1  0.29408438  0.50946411  0.70042829  1
  O2-  O444  1  0.68373749  -0.01627370  -0.02083452  1
  O2-  O445  1  0.67600239  -0.01352489  0.32995273  1
  O2-  O446  1  0.68023154  -0.00971664  0.63605269  1
  O2-  O447  1  0.66260707  0.51216522  0.00015092  1
  O2-  O448  1  0.67879130  0.48814293  0.32501998  1
  O2-  O449  1  0.67652930  0.51510530  0.65348803  1
  O2-  O450  1  0.16897462  0.01279491  0.00354404  1
  O2-  O451  1  0.16828243  -0.02086819  0.33105301  1
  O2-  O452  1  0.17255741  0.00762855  0.69476960  1
  O2-  O453  1  0.15956862  0.50239748  -0.01472519  1
  O2-  O454  1  0.15423544  0.49418931  0.30563051  1
  O2-  O455  1  0.13361657  0.50025758  0.62130948  1
  O2-  O456  1  0.51280646  -0.01274964  0.00745125  1
  O2-  O457  1  0.52100261  0.00085160  0.36609510  1
  O2-  O458  1  0.50396159  0.00230137  0.67922935  1
  O2-  O459  1  0.50652051  0.51061268  0.00197429  1
  O2-  O460  1  0.51026974  0.49911062  0.36541893  1
  O2-  O461  1  0.52601849  0.49863909  0.70915041  1
  O2-  O462  1  0.85221522  0.00071321  0.01509635  1
  O2-  O463  1  0.83715881  -0.01876849  0.35280256  1
  O2-  O464  1  0.83042233  -0.00457309  0.64335166  1
  O2-  O465  1  0.85119141  0.50298301  0.02594614  1
  O2-  O466  1  0.84166330  0.50452494  0.35574534  1
  O2-  O467  1  0.83105130  0.50430713  0.69107469  1
  O2-  O468  1  0.59048343  0.24924838  0.25889395  1
  O2-  O469  1  0.08078155  0.75062609  0.72471198  1
  O2-  O470  1  0.91209528  0.25253471  0.95302284  1
  O2-  O471  1  0.92858195  0.25019536  0.26165701  1
  O2-  O472  1  0.07431466  0.25085504  0.06263841  1
  O2-  O473  1  0.74436728  0.75107516  0.05479962  1
  O2-  O474  1  0.08761406  0.25109019  0.39183853  1
  O2-  O475  1  0.25496254  0.75587561  0.93026935  1
  O2-  O476  1  0.75070284  0.24940681  0.73260855  1
  O2-  O477  1  0.41319491  0.75089567  0.73171895  1
  O2-  O478  1  0.23823354  0.24934288  0.26004698  1
  O2-  O479  1  0.42177171  0.74590284  0.05443360  1
  O2-  O480  1  0.59074833  0.75084439  0.25833735  1
  O2-  O481  1  0.08265856  0.75089830  0.39425795  1
  O2-  O482  1  0.58007988  0.24952320  0.59571157  1
  O2-  O483  1  0.77072859  0.24804759  0.06804522  1
  O2-  O484  1  0.23355862  0.24841709  0.59921439  1
  O2-  O485  1  0.58005931  0.75243361  0.59713235  1
  O2-  O486  1  0.41121878  0.25026815  0.06684763  1
  O2-  O487  1  0.93651078  0.75073497  0.60324998  1
  O2-  O488  1  0.89879918  0.74775090  0.94894299  1
  O2-  O489  1  0.58652410  0.74639537  0.94893680  1
  O2-  O490  1  0.24310492  0.75208732  0.61160248  1
  O2-  O491  1  0.24285109  0.25076205  0.94933794  1
  O2-  O492  1  0.24122605  0.75227106  0.27263553  1
