# generated using pymatgen
data_Ca108Mn108O277
_symmetry_space_group_name_H-M   'P 1'
_cell_length_a   16.02867570
_cell_length_b   22.30535316
_cell_length_c   16.38945352
_cell_angle_alpha   89.99924915
_cell_angle_beta   89.99635298
_cell_angle_gamma   90.00295433
_symmetry_Int_Tables_number   1
_chemical_formula_structural   Ca108Mn108O277
_chemical_formula_sum   'Ca108 Mn108 O277'
_cell_volume   5859.64380762
_cell_formula_units_Z   1
loop_
 _symmetry_equiv_pos_site_id
 _symmetry_equiv_pos_as_xyz
  1  'x, y, z'
loop_
 _atom_type_symbol
 _atom_type_oxidation_number
  Ca2+  2.0
  Mn3.34+  3.34
  O2-  -2.0
loop_
 _atom_site_type_symbol
 _atom_site_label
 _atom_site_symmetry_multiplicity
 _atom_site_fract_x
 _atom_site_fract_y
 _atom_site_fract_z
 _atom_site_occupancy
  Ca2+  Ca0  1  0.08779471  0.24655717  0.23740824  1
  Ca2+  Ca1  1  0.09014409  0.27151355  0.58321813  1
  Ca2+  Ca2  1  0.08490420  0.24846071  0.93560403  1
  Ca2+  Ca3  1  0.08548846  0.74529772  0.24804712  1
  Ca2+  Ca4  1  0.07670810  0.74432140  0.56786731  1
  Ca2+  Ca5  1  0.09388252  0.75191933  0.92809844  1
  Ca2+  Ca6  1  0.39099801  0.24813328  0.23521010  1
  Ca2+  Ca7  1  0.44234817  0.25538806  0.59575441  1
  Ca2+  Ca8  1  0.42102297  0.25133954  0.89586279  1
  Ca2+  Ca9  1  0.41465520  0.75301239  0.23746659  1
  Ca2+  Ca10  1  0.43635699  0.75124718  0.59217963  1
  Ca2+  Ca11  1  0.40502366  0.74180369  0.91883271  1
  Ca2+  Ca12  1  0.77402522  0.24097711  0.26607756  1
  Ca2+  Ca13  1  0.72700230  0.24810726  0.59594479  1
  Ca2+  Ca14  1  0.73908036  0.26082389  0.89499092  1
  Ca2+  Ca15  1  0.73901145  0.73209538  0.24802107  1
  Ca2+  Ca16  1  0.74384668  0.74350011  0.58189920  1
  Ca2+  Ca17  1  0.74468134  0.74790376  0.91684900  1
  Ca2+  Ca18  1  0.23515824  0.25460697  0.08903093  1
  Ca2+  Ca19  1  0.24705959  0.25452262  0.39239524  1
  Ca2+  Ca20  1  0.26865082  0.25512652  0.75909797  1
  Ca2+  Ca21  1  0.25067938  0.74363823  0.08400382  1
  Ca2+  Ca22  1  0.23826638  0.75631036  0.40495496  1
  Ca2+  Ca23  1  0.25851134  0.74878259  0.76632858  1
  Ca2+  Ca24  1  0.56948438  0.26662374  0.07904886  1
  Ca2+  Ca25  1  0.60299546  0.24245659  0.44045233  1
  Ca2+  Ca26  1  0.58982505  0.25309056  0.74090780  1
  Ca2+  Ca27  1  0.57295742  0.74503748  0.08771869  1
  Ca2+  Ca28  1  0.59768558  0.75488022  0.42055016  1
  Ca2+  Ca29  1  0.58858621  0.73561504  0.73897618  1
  Ca2+  Ca30  1  0.94300001  0.24930847  0.09524455  1
  Ca2+  Ca31  1  0.89824039  0.25003020  0.40160388  1
  Ca2+  Ca32  1  0.89040984  0.25378211  0.76270891  1
  Ca2+  Ca33  1  0.92100557  0.73988395  0.08784480  1
  Ca2+  Ca34  1  0.91284743  0.74938390  0.41058147  1
  Ca2+  Ca35  1  0.89672436  0.74525626  0.74978090  1
  Ca2+  Ca36  1  0.61582710  0.09891752  0.42453794  1
  Ca2+  Ca37  1  0.93586510  0.57892564  0.39468137  1
  Ca2+  Ca38  1  0.75517081  0.59211034  0.58956226  1
  Ca2+  Ca39  1  0.60234452  0.59205843  0.37421387  1
  Ca2+  Ca40  1  0.45180575  0.10241970  0.58594227  1
  Ca2+  Ca41  1  0.74458327  0.57748403  0.92828975  1
  Ca2+  Ca42  1  0.21306985  0.57649848  0.39789265  1
  Ca2+  Ca43  1  0.43544519  0.59875449  0.62254740  1
  Ca2+  Ca44  1  0.88550454  0.08831965  0.34300990  1
  Ca2+  Ca45  1  0.44051461  0.59386576  0.23247666  1
  Ca2+  Ca46  1  0.28226961  0.10727483  0.77295975  1
  Ca2+  Ca47  1  0.07036435  0.58113715  0.25837449  1
  Ca2+  Ca48  1  0.44994584  0.09999579  0.57645845  1
  Ca2+  Ca49  1  0.57420931  0.07865111  0.06878101  1
  Ca2+  Ca50  1  0.88709932  0.08132285  0.34098698  1
  Ca2+  Ca51  1  0.40496662  0.10379654  0.25364585  1
  Ca2+  Ca52  1  0.27463572  0.10369631  0.77837452  1
  Ca2+  Ca53  1  0.27499222  0.60753374  0.76601644  1
  Ca2+  Ca54  1  0.60970167  0.60125479  0.11355484  1
  Ca2+  Ca55  1  0.42834619  0.59375138  0.23471247  1
  Ca2+  Ca56  1  0.59020662  0.10703859  0.75624417  1
  Ca2+  Ca57  1  0.74324047  0.10611026  0.89416844  1
  Ca2+  Ca58  1  0.10239055  0.08650861  0.95664637  1
  Ca2+  Ca59  1  0.97186358  0.09798794  0.11960713  1
  Ca2+  Ca60  1  0.58201463  0.11008350  0.75162406  1
  Ca2+  Ca61  1  0.26966090  0.09726749  0.39459153  1
  Ca2+  Ca62  1  0.08365521  0.58123236  0.93236006  1
  Ca2+  Ca63  1  0.75232069  0.10955878  0.89056430  1
  Ca2+  Ca64  1  0.10803883  0.08154325  0.95119584  1
  Ca2+  Ca65  1  0.58696654  0.07874416  0.06812836  1
  Ca2+  Ca66  1  0.72704943  0.11212873  0.58706967  1
  Ca2+  Ca67  1  0.08735583  0.07960782  0.58783628  1
  Ca2+  Ca68  1  0.23139488  0.11492267  0.10305642  1
  Ca2+  Ca69  1  0.22152809  0.11305523  0.10025770  1
  Ca2+  Ca70  1  0.59562322  0.58635747  0.37645631  1
  Ca2+  Ca71  1  0.41477024  0.10689406  0.91549829  1
  Ca2+  Ca72  1  0.25421678  0.89965067  0.75533575  1
  Ca2+  Ca73  1  0.09426000  0.89501742  0.58263932  1
  Ca2+  Ca74  1  0.43895426  0.90740752  0.25536628  1
  Ca2+  Ca75  1  0.10140058  0.92532045  0.94510761  1
  Ca2+  Ca76  1  0.92002192  0.41832092  0.07539944  1
  Ca2+  Ca77  1  0.41978727  0.40235928  0.24228799  1
  Ca2+  Ca78  1  0.05031476  0.91735780  0.24877530  1
  Ca2+  Ca79  1  0.58961148  0.90484820  0.75752643  1
  Ca2+  Ca80  1  0.57691594  0.90438582  0.75748882  1
  Ca2+  Ca81  1  0.93452365  0.41958885  0.40265164  1
  Ca2+  Ca82  1  0.75897212  0.40678396  0.25206603  1
  Ca2+  Ca83  1  0.22902862  0.41170354  0.40570774  1
  Ca2+  Ca84  1  0.06965233  0.41000829  0.57805815  1
  Ca2+  Ca85  1  0.24976750  0.40701291  0.07930770  1
  Ca2+  Ca86  1  0.23428342  0.92213518  0.06375123  1
  Ca2+  Ca87  1  0.08114849  0.89575782  0.58247719  1
  Ca2+  Ca88  1  0.06281565  0.91839955  0.24910733  1
  Ca2+  Ca89  1  0.24315682  0.40236775  0.75384680  1
  Ca2+  Ca90  1  0.58491520  0.91239793  0.40393398  1
  Ca2+  Ca91  1  0.58757071  0.42018313  0.06864283  1
  Ca2+  Ca92  1  0.41984613  0.90084932  0.58313742  1
  Ca2+  Ca93  1  0.75133115  0.41151315  0.91340536  1
  Ca2+  Ca94  1  0.90930442  0.41822465  0.07589077  1
  Ca2+  Ca95  1  0.25135761  0.90573739  0.42093002  1
  Ca2+  Ca96  1  0.58407632  0.39805147  0.41501520  1
  Ca2+  Ca97  1  0.59030331  0.40520746  0.75817370  1
  Ca2+  Ca98  1  0.58537016  0.90676274  0.07877715  1
  Ca2+  Ca99  1  0.75601853  0.90769451  0.26189660  1
  Ca2+  Ca100  1  0.06768745  0.42217744  0.26113905  1
  Ca2+  Ca101  1  0.75122956  0.89884798  0.58233436  1
  Ca2+  Ca102  1  0.43040823  0.40212631  0.24227259  1
  Ca2+  Ca103  1  0.07291253  0.41222863  0.91943795  1
  Ca2+  Ca104  1  0.92093181  0.90181548  0.07991640  1
  Ca2+  Ca105  1  0.91590230  0.89108251  0.75068205  1
  Ca2+  Ca106  1  0.40911441  0.90936925  0.91558789  1
  Ca2+  Ca107  1  0.74170063  0.89917906  0.91944220  1
  Mn3.34+  Mn108  1  0.08520477  0.33840424  0.08501363  1
  Mn3.34+  Mn109  1  0.07974491  0.33669446  0.41692933  1
  Mn3.34+  Mn110  1  0.07776393  0.33617073  0.75073280  1
  Mn3.34+  Mn111  1  0.08251952  0.83149090  0.08675816  1
  Mn3.34+  Mn112  1  0.07900395  0.83285593  0.41180782  1
  Mn3.34+  Mn113  1  0.08388205  0.82256352  0.75491735  1
  Mn3.34+  Mn114  1  0.41481166  0.33617976  0.07343789  1
  Mn3.34+  Mn115  1  0.41589893  0.32749264  0.42223608  1
  Mn3.34+  Mn116  1  0.41848728  0.33429545  0.74842195  1
  Mn3.34+  Mn117  1  0.41360405  0.83273018  0.08296797  1
  Mn3.34+  Mn118  1  0.41659971  0.83503984  0.41406563  1
  Mn3.34+  Mn119  1  0.41871588  0.82445078  0.75321298  1
  Mn3.34+  Mn120  1  0.74927160  0.33439832  0.08589557  1
  Mn3.34+  Mn121  1  0.75253173  0.33116700  0.42232839  1
  Mn3.34+  Mn122  1  0.75132777  0.33796335  0.74358687  1
  Mn3.34+  Mn123  1  0.75021931  0.82584839  0.08750229  1
  Mn3.34+  Mn124  1  0.75601434  0.83358352  0.41650413  1
  Mn3.34+  Mn125  1  0.74916388  0.82802420  0.75248544  1
  Mn3.34+  Mn126  1  0.24645392  0.33553704  0.24677921  1
  Mn3.34+  Mn127  1  0.25513204  0.33424852  0.58042042  1
  Mn3.34+  Mn128  1  0.25057627  0.33986017  0.91306452  1
  Mn3.34+  Mn129  1  0.24994213  0.83434959  0.24503279  1
  Mn3.34+  Mn130  1  0.25435189  0.82496308  0.58338740  1
  Mn3.34+  Mn131  1  0.24881369  0.83483826  0.91861318  1
  Mn3.34+  Mn132  1  0.58765000  0.33389174  0.24907813  1
  Mn3.34+  Mn133  1  0.58320758  0.33918308  0.58298178  1
  Mn3.34+  Mn134  1  0.58049535  0.34050404  0.91361815  1
  Mn3.34+  Mn135  1  0.58973456  0.83751214  0.24379729  1
  Mn3.34+  Mn136  1  0.58530361  0.83254363  0.57723378  1
  Mn3.34+  Mn137  1  0.57876499  0.83210571  0.91964599  1
  Mn3.34+  Mn138  1  0.91812278  0.33506603  0.24757529  1
  Mn3.34+  Mn139  1  0.90731108  0.34272821  0.58091098  1
  Mn3.34+  Mn140  1  0.91676937  0.33663417  0.91333881  1
  Mn3.34+  Mn141  1  0.90935542  0.83195246  0.24311965  1
  Mn3.34+  Mn142  1  0.91501361  0.82492148  0.58142291  1
  Mn3.34+  Mn143  1  0.91973923  0.82969409  0.91787272  1
  Mn3.34+  Mn144  1  0.91700862  0.17128882  0.91992140  1
  Mn3.34+  Mn145  1  0.58410834  0.65719220  0.91354467  1
  Mn3.34+  Mn146  1  0.91942136  0.17000900  0.57910570  1
  Mn3.34+  Mn147  1  0.91671866  0.66134986  0.92220138  1
  Mn3.34+  Mn148  1  0.24685714  0.66522537  0.24520079  1
  Mn3.34+  Mn149  1  0.41428194  0.16889995  0.08286315  1
  Mn3.34+  Mn150  1  0.24847278  0.66620225  0.92223726  1
  Mn3.34+  Mn151  1  0.91292290  0.65828138  0.24406498  1
  Mn3.34+  Mn152  1  0.58035968  0.17229953  0.91898206  1
  Mn3.34+  Mn153  1  0.25298605  0.66749673  0.58138841  1
  Mn3.34+  Mn154  1  0.91246199  0.18051239  0.58252249  1
  Mn3.34+  Mn155  1  0.59401671  0.16180334  0.24639127  1
  Mn3.34+  Mn156  1  0.58022985  0.16759475  0.24928516  1
  Mn3.34+  Mn157  1  0.56929590  0.66208476  0.90922134  1
  Mn3.34+  Mn158  1  0.91925183  0.65817235  0.57766661  1
  Mn3.34+  Mn159  1  0.08653130  0.16207586  0.41600557  1
  Mn3.34+  Mn160  1  0.07009696  0.16792515  0.75233436  1
  Mn3.34+  Mn161  1  0.90649016  0.65647014  0.92118450  1
  Mn3.34+  Mn162  1  0.75234877  0.18017018  0.08166161  1
  Mn3.34+  Mn163  1  0.25502679  0.16905311  0.58002308  1
  Mn3.34+  Mn164  1  0.06816598  0.65486216  0.74700390  1
  Mn3.34+  Mn165  1  0.24397734  0.67368974  0.58126588  1
  Mn3.34+  Mn166  1  0.40429834  0.66560818  0.42210899  1
  Mn3.34+  Mn167  1  0.07635207  0.66071927  0.74930713  1
  Mn3.34+  Mn168  1  0.08427735  0.17313961  0.75077766  1
  Mn3.34+  Mn169  1  0.75710609  0.67024715  0.41664271  1
  Mn3.34+  Mn170  1  0.41127882  0.66404609  0.07884605  1
  Mn3.34+  Mn171  1  0.24484738  0.16318393  0.57801134  1
  Mn3.34+  Mn172  1  0.42242166  0.17300741  0.41579822  1
  Mn3.34+  Mn173  1  0.08526466  0.66323700  0.08894217  1
  Mn3.34+  Mn174  1  0.41820265  0.67134882  0.41854322  1
  Mn3.34+  Mn175  1  0.76136914  0.17089384  0.08640194  1
  Mn3.34+  Mn176  1  0.75096465  0.65812830  0.74901586  1
  Mn3.34+  Mn177  1  0.58790874  0.66279669  0.58014245  1
  Mn3.34+  Mn178  1  0.07449248  0.16981096  0.41255136  1
  Mn3.34+  Mn179  1  0.07810560  0.66699745  0.41271796  1
  Mn3.34+  Mn180  1  0.90493168  -0.00176750  0.90700651  1
  Mn3.34+  Mn181  1  0.41992697  0.50234215  0.43846112  1
  Mn3.34+  Mn182  1  0.07250243  -0.00082700  0.41655585  1
  Mn3.34+  Mn183  1  0.90487222  0.00274204  0.56829445  1
  Mn3.34+  Mn184  1  0.07016972  0.49586812  0.74448534  1
  Mn3.34+  Mn185  1  0.42317514  0.50222184  0.05213024  1
  Mn3.34+  Mn186  1  0.91738860  -0.00080035  0.57121860  1
  Mn3.34+  Mn187  1  0.25000307  0.50193141  0.24809267  1
  Mn3.34+  Mn188  1  0.40862361  0.49689348  0.43730825  1
  Mn3.34+  Mn189  1  0.75179838  0.50170572  0.07269057  1
  Mn3.34+  Mn190  1  0.41285345  -0.00170546  0.08270123  1
  Mn3.34+  Mn191  1  0.75856284  0.00454406  0.10449894  1
  Mn3.34+  Mn192  1  0.09336020  0.00492551  0.75800690  1
  Mn3.34+  Mn193  1  0.43517684  0.50184818  0.76232387  1
  Mn3.34+  Mn194  1  0.39679840  0.00205551  0.08182324  1
  Mn3.34+  Mn195  1  0.07890798  -0.00125424  0.75862181  1
  Mn3.34+  Mn196  1  0.42634101  0.00070893  0.41096116  1
  Mn3.34+  Mn197  1  0.58991460  -0.00499888  0.58594781  1
  Mn3.34+  Mn198  1  0.74648547  -0.00456512  0.40664864  1
  Mn3.34+  Mn199  1  0.75280242  -0.00372715  0.74685515  1
  Mn3.34+  Mn200  1  0.25595723  -0.00526622  0.24971246  1
  Mn3.34+  Mn201  1  0.75160786  0.50155612  0.73912842  1
  Mn3.34+  Mn202  1  0.24151435  0.50375832  0.59319329  1
  Mn3.34+  Mn203  1  0.76503735  0.50043319  0.42255942  1
  Mn3.34+  Mn204  1  0.24168903  0.00103368  0.24945187  1
  Mn3.34+  Mn205  1  0.58677054  0.49892120  0.58727366  1
  Mn3.34+  Mn206  1  0.25809087  0.00144899  0.58358411  1
  Mn3.34+  Mn207  1  0.41947711  0.50091200  0.76221725  1
  Mn3.34+  Mn208  1  0.76938479  0.00130369  0.10577893  1
  Mn3.34+  Mn209  1  0.25482074  0.49726208  0.59226615  1
  Mn3.34+  Mn210  1  0.25548654  0.50339524  0.92597899  1
  Mn3.34+  Mn211  1  0.91734525  0.50164739  0.59317088  1
  Mn3.34+  Mn212  1  0.91856816  0.00523472  0.90780728  1
  Mn3.34+  Mn213  1  0.08593712  0.50455270  0.07620176  1
  Mn3.34+  Mn214  1  0.41880629  -0.00241138  0.74768507  1
  Mn3.34+  Mn215  1  0.75248151  0.49386720  0.42327125  1
  O2-  O216  1  -0.00048789  0.14638495  -0.00941499  1
  O2-  O217  1  -0.00381336  0.14965415  0.33808619  1
  O2-  O218  1  0.00688193  0.15937849  0.65484462  1
  O2-  O219  1  -0.00240596  0.65311949  0.00471710  1
  O2-  O220  1  -0.00292051  0.67055907  0.32926115  1
  O2-  O221  1  -0.00368827  0.69424877  0.66317815  1
  O2-  O222  1  0.33464832  0.14467141  0.01115992  1
  O2-  O223  1  0.34603794  0.17629366  0.33263799  1
  O2-  O224  1  0.33833397  0.14045756  0.65697205  1
  O2-  O225  1  0.32636101  0.66374513  0.00348970  1
  O2-  O226  1  0.33101325  0.64574869  0.33620256  1
  O2-  O227  1  0.33178451  0.67863860  0.66681310  1
  O2-  O228  1  0.67039690  0.15622127  0.00130188  1
  O2-  O229  1  0.67204462  0.15414688  0.32446969  1
  O2-  O230  1  0.65885518  0.16507284  0.67603154  1
  O2-  O231  1  0.66352260  0.65388387  -0.00833917  1
  O2-  O232  1  0.66913080  0.66800734  0.33840208  1
  O2-  O233  1  0.67079103  0.65345062  0.66115045  1
  O2-  O234  1  0.17329049  0.16492103  -0.00602671  1
  O2-  O235  1  0.17182491  0.15544307  0.34340495  1
  O2-  O236  1  0.17024759  0.13488853  0.67358886  1
  O2-  O237  1  0.15575526  0.65560225  -0.00418667  1
  O2-  O238  1  0.16259384  0.65487497  0.32698880  1
  O2-  O239  1  0.16433893  0.67735007  0.66774445  1
  O2-  O240  1  0.50475341  0.15059069  0.00610048  1
  O2-  O241  1  0.50673450  0.14299817  0.34049063  1
  O2-  O242  1  0.49980739  0.15337277  0.67556365  1
  O2-  O243  1  0.49973568  0.65588723  -0.00066627  1
  O2-  O244  1  0.49543750  0.65291808  0.33483947  1
  O2-  O245  1  0.50527053  0.67481773  0.65756376  1
  O2-  O246  1  0.83204707  0.14731421  0.00042339  1
  O2-  O247  1  0.83639144  0.17013653  0.33691359  1
  O2-  O248  1  0.83502109  0.17171253  0.66279273  1
  O2-  O249  1  0.82296784  0.66408706  -0.00339226  1
  O2-  O250  1  0.84211499  0.67010328  0.33749709  1
  O2-  O251  1  0.83672180  0.66592265  0.66052503  1
  O2-  O252  1  -0.00114271  0.34997819  0.00697413  1
  O2-  O253  1  -0.00007754  0.34943878  0.33163775  1
  O2-  O254  1  -0.00178241  0.33786768  0.65950714  1
  O2-  O255  1  0.00625149  0.84773580  -0.00413103  1
  O2-  O256  1  -0.00082474  0.83865875  0.31997829  1
  O2-  O257  1  0.00385370  0.82694200  0.66392218  1
  O2-  O258  1  0.32056973  0.32883381  0.00539522  1
  O2-  O259  1  0.33392412  0.33905675  0.33063413  1
  O2-  O260  1  0.32687810  0.34468798  0.67265563  1
  O2-  O261  1  0.33024222  0.85348941  0.00219934  1
  O2-  O262  1  0.33342207  0.85527108  0.32857265  1
  O2-  O263  1  0.33491104  0.82340722  0.66991264  1
  O2-  O264  1  0.67088101  0.33705938  -0.00133792  1
  O2-  O265  1  0.67049762  0.35054981  0.32952398  1
  O2-  O266  1  0.66453454  0.34833592  0.66801920  1
  O2-  O267  1  0.66657346  0.83892748  0.00360753  1
  O2-  O268  1  0.66728202  0.84395374  0.33290903  1
  O2-  O269  1  0.66410359  0.85029142  0.66852745  1
  O2-  O270  1  0.16195777  0.34348020  -0.00553775  1
  O2-  O271  1  0.16298734  0.34833786  0.32606914  1
  O2-  O272  1  0.16084058  0.35492295  0.65861973  1
  O2-  O273  1  0.16534424  0.84568897  0.00265335  1
  O2-  O274  1  0.16620308  0.85515069  0.33039821  1
  O2-  O275  1  0.16610119  0.82521390  0.66584743  1
  O2-  O276  1  0.50452015  0.34868186  0.00407964  1
  O2-  O277  1  0.49641431  0.34060738  0.33056221  1
  O2-  O278  1  0.50172153  0.34855552  0.66821446  1
  O2-  O279  1  0.49534952  0.85055089  -0.00085436  1
  O2-  O280  1  0.50826350  0.83810870  0.33158301  1
  O2-  O281  1  0.50130256  0.83740472  0.66509606  1
  O2-  O282  1  0.83372303  0.34699760  0.00542348  1
  O2-  O283  1  0.83740105  0.34548873  0.33443301  1
  O2-  O284  1  0.83440679  0.32077047  0.66336251  1
  O2-  O285  1  0.83163320  0.84049998  0.00085909  1
  O2-  O286  1  0.83282965  0.83145849  0.32850550  1
  O2-  O287  1  0.83433632  0.83571665  0.66803081  1
  O2-  O288  1  0.01334873  0.18156538  0.16930646  1
  O2-  O289  1  0.00026713  0.19147042  0.49982588  1
  O2-  O290  1  -0.00517391  0.18721218  0.83579181  1
  O2-  O291  1  0.00260699  0.68019806  0.17340125  1
  O2-  O292  1  -0.00399895  0.68391963  0.49420344  1
  O2-  O293  1  -0.00562480  0.68161708  0.83726794  1
  O2-  O294  1  0.33262452  0.17437660  0.15817186  1
  O2-  O295  1  0.32978370  0.18358294  0.49032382  1
  O2-  O296  1  0.33093684  0.17769451  0.84207912  1
  O2-  O297  1  0.33984040  0.67573516  0.17553531  1
  O2-  O298  1  0.33806827  0.69647116  0.50740317  1
  O2-  O299  1  0.32398867  0.68173325  0.84055693  1
  O2-  O300  1  0.66522469  0.19584813  0.15545637  1
  O2-  O301  1  0.67111268  0.17230425  0.50154294  1
  O2-  O302  1  0.66272164  0.17947733  0.84104498  1
  O2-  O303  1  0.65633233  0.68972527  0.15883303  1
  O2-  O304  1  0.66792917  0.67035127  0.49478610  1
  O2-  O305  1  0.66424263  0.67899298  0.83513567  1
  O2-  O306  1  0.16441759  0.18431434  0.16453801  1
  O2-  O307  1  0.15375067  0.18524882  0.50705654  1
  O2-  O308  1  0.16860115  0.17563295  0.82775993  1
  O2-  O309  1  0.16890135  0.68229297  0.16602358  1
  O2-  O310  1  0.17066375  0.68200595  0.49167309  1
  O2-  O311  1  0.16178160  0.68414791  0.83067838  1
  O2-  O312  1  0.49738169  0.17988222  0.17150650  1
  O2-  O313  1  0.49418068  0.17845579  0.50237452  1
  O2-  O314  1  0.50372964  0.17129026  0.84022721  1
  O2-  O315  1  0.49149617  0.67378795  0.16397240  1
  O2-  O316  1  0.50185957  0.68326983  0.49549929  1
  O2-  O317  1  0.49766860  0.68671635  0.83394663  1
  O2-  O318  1  0.84353273  0.18885683  0.15715020  1
  O2-  O319  1  0.83405008  0.18157231  0.50301678  1
  O2-  O320  1  0.82628188  0.18489508  0.85051890  1
  O2-  O321  1  0.84154449  0.68758771  0.17661371  1
  O2-  O322  1  0.83343238  0.68553469  0.50313200  1
  O2-  O323  1  0.83032752  0.67998596  0.83705828  1
  O2-  O324  1  0.00077556  0.33219543  0.16317226  1
  O2-  O325  1  -0.00061467  0.31928279  0.49825107  1
  O2-  O326  1  0.00291596  0.31689547  0.83931034  1
  O2-  O327  1  -0.00445913  0.81498920  0.16397832  1
  O2-  O328  1  0.00295660  0.81677609  0.50451786  1
  O2-  O329  1  -0.00587606  0.81210321  0.82474985  1
  O2-  O330  1  0.33800451  0.33036230  0.16812571  1
  O2-  O331  1  0.33411864  0.30495583  0.49743073  1
  O2-  O332  1  0.33445185  0.32146286  0.83674229  1
  O2-  O333  1  0.33263455  0.81872965  0.16506854  1
  O2-  O334  1  0.33321336  0.82181581  0.50057594  1
  O2-  O335  1  0.33729908  0.82032021  0.83790433  1
  O2-  O336  1  0.66428262  0.32073598  0.16448632  1
  O2-  O337  1  0.66388308  0.32551152  0.49747875  1
  O2-  O338  1  0.66241964  0.32811653  0.82991585  1
  O2-  O339  1  0.66680318  0.80958098  0.16741975  1
  O2-  O340  1  0.66823671  0.82947015  0.49928200  1
  O2-  O341  1  0.66440193  0.82453436  0.83299771  1
  O2-  O342  1  0.17308550  0.33382993  0.15946103  1
  O2-  O343  1  0.17149992  0.32310405  0.49177231  1
  O2-  O344  1  0.17152849  0.31602368  0.83045801  1
  O2-  O345  1  0.15876523  0.82039315  0.17348565  1
  O2-  O346  1  0.16706541  0.81721749  0.50535014  1
  O2-  O347  1  0.16925702  0.81561900  0.83144324  1
  O2-  O348  1  0.49351950  0.32369673  0.17252109  1
  O2-  O349  1  0.50486640  0.31501678  0.49295319  1
  O2-  O350  1  0.50561570  0.32213134  0.82803179  1
  O2-  O351  1  0.50203631  0.81880197  0.16826240  1
  O2-  O352  1  0.49911160  0.81855387  0.50041630  1
  O2-  O353  1  0.50608292  0.81624850  0.82607041  1
  O2-  O354  1  0.83219412  0.31839101  0.16607364  1
  O2-  O355  1  0.83502114  0.31154265  0.50145654  1
  O2-  O356  1  0.82876338  0.32814880  0.83884054  1
  O2-  O357  1  0.83343648  0.80701877  0.16321335  1
  O2-  O358  1  0.82963778  0.81775494  0.50679149  1
  O2-  O359  1  0.83058892  0.81939995  0.83671504  1
  O2-  O360  1  0.10189564  0.07538644  0.09317407  1
  O2-  O361  1  0.07853068  0.08173977  0.45243097  1
  O2-  O362  1  0.06183748  0.08542963  0.77988226  1
  O2-  O363  1  0.08563503  0.57947524  0.11796689  1
  O2-  O364  1  0.07642244  0.58708546  0.42588361  1
  O2-  O365  1  0.08683484  0.57400740  0.78997258  1
  O2-  O366  1  0.43775273  0.07915106  0.12089037  1
  O2-  O367  1  0.40907559  0.07856756  0.45210202  1
  O2-  O368  1  0.41294384  0.07347297  0.79008733  1
  O2-  O369  1  0.41220522  0.57865922  0.10353793  1
  O2-  O370  1  0.40866987  0.58283678  0.47001042  1
  O2-  O371  1  0.41077247  0.58422757  0.76381534  1
  O2-  O372  1  0.74023957  0.08782693  0.11717465  1
  O2-  O373  1  0.76984909  0.05972589  0.46289080  1
  O2-  O374  1  0.72463026  0.07672116  0.76797701  1
  O2-  O375  1  0.74635555  0.56893846  0.11519809  1
  O2-  O376  1  0.75001347  0.58235221  0.43869466  1
  O2-  O377  1  0.75604442  0.57579415  0.78560138  1
  O2-  O378  1  0.26466501  0.08215153  0.23040828  1
  O2-  O379  1  0.23832744  0.08056761  0.53163081  1
  O2-  O380  1  0.19373037  0.04923841  0.84961909  1
  O2-  O381  1  0.25565161  0.58163415  0.22692647  1
  O2-  O382  1  0.25645076  0.58167463  0.54460426  1
  O2-  O383  1  0.23995454  0.58245524  0.89149192  1
  O2-  O384  1  0.58517762  0.08317403  0.20422990  1
  O2-  O385  1  0.58663797  0.07401681  0.55362724  1
  O2-  O386  1  0.60318778  0.08439957  0.89839026  1
  O2-  O387  1  0.56877097  0.57540003  0.24101727  1
  O2-  O388  1  0.57457300  0.57620838  0.53704740  1
  O2-  O389  1  0.59156505  0.57917883  0.89022617  1
  O2-  O390  1  0.89624374  0.06329576  0.21703879  1
  O2-  O391  1  0.93030876  0.08569416  0.55054821  1
  O2-  O392  1  0.89121021  0.08371282  0.88057136  1
  O2-  O393  1  0.92424067  0.58274375  0.24268258  1
  O2-  O394  1  0.90146382  0.57284305  0.53618840  1
  O2-  O395  1  0.91885037  0.57793366  0.89663379  1
  O2-  O396  1  0.08965801  0.42735372  0.11724653  1
  O2-  O397  1  0.08336748  0.41643562  0.44040855  1
  O2-  O398  1  0.08635675  0.41771259  0.78347652  1
  O2-  O399  1  0.07653533  0.91537496  0.11367737  1
  O2-  O400  1  0.08649605  0.91683220  0.45216258  1
  O2-  O401  1  0.08779080  0.91484153  0.76057104  1
  O2-  O402  1  0.41919009  0.42410226  0.10780697  1
  O2-  O403  1  0.41800726  0.41547362  0.43101380  1
  O2-  O404  1  0.41693738  0.41916301  0.78089677  1
  O2-  O405  1  0.42192089  0.91896473  0.11954189  1
  O2-  O406  1  0.41320652  0.92158754  0.44841434  1
  O2-  O407  1  0.43363210  0.91623843  0.76967404  1
  O2-  O408  1  0.75559269  0.42861710  0.11871206  1
  O2-  O409  1  0.75708281  0.41569675  0.44661811  1
  O2-  O410  1  0.74159385  0.42462266  0.77507831  1
  O2-  O411  1  0.75862676  0.91646825  0.12218027  1
  O2-  O412  1  0.74868866  0.92157791  0.44695782  1
  O2-  O413  1  0.75476752  0.91532878  0.78074662  1
  O2-  O414  1  0.27680666  0.42252665  0.22542102  1
  O2-  O415  1  0.25492784  0.42468277  0.53865511  1
  O2-  O416  1  0.24392064  0.42590963  0.88723051  1
  O2-  O417  1  0.24532056  0.91838523  0.20489246  1
  O2-  O418  1  0.23348869  0.91645773  0.56313575  1
  O2-  O419  1  0.24372340  0.91369812  0.88702671  1
  O2-  O420  1  0.56592823  0.41563703  0.22766514  1
  O2-  O421  1  0.57482251  0.42318265  0.54733482  1
  O2-  O422  1  0.59561634  0.41864230  0.89816698  1
  O2-  O423  1  0.59361385  0.91653879  0.21902658  1
  O2-  O424  1  0.57260506  0.91647168  0.55336427  1
  O2-  O425  1  0.58388044  0.91680838  0.89031377  1
  O2-  O426  1  0.91138017  0.42053787  0.21319555  1
  O2-  O427  1  0.92280188  0.42703996  0.54294786  1
  O2-  O428  1  0.91774276  0.41657719  0.91009968  1
  O2-  O429  1  0.92032766  0.91686235  0.21217075  1
  O2-  O430  1  0.93875699  0.91587084  0.57125506  1
  O2-  O431  1  0.92304543  0.91841998  0.88295100  1
  O2-  O432  1  0.00992125  0.00274520  -0.02097284  1
  O2-  O433  1  -0.00331486  -0.00622985  0.33170976  1
  O2-  O434  1  -0.00120023  0.00688207  0.66279970  1
  O2-  O435  1  -0.00392135  0.49195608  0.01779893  1
  O2-  O436  1  0.00779220  0.50068330  0.32984833  1
  O2-  O437  1  0.01913416  0.49586489  0.63975710  1
  O2-  O438  1  0.34175754  -0.00755541  -0.01292002  1
  O2-  O439  1  0.32903856  0.00697687  0.34201210  1
  O2-  O440  1  0.31845106  0.00057110  0.68967256  1
  O2-  O441  1  0.31237735  0.48873837  0.02171969  1
  O2-  O442  1  0.32732922  0.50572277  0.34647613  1
  O2-  O443  1  0.33380268  0.50318256  0.67970490  1
  O2-  O444  1  0.66626200  0.00072777  0.02726455  1
  O2-  O445  1  0.65216428  0.00223691  0.36181928  1
  O2-  O446  1  0.64463676  -0.01712216  0.69130620  1
  O2-  O447  1  0.68016112  0.49389820  -0.00308321  1
  O2-  O448  1  0.65464256  0.49646325  0.36405914  1
  O2-  O449  1  0.66515514  0.51103322  0.66889469  1
  O2-  O450  1  0.17650597  0.00550057  0.01151562  1
  O2-  O451  1  0.16600431  -0.01119616  0.33740419  1
  O2-  O452  1  0.15550673  0.00217423  0.65602047  1
  O2-  O453  1  0.14791648  0.49655371  -0.01962744  1
  O2-  O454  1  0.16225089  0.49624535  0.31719476  1
  O2-  O455  1  0.17522463  0.49347484  0.68551919  1
  O2-  O456  1  0.50687667  0.00289501  0.01344323  1
  O2-  O457  1  0.49558293  -0.01346223  0.33116765  1
  O2-  O458  1  0.48463476  0.00829786  0.64711632  1
  O2-  O459  1  0.53156253  0.50850199  0.04403368  1
  O2-  O460  1  0.49446787  0.51649884  0.34789120  1
  O2-  O461  1  0.49849693  0.50681448  0.66940419  1
  O2-  O462  1  0.83851293  -0.00907774  0.00634320  1
  O2-  O463  1  0.81711038  -0.00925832  0.32778434  1
  O2-  O464  1  0.81825967  -0.00936389  0.64615946  1
  O2-  O465  1  0.83453155  0.49346480  0.00738635  1
  O2-  O466  1  0.85157381  0.49446532  0.35380166  1
  O2-  O467  1  0.82467117  0.51213132  0.65392693  1
  O2-  O468  1  0.09174436  0.75245286  0.38979122  1
  O2-  O469  1  0.74190575  0.75184690  0.40358768  1
  O2-  O470  1  0.92153470  0.25055526  0.95129400  1
  O2-  O471  1  0.92896984  0.25667091  0.26528084  1
  O2-  O472  1  0.91927330  0.74387696  0.94323042  1
  O2-  O473  1  0.24387868  0.25685784  0.25432728  1
  O2-  O474  1  0.08448387  0.74836827  0.06340195  1
  O2-  O475  1  0.41527284  0.75086124  0.05898061  1
  O2-  O476  1  0.58440690  0.25948889  0.60174312  1
  O2-  O477  1  0.08831597  0.25216009  0.71958775  1
  O2-  O478  1  0.74240027  0.25854959  0.74340090  1
  O2-  O479  1  0.08504120  0.25901113  0.07125308  1
  O2-  O480  1  0.24523998  0.75126679  0.94476757  1
  O2-  O481  1  0.57475221  0.25186913  0.94122822  1
  O2-  O482  1  0.23382905  0.24752910  0.62152830  1
  O2-  O483  1  0.41712982  0.25610813  0.73269997  1
  O2-  O484  1  0.74356577  0.25586021  0.39802828  1
  O2-  O485  1  0.58235002  0.24786529  0.27756877  1
  O2-  O486  1  0.40670405  0.75152903  0.38040047  1
  O2-  O487  1  0.59871903  0.75142882  0.59372129  1
  O2-  O488  1  0.25379089  0.75048112  0.27186835  1
  O2-  O489  1  0.74235381  0.74720010  0.73022635  1
  O2-  O490  1  0.58495507  0.74559405  0.94141460  1
  O2-  O491  1  0.42300126  0.25002147  0.06248765  1
  O2-  O492  1  0.09035310  0.25060005  0.38627407  1
