# generated using pymatgen
data_Ca108Mn108O277
_symmetry_space_group_name_H-M   'P 1'
_cell_length_a   16.03045570
_cell_length_b   22.30892206
_cell_length_c   16.39169299
_cell_angle_alpha   89.99863052
_cell_angle_beta   89.99974944
_cell_angle_gamma   89.99584724
_symmetry_Int_Tables_number   1
_chemical_formula_structural   Ca108Mn108O277
_chemical_formula_sum   'Ca108 Mn108 O277'
_cell_volume   5862.03307515
_cell_formula_units_Z   1
loop_
 _symmetry_equiv_pos_site_id
 _symmetry_equiv_pos_as_xyz
  1  'x, y, z'
loop_
 _atom_type_symbol
 _atom_type_oxidation_number
  Ca2+  2.0
  Mn3.34+  3.34
  O2-  -2.0
loop_
 _atom_site_type_symbol
 _atom_site_label
 _atom_site_symmetry_multiplicity
 _atom_site_fract_x
 _atom_site_fract_y
 _atom_site_fract_z
 _atom_site_occupancy
  Ca2+  Ca0  1  0.10917020  0.26015161  0.24355607  1
  Ca2+  Ca1  1  0.09107396  0.26178357  0.59096440  1
  Ca2+  Ca2  1  0.08687249  0.26145347  0.91213383  1
  Ca2+  Ca3  1  0.08936358  0.73992547  0.23894492  1
  Ca2+  Ca4  1  0.08582021  0.75408316  0.58162025  1
  Ca2+  Ca5  1  0.07119254  0.75031358  0.92542501  1
  Ca2+  Ca6  1  0.39510175  0.24927183  0.24649113  1
  Ca2+  Ca7  1  0.43017800  0.23894618  0.59228307  1
  Ca2+  Ca8  1  0.40189545  0.24458965  0.90908799  1
  Ca2+  Ca9  1  0.42652973  0.73907472  0.25936964  1
  Ca2+  Ca10  1  0.41883815  0.76023679  0.57629024  1
  Ca2+  Ca11  1  0.43440058  0.76123257  0.92008187  1
  Ca2+  Ca12  1  0.75321826  0.26297334  0.24602408  1
  Ca2+  Ca13  1  0.72322401  0.23989959  0.60676464  1
  Ca2+  Ca14  1  0.76207461  0.25253258  0.90488169  1
  Ca2+  Ca15  1  0.74242233  0.75122649  0.22954977  1
  Ca2+  Ca16  1  0.74822309  0.75202339  0.57552223  1
  Ca2+  Ca17  1  0.73891513  0.73992268  0.93620712  1
  Ca2+  Ca18  1  0.25904183  0.25879162  0.08445328  1
  Ca2+  Ca19  1  0.26608100  0.25193846  0.40050428  1
  Ca2+  Ca20  1  0.27340927  0.24661899  0.74729567  1
  Ca2+  Ca21  1  0.23607998  0.74440104  0.10484762  1
  Ca2+  Ca22  1  0.25048503  0.73237489  0.39991416  1
  Ca2+  Ca23  1  0.24867972  0.75748588  0.74718615  1
  Ca2+  Ca24  1  0.58419155  0.25784506  0.08695137  1
  Ca2+  Ca25  1  0.56604037  0.25391572  0.44235546  1
  Ca2+  Ca26  1  0.57653697  0.23524652  0.72903494  1
  Ca2+  Ca27  1  0.59953471  0.74254176  0.08161071  1
  Ca2+  Ca28  1  0.59886893  0.73342337  0.40034431  1
  Ca2+  Ca29  1  0.59242189  0.76223536  0.75772549  1
  Ca2+  Ca30  1  0.90947419  0.26235686  0.07647735  1
  Ca2+  Ca31  1  0.91052931  0.26085481  0.41513448  1
  Ca2+  Ca32  1  0.89300185  0.24605155  0.75517135  1
  Ca2+  Ca33  1  0.89499807  0.73895053  0.08087380  1
  Ca2+  Ca34  1  0.90547381  0.74813204  0.41391726  1
  Ca2+  Ca35  1  0.91777670  0.75311295  0.75639776  1
  Ca2+  Ca36  1  0.72288806  0.09090500  0.60522461  1
  Ca2+  Ca37  1  0.58170865  0.10192763  0.08565909  1
  Ca2+  Ca38  1  0.58104281  0.08909837  0.73447489  1
  Ca2+  Ca39  1  0.89782261  0.61228549  0.42659516  1
  Ca2+  Ca40  1  0.26381033  0.09446545  0.40658094  1
  Ca2+  Ca41  1  0.06905207  0.60821107  0.58024512  1
  Ca2+  Ca42  1  0.43349036  0.09121789  0.60804306  1
  Ca2+  Ca43  1  0.75855582  0.08891012  0.91644352  1
  Ca2+  Ca44  1  0.11480759  0.59477535  0.25253405  1
  Ca2+  Ca45  1  0.74494817  0.08746528  0.23632031  1
  Ca2+  Ca46  1  0.56911816  0.09611841  0.43051277  1
  Ca2+  Ca47  1  0.74963678  0.08671753  0.91169532  1
  Ca2+  Ca48  1  0.40327019  0.11674939  0.24287829  1
  Ca2+  Ca49  1  0.75607377  0.62089434  0.56145575  1
  Ca2+  Ca50  1  0.41601182  0.59696020  0.57493586  1
  Ca2+  Ca51  1  0.45398755  0.59099697  0.92314224  1
  Ca2+  Ca52  1  0.89656197  0.07578588  0.73524382  1
  Ca2+  Ca53  1  0.72852214  0.60851644  0.22734152  1
  Ca2+  Ca54  1  0.07956617  0.60531321  0.58033991  1
  Ca2+  Ca55  1  0.89912935  0.07463523  0.06955450  1
  Ca2+  Ca56  1  0.06375604  0.58680637  0.92637181  1
  Ca2+  Ca57  1  0.23954431  0.58456675  0.72443372  1
  Ca2+  Ca58  1  0.44178540  0.59005927  0.92630833  1
  Ca2+  Ca59  1  0.29985764  0.09149436  0.75769539  1
  Ca2+  Ca60  1  0.56902064  0.10228950  0.08748558  1
  Ca2+  Ca61  1  0.92855786  0.60036582  0.74758466  1
  Ca2+  Ca62  1  0.28362738  0.11512451  0.08651655  1
  Ca2+  Ca63  1  0.88671619  0.59087582  0.08217992  1
  Ca2+  Ca64  1  0.71898715  0.60702240  0.23022429  1
  Ca2+  Ca65  1  0.57764419  0.09277816  0.43525323  1
  Ca2+  Ca66  1  0.58932330  0.59428554  0.75286149  1
  Ca2+  Ca67  1  0.08778666  0.07821032  0.92054275  1
  Ca2+  Ca68  1  0.43993585  0.08681364  0.60288137  1
  Ca2+  Ca69  1  0.90617128  0.60813346  0.42382909  1
  Ca2+  Ca70  1  0.12124463  0.09507210  0.25245039  1
  Ca2+  Ca71  1  0.28087668  0.10969033  0.09312333  1
  Ca2+  Ca72  1  0.89681093  0.90942396  0.07913742  1
  Ca2+  Ca73  1  0.58515812  0.40226715  0.75838481  1
  Ca2+  Ca74  1  0.75204219  0.41154134  0.94117395  1
  Ca2+  Ca75  1  0.41860988  0.40820419  0.57971526  1
  Ca2+  Ca76  1  0.58692919  0.40361329  0.40509449  1
  Ca2+  Ca77  1  0.91206533  0.90975561  0.74432601  1
  Ca2+  Ca78  1  0.06859109  0.91074081  0.59889733  1
  Ca2+  Ca79  1  0.26981466  0.91518659  0.74624988  1
  Ca2+  Ca80  1  0.24946615  0.40003046  0.75309706  1
  Ca2+  Ca81  1  0.90949898  0.41457259  0.08428257  1
  Ca2+  Ca82  1  0.40726310  0.40866524  0.57885106  1
  Ca2+  Ca83  1  0.73075401  0.91795538  0.59116072  1
  Ca2+  Ca84  1  0.59903644  0.90132831  0.07555362  1
  Ca2+  Ca85  1  0.91584031  0.40162840  0.75315721  1
  Ca2+  Ca86  1  0.74233983  0.91460761  0.59485234  1
  Ca2+  Ca87  1  0.91179477  0.90650456  0.41860035  1
  Ca2+  Ca88  1  0.57587854  0.89548716  0.42397076  1
  Ca2+  Ca89  1  0.08715233  0.90305489  0.24329076  1
  Ca2+  Ca90  1  0.07341052  0.41091339  0.92552779  1
  Ca2+  Ca91  1  0.74361059  0.41390484  0.93593340  1
  Ca2+  Ca92  1  0.24747662  0.42055427  0.38236507  1
  Ca2+  Ca93  1  0.90469440  0.41148792  0.40541898  1
  Ca2+  Ca94  1  0.91600880  0.41099128  0.40419853  1
  Ca2+  Ca95  1  0.08946153  0.41123288  0.58611009  1
  Ca2+  Ca96  1  0.23657926  0.42089038  0.38208445  1
  Ca2+  Ca97  1  0.42466769  0.39804942  0.92789437  1
  Ca2+  Ca98  1  0.89929225  0.90758125  0.41895413  1
  Ca2+  Ca99  1  0.27024385  0.90002869  0.42069168  1
  Ca2+  Ca100  1  0.25247020  0.89756516  0.08239644  1
  Ca2+  Ca101  1  0.07434118  0.90313484  0.24332773  1
  Ca2+  Ca102  1  0.25781859  0.90123146  0.41897084  1
  Ca2+  Ca103  1  0.25838536  0.91118446  0.74338288  1
  Ca2+  Ca104  1  0.08197209  0.90949468  0.92004453  1
  Ca2+  Ca105  1  0.74176783  0.41583110  0.23293188  1
  Ca2+  Ca106  1  0.41809080  0.88933778  0.24726364  1
  Ca2+  Ca107  1  0.74246851  0.91216391  0.93028573  1
  Mn3.34+  Mn108  1  0.08544249  0.33978247  0.08477944  1
  Mn3.34+  Mn109  1  0.08438783  0.33261261  0.41832731  1
  Mn3.34+  Mn110  1  0.08367405  0.33546067  0.75028250  1
  Mn3.34+  Mn111  1  0.07988846  0.83088745  0.07843399  1
  Mn3.34+  Mn112  1  0.08103139  0.82725435  0.41895273  1
  Mn3.34+  Mn113  1  0.08232053  0.83305959  0.75458562  1
  Mn3.34+  Mn114  1  0.42124102  0.33192857  0.08647117  1
  Mn3.34+  Mn115  1  0.41732690  0.33644417  0.41257048  1
  Mn3.34+  Mn116  1  0.41958128  0.33341535  0.75364238  1
  Mn3.34+  Mn117  1  0.41959073  0.82663611  0.08396410  1
  Mn3.34+  Mn118  1  0.42299627  0.82427094  0.41796966  1
  Mn3.34+  Mn119  1  0.42705804  0.84626298  0.75489162  1
  Mn3.34+  Mn120  1  0.74553393  0.33280350  0.08650932  1
  Mn3.34+  Mn121  1  0.74549507  0.33511683  0.41613039  1
  Mn3.34+  Mn122  1  0.74774363  0.33328647  0.75002176  1
  Mn3.34+  Mn123  1  0.75035631  0.83549325  0.08345344  1
  Mn3.34+  Mn124  1  0.74491696  0.82964723  0.41484695  1
  Mn3.34+  Mn125  1  0.74818614  0.83621289  0.75708181  1
  Mn3.34+  Mn126  1  0.25401681  0.33911371  0.23705879  1
  Mn3.34+  Mn127  1  0.24951202  0.33127803  0.57943881  1
  Mn3.34+  Mn128  1  0.24984292  0.33071819  0.91947430  1
  Mn3.34+  Mn129  1  0.25109961  0.82772959  0.24659619  1
  Mn3.34+  Mn130  1  0.25267003  0.83252648  0.58233606  1
  Mn3.34+  Mn131  1  0.25434025  0.83261102  0.91672189  1
  Mn3.34+  Mn132  1  0.57571409  0.33842428  0.24388873  1
  Mn3.34+  Mn133  1  0.58821392  0.33712107  0.58281047  1
  Mn3.34+  Mn134  1  0.58182650  0.32944613  0.91778205  1
  Mn3.34+  Mn135  1  0.58578831  0.82644624  0.24707969  1
  Mn3.34+  Mn136  1  0.58074124  0.83362308  0.58609483  1
  Mn3.34+  Mn137  1  0.58510431  0.83073745  0.91764203  1
  Mn3.34+  Mn138  1  0.92073747  0.33492200  0.24368310  1
  Mn3.34+  Mn139  1  0.91352166  0.33200312  0.58430198  1
  Mn3.34+  Mn140  1  0.91904954  0.33336322  0.91524502  1
  Mn3.34+  Mn141  1  0.91287056  0.82931333  0.24446197  1
  Mn3.34+  Mn142  1  0.91530525  0.83002570  0.58042481  1
  Mn3.34+  Mn143  1  0.91465243  0.83238421  0.91519322  1
  Mn3.34+  Mn144  1  0.08254122  0.66975408  0.41380777  1
  Mn3.34+  Mn145  1  0.41284425  0.65831135  0.09601664  1
  Mn3.34+  Mn146  1  0.25052205  0.66835715  0.91935141  1
  Mn3.34+  Mn147  1  0.74404790  0.16934683  0.41651628  1
  Mn3.34+  Mn148  1  0.75612431  0.16179436  0.41926178  1
  Mn3.34+  Mn149  1  0.91205190  0.15649878  0.58123226  1
  Mn3.34+  Mn150  1  0.91270815  0.66681368  0.92013496  1
  Mn3.34+  Mn151  1  0.92196831  0.15900904  0.25100666  1
  Mn3.34+  Mn152  1  0.08660636  0.16246551  0.08039333  1
  Mn3.34+  Mn153  1  0.74818341  0.16971490  0.08406229  1
  Mn3.34+  Mn154  1  0.92287590  0.16084180  0.58217439  1
  Mn3.34+  Mn155  1  0.91155582  0.16462833  0.25229571  1
  Mn3.34+  Mn156  1  0.07893541  0.66137621  0.08778252  1
  Mn3.34+  Mn157  1  0.41386517  0.16957145  0.41907492  1
  Mn3.34+  Mn158  1  0.09388389  0.16539652  0.75021819  1
  Mn3.34+  Mn159  1  0.58269127  0.17187759  0.90797259  1
  Mn3.34+  Mn160  1  0.25431891  0.16572427  0.91094456  1
  Mn3.34+  Mn161  1  0.74380632  0.66985898  0.75062071  1
  Mn3.34+  Mn162  1  0.07290448  0.16899989  0.07900243  1
  Mn3.34+  Mn163  1  0.08196475  0.15976437  0.75161706  1
  Mn3.34+  Mn164  1  0.25203702  0.67176199  0.57519486  1
  Mn3.34+  Mn165  1  0.56982567  0.16700194  0.90922113  1
  Mn3.34+  Mn166  1  0.09138410  0.17858936  0.42153032  1
  Mn3.34+  Mn167  1  0.91666101  0.16479102  0.91294851  1
  Mn3.34+  Mn168  1  0.08257658  0.67124288  0.75343580  1
  Mn3.34+  Mn169  1  0.58410603  0.67320830  0.57452650  1
  Mn3.34+  Mn170  1  0.41330820  0.67500347  0.74755242  1
  Mn3.34+  Mn171  1  0.75708859  0.66308771  0.75320442  1
  Mn3.34+  Mn172  1  0.25332462  0.16589691  0.58108710  1
  Mn3.34+  Mn173  1  0.42529700  0.66332576  0.09725601  1
  Mn3.34+  Mn174  1  0.58203283  0.17588927  0.25229177  1
  Mn3.34+  Mn175  1  0.42180163  0.65824450  0.41519653  1
  Mn3.34+  Mn176  1  0.42168996  0.66862179  0.74964590  1
  Mn3.34+  Mn177  1  0.07985543  0.17081808  0.42354956  1
  Mn3.34+  Mn178  1  0.24015693  0.66326344  0.91607738  1
  Mn3.34+  Mn179  1  0.91665884  0.66617066  0.24468521  1
  Mn3.34+  Mn180  1  0.08424227  -0.00002309  0.42376229  1
  Mn3.34+  Mn181  1  0.41512908  0.49883859  0.74628074  1
  Mn3.34+  Mn182  1  0.91659357  0.50355013  0.25231515  1
  Mn3.34+  Mn183  1  0.57743486  -0.00133451  0.25399549  1
  Mn3.34+  Mn184  1  0.24274531  0.50332278  0.92036861  1
  Mn3.34+  Mn185  1  0.59122133  -0.00811710  0.25417944  1
  Mn3.34+  Mn186  1  0.08109738  0.50091583  0.08574704  1
  Mn3.34+  Mn187  1  0.42852918  -0.00128991  0.08703093  1
  Mn3.34+  Mn188  1  0.57859024  0.50080615  0.25838048  1
  Mn3.34+  Mn189  1  0.74008238  -0.00520031  0.74162750  1
  Mn3.34+  Mn190  1  0.07081678  0.00683884  0.42193992  1
  Mn3.34+  Mn191  1  0.75447188  0.00253806  0.42053179  1
  Mn3.34+  Mn192  1  0.90852462  0.50173547  0.58870480  1
  Mn3.34+  Mn193  1  0.41885214  0.49412427  0.08726699  1
  Mn3.34+  Mn194  1  0.57953523  -0.00162305  0.91104277  1
  Mn3.34+  Mn195  1  0.91809992  -0.00214192  0.91464212  1
  Mn3.34+  Mn196  1  0.90620063  -0.00467315  0.25114306  1
  Mn3.34+  Mn197  1  0.89565644  0.49825416  0.58897189  1
  Mn3.34+  Mn198  1  0.25755390  0.00048782  0.92165209  1
  Mn3.34+  Mn199  1  0.59059995  0.49879852  0.93769400  1
  Mn3.34+  Mn200  1  0.08660315  0.00099387  0.07831525  1
  Mn3.34+  Mn201  1  0.74682273  0.49982673  0.76137905  1
  Mn3.34+  Mn202  1  0.41816392  -0.00540191  0.08251566  1
  Mn3.34+  Mn203  1  0.60221329  0.50158275  0.58112046  1
  Mn3.34+  Mn204  1  0.25602614  0.49790126  0.92440338  1
  Mn3.34+  Mn205  1  0.07835464  -0.00166456  0.74150079  1
  Mn3.34+  Mn206  1  0.59282576  0.50741035  0.57936375  1
  Mn3.34+  Mn207  1  0.91111397  0.50374811  0.92174973  1
  Mn3.34+  Mn208  1  0.08421345  0.50314957  0.41201318  1
  Mn3.34+  Mn209  1  0.24650017  0.50294168  0.57398902  1
  Mn3.34+  Mn210  1  0.08591738  0.50086518  0.75097854  1
  Mn3.34+  Mn211  1  0.24860965  0.00449873  0.58881121  1
  Mn3.34+  Mn212  1  0.74087568  0.50007957  0.40828999  1
  Mn3.34+  Mn213  1  0.41711051  -0.00206164  0.42927074  1
  Mn3.34+  Mn214  1  0.26310530  -0.00342822  0.25467130  1
  Mn3.34+  Mn215  1  0.41961356  0.50403263  0.39199349  1
  O2-  O216  1  -0.00183161  0.14293469  -0.00157896  1
  O2-  O217  1  0.00330203  0.16581404  0.33715172  1
  O2-  O218  1  0.00018275  0.14640403  0.67241843  1
  O2-  O219  1  -0.00595334  0.65416751  0.00064036  1
  O2-  O220  1  -0.00541583  0.65601064  0.33715874  1
  O2-  O221  1  0.00481209  0.67080342  0.66804169  1
  O2-  O222  1  0.33288741  0.16754846  -0.00770756  1
  O2-  O223  1  0.33525803  0.16218538  0.33896734  1
  O2-  O224  1  0.33869784  0.15268970  0.65269421  1
  O2-  O225  1  0.34350890  0.65444957  -0.00138019  1
  O2-  O226  1  0.34650677  0.67814818  0.34381669  1
  O2-  O227  1  0.33150402  0.65681058  0.66743781  1
  O2-  O228  1  0.66081767  0.15711420  -0.00638107  1
  O2-  O229  1  0.66480641  0.15071172  0.33225664  1
  O2-  O230  1  0.65780654  0.16029546  0.66996695  1
  O2-  O231  1  0.66949298  0.66637072  0.01055520  1
  O2-  O232  1  0.68906498  0.68143191  0.32241880  1
  O2-  O233  1  0.66884937  0.65114881  0.66510698  1
  O2-  O234  1  0.16995055  0.14205123  0.00132914  1
  O2-  O235  1  0.16709994  0.16709121  0.33668478  1
  O2-  O236  1  0.17524732  0.14970262  0.67129320  1
  O2-  O237  1  0.15701702  0.64488207  -0.00347686  1
  O2-  O238  1  0.15516680  0.67375618  0.33228470  1
  O2-  O239  1  0.16207586  0.66105476  0.66413743  1
  O2-  O240  1  0.50768150  0.17238295  0.00478133  1
  O2-  O241  1  0.50265496  0.15346441  0.33714458  1
  O2-  O242  1  0.50450273  0.16159082  0.66355184  1
  O2-  O243  1  0.49624064  0.66334596  0.00439456  1
  O2-  O244  1  0.49941162  0.67559504  0.34718536  1
  O2-  O245  1  0.50086488  0.65261664  0.66602847  1
  O2-  O246  1  0.83113185  0.14599602  -0.00172631  1
  O2-  O247  1  0.82601503  0.14068269  0.33340766  1
  O2-  O248  1  0.83010893  0.15132217  0.66243031  1
  O2-  O249  1  0.83146376  0.65979771  -0.00728066  1
  O2-  O250  1  0.83408348  0.65366445  0.32415744  1
  O2-  O251  1  0.83558353  0.65824735  0.67161809  1
  O2-  O252  1  -0.00449536  0.34517411  0.00135423  1
  O2-  O253  1  -0.00714023  0.33942160  0.34136597  1
  O2-  O254  1  0.00345547  0.35017489  0.66274701  1
  O2-  O255  1  -0.00477127  0.84956373  0.00182091  1
  O2-  O256  1  -0.00101929  0.84929833  0.33675109  1
  O2-  O257  1  -0.00032263  0.82340256  0.66658569  1
  O2-  O258  1  0.34061336  0.32402167  -0.00333523  1
  O2-  O259  1  0.33035756  0.34434597  0.33721807  1
  O2-  O260  1  0.33436489  0.35312659  0.66536582  1
  O2-  O261  1  0.33359647  0.82840554  0.00491695  1
  O2-  O262  1  0.33215185  0.83614854  0.33404881  1
  O2-  O263  1  0.33176225  0.83946412  0.67494246  1
  O2-  O264  1  0.66841429  0.33496326  -0.00300155  1
  O2-  O265  1  0.66880949  0.33922402  0.32432507  1
  O2-  O266  1  0.66352581  0.34473943  0.67145704  1
  O2-  O267  1  0.67074030  0.83719821  -0.00164531  1
  O2-  O268  1  0.66052786  0.83998265  0.33843062  1
  O2-  O269  1  0.66859943  0.84916837  0.66893635  1
  O2-  O270  1  0.15993643  0.34753708  -0.00819695  1
  O2-  O271  1  0.16664014  0.33438670  0.33724354  1
  O2-  O272  1  0.16632004  0.34805050  0.66303235  1
  O2-  O273  1  0.16475726  0.85025615  -0.00327882  1
  O2-  O274  1  0.16427688  0.85225077  0.33652395  1
  O2-  O275  1  0.16505158  0.84893810  0.67104120  1
  O2-  O276  1  0.49936990  0.31014444  -0.00186325  1
  O2-  O277  1  0.50878910  0.33320342  0.34009933  1
  O2-  O278  1  0.49945773  0.35603118  0.66500395  1
  O2-  O279  1  0.50617132  0.83152293  0.00692102  1
  O2-  O280  1  0.49787555  0.83196098  0.33063916  1
  O2-  O281  1  0.49458253  0.82186862  0.66979912  1
  O2-  O282  1  0.83339543  0.34554965  -0.00106187  1
  O2-  O283  1  0.83037579  0.35069511  0.32790596  1
  O2-  O284  1  0.83673822  0.34418317  0.67245577  1
  O2-  O285  1  0.83113683  0.84492808  -0.00665534  1
  O2-  O286  1  0.83661951  0.83847192  0.33879950  1
  O2-  O287  1  0.82955005  0.84801191  0.65984291  1
  O2-  O288  1  0.00676545  0.18475675  0.17180719  1
  O2-  O289  1  -0.00042672  0.18919922  0.50261006  1
  O2-  O290  1  0.00207630  0.18103663  0.83272753  1
  O2-  O291  1  -0.00430885  0.68444161  0.16252237  1
  O2-  O292  1  0.00513979  0.68045575  0.49919981  1
  O2-  O293  1  0.00080568  0.68384794  0.83327385  1
  O2-  O294  1  0.33853262  0.18346204  0.15530075  1
  O2-  O295  1  0.33147331  0.18200033  0.49688661  1
  O2-  O296  1  0.32613780  0.17716805  0.83007226  1
  O2-  O297  1  0.33559839  0.68790547  0.16502647  1
  O2-  O298  1  0.33918232  0.68186525  0.50368610  1
  O2-  O299  1  0.33332886  0.69120871  0.83168503  1
  O2-  O300  1  0.66424638  0.18787775  0.16880800  1
  O2-  O301  1  0.66103589  0.17838996  0.49447285  1
  O2-  O302  1  0.67007824  0.18392154  0.84662182  1
  O2-  O303  1  0.66968918  0.67880398  0.15611766  1
  O2-  O304  1  0.66730877  0.68622398  0.50401825  1
  O2-  O305  1  0.66185131  0.67781328  0.82369977  1
  O2-  O306  1  0.16790435  0.17643677  0.15865512  1
  O2-  O307  1  0.16811714  0.19009600  0.50412623  1
  O2-  O308  1  0.15982980  0.17790316  0.84064765  1
  O2-  O309  1  0.15842752  0.66995763  0.16306221  1
  O2-  O310  1  0.16150961  0.68310125  0.50165623  1
  O2-  O311  1  0.16981180  0.68908062  0.82413357  1
  O2-  O312  1  0.50663044  0.17761349  0.17055948  1
  O2-  O313  1  0.49919713  0.17094376  0.49614808  1
  O2-  O314  1  0.49660040  0.18792462  0.83299327  1
  O2-  O315  1  0.50147092  0.69121111  0.16185099  1
  O2-  O316  1  0.49328261  0.68648548  0.50624247  1
  O2-  O317  1  0.49532156  0.67972200  0.83582001  1
  O2-  O318  1  0.83302617  0.17612485  0.16565157  1
  O2-  O319  1  0.83364238  0.18670523  0.49919025  1
  O2-  O320  1  0.83220512  0.17096172  0.84230232  1
  O2-  O321  1  0.83201195  0.67100413  0.17187870  1
  O2-  O322  1  0.83735776  0.68348823  0.49273586  1
  O2-  O323  1  0.83843641  0.68237230  0.82854579  1
  O2-  O324  1  0.00226039  0.31516359  0.16589469  1
  O2-  O325  1  0.00238146  0.31555063  0.49998044  1
  O2-  O326  1  -0.00165617  0.32240095  0.83030499  1
  O2-  O327  1  0.00968836  0.82139733  0.17649464  1
  O2-  O328  1  -0.00287233  0.80782624  0.49722243  1
  O2-  O329  1  0.00429174  0.81656087  0.83710372  1
  O2-  O330  1  0.33792993  0.32213344  0.16256467  1
  O2-  O331  1  0.33703636  0.32945742  0.50259931  1
  O2-  O332  1  0.33226616  0.32058329  0.83139045  1
  O2-  O333  1  0.33258810  0.81783740  0.16680439  1
  O2-  O334  1  0.33086444  0.81438936  0.48888979  1
  O2-  O335  1  0.33730633  0.81592991  0.83041255  1
  O2-  O336  1  0.66515431  0.31805338  0.16766313  1
  O2-  O337  1  0.66096545  0.32151611  0.49258410  1
  O2-  O338  1  0.66909401  0.32289603  0.83986883  1
  O2-  O339  1  0.66227600  0.82735384  0.16012789  1
  O2-  O340  1  0.67228688  0.81917107  0.50311478  1
  O2-  O341  1  0.67476685  0.82303316  0.84086250  1
  O2-  O342  1  0.17168119  0.32325699  0.15738973  1
  O2-  O343  1  0.16709491  0.31558934  0.49872312  1
  O2-  O344  1  0.16949113  0.32468928  0.82852956  1
  O2-  O345  1  0.16414744  0.82689523  0.16661915  1
  O2-  O346  1  0.16790864  0.82311083  0.49470487  1
  O2-  O347  1  0.17203089  0.82092459  0.82713330  1
  O2-  O348  1  0.49623655  0.30494784  0.17147727  1
  O2-  O349  1  0.49220352  0.33135963  0.50693199  1
  O2-  O350  1  0.50231689  0.31951802  0.83440349  1
  O2-  O351  1  0.49484252  0.81463074  0.17125743  1
  O2-  O352  1  0.50761848  0.81586955  0.49544589  1
  O2-  O353  1  0.50394224  0.82022188  0.83248266  1
  O2-  O354  1  0.83357095  0.32387773  0.16356559  1
  O2-  O355  1  0.84169550  0.32993334  0.48754150  1
  O2-  O356  1  0.83393667  0.32607240  0.83558377  1
  O2-  O357  1  0.83987746  0.82197503  0.15903954  1
  O2-  O358  1  0.83428300  0.81336089  0.49508447  1
  O2-  O359  1  0.84254068  0.82318460  0.82429235  1
  O2-  O360  1  0.07523359  0.08196174  0.12231754  1
  O2-  O361  1  0.10085529  0.08604840  0.44090993  1
  O2-  O362  1  0.08141190  0.07688618  0.78304468  1
  O2-  O363  1  0.06621011  0.57914379  0.11863605  1
  O2-  O364  1  0.06582198  0.58031352  0.44941949  1
  O2-  O365  1  0.08623411  0.58170360  0.78037282  1
  O2-  O366  1  0.42721322  0.08099677  0.11420923  1
  O2-  O367  1  0.41996232  0.08184648  0.44689040  1
  O2-  O368  1  0.43613508  0.07331692  0.74835477  1
  O2-  O369  1  0.42491268  0.57564772  0.10932576  1
  O2-  O370  1  0.42101247  0.57777386  0.44429701  1
  O2-  O371  1  0.41256711  0.58184123  0.79068651  1
  O2-  O372  1  0.72251600  0.08666607  0.10459133  1
  O2-  O373  1  0.72392115  0.08193284  0.46160521  1
  O2-  O374  1  0.74877581  0.06993863  0.78010331  1
  O2-  O375  1  0.78153381  0.55063707  0.14225908  1
  O2-  O376  1  0.77237607  0.57047340  0.45292747  1
  O2-  O377  1  0.75005507  0.58328415  0.77995345  1
  O2-  O378  1  0.25403735  0.07649502  0.21304544  1
  O2-  O379  1  0.25911451  0.08046558  0.54450428  1
  O2-  O380  1  0.24577986  0.08062044  0.88536846  1
  O2-  O381  1  0.25143173  0.57180637  0.23525753  1
  O2-  O382  1  0.23561510  0.58677549  0.56542258  1
  O2-  O383  1  0.25466119  0.57984910  0.86545693  1
  O2-  O384  1  0.59277637  0.07855703  0.21617768  1
  O2-  O385  1  0.55733358  0.05928683  0.54974375  1
  O2-  O386  1  0.58375909  0.08094126  0.87441857  1
  O2-  O387  1  0.59155139  0.57203487  0.21846202  1
  O2-  O388  1  0.58432781  0.58760285  0.54992176  1
  O2-  O389  1  0.57235628  0.56602289  0.87645306  1
  O2-  O390  1  0.90362635  0.07623429  0.20839976  1
  O2-  O391  1  0.90836627  0.07704826  0.55874411  1
  O2-  O392  1  0.91784206  0.07773402  0.87833500  1
  O2-  O393  1  0.93038882  0.58290197  0.22725231  1
  O2-  O394  1  0.92765126  0.58210735  0.55756887  1
  O2-  O395  1  0.92295011  0.58124274  0.88258356  1
  O2-  O396  1  0.06229160  0.42073820  0.10333690  1
  O2-  O397  1  0.09545394  0.42304097  0.44395052  1
  O2-  O398  1  0.08323669  0.42068368  0.78179007  1
  O2-  O399  1  0.08600376  0.91856654  0.11130287  1
  O2-  O400  1  0.06234074  0.92098734  0.45825541  1
  O2-  O401  1  0.07841850  0.92105609  0.78094723  1
  O2-  O402  1  0.42516102  0.41392762  0.07340725  1
  O2-  O403  1  0.41411586  0.42602533  0.44423170  1
  O2-  O404  1  0.42147960  0.41890404  0.78861968  1
  O2-  O405  1  0.40761143  0.91445704  0.11061309  1
  O2-  O406  1  0.40827740  0.91475618  0.43398821  1
  O2-  O407  1  0.39888664  0.92209377  0.77630499  1
  O2-  O408  1  0.75050716  0.41274114  0.09427335  1
  O2-  O409  1  0.74847645  0.42007960  0.43861877  1
  O2-  O410  1  0.74701311  0.41998077  0.79561639  1
  O2-  O411  1  0.74894852  0.91840974  0.08848347  1
  O2-  O412  1  0.76482810  0.91922167  0.45977576  1
  O2-  O413  1  0.75818069  0.92151069  0.78559704  1
  O2-  O414  1  0.24377467  0.41844304  0.24850731  1
  O2-  O415  1  0.24773863  0.42094810  0.54408534  1
  O2-  O416  1  0.26104735  0.41760246  0.89133744  1
  O2-  O417  1  0.24530550  0.91467307  0.22423400  1
  O2-  O418  1  0.24693088  0.92103388  0.55070800  1
  O2-  O419  1  0.24638487  0.91961933  0.88051809  1
  O2-  O420  1  0.58823867  0.42522988  0.22383009  1
  O2-  O421  1  0.57700859  0.42280653  0.54475405  1
  O2-  O422  1  0.58831120  0.42193542  0.89620273  1
  O2-  O423  1  0.56294246  0.91430544  0.22092001  1
  O2-  O424  1  0.60069246  0.91508436  0.55253272  1
  O2-  O425  1  0.59224893  0.91814206  0.91951296  1
  O2-  O426  1  0.91067637  0.42163465  0.22387940  1
  O2-  O427  1  0.93352660  0.42423946  0.53886042  1
  O2-  O428  1  0.91865284  0.42345876  0.88674147  1
  O2-  O429  1  0.93335662  0.91474049  0.21625986  1
  O2-  O430  1  0.91939981  0.91691301  0.55073144  1
  O2-  O431  1  0.92317603  0.91806284  0.88726449  1
  O2-  O432  1  -0.00964816  0.00533673  0.00515341  1
  O2-  O433  1  0.00996923  -0.01012767  0.32122027  1
  O2-  O434  1  -0.01683178  -0.00867666  0.69109991  1
  O2-  O435  1  -0.00065840  0.50410482  -0.00647145  1
  O2-  O436  1  -0.01431096  0.49353667  0.35627903  1
  O2-  O437  1  0.00324832  0.50748234  0.66359074  1
  O2-  O438  1  0.31497719  0.01152598  0.02983091  1
  O2-  O439  1  0.31994140  -0.00107573  0.36283468  1
  O2-  O440  1  0.32639874  0.00462246  0.66326348  1
  O2-  O441  1  0.33951449  0.51839783  -0.00366947  1
  O2-  O442  1  0.31657030  0.50271471  0.35875003  1
  O2-  O443  1  0.33453138  0.49651058  0.65298707  1
  O2-  O444  1  0.67345004  0.01531520  -0.03229019  1
  O2-  O445  1  0.67451208  0.01410095  0.33073968  1
  O2-  O446  1  0.67070051  0.00140937  0.65812341  1
  O2-  O447  1  0.68998586  0.49995857  -0.02517794  1
  O2-  O448  1  0.68356932  0.49873858  0.30796754  1
  O2-  O449  1  0.65098946  0.49848322  0.68968640  1
  O2-  O450  1  0.15371779  -0.00337854  -0.02052923  1
  O2-  O451  1  0.16472200  -0.00131207  0.33404351  1
  O2-  O452  1  0.17165777  -0.01822556  0.67541189  1
  O2-  O453  1  0.15466163  0.50315252  -0.00670174  1
  O2-  O454  1  0.16321595  0.50649281  0.34113141  1
  O2-  O455  1  0.16573325  0.50263570  0.66316543  1
  O2-  O456  1  0.51807855  0.01507640  0.01499408  1
  O2-  O457  1  0.51090544  0.00225783  0.35362422  1
  O2-  O458  1  0.49698270  0.01468637  0.68147994  1
  O2-  O459  1  0.48793523  0.50285425  -0.01739929  1
  O2-  O460  1  0.52714146  0.49101054  0.35714566  1
  O2-  O461  1  0.49157176  0.50087164  0.64538304  1
  O2-  O462  1  0.82733895  0.01144377  -0.02030027  1
  O2-  O463  1  0.85045453  -0.01397504  0.35487991  1
  O2-  O464  1  0.82556729  -0.00943612  0.67221691  1
  O2-  O465  1  0.83869375  0.48290711  -0.00361712  1
  O2-  O466  1  0.84093361  0.49275814  0.34523863  1
  O2-  O467  1  0.84121769  0.49539231  0.68976242  1
  O2-  O468  1  0.91902140  0.24183030  0.61261026  1
  O2-  O469  1  0.25328439  0.25002494  0.61119234  1
  O2-  O470  1  0.08514840  0.24997682  0.05284171  1
  O2-  O471  1  0.09022087  0.74790120  0.06167226  1
  O2-  O472  1  0.25106691  0.25856128  0.26193066  1
  O2-  O473  1  0.08388362  0.24860892  0.72648105  1
  O2-  O474  1  0.41635613  0.25716487  0.72481610  1
  O2-  O475  1  0.74997032  0.75102641  0.72329747  1
  O2-  O476  1  0.23561842  0.74979856  0.94785366  1
  O2-  O477  1  0.91870880  0.75087443  0.94105247  1
  O2-  O478  1  0.23425851  0.24829538  0.93753304  1
  O2-  O479  1  0.24426377  0.75119417  0.60892283  1
  O2-  O480  1  0.75293605  0.75346463  0.07243322  1
  O2-  O481  1  0.75171233  0.25467784  0.73804033  1
  O2-  O482  1  0.91603510  0.24761259  0.93931343  1
  O2-  O483  1  0.59302395  0.74983395  0.61508763  1
  O2-  O484  1  0.57928337  0.25864029  0.59446617  1
  O2-  O485  1  0.23557858  0.75225039  0.26331087  1
  O2-  O486  1  0.41838798  0.25140066  0.39899482  1
  O2-  O487  1  0.92054372  0.74931889  0.27345970  1
  O2-  O488  1  0.75968247  0.24905627  0.05516473  1
  O2-  O489  1  0.59426273  0.74967571  0.26075993  1
  O2-  O490  1  0.90192005  0.24963972  0.27492641  1
  O2-  O491  1  0.76181180  0.25012494  0.38681676  1
  O2-  O492  1  0.58798464  0.75173768  0.93099187  1
