# generated using pymatgen
data_Ca108Mn108O277
_symmetry_space_group_name_H-M   'P 1'
_cell_length_a   16.02907342
_cell_length_b   22.30802203
_cell_length_c   16.38935298
_cell_angle_alpha   90.00307792
_cell_angle_beta   90.00280833
_cell_angle_gamma   89.99640932
_symmetry_Int_Tables_number   1
_chemical_formula_structural   Ca108Mn108O277
_chemical_formula_sum   'Ca108 Mn108 O277'
_cell_volume   5860.45437826
_cell_formula_units_Z   1
loop_
 _symmetry_equiv_pos_site_id
 _symmetry_equiv_pos_as_xyz
  1  'x, y, z'
loop_
 _atom_type_symbol
 _atom_type_oxidation_number
  Ca2+  2.0
  Mn3.34+  3.34
  O2-  -2.0
loop_
 _atom_site_type_symbol
 _atom_site_label
 _atom_site_symmetry_multiplicity
 _atom_site_fract_x
 _atom_site_fract_y
 _atom_site_fract_z
 _atom_site_occupancy
  Ca2+  Ca0  1  0.08596953  0.24949852  0.23725279  1
  Ca2+  Ca1  1  0.07827427  0.24885097  0.59014738  1
  Ca2+  Ca2  1  0.10120880  0.25614566  0.91961708  1
  Ca2+  Ca3  1  0.08483955  0.75326093  0.25132128  1
  Ca2+  Ca4  1  0.09954210  0.76498801  0.57956249  1
  Ca2+  Ca5  1  0.10014013  0.74578127  0.92661869  1
  Ca2+  Ca6  1  0.39614889  0.25101249  0.25447326  1
  Ca2+  Ca7  1  0.40466501  0.22950615  0.58264342  1
  Ca2+  Ca8  1  0.41691447  0.24494170  0.90758499  1
  Ca2+  Ca9  1  0.42534466  0.75633792  0.25464769  1
  Ca2+  Ca10  1  0.41817973  0.77165271  0.58740684  1
  Ca2+  Ca11  1  0.41217864  0.74088119  0.91424896  1
  Ca2+  Ca12  1  0.76422799  0.24761631  0.24001784  1
  Ca2+  Ca13  1  0.76504613  0.24151361  0.58141311  1
  Ca2+  Ca14  1  0.73445888  0.24654177  0.92392831  1
  Ca2+  Ca15  1  0.74207765  0.76176125  0.23247798  1
  Ca2+  Ca16  1  0.73469068  0.75684636  0.59643614  1
  Ca2+  Ca17  1  0.74454338  0.72867706  0.92729019  1
  Ca2+  Ca18  1  0.24250145  0.24213830  0.07059136  1
  Ca2+  Ca19  1  0.25768424  0.24288900  0.41596623  1
  Ca2+  Ca20  1  0.24387040  0.24107399  0.77713966  1
  Ca2+  Ca21  1  0.25503046  0.75198472  0.07179030  1
  Ca2+  Ca22  1  0.25980217  0.75997580  0.41361366  1
  Ca2+  Ca23  1  0.26316160  0.76387475  0.76011177  1
  Ca2+  Ca24  1  0.60696253  0.23698114  0.06559805  1
  Ca2+  Ca25  1  0.58134621  0.24664326  0.41921457  1
  Ca2+  Ca26  1  0.58462790  0.23697949  0.77882282  1
  Ca2+  Ca27  1  0.59985398  0.74705827  0.07801518  1
  Ca2+  Ca28  1  0.57368751  0.76489544  0.40636240  1
  Ca2+  Ca29  1  0.58657346  0.75676450  0.76648566  1
  Ca2+  Ca30  1  0.90520659  0.24816642  0.08995521  1
  Ca2+  Ca31  1  0.91164185  0.25578846  0.41719044  1
  Ca2+  Ca32  1  0.91576699  0.25452889  0.74336888  1
  Ca2+  Ca33  1  0.89818873  0.74378087  0.08310837  1
  Ca2+  Ca34  1  0.91711352  0.76002827  0.41096534  1
  Ca2+  Ca35  1  0.89056328  0.75570518  0.75401496  1
  Ca2+  Ca36  1  0.59121097  0.07990463  0.06689497  1
  Ca2+  Ca37  1  0.76725039  0.60218630  0.22400782  1
  Ca2+  Ca38  1  0.10065714  0.09276536  0.92896698  1
  Ca2+  Ca39  1  0.30511003  0.11688006  0.74114980  1
  Ca2+  Ca40  1  0.92949559  0.57378997  0.37905244  1
  Ca2+  Ca41  1  0.88515546  0.62121279  0.79381609  1
  Ca2+  Ca42  1  0.90028386  0.59629918  0.05618490  1
  Ca2+  Ca43  1  0.76074343  0.59319312  0.60301809  1
  Ca2+  Ca44  1  0.07918762  0.60408411  0.93753243  1
  Ca2+  Ca45  1  0.70688119  0.09323786  0.91536707  1
  Ca2+  Ca46  1  0.25605623  0.59823739  0.06669183  1
  Ca2+  Ca47  1  0.71382375  0.09683903  0.92116206  1
  Ca2+  Ca48  1  0.91970085  0.09041272  0.09621618  1
  Ca2+  Ca49  1  0.22861072  0.08146979  0.09833180  1
  Ca2+  Ca50  1  0.26734569  0.08091016  0.40148431  1
  Ca2+  Ca51  1  0.56283387  0.08037791  0.42573984  1
  Ca2+  Ca52  1  0.59767689  0.60176140  0.07151374  1
  Ca2+  Ca53  1  0.24525514  0.59934914  0.06651937  1
  Ca2+  Ca54  1  0.11950906  0.09913649  0.58516916  1
  Ca2+  Ca55  1  0.53890204  0.09348888  0.75168251  1
  Ca2+  Ca56  1  0.92224055  0.08513576  0.39394569  1
  Ca2+  Ca57  1  0.54609357  0.09790501  0.74774780  1
  Ca2+  Ca58  1  0.72995237  0.08488718  0.59527687  1
  Ca2+  Ca59  1  0.09757924  0.57167406  0.57773992  1
  Ca2+  Ca60  1  0.41280608  0.60098373  0.24931339  1
  Ca2+  Ca61  1  0.26463002  0.60598700  0.79252235  1
  Ca2+  Ca62  1  0.75671152  0.60095928  0.22671843  1
  Ca2+  Ca63  1  0.30304564  0.11085799  0.73554451  1
  Ca2+  Ca64  1  0.25099987  0.58978747  0.40274584  1
  Ca2+  Ca65  1  0.89078709  0.61695090  0.80057143  1
  Ca2+  Ca66  1  0.10880907  0.09753208  0.93210116  1
  Ca2+  Ca67  1  0.42807437  0.10842808  0.90827434  1
  Ca2+  Ca68  1  0.40178521  0.58217980  0.58279620  1
  Ca2+  Ca69  1  0.76330362  0.09612318  0.23310178  1
  Ca2+  Ca70  1  0.90902855  0.08535684  0.39398119  1
  Ca2+  Ca71  1  0.60059148  0.60722131  0.76732216  1
  Ca2+  Ca72  1  0.58132164  0.39687484  0.41225414  1
  Ca2+  Ca73  1  0.90906315  0.90777183  0.09883385  1
  Ca2+  Ca74  1  0.92055005  0.41289023  0.08700495  1
  Ca2+  Ca75  1  0.40425238  0.39942504  0.58482566  1
  Ca2+  Ca76  1  0.43654623  0.90704661  0.91558901  1
  Ca2+  Ca77  1  0.07870116  0.90975070  0.93906588  1
  Ca2+  Ca78  1  0.24653568  0.41545491  0.41866018  1
  Ca2+  Ca79  1  0.57927623  0.91141121  0.08183155  1
  Ca2+  Ca80  1  0.25993022  0.90507081  0.08936499  1
  Ca2+  Ca81  1  0.75054352  0.39848393  0.57648960  1
  Ca2+  Ca82  1  0.91876920  0.90976286  0.09640010  1
  Ca2+  Ca83  1  0.24144063  0.40199075  0.74648402  1
  Ca2+  Ca84  1  0.08951087  0.90815621  0.93627435  1
  Ca2+  Ca85  1  0.09135674  0.40500737  0.58725396  1
  Ca2+  Ca86  1  0.56332436  0.92340203  0.74761537  1
  Ca2+  Ca87  1  0.25920941  0.40775649  0.08449238  1
  Ca2+  Ca88  1  0.75500612  0.40758314  0.25287037  1
  Ca2+  Ca89  1  0.74850421  0.40372505  0.92101251  1
  Ca2+  Ca90  1  0.73871699  0.91278481  0.58631759  1
  Ca2+  Ca91  1  0.56661407  0.91608934  0.40556660  1
  Ca2+  Ca92  1  0.42007333  0.40055760  0.24958269  1
  Ca2+  Ca93  1  0.91131352  0.41551928  0.40170294  1
  Ca2+  Ca94  1  0.25403312  0.40212519  0.74581946  1
  Ca2+  Ca95  1  0.24794431  0.40764622  0.08364599  1
  Ca2+  Ca96  1  0.72705531  0.91042580  0.58349750  1
  Ca2+  Ca97  1  0.07141144  0.41499456  0.25605814  1
  Ca2+  Ca98  1  0.25920039  0.41449656  0.41874441  1
  Ca2+  Ca99  1  0.72517668  0.91289894  0.91962083  1
  Ca2+  Ca100  1  0.09715341  0.90711806  0.57159282  1
  Ca2+  Ca101  1  0.91894545  0.90214104  0.75417310  1
  Ca2+  Ca102  1  0.76328110  0.39851547  0.57519691  1
  Ca2+  Ca103  1  0.90955978  0.41264536  0.08740508  1
  Ca2+  Ca104  1  0.58469240  0.39145011  0.75893270  1
  Ca2+  Ca105  1  0.41143434  0.91976713  0.25799689  1
  Ca2+  Ca106  1  0.90615889  0.90170776  0.75472256  1
  Ca2+  Ca107  1  0.57186978  0.39090958  0.75905459  1
  Mn3.34+  Mn108  1  0.08110563  0.33301339  0.08041811  1
  Mn3.34+  Mn109  1  0.08314589  0.33338088  0.41650811  1
  Mn3.34+  Mn110  1  0.07663872  0.32881524  0.75625908  1
  Mn3.34+  Mn111  1  0.08434708  0.83305258  0.09646120  1
  Mn3.34+  Mn112  1  0.08797602  0.83991239  0.40952171  1
  Mn3.34+  Mn113  1  0.08913195  0.83411005  0.75128481  1
  Mn3.34+  Mn114  1  0.42235165  0.33328129  0.08343661  1
  Mn3.34+  Mn115  1  0.41829778  0.32848675  0.41864813  1
  Mn3.34+  Mn116  1  0.41406010  0.31481270  0.74761341  1
  Mn3.34+  Mn117  1  0.41889594  0.83308412  0.09035416  1
  Mn3.34+  Mn118  1  0.40970107  0.83876475  0.41794680  1
  Mn3.34+  Mn119  1  0.41571399  0.84321925  0.75073867  1
  Mn3.34+  Mn120  1  0.74617537  0.33039261  0.08443886  1
  Mn3.34+  Mn121  1  0.74901362  0.32811058  0.41248538  1
  Mn3.34+  Mn122  1  0.75610944  0.32727689  0.75459264  1
  Mn3.34+  Mn123  1  0.74857684  0.83428982  0.08419086  1
  Mn3.34+  Mn124  1  0.74886805  0.83250333  0.41262270  1
  Mn3.34+  Mn125  1  0.74088129  0.83283743  0.75678473  1
  Mn3.34+  Mn126  1  0.24583052  0.33248720  0.24918184  1
  Mn3.34+  Mn127  1  0.24889329  0.32759929  0.57922320  1
  Mn3.34+  Mn128  1  0.25447722  0.33395878  0.91734249  1
  Mn3.34+  Mn129  1  0.24811472  0.84128346  0.25088601  1
  Mn3.34+  Mn130  1  0.25670736  0.84374234  0.58371790  1
  Mn3.34+  Mn131  1  0.25671365  0.82993243  0.91793054  1
  Mn3.34+  Mn132  1  0.58280635  0.32676276  0.24336427  1
  Mn3.34+  Mn133  1  0.58274361  0.32033779  0.58255186  1
  Mn3.34+  Mn134  1  0.57925346  0.33130082  0.92596052  1
  Mn3.34+  Mn135  1  0.58189315  0.84200164  0.24523655  1
  Mn3.34+  Mn136  1  0.57318597  0.84343079  0.57931937  1
  Mn3.34+  Mn137  1  0.57998802  0.83518079  0.91780368  1
  Mn3.34+  Mn138  1  0.91928019  0.33421485  0.25011799  1
  Mn3.34+  Mn139  1  0.92310239  0.33424231  0.58333197  1
  Mn3.34+  Mn140  1  0.91675939  0.33479524  0.91432001  1
  Mn3.34+  Mn141  1  0.91871765  0.84455444  0.25972472  1
  Mn3.34+  Mn142  1  0.91838120  0.82864806  0.57581897  1
  Mn3.34+  Mn143  1  0.91442414  0.82312302  0.91779025  1
  Mn3.34+  Mn144  1  0.25514605  0.66243875  0.57997958  1
  Mn3.34+  Mn145  1  0.56948133  0.67110342  0.58596731  1
  Mn3.34+  Mn146  1  0.07943317  0.67193150  0.09326752  1
  Mn3.34+  Mn147  1  0.41013795  0.15985081  0.09128762  1
  Mn3.34+  Mn148  1  0.58180203  0.66584133  0.58243271  1
  Mn3.34+  Mn149  1  0.75051523  0.16499340  0.74542308  1
  Mn3.34+  Mn150  1  0.09176463  0.66322098  0.75237483  1
  Mn3.34+  Mn151  1  0.07950747  0.67075616  0.74929915  1
  Mn3.34+  Mn152  1  0.09432299  0.16100954  0.41788986  1
  Mn3.34+  Mn153  1  0.75150207  0.66687526  0.41608902  1
  Mn3.34+  Mn154  1  0.41807555  0.16630981  0.08880034  1
  Mn3.34+  Mn155  1  0.08196912  0.16810567  0.41610465  1
  Mn3.34+  Mn156  1  0.41125032  0.16384689  0.42032963  1
  Mn3.34+  Mn157  1  0.92679557  0.66377758  0.24681856  1
  Mn3.34+  Mn158  1  0.91936110  0.16734150  0.24395030  1
  Mn3.34+  Mn159  1  0.91934305  0.17011452  0.91313102  1
  Mn3.34+  Mn160  1  0.41862196  0.66842870  0.41327613  1
  Mn3.34+  Mn161  1  0.91004244  0.16262562  0.90991813  1
  Mn3.34+  Mn162  1  0.08388644  0.16531186  0.75331155  1
  Mn3.34+  Mn163  1  0.25033376  0.15795288  0.25023485  1
  Mn3.34+  Mn164  1  0.58420229  0.15058420  0.24908153  1
  Mn3.34+  Mn165  1  0.08542188  0.16470624  0.09008840  1
  Mn3.34+  Mn166  1  0.42090312  0.66763135  0.08723652  1
  Mn3.34+  Mn167  1  0.58279957  0.67054386  0.24829842  1
  Mn3.34+  Mn168  1  0.57964495  0.16187304  0.57955498  1
  Mn3.34+  Mn169  1  0.91852959  0.16377182  0.58622160  1
  Mn3.34+  Mn170  1  0.41755449  0.67089454  0.75337390  1
  Mn3.34+  Mn171  1  0.24902512  0.67148860  0.24637698  1
  Mn3.34+  Mn172  1  0.58277914  0.66772468  0.91728219  1
  Mn3.34+  Mn173  1  0.08394756  0.67016473  0.41169819  1
  Mn3.34+  Mn174  1  0.92868343  0.66775095  0.57581612  1
  Mn3.34+  Mn175  1  0.57330169  0.15475035  0.24944288  1
  Mn3.34+  Mn176  1  0.74903892  0.16633503  0.42221057  1
  Mn3.34+  Mn177  1  0.91999137  0.67376777  0.57879560  1
  Mn3.34+  Mn178  1  0.73955010  0.65967475  0.41885376  1
  Mn3.34+  Mn179  1  0.24461507  0.66711568  0.58224011  1
  Mn3.34+  Mn180  1  0.74361665  0.00123741  0.74812092  1
  Mn3.34+  Mn181  1  0.27610687  -0.00470268  0.90676411  1
  Mn3.34+  Mn182  1  0.58881623  0.50349993  0.57164364  1
  Mn3.34+  Mn183  1  0.75014572  -0.00841247  0.39345484  1
  Mn3.34+  Mn184  1  0.74619418  0.50147911  0.75771607  1
  Mn3.34+  Mn185  1  0.91692543  0.50280290  0.57532585  1
  Mn3.34+  Mn186  1  0.75982219  0.49504887  0.75545203  1
  Mn3.34+  Mn187  1  0.24626316  0.49710018  0.92472295  1
  Mn3.34+  Mn188  1  0.57353617  0.50182895  0.23527146  1
  Mn3.34+  Mn189  1  0.08196332  0.49992742  0.41533150  1
  Mn3.34+  Mn190  1  0.26698789  0.00129070  0.90337756  1
  Mn3.34+  Mn191  1  0.91549131  0.00156059  0.57482121  1
  Mn3.34+  Mn192  1  0.09786875  -0.00123599  0.74547361  1
  Mn3.34+  Mn193  1  0.42275963  0.50189446  0.07408623  1
  Mn3.34+  Mn194  1  0.57437662  0.49724115  0.57011943  1
  Mn3.34+  Mn195  1  0.74594731  0.50326871  0.41231632  1
  Mn3.34+  Mn196  1  0.91595838  0.00173359  0.91357821  1
  Mn3.34+  Mn197  1  0.08032415  0.50088467  0.75753119  1
  Mn3.34+  Mn198  1  0.75288355  -0.00170805  0.07546181  1
  Mn3.34+  Mn199  1  0.41447783  0.50317650  0.76241202  1
  Mn3.34+  Mn200  1  0.08522465  0.00594033  0.74595015  1
  Mn3.34+  Mn201  1  0.08680387  -0.00089646  0.39649647  1
  Mn3.34+  Mn202  1  0.41080373  0.00038235  0.40545449  1
  Mn3.34+  Mn203  1  0.74017623  -0.00073954  0.39998140  1
  Mn3.34+  Mn204  1  0.73956601  0.49465442  0.07070086  1
  Mn3.34+  Mn205  1  0.42453018  0.50161214  0.41648713  1
  Mn3.34+  Mn206  1  0.07001706  0.49524481  0.75594608  1
  Mn3.34+  Mn207  1  0.42130518  0.00060246  0.08447300  1
  Mn3.34+  Mn208  1  0.58443076  0.49774953  0.23664378  1
  Mn3.34+  Mn209  1  0.26308445  -0.00314171  0.59489860  1
  Mn3.34+  Mn210  1  0.57791033  0.50125098  0.93041811  1
  Mn3.34+  Mn211  1  0.24978764  0.50460088  0.25318718  1
  Mn3.34+  Mn212  1  0.92995105  -0.00399488  0.57311989  1
  Mn3.34+  Mn213  1  0.42608506  0.49942829  0.76201673  1
  Mn3.34+  Mn214  1  0.08322073  0.50206158  0.09031783  1
  Mn3.34+  Mn215  1  0.92222513  0.49354392  0.92427969  1
  O2-  O216  1  0.00057116  0.15320850  -0.00284380  1
  O2-  O217  1  0.00341800  0.15108869  0.33385190  1
  O2-  O218  1  0.01251296  0.15425003  0.65798408  1
  O2-  O219  1  0.00340859  0.67604684  0.00973004  1
  O2-  O220  1  -0.00360278  0.68113367  0.33625886  1
  O2-  O221  1  0.00404111  0.64535788  0.66740671  1
  O2-  O222  1  0.33202169  0.14097229  0.01212908  1
  O2-  O223  1  0.33593290  0.15827717  0.33133274  1
  O2-  O224  1  0.32310325  0.19952223  0.67467770  1
  O2-  O225  1  0.33365273  0.67079120  0.01498012  1
  O2-  O226  1  0.32969645  0.65861001  0.33329926  1
  O2-  O227  1  0.33120363  0.64567579  0.66728068  1
  O2-  O228  1  0.66228873  0.15580780  0.00297382  1
  O2-  O229  1  0.66033499  0.15894589  0.33814990  1
  O2-  O230  1  0.65740765  0.15441833  0.67173822  1
  O2-  O231  1  0.66166949  0.66296583  -0.00579124  1
  O2-  O232  1  0.67110877  0.63974129  0.32590708  1
  O2-  O233  1  0.66509805  0.65302479  0.65871496  1
  O2-  O234  1  0.16883104  0.15951295  0.01069125  1
  O2-  O235  1  0.17479165  0.15505256  0.34018190  1
  O2-  O236  1  0.17390339  0.14885520  0.68796627  1
  O2-  O237  1  0.16166046  0.67160296  0.01157529  1
  O2-  O238  1  0.17091773  0.67858694  0.33555741  1
  O2-  O239  1  0.16262935  0.63768513  0.66626275  1
  O2-  O240  1  0.50071972  0.15567757  0.01343095  1
  O2-  O241  1  0.50436430  0.15710672  0.33921146  1
  O2-  O242  1  0.50738830  0.18185948  0.66130903  1
  O2-  O243  1  0.49961114  0.67115633  0.00545490  1
  O2-  O244  1  0.49736740  0.65831931  0.32894610  1
  O2-  O245  1  0.49715367  0.63990248  0.66773315  1
  O2-  O246  1  0.83158820  0.14143630  -0.01267018  1
  O2-  O247  1  0.83324361  0.15372881  0.33247208  1
  O2-  O248  1  0.82406101  0.15243965  0.65547172  1
  O2-  O249  1  0.84595769  0.67480943  -0.00246541  1
  O2-  O250  1  0.83946799  0.65097201  0.33687814  1
  O2-  O251  1  0.84516276  0.66208168  0.67127562  1
  O2-  O252  1  -0.00619693  0.35035908  0.00464615  1
  O2-  O253  1  -0.00047576  0.35149263  0.33443837  1
  O2-  O254  1  0.00674042  0.34336747  0.66248345  1
  O2-  O255  1  0.00704457  0.81873127  -0.00805023  1
  O2-  O256  1  0.00126789  0.81676969  0.33249658  1
  O2-  O257  1  -0.00304749  0.84189621  0.66813589  1
  O2-  O258  1  0.33121767  0.34948791  0.00296685  1
  O2-  O259  1  0.33091465  0.35015792  0.33608105  1
  O2-  O260  1  0.33077934  0.33750934  0.66650062  1
  O2-  O261  1  0.33471990  0.83837216  0.00572913  1
  O2-  O262  1  0.33266873  0.83279019  0.32815416  1
  O2-  O263  1  0.33150758  0.83832653  0.67119311  1
  O2-  O264  1  0.66942838  0.34355516  -0.00211809  1
  O2-  O265  1  0.66184592  0.33473747  0.33518417  1
  O2-  O266  1  0.66582216  0.34486713  0.66525269  1
  O2-  O267  1  0.66489607  0.84963762  0.00385498  1
  O2-  O268  1  0.65872463  0.85156012  0.33930255  1
  O2-  O269  1  0.66361740  0.85298414  0.67078526  1
  O2-  O270  1  0.16957775  0.34929953  0.00182634  1
  O2-  O271  1  0.16800003  0.35469349  0.33536124  1
  O2-  O272  1  0.16960199  0.34025952  0.66517339  1
  O2-  O273  1  0.16693855  0.84019629  0.01021871  1
  O2-  O274  1  0.16972706  0.81186331  0.33128491  1
  O2-  O275  1  0.16459011  0.84977570  0.66044469  1
  O2-  O276  1  0.49768107  0.33188977  0.00032392  1
  O2-  O277  1  0.49994501  0.33787817  0.33384797  1
  O2-  O278  1  0.49974439  0.32938120  0.66580936  1
  O2-  O279  1  0.49950473  0.84116775  0.00346483  1
  O2-  O280  1  0.49430977  0.84517710  0.32935938  1
  O2-  O281  1  0.49955248  0.84847025  0.66782307  1
  O2-  O282  1  0.83471327  0.35124506  0.00619997  1
  O2-  O283  1  0.83266996  0.34785305  0.33242605  1
  O2-  O284  1  0.83238262  0.34496007  0.66496344  1
  O2-  O285  1  0.84110309  0.84696669  0.00407210  1
  O2-  O286  1  0.83376531  0.81834979  0.32828210  1
  O2-  O287  1  0.83122992  0.84340571  0.66695946  1
  O2-  O288  1  -0.00222433  0.18232563  0.16264156  1
  O2-  O289  1  -0.00063213  0.17853155  0.49419677  1
  O2-  O290  1  -0.00251086  0.18561362  0.83396828  1
  O2-  O291  1  -0.00131537  0.69378010  0.17050638  1
  O2-  O292  1  0.00705864  0.69561891  0.49816366  1
  O2-  O293  1  -0.00061578  0.68462554  0.83019362  1
  O2-  O294  1  0.33033470  0.18098564  0.16722750  1
  O2-  O295  1  0.32957905  0.17518019  0.49062935  1
  O2-  O296  1  0.33944714  0.17784997  0.83323317  1
  O2-  O297  1  0.33991950  0.68767617  0.17361076  1
  O2-  O298  1  0.33345262  0.68284217  0.49683418  1
  O2-  O299  1  0.33398812  0.68620366  0.82299814  1
  O2-  O300  1  0.66326089  0.18404843  0.18054234  1
  O2-  O301  1  0.66705693  0.18657818  0.50779790  1
  O2-  O302  1  0.67796384  0.17356932  0.83206901  1
  O2-  O303  1  0.66967232  0.67223093  0.17437101  1
  O2-  O304  1  0.66501911  0.68201711  0.50523587  1
  O2-  O305  1  0.65675185  0.67850644  0.83538736  1
  O2-  O306  1  0.16851350  0.17829312  0.16829931  1
  O2-  O307  1  0.16143145  0.18220275  0.50706821  1
  O2-  O308  1  0.15032204  0.17501392  0.84490347  1
  O2-  O309  1  0.17285286  0.69171049  0.16409443  1
  O2-  O310  1  0.16469750  0.68385776  0.49901225  1
  O2-  O311  1  0.16519996  0.67495600  0.83538338  1
  O2-  O312  1  0.49565350  0.18940828  0.17375455  1
  O2-  O313  1  0.50376746  0.18028651  0.49659000  1
  O2-  O314  1  0.49698111  0.17466508  0.83133906  1
  O2-  O315  1  0.50321318  0.68518524  0.16722776  1
  O2-  O316  1  0.49316606  0.68174844  0.50531831  1
  O2-  O317  1  0.50179588  0.68206390  0.82758603  1
  O2-  O318  1  0.83814215  0.17655653  0.16936220  1
  O2-  O319  1  0.84074308  0.17745222  0.49346973  1
  O2-  O320  1  0.83388666  0.18247443  0.82770240  1
  O2-  O321  1  0.83530127  0.68468281  0.18430226  1
  O2-  O322  1  0.82714337  0.68917263  0.50612884  1
  O2-  O323  1  0.84066833  0.69684239  0.84340285  1
  O2-  O324  1  -0.00094850  0.32179971  0.16606704  1
  O2-  O325  1  0.00062267  0.32627049  0.49758960  1
  O2-  O326  1  -0.00191249  0.31221373  0.83613734  1
  O2-  O327  1  -0.00559978  0.81811088  0.16426292  1
  O2-  O328  1  0.00436500  0.81390060  0.50057889  1
  O2-  O329  1  -0.01058592  0.81589422  0.82556035  1
  O2-  O330  1  0.32802525  0.32705208  0.16659632  1
  O2-  O331  1  0.33332041  0.31584148  0.49968767  1
  O2-  O332  1  0.32957385  0.32107334  0.82517724  1
  O2-  O333  1  0.33279764  0.81238795  0.16635461  1
  O2-  O334  1  0.33331558  0.82063547  0.50143343  1
  O2-  O335  1  0.34054703  0.82463289  0.84097007  1
  O2-  O336  1  0.67260753  0.31336651  0.17161839  1
  O2-  O337  1  0.67211444  0.31635031  0.50629189  1
  O2-  O338  1  0.66055235  0.32474041  0.82855605  1
  O2-  O339  1  0.66272005  0.82873460  0.16112562  1
  O2-  O340  1  0.67087610  0.82517135  0.50989834  1
  O2-  O341  1  0.66628679  0.82914017  0.83938240  1
  O2-  O342  1  0.16688675  0.32528472  0.16299451  1
  O2-  O343  1  0.16583969  0.31197429  0.50044389  1
  O2-  O344  1  0.17245670  0.32469109  0.82741346  1
  O2-  O345  1  0.17094640  0.81685784  0.16818594  1
  O2-  O346  1  0.16747163  0.82473053  0.49652791  1
  O2-  O347  1  0.15467351  0.83058008  0.84951397  1
  O2-  O348  1  0.48974282  0.31427145  0.17609130  1
  O2-  O349  1  0.50394402  0.31647735  0.49805907  1
  O2-  O350  1  0.50282452  0.31682671  0.82703498  1
  O2-  O351  1  0.50273303  0.81210410  0.16352681  1
  O2-  O352  1  0.50222759  0.82694956  0.49357859  1
  O2-  O353  1  0.49802199  0.82052496  0.83672711  1
  O2-  O354  1  0.83769999  0.32422681  0.16542829  1
  O2-  O355  1  0.82935718  0.32385656  0.50217661  1
  O2-  O356  1  0.82630874  0.31381461  0.84327714  1
  O2-  O357  1  0.83945916  0.82677103  0.16197095  1
  O2-  O358  1  0.82853667  0.81040825  0.50629170  1
  O2-  O359  1  0.83281328  0.82678761  0.83287821  1
  O2-  O360  1  0.08229584  0.08256304  0.08605401  1
  O2-  O361  1  0.07236438  0.07333978  0.45447098  1
  O2-  O362  1  0.07806252  0.08004077  0.79315659  1
  O2-  O363  1  0.10199427  0.58380025  0.09350123  1
  O2-  O364  1  0.07616051  0.58119603  0.43938983  1
  O2-  O365  1  0.06566048  0.58124730  0.79315840  1
  O2-  O366  1  0.43028203  0.08074719  0.12178293  1
  O2-  O367  1  0.41681813  0.07590251  0.44481633  1
  O2-  O368  1  0.41589225  0.06928138  0.78839313  1
  O2-  O369  1  0.40009136  0.58036444  0.11247207  1
  O2-  O370  1  0.40447773  0.58295882  0.44420525  1
  O2-  O371  1  0.40848592  0.58474879  0.78554737  1
  O2-  O372  1  0.75140694  0.07246358  0.10572236  1
  O2-  O373  1  0.75383356  0.07633475  0.45527051  1
  O2-  O374  1  0.75058478  0.08155192  0.77532430  1
  O2-  O375  1  0.74094142  0.57394990  0.09897063  1
  O2-  O376  1  0.76007238  0.58290920  0.46181634  1
  O2-  O377  1  0.75934700  0.58350800  0.77150415  1
  O2-  O378  1  0.25193555  0.08122619  0.22912126  1
  O2-  O379  1  0.24586721  0.06132878  0.53845275  1
  O2-  O380  1  0.24482010  0.07797247  0.86795562  1
  O2-  O381  1  0.25669061  0.58397772  0.20826021  1
  O2-  O382  1  0.24604395  0.58115983  0.54605158  1
  O2-  O383  1  0.22601461  0.57802091  0.92005805  1
  O2-  O384  1  0.59919113  0.07484806  0.20472974  1
  O2-  O385  1  0.58980963  0.08400075  0.55964603  1
  O2-  O386  1  0.59349630  0.06599648  0.87018533  1
  O2-  O387  1  0.57190374  0.58386407  0.21172071  1
  O2-  O388  1  0.57610425  0.58263099  0.54388640  1
  O2-  O389  1  0.57581211  0.58026271  0.89662332  1
  O2-  O390  1  0.91475071  0.08631179  0.23113813  1
  O2-  O391  1  0.91710664  0.07965931  0.53736052  1
  O2-  O392  1  0.92615299  0.08219739  0.88227747  1
  O2-  O393  1  0.90166844  0.58125611  0.21683023  1
  O2-  O394  1  0.92206946  0.58455657  0.53359392  1
  O2-  O395  1  0.93941179  0.57545581  0.90492680  1
  O2-  O396  1  0.07342778  0.42037593  0.11800560  1
  O2-  O397  1  0.10392290  0.42113173  0.45209042  1
  O2-  O398  1  0.09485992  0.41385237  0.77216423  1
  O2-  O399  1  0.04986275  0.91740976  0.07323662  1
  O2-  O400  1  0.07588734  0.92818838  0.44180587  1
  O2-  O401  1  0.06171413  0.92347117  0.78992452  1
  O2-  O402  1  0.40574249  0.42277379  0.11466294  1
  O2-  O403  1  0.41878646  0.41694887  0.44967083  1
  O2-  O404  1  0.43585090  0.41500568  0.76441333  1
  O2-  O405  1  0.41099005  0.92194043  0.11514284  1
  O2-  O406  1  0.41798083  0.92511521  0.43819629  1
  O2-  O407  1  0.42185387  0.91946500  0.78073042  1
  O2-  O408  1  0.76085714  0.41926650  0.11570554  1
  O2-  O409  1  0.73463899  0.41820183  0.44447204  1
  O2-  O410  1  0.73528825  0.41456899  0.77658949  1
  O2-  O411  1  0.76749744  0.92050701  0.10701247  1
  O2-  O412  1  0.76384940  0.92072864  0.45352293  1
  O2-  O413  1  0.76865937  0.92207705  0.78217389  1
  O2-  O414  1  0.24340125  0.42104359  0.21866887  1
  O2-  O415  1  0.25409729  0.41770329  0.55266577  1
  O2-  O416  1  0.25994646  0.42123365  0.87820502  1
  O2-  O417  1  0.26524437  0.91720189  0.22168075  1
  O2-  O418  1  0.24373985  0.92570245  0.55242244  1
  O2-  O419  1  0.24642526  0.91475752  0.90779321  1
  O2-  O420  1  0.58611229  0.41478092  0.22782994  1
  O2-  O421  1  0.59309039  0.41539891  0.55644904  1
  O2-  O422  1  0.58100861  0.42150016  0.88618228  1
  O2-  O423  1  0.56077699  0.91816561  0.22012420  1
  O2-  O424  1  0.59797530  0.92162014  0.54569132  1
  O2-  O425  1  0.57852321  0.91608095  0.89509098  1
  O2-  O426  1  0.91735558  0.41776697  0.22200266  1
  O2-  O427  1  0.89781200  0.42008971  0.54673076  1
  O2-  O428  1  0.89755073  0.41736133  0.88774132  1
  O2-  O429  1  0.92379507  0.92245189  0.22786861  1
  O2-  O430  1  0.91735922  0.91501668  0.55861406  1
  O2-  O431  1  0.92787992  0.91864884  0.88785277  1
  O2-  O432  1  0.01428184  0.00058661  -0.03963354  1
  O2-  O433  1  -0.00828267  0.00715581  0.35239454  1
  O2-  O434  1  -0.00183706  -0.00471775  0.66903592  1
  O2-  O435  1  -0.00958907  0.49821038  0.02479463  1
  O2-  O436  1  -0.00424842  0.48726261  0.35176464  1
  O2-  O437  1  0.01011636  0.50437488  0.65308364  1
  O2-  O438  1  0.32067971  0.00278776  0.01844800  1
  O2-  O439  1  0.33542950  0.00013565  0.33628794  1
  O2-  O440  1  0.31582602  0.02034169  0.68057173  1
  O2-  O441  1  0.31768146  0.50003067  0.02524148  1
  O2-  O442  1  0.32607381  0.49151315  0.35081079  1
  O2-  O443  1  0.33445250  0.48777035  0.68039769  1
  O2-  O444  1  0.67983281  0.00327931  -0.00805043  1
  O2-  O445  1  0.63730990  0.00582412  0.35606559  1
  O2-  O446  1  0.68194502  -0.01133749  0.65646485  1
  O2-  O447  1  0.68663375  0.49247113  -0.03079656  1
  O2-  O448  1  0.67270930  0.50350899  0.31350911  1
  O2-  O449  1  0.65836306  0.50268398  0.67102929  1
  O2-  O450  1  0.16125358  0.00326078  -0.03303220  1
  O2-  O451  1  0.17531253  0.01121913  0.34854931  1
  O2-  O452  1  0.15505635  0.00005165  0.64432604  1
  O2-  O453  1  0.17424745  0.48696038  0.02313987  1
  O2-  O454  1  0.17721665  0.50017702  0.35346298  1
  O2-  O455  1  0.17124446  0.49669880  0.68332495  1
  O2-  O456  1  0.50943440  -0.00365517  0.02176345  1
  O2-  O457  1  0.49547050  0.00112933  0.34534057  1
  O2-  O458  1  0.53342438  0.00923486  0.70018352  1
  O2-  O459  1  0.53010657  0.51270010  0.03687830  1
  O2-  O460  1  0.48955071  0.49457998  0.31663345  1
  O2-  O461  1  0.49426561  0.50597472  0.65923187  1
  O2-  O462  1  0.85651609  -0.00287967  0.02100156  1
  O2-  O463  1  0.83093098  0.02094235  0.32564344  1
  O2-  O464  1  0.83754080  -0.01022189  0.66270612  1
  O2-  O465  1  0.84447180  0.49478270  0.02029368  1
  O2-  O466  1  0.83533015  0.49980335  0.34609942  1
  O2-  O467  1  0.81595573  0.50101470  0.64786656  1
  O2-  O468  1  0.39912182  0.24558509  0.05786428  1
  O2-  O469  1  0.08472566  0.25178592  0.05989254  1
  O2-  O470  1  0.58953194  0.25277559  0.92942848  1
  O2-  O471  1  0.91955575  0.25185920  0.27648549  1
  O2-  O472  1  0.58533410  0.75260814  0.93508860  1
  O2-  O473  1  0.25063176  0.25604066  0.93417063  1
  O2-  O474  1  0.91125113  0.24866835  0.94973242  1
  O2-  O475  1  0.24872207  0.75328434  0.92766229  1
  O2-  O476  1  0.41466570  0.24812053  0.39150180  1
  O2-  O477  1  0.74791505  0.75602377  0.06894741  1
  O2-  O478  1  0.75621421  0.25342439  0.06080979  1
  O2-  O479  1  0.42195238  0.75150511  0.39692866  1
  O2-  O480  1  0.24695626  0.25191866  0.27449519  1
  O2-  O481  1  0.76061486  0.24846558  0.38985625  1
  O2-  O482  1  0.42091732  0.74985500  0.72166428  1
  O2-  O483  1  0.10682546  0.74861847  0.71825672  1
  O2-  O484  1  0.75249447  0.24780312  0.72133265  1
  O2-  O485  1  0.08531483  0.24770618  0.72800785  1
  O2-  O486  1  0.07845252  0.25201322  0.38224835  1
  O2-  O487  1  0.72764678  0.74476184  0.38885498  1
  O2-  O488  1  0.24765892  0.74752515  0.61173046  1
  O2-  O489  1  0.58000242  0.75579559  0.60947730  1
  O2-  O490  1  0.59435991  0.75120421  0.27261005  1
  O2-  O491  1  0.91860905  0.25045140  0.60330609  1
  O2-  O492  1  0.73916008  0.75638884  0.73143966  1
