# generated using pymatgen
data_Ca108Mn108O277
_symmetry_space_group_name_H-M   'P 1'
_cell_length_a   16.02454117
_cell_length_b   22.30109511
_cell_length_c   16.38480034
_cell_angle_alpha   90.00564445
_cell_angle_beta   89.99953130
_cell_angle_gamma   89.99768961
_symmetry_Int_Tables_number   1
_chemical_formula_structural   Ca108Mn108O277
_chemical_formula_sum   'Ca108 Mn108 O277'
_cell_volume   5855.35113412
_cell_formula_units_Z   1
loop_
 _symmetry_equiv_pos_site_id
 _symmetry_equiv_pos_as_xyz
  1  'x, y, z'
loop_
 _atom_type_symbol
 _atom_type_oxidation_number
  Ca2+  2.0
  Mn3.34+  3.34
  O2-  -2.0
loop_
 _atom_site_type_symbol
 _atom_site_label
 _atom_site_symmetry_multiplicity
 _atom_site_fract_x
 _atom_site_fract_y
 _atom_site_fract_z
 _atom_site_occupancy
  Ca2+  Ca0  1  0.10178450  0.23985596  0.25824445  1
  Ca2+  Ca1  1  0.08153088  0.25102183  0.58026020  1
  Ca2+  Ca2  1  0.06310873  0.25103197  0.91552427  1
  Ca2+  Ca3  1  0.06802574  0.74178571  0.24579015  1
  Ca2+  Ca4  1  0.09551336  0.75057206  0.58226534  1
  Ca2+  Ca5  1  0.09171058  0.75323134  0.92492958  1
  Ca2+  Ca6  1  0.40757190  0.25713475  0.25520627  1
  Ca2+  Ca7  1  0.42700179  0.24811715  0.57532968  1
  Ca2+  Ca8  1  0.42765670  0.25988702  0.91686803  1
  Ca2+  Ca9  1  0.41897055  0.74979501  0.26567261  1
  Ca2+  Ca10  1  0.40964584  0.75043444  0.57919037  1
  Ca2+  Ca11  1  0.41491096  0.75256841  0.90066374  1
  Ca2+  Ca12  1  0.74497429  0.25916242  0.23826069  1
  Ca2+  Ca13  1  0.74119319  0.24546331  0.60746361  1
  Ca2+  Ca14  1  0.75658099  0.24361427  0.89988994  1
  Ca2+  Ca15  1  0.75602385  0.74813097  0.25595716  1
  Ca2+  Ca16  1  0.75200573  0.75035889  0.58064260  1
  Ca2+  Ca17  1  0.74134265  0.74588197  0.90677024  1
  Ca2+  Ca18  1  0.24700743  0.25552101  0.10346588  1
  Ca2+  Ca19  1  0.25352534  0.25296668  0.40362406  1
  Ca2+  Ca20  1  0.25144557  0.25414569  0.74916546  1
  Ca2+  Ca21  1  0.23376424  0.74075320  0.08346402  1
  Ca2+  Ca22  1  0.27463299  0.74146081  0.41549122  1
  Ca2+  Ca23  1  0.28173491  0.73297160  0.75120440  1
  Ca2+  Ca24  1  0.58975326  0.26122342  0.07803952  1
  Ca2+  Ca25  1  0.57003718  0.26062606  0.41396039  1
  Ca2+  Ca26  1  0.60098539  0.25590962  0.75306160  1
  Ca2+  Ca27  1  0.57574312  0.75724823  0.08619391  1
  Ca2+  Ca28  1  0.56813764  0.74679052  0.40879498  1
  Ca2+  Ca29  1  0.56730552  0.74466113  0.75624394  1
  Ca2+  Ca30  1  0.91223970  0.26337174  0.07085238  1
  Ca2+  Ca31  1  0.93373164  0.25604584  0.40856773  1
  Ca2+  Ca32  1  0.89972379  0.23897338  0.76545017  1
  Ca2+  Ca33  1  0.92256689  0.74424271  0.10305821  1
  Ca2+  Ca34  1  0.90966571  0.73676157  0.40212602  1
  Ca2+  Ca35  1  0.90915610  0.74863510  0.74842411  1
  Ca2+  Ca36  1  0.40943084  0.59284044  0.89117923  1
  Ca2+  Ca37  1  0.41535537  0.59600505  0.58906534  1
  Ca2+  Ca38  1  0.24867027  0.09288426  0.42535584  1
  Ca2+  Ca39  1  0.93272272  0.08628430  0.40250126  1
  Ca2+  Ca40  1  0.06072557  0.58472977  0.58059290  1
  Ca2+  Ca41  1  0.57530106  0.08694430  0.07601302  1
  Ca2+  Ca42  1  0.74834273  0.08793619  0.61639746  1
  Ca2+  Ca43  1  0.79001693  0.59155501  0.25846286  1
  Ca2+  Ca44  1  0.93356148  0.61524848  0.09298967  1
  Ca2+  Ca45  1  0.41586718  0.08816174  0.26011923  1
  Ca2+  Ca46  1  0.56395750  0.08638697  0.07604519  1
  Ca2+  Ca47  1  0.04384941  0.60772882  0.24409527  1
  Ca2+  Ca48  1  0.40937079  0.09399058  0.26132313  1
  Ca2+  Ca49  1  0.40731586  0.60074204  0.59324123  1
  Ca2+  Ca50  1  0.89783307  0.58990430  0.73141228  1
  Ca2+  Ca51  1  0.79759009  0.58862520  0.25260019  1
  Ca2+  Ca52  1  0.08973131  0.60619806  0.94880600  1
  Ca2+  Ca53  1  0.74311108  0.08565882  0.25344613  1
  Ca2+  Ca54  1  0.42041752  0.59365477  0.89353046  1
  Ca2+  Ca55  1  0.24983465  0.60022709  0.41142763  1
  Ca2+  Ca56  1  0.61734294  0.10489237  0.76101491  1
  Ca2+  Ca57  1  0.76528567  0.58793393  0.58185536  1
  Ca2+  Ca58  1  0.26263993  0.10031806  0.08821102  1
  Ca2+  Ca59  1  0.88786627  0.59311972  0.73464118  1
  Ca2+  Ca60  1  0.91184169  0.08289942  0.04534292  1
  Ca2+  Ca61  1  0.59105982  0.58464096  0.07109744  1
  Ca2+  Ca62  1  0.27412705  0.10132207  0.08736280  1
  Ca2+  Ca63  1  0.25923669  0.09328541  0.42595100  1
  Ca2+  Ca64  1  0.22492782  0.08380280  0.72997398  1
  Ca2+  Ca65  1  0.59535443  0.59835364  0.76118269  1
  Ca2+  Ca66  1  0.41610996  0.59482432  0.26759180  1
  Ca2+  Ca67  1  0.55179926  0.07718901  0.40961442  1
  Ca2+  Ca68  1  0.60150331  0.58456863  0.06978076  1
  Ca2+  Ca69  1  0.40443405  0.59341624  0.26725498  1
  Ca2+  Ca70  1  0.74499510  0.60267025  0.90679048  1
  Ca2+  Ca71  1  0.23640968  0.08060577  0.72691316  1
  Ca2+  Ca72  1  0.91711111  0.90991418  0.76520680  1
  Ca2+  Ca73  1  0.42125340  0.90335629  0.92079137  1
  Ca2+  Ca74  1  0.90904083  0.41857952  0.40754262  1
  Ca2+  Ca75  1  0.58601606  0.90996967  0.08240607  1
  Ca2+  Ca76  1  0.75110868  0.90728877  0.91790823  1
  Ca2+  Ca77  1  0.75488317  0.90210397  0.59175555  1
  Ca2+  Ca78  1  0.91513321  0.90249913  0.41518840  1
  Ca2+  Ca79  1  0.90034862  0.90830120  0.06344948  1
  Ca2+  Ca80  1  0.07146518  0.40706155  0.24985158  1
  Ca2+  Ca81  1  0.72842375  0.91046274  0.25034459  1
  Ca2+  Ca82  1  0.59524211  0.90428924  0.74941834  1
  Ca2+  Ca83  1  0.73480748  0.40505476  0.91514702  1
  Ca2+  Ca84  1  0.44756748  0.92380006  0.26952219  1
  Ca2+  Ca85  1  0.08258677  0.40641278  0.25121779  1
  Ca2+  Ca86  1  0.07369011  0.90663628  0.25449372  1
  Ca2+  Ca87  1  0.25715863  0.91352322  0.41457070  1
  Ca2+  Ca88  1  0.24853562  0.90687096  0.75279366  1
  Ca2+  Ca89  1  0.08655236  0.90699697  0.25508416  1
  Ca2+  Ca90  1  0.43597117  0.92117788  0.27322205  1
  Ca2+  Ca91  1  0.74914346  0.40676929  0.24618268  1
  Ca2+  Ca92  1  0.25369573  0.90208471  0.07956016  1
  Ca2+  Ca93  1  0.25897649  0.39805859  0.08088212  1
  Ca2+  Ca94  1  0.92050789  0.40384530  0.74319275  1
  Ca2+  Ca95  1  0.91977498  0.41933032  0.40633390  1
  Ca2+  Ca96  1  0.41490832  0.91462255  0.56822182  1
  Ca2+  Ca97  1  0.91183370  0.90814747  0.06250844  1
  Ca2+  Ca98  1  0.09360012  0.91780833  0.58783499  1
  Ca2+  Ca99  1  0.24829501  0.39607978  0.75830286  1
  Ca2+  Ca100  1  0.75395014  0.41020961  0.58690445  1
  Ca2+  Ca101  1  0.41498912  0.39712075  0.58946272  1
  Ca2+  Ca102  1  0.57908215  0.41404760  0.06505042  1
  Ca2+  Ca103  1  0.08123175  0.91521645  0.58731004  1
  Ca2+  Ca104  1  0.23701753  0.90704196  0.75384212  1
  Ca2+  Ca105  1  0.08155168  0.40380815  0.59127271  1
  Ca2+  Ca106  1  0.74372978  0.40726188  0.58436742  1
  Ca2+  Ca107  1  0.42623062  0.91388365  0.56774196  1
  Mn3.34+  Mn108  1  0.08186412  0.33607801  0.07719132  1
  Mn3.34+  Mn109  1  0.09045721  0.33503701  0.42236113  1
  Mn3.34+  Mn110  1  0.08201638  0.32971368  0.75425720  1
  Mn3.34+  Mn111  1  0.08257080  0.82658702  0.08488568  1
  Mn3.34+  Mn112  1  0.08330010  0.82837402  0.41931920  1
  Mn3.34+  Mn113  1  0.07840285  0.83140378  0.75686976  1
  Mn3.34+  Mn114  1  0.41756106  0.33366613  0.08490268  1
  Mn3.34+  Mn115  1  0.41401705  0.33174395  0.41554014  1
  Mn3.34+  Mn116  1  0.42135461  0.33526736  0.75330668  1
  Mn3.34+  Mn117  1  0.41644256  0.83436245  0.08614856  1
  Mn3.34+  Mn118  1  0.41826469  0.83488212  0.41567016  1
  Mn3.34+  Mn119  1  0.42101922  0.83407540  0.74721734  1
  Mn3.34+  Mn120  1  0.75098507  0.33881161  0.08046447  1
  Mn3.34+  Mn121  1  0.74557679  0.33364543  0.41745789  1
  Mn3.34+  Mn122  1  0.74895357  0.33343841  0.75454501  1
  Mn3.34+  Mn123  1  0.74757226  0.82580473  0.08359520  1
  Mn3.34+  Mn124  1  0.74622838  0.83123291  0.41749916  1
  Mn3.34+  Mn125  1  0.75102382  0.83023073  0.75219139  1
  Mn3.34+  Mn126  1  0.25245629  0.33568915  0.25173258  1
  Mn3.34+  Mn127  1  0.25040056  0.32709975  0.58126100  1
  Mn3.34+  Mn128  1  0.25123036  0.33258625  0.91693216  1
  Mn3.34+  Mn129  1  0.25088980  0.83131047  0.24823164  1
  Mn3.34+  Mn130  1  0.24859811  0.83583607  0.57957538  1
  Mn3.34+  Mn131  1  0.25010413  0.83296144  0.91686927  1
  Mn3.34+  Mn132  1  0.57809093  0.33431047  0.24880667  1
  Mn3.34+  Mn133  1  0.58161441  0.33145264  0.58341423  1
  Mn3.34+  Mn134  1  0.58057140  0.33858121  0.91378713  1
  Mn3.34+  Mn135  1  0.58571066  0.83155897  0.24938464  1
  Mn3.34+  Mn136  1  0.58538294  0.83627386  0.57957349  1
  Mn3.34+  Mn137  1  0.58408363  0.83227479  0.91644917  1
  Mn3.34+  Mn138  1  0.91573369  0.33336042  0.24498107  1
  Mn3.34+  Mn139  1  0.91645261  0.33536484  0.57875681  1
  Mn3.34+  Mn140  1  0.91522568  0.33184909  0.91460893  1
  Mn3.34+  Mn141  1  0.91109559  0.83259201  0.24774076  1
  Mn3.34+  Mn142  1  0.91813831  0.82918082  0.57910523  1
  Mn3.34+  Mn143  1  0.91508213  0.82882224  0.91342286  1
  Mn3.34+  Mn144  1  0.75128280  0.66478081  0.41560425  1
  Mn3.34+  Mn145  1  0.08010939  0.16820100  0.75889270  1
  Mn3.34+  Mn146  1  0.41934854  0.18087064  0.07960128  1
  Mn3.34+  Mn147  1  0.42422108  0.16597872  0.75070045  1
  Mn3.34+  Mn148  1  0.24534482  0.16495216  0.58164126  1
  Mn3.34+  Mn149  1  0.25174166  0.66753877  0.91667639  1
  Mn3.34+  Mn150  1  0.41601419  0.16597429  0.42274643  1
  Mn3.34+  Mn151  1  0.58220355  0.66872822  0.91174801  1
  Mn3.34+  Mn152  1  0.58093300  0.16801229  0.24685293  1
  Mn3.34+  Mn153  1  0.91788057  0.16707723  0.58509225  1
  Mn3.34+  Mn154  1  0.75851322  0.16296630  0.08134642  1
  Mn3.34+  Mn155  1  0.74843341  0.16790449  0.07947242  1
  Mn3.34+  Mn156  1  0.92741311  0.16136703  0.58581358  1
  Mn3.34+  Mn157  1  0.74895911  0.67114601  0.08388081  1
  Mn3.34+  Mn158  1  0.08316564  0.66597784  0.42107945  1
  Mn3.34+  Mn159  1  0.58716112  0.16900688  0.91411694  1
  Mn3.34+  Mn160  1  0.91836198  0.16627567  0.25028753  1
  Mn3.34+  Mn161  1  0.41748677  0.66675814  0.08436680  1
  Mn3.34+  Mn162  1  0.09641175  0.66025286  0.75179395  1
  Mn3.34+  Mn163  1  0.58839140  0.66485969  0.24952649  1
  Mn3.34+  Mn164  1  0.91601397  0.66742023  0.57459166  1
  Mn3.34+  Mn165  1  0.75243451  0.16589616  0.41967678  1
  Mn3.34+  Mn166  1  0.40417941  0.66080152  0.08625825  1
  Mn3.34+  Mn167  1  0.08780127  0.16730636  0.41678968  1
  Mn3.34+  Mn168  1  0.74269860  0.17501155  0.41578511  1
  Mn3.34+  Mn169  1  0.24883900  0.67068547  0.58050244  1
  Mn3.34+  Mn170  1  0.24216206  0.66998798  0.24954368  1
  Mn3.34+  Mn171  1  0.91493502  0.67443230  0.91337708  1
  Mn3.34+  Mn172  1  0.59494375  0.66222011  0.57816719  1
  Mn3.34+  Mn173  1  0.58148565  0.66868689  0.58119448  1
  Mn3.34+  Mn174  1  0.08293711  0.66659608  0.75075946  1
  Mn3.34+  Mn175  1  0.58342218  0.16489010  0.57922094  1
  Mn3.34+  Mn176  1  0.41472054  0.17162028  0.74873661  1
  Mn3.34+  Mn177  1  0.24914764  0.16600963  0.90920347  1
  Mn3.34+  Mn178  1  0.07435233  0.16399268  0.08223882  1
  Mn3.34+  Mn179  1  0.08733164  0.16776400  0.08551205  1
  Mn3.34+  Mn180  1  0.75690980  -0.00038011  0.74999784  1
  Mn3.34+  Mn181  1  0.73049151  0.00003186  0.41726869  1
  Mn3.34+  Mn182  1  0.24491492  -0.00162976  0.25183249  1
  Mn3.34+  Mn183  1  0.25898337  0.00494394  0.91777188  1
  Mn3.34+  Mn184  1  0.91746853  0.00227508  0.24878272  1
  Mn3.34+  Mn185  1  0.75433060  0.49959586  0.08136489  1
  Mn3.34+  Mn186  1  0.07930385  0.00179880  0.07572434  1
  Mn3.34+  Mn187  1  0.42381279  0.49301139  0.73628643  1
  Mn3.34+  Mn188  1  0.91124942  0.50162894  0.91186192  1
  Mn3.34+  Mn189  1  0.59035844  0.00281858  0.58584115  1
  Mn3.34+  Mn190  1  0.43094221  0.00087036  0.75503902  1
  Mn3.34+  Mn191  1  0.58626519  0.49831215  0.25146790  1
  Mn3.34+  Mn192  1  0.41141307  0.49909698  0.07703893  1
  Mn3.34+  Mn193  1  0.23832799  0.50299351  0.57744800  1
  Mn3.34+  Mn194  1  0.91799804  -0.00016775  0.58598934  1
  Mn3.34+  Mn195  1  0.06746492  0.00144121  0.76049734  1
  Mn3.34+  Mn196  1  0.41668818  -0.00143390  0.08513587  1
  Mn3.34+  Mn197  1  0.08063114  0.00117397  0.41864217  1
  Mn3.34+  Mn198  1  0.24791071  0.50278023  0.24479486  1
  Mn3.34+  Mn199  1  0.41592518  0.48890203  0.41173694  1
  Mn3.34+  Mn200  1  0.74482446  0.50386331  0.40474620  1
  Mn3.34+  Mn201  1  0.58565218  0.00158572  0.91754037  1
  Mn3.34+  Mn202  1  0.08750261  0.50119358  0.40844665  1
  Mn3.34+  Mn203  1  0.74298146  0.49756976  0.74453754  1
  Mn3.34+  Mn204  1  0.25195795  0.49674577  0.57824892  1
  Mn3.34+  Mn205  1  0.09177930  0.50713771  0.08474347  1
  Mn3.34+  Mn206  1  0.41915406  0.00469617  0.75449634  1
  Mn3.34+  Mn207  1  0.07972089  0.50030019  0.08367305  1
  Mn3.34+  Mn208  1  0.58405914  0.49762798  0.57794209  1
  Mn3.34+  Mn209  1  0.08364542  0.49957300  0.75300186  1
  Mn3.34+  Mn210  1  0.92420497  0.49584578  0.91608565  1
  Mn3.34+  Mn211  1  0.42613864  0.49417238  0.41376202  1
  Mn3.34+  Mn212  1  0.25140161  0.50033535  0.91663274  1
  Mn3.34+  Mn213  1  0.74284851  -0.00398090  0.41652571  1
  Mn3.34+  Mn214  1  0.08986195  -0.00322548  0.07674868  1
  Mn3.34+  Mn215  1  0.74846567  -0.00130932  0.08388332  1
  O2-  O216  1  -0.00164781  0.16061420  0.00699356  1
  O2-  O217  1  -0.00047393  0.15849084  0.33867782  1
  O2-  O218  1  0.00959615  0.17733090  0.66654019  1
  O2-  O219  1  -0.00365652  0.68153309  -0.00804016  1
  O2-  O220  1  0.00824986  0.67735682  0.34162912  1
  O2-  O221  1  -0.00388140  0.65978894  0.66972359  1
  O2-  O222  1  0.32799794  0.17247875  0.00233612  1
  O2-  O223  1  0.33447492  0.15413319  0.33859059  1
  O2-  O224  1  0.32819457  0.16070945  0.66913326  1
  O2-  O225  1  0.33443137  0.65182094  -0.00174169  1
  O2-  O226  1  0.33067510  0.65754968  0.33194248  1
  O2-  O227  1  0.33083760  0.65912284  0.66029020  1
  O2-  O228  1  0.66228905  0.14799493  0.00515512  1
  O2-  O229  1  0.66486894  0.15133293  0.33394112  1
  O2-  O230  1  0.66409616  0.16109615  0.65696242  1
  O2-  O231  1  0.66520549  0.65923964  -0.00041051  1
  O2-  O232  1  0.68220513  0.64846214  0.31734177  1
  O2-  O233  1  0.67346218  0.65815878  0.65863869  1
  O2-  O234  1  0.17093734  0.15551915  0.00039888  1
  O2-  O235  1  0.17488086  0.15896539  0.34883643  1
  O2-  O236  1  0.17337709  0.17481725  0.67392130  1
  O2-  O237  1  0.16813527  0.67648675  -0.00581680  1
  O2-  O238  1  0.16604488  0.66360933  0.33585830  1
  O2-  O239  1  0.15668052  0.64993533  0.65451091  1
  O2-  O240  1  0.50504221  0.16227258  0.00567552  1
  O2-  O241  1  0.49705710  0.15321424  0.33241973  1
  O2-  O242  1  0.50017839  0.14791952  0.66680731  1
  O2-  O243  1  0.49631949  0.64386087  0.00121889  1
  O2-  O244  1  0.50214832  0.65687338  0.32272669  1
  O2-  O245  1  0.50935412  0.65152294  0.66640681  1
  O2-  O246  1  0.83368923  0.15852135  -0.00046151  1
  O2-  O247  1  0.83128134  0.15437508  0.33530990  1
  O2-  O248  1  0.83571180  0.16147324  0.66108816  1
  O2-  O249  1  0.82819355  0.67721289  -0.00370276  1
  O2-  O250  1  0.83397923  0.65976085  0.34096844  1
  O2-  O251  1  0.84023843  0.67609438  0.66086385  1
  O2-  O252  1  -0.00120998  0.33058422  -0.00283600  1
  O2-  O253  1  -0.00022068  0.34663607  0.34116456  1
  O2-  O254  1  0.00081488  0.34105643  0.66154003  1
  O2-  O255  1  -0.00851800  0.82636199  0.00669108  1
  O2-  O256  1  0.00043907  0.84378090  0.33183877  1
  O2-  O257  1  0.00153907  0.84121958  0.66273007  1
  O2-  O258  1  0.33319330  0.31191180  0.00385547  1
  O2-  O259  1  0.33071564  0.33569231  0.33686336  1
  O2-  O260  1  0.32811609  0.33067027  0.66752432  1
  O2-  O261  1  0.33759631  0.84896892  -0.00164996  1
  O2-  O262  1  0.33745317  0.85514543  0.32587428  1
  O2-  O263  1  0.33547647  0.85916239  0.66263432  1
  O2-  O264  1  0.66345420  0.34211555  0.00593723  1
  O2-  O265  1  0.67344533  0.33233627  0.32864601  1
  O2-  O266  1  0.67268135  0.33965298  0.66348551  1
  O2-  O267  1  0.66956090  0.83824798  -0.00128037  1
  O2-  O268  1  0.66889975  0.84156409  0.32808338  1
  O2-  O269  1  0.66961171  0.84154080  0.66743058  1
  O2-  O270  1  0.17657295  0.33233560  0.00684842  1
  O2-  O271  1  0.16109793  0.34700657  0.32999524  1
  O2-  O272  1  0.16426741  0.31650966  0.66743190  1
  O2-  O273  1  0.16834141  0.82677274  0.00788481  1
  O2-  O274  1  0.16583809  0.84483614  0.33512537  1
  O2-  O275  1  0.16383662  0.85189776  0.66433608  1
  O2-  O276  1  0.50003779  0.33060171  0.00405112  1
  O2-  O277  1  0.49795284  0.33475419  0.33298387  1
  O2-  O278  1  0.49902963  0.34422162  0.66414526  1
  O2-  O279  1  0.50410791  0.85018331  0.00464613  1
  O2-  O280  1  0.50072435  0.84364028  0.33139772  1
  O2-  O281  1  0.49892467  0.85535713  0.66328925  1
  O2-  O282  1  0.82795687  0.34595720  -0.00635284  1
  O2-  O283  1  0.83544921  0.34437530  0.33767821  1
  O2-  O284  1  0.83138282  0.34785979  0.66175583  1
  O2-  O285  1  0.83055458  0.82738773  -0.00162323  1
  O2-  O286  1  0.82931619  0.85197233  0.32662887  1
  O2-  O287  1  0.83472762  0.82278370  0.66650431  1
  O2-  O288  1  -0.00135151  0.17768867  0.16809815  1
  O2-  O289  1  -0.00151859  0.17502123  0.49809738  1
  O2-  O290  1  0.00256202  0.18836296  0.82740528  1
  O2-  O291  1  -0.00002852  0.68206256  0.16597552  1
  O2-  O292  1  0.00565859  0.68613174  0.50692689  1
  O2-  O293  1  0.00357405  0.68386877  0.83153958  1
  O2-  O294  1  0.33828333  0.17798873  0.15957820  1
  O2-  O295  1  0.32597153  0.17913068  0.49837793  1
  O2-  O296  1  0.33587602  0.18987674  0.83325504  1
  O2-  O297  1  0.33497364  0.68171192  0.17335214  1
  O2-  O298  1  0.33402182  0.67583774  0.50853571  1
  O2-  O299  1  0.34263311  0.67204809  0.84318299  1
  O2-  O300  1  0.66940540  0.17682167  0.16325971  1
  O2-  O301  1  0.66750518  0.19279459  0.49799833  1
  O2-  O302  1  0.66395011  0.17998827  0.83684312  1
  O2-  O303  1  0.65759214  0.68369636  0.15536030  1
  O2-  O304  1  0.66568293  0.68211986  0.49616929  1
  O2-  O305  1  0.66087377  0.67972847  0.83397051  1
  O2-  O306  1  0.17309432  0.17050535  0.15412900  1
  O2-  O307  1  0.16695068  0.18553665  0.50340635  1
  O2-  O308  1  0.16838761  0.18927643  0.83300098  1
  O2-  O309  1  0.16400489  0.68536268  0.17631555  1
  O2-  O310  1  0.17191635  0.68790963  0.49496489  1
  O2-  O311  1  0.16960527  0.67938669  0.83550662  1
  O2-  O312  1  0.50055124  0.18261587  0.16338843  1
  O2-  O313  1  0.50468270  0.17552667  0.49357182  1
  O2-  O314  1  0.50273610  0.18050122  0.83281407  1
  O2-  O315  1  0.50006163  0.67501313  0.16257229  1
  O2-  O316  1  0.49574031  0.67615605  0.51043184  1
  O2-  O317  1  0.49763099  0.67498758  0.84004862  1
  O2-  O318  1  0.83030465  0.18084445  0.16870779  1
  O2-  O319  1  0.83555199  0.18808892  0.49454503  1
  O2-  O320  1  0.83696369  0.16293199  0.84343649  1
  O2-  O321  1  0.82354768  0.67760391  0.16630017  1
  O2-  O322  1  0.82999784  0.68366234  0.50226154  1
  O2-  O323  1  0.83764828  0.67975346  0.82948759  1
  O2-  O324  1  0.00706074  0.32750336  0.17536716  1
  O2-  O325  1  -0.00092423  0.32736287  0.49785260  1
  O2-  O326  1  -0.00643304  0.31676071  0.82429131  1
  O2-  O327  1  0.00358083  0.82108727  0.17127999  1
  O2-  O328  1  0.00075171  0.80982839  0.49788710  1
  O2-  O329  1  -0.00647127  0.81050891  0.83466741  1
  O2-  O330  1  0.33122597  0.32351767  0.16462019  1
  O2-  O331  1  0.33611903  0.31176291  0.50594571  1
  O2-  O332  1  0.33232735  0.31680858  0.83267515  1
  O2-  O333  1  0.32713071  0.82929521  0.16275966  1
  O2-  O334  1  0.33429537  0.82936655  0.50155020  1
  O2-  O335  1  0.33339716  0.82799783  0.82244184  1
  O2-  O336  1  0.66820919  0.32430462  0.16507806  1
  O2-  O337  1  0.67306206  0.31860744  0.50688026  1
  O2-  O338  1  0.67220046  0.32500970  0.84004718  1
  O2-  O339  1  0.66727329  0.81762889  0.16566578  1
  O2-  O340  1  0.67100677  0.82134013  0.50700636  1
  O2-  O341  1  0.66416423  0.81594532  0.82908726  1
  O2-  O342  1  0.16301642  0.32895994  0.17079255  1
  O2-  O343  1  0.16524741  0.31521775  0.50412885  1
  O2-  O344  1  0.16680277  0.31251264  0.83378407  1
  O2-  O345  1  0.16106482  0.81622113  0.17269992  1
  O2-  O346  1  0.16533102  0.81851378  0.50116826  1
  O2-  O347  1  0.17267650  0.82584387  0.82555023  1
  O2-  O348  1  0.49979859  0.31498073  0.16361182  1
  O2-  O349  1  0.49813773  0.32232662  0.50418626  1
  O2-  O350  1  0.50396103  0.32098218  0.83074077  1
  O2-  O351  1  0.49751352  0.82035744  0.16953158  1
  O2-  O352  1  0.49066605  0.82688053  0.50878735  1
  O2-  O353  1  0.49989313  0.82366056  0.83352361  1
  O2-  O354  1  0.83102594  0.32623653  0.16807591  1
  O2-  O355  1  0.83261184  0.32055619  0.49660451  1
  O2-  O356  1  0.83512725  0.32815696  0.82875407  1
  O2-  O357  1  0.83881907  0.82372158  0.15623475  1
  O2-  O358  1  0.83597016  0.81659261  0.49898035  1
  O2-  O359  1  0.83058029  0.80862130  0.83494177  1
  O2-  O360  1  0.08537113  0.07971657  0.11717579  1
  O2-  O361  1  0.09352292  0.08262439  0.44021338  1
  O2-  O362  1  0.09525539  0.08357262  0.76913861  1
  O2-  O363  1  0.07371033  0.58598038  0.10405986  1
  O2-  O364  1  0.09907795  0.57766311  0.44975789  1
  O2-  O365  1  0.07977268  0.58107069  0.79200110  1
  O2-  O366  1  0.41987988  0.08164266  0.11201080  1
  O2-  O367  1  0.40230027  0.08096392  0.42969838  1
  O2-  O368  1  0.40457169  0.08502278  0.77923202  1
  O2-  O369  1  0.41542298  0.57547805  0.13071537  1
  O2-  O370  1  0.40554711  0.57066014  0.46075865  1
  O2-  O371  1  0.44850450  0.56984236  0.76738896  1
  O2-  O372  1  0.74232364  0.07878810  0.11643340  1
  O2-  O373  1  0.75598710  0.08092003  0.45519181  1
  O2-  O374  1  0.74958478  0.07697977  0.75709423  1
  O2-  O375  1  0.73854758  0.57959747  0.11942627  1
  O2-  O376  1  0.75122753  0.58121731  0.44626859  1
  O2-  O377  1  0.75366727  0.57654232  0.77730962  1
  O2-  O378  1  0.27610331  0.07379330  0.21607106  1
  O2-  O379  1  0.24251385  0.08070076  0.56533181  1
  O2-  O380  1  0.25397530  0.08132173  0.86277220  1
  O2-  O381  1  0.26244161  0.58526019  0.22753237  1
  O2-  O382  1  0.25206308  0.58336907  0.54901728  1
  O2-  O383  1  0.26178290  0.58184866  0.88777117  1
  O2-  O384  1  0.57498954  0.08655268  0.21107547  1
  O2-  O385  1  0.60347662  0.08119278  0.54486957  1
  O2-  O386  1  0.57868840  0.08288443  0.89489844  1
  O2-  O387  1  0.57597717  0.57762344  0.20840455  1
  O2-  O388  1  0.57807411  0.58125092  0.55250636  1
  O2-  O389  1  0.58107173  0.58433967  0.89778317  1
  O2-  O390  1  0.90006371  0.08305925  0.22183848  1
  O2-  O391  1  0.90563425  0.08136287  0.54780273  1
  O2-  O392  1  0.91104676  0.08326563  0.90448739  1
  O2-  O393  1  0.91160539  0.56763607  0.20758493  1
  O2-  O394  1  0.91307065  0.58609671  0.58270549  1
  O2-  O395  1  0.91767198  0.58152547  0.87470402  1
  O2-  O396  1  0.09144506  0.42062868  0.10820248  1
  O2-  O397  1  0.07879298  0.42288096  0.45250116  1
  O2-  O398  1  0.09519176  0.41791366  0.75335271  1
  O2-  O399  1  0.08173110  0.91677701  0.11600264  1
  O2-  O400  1  0.07683822  0.91975902  0.45250301  1
  O2-  O401  1  0.06913821  0.91667745  0.78035957  1
  O2-  O402  1  0.40540258  0.42026206  0.09479687  1
  O2-  O403  1  0.41097281  0.41233815  0.45382127  1
  O2-  O404  1  0.39187402  0.41595070  0.75660068  1
  O2-  O405  1  0.41816073  0.92008558  0.12053056  1
  O2-  O406  1  0.41075596  0.92318893  0.43546521  1
  O2-  O407  1  0.42972671  0.91971401  0.78551435  1
  O2-  O408  1  0.74336997  0.42052950  0.10683449  1
  O2-  O409  1  0.76281004  0.42591328  0.45047910  1
  O2-  O410  1  0.75457695  0.41931345  0.77217938  1
  O2-  O411  1  0.75968285  0.91801208  0.10858577  1
  O2-  O412  1  0.76114499  0.91784861  0.45437176  1
  O2-  O413  1  0.76274529  0.91858315  0.78277343  1
  O2-  O414  1  0.23171238  0.42246523  0.21694565  1
  O2-  O415  1  0.23988212  0.41505084  0.57611626  1
  O2-  O416  1  0.24959528  0.42006181  0.89376527  1
  O2-  O417  1  0.22227089  0.91887844  0.21758907  1
  O2-  O418  1  0.23407238  0.92051026  0.55504212  1
  O2-  O419  1  0.26033244  0.92029228  0.88789802  1
  O2-  O420  1  0.59296615  0.41862358  0.22191104  1
  O2-  O421  1  0.60381008  0.41684176  0.56074096  1
  O2-  O422  1  0.59068369  0.41740721  0.91652422  1
  O2-  O423  1  0.58043851  0.91522028  0.22154641  1
  O2-  O424  1  0.57320846  0.92172942  0.55523435  1
  O2-  O425  1  0.59387288  0.91895470  0.88935420  1
  O2-  O426  1  0.92829911  0.41558320  0.24679209  1
  O2-  O427  1  0.90468144  0.41964335  0.55211883  1
  O2-  O428  1  0.92217858  0.41707027  0.88342322  1
  O2-  O429  1  0.93145235  0.92112282  0.20368618  1
  O2-  O430  1  0.93156255  0.91877582  0.55086870  1
  O2-  O431  1  0.89908406  0.91140582  0.90770087  1
  O2-  O432  1  -0.01884238  -0.00912243  0.01987511  1
  O2-  O433  1  0.00491435  -0.01558152  0.32986064  1
  O2-  O434  1  0.01461360  -0.01218207  0.65388128  1
  O2-  O435  1  -0.00182882  0.51408213  0.00074633  1
  O2-  O436  1  0.00194229  0.48551383  0.34290729  1
  O2-  O437  1  -0.01616938  0.51006237  0.70207948  1
  O2-  O438  1  0.32144271  0.00648163  0.02549600  1
  O2-  O439  1  0.33034192  -0.00967198  0.31729103  1
  O2-  O440  1  0.32412186  -0.01087296  0.68810621  1
  O2-  O441  1  0.35082273  0.51238311  -0.01937225  1
  O2-  O442  1  0.33175354  0.51165841  0.33249900  1
  O2-  O443  1  0.33011854  0.51531423  0.66366670  1
  O2-  O444  1  0.65446539  -0.00008269  0.01964227  1
  O2-  O445  1  0.66820488  0.01009409  0.32213660  1
  O2-  O446  1  0.66065691  -0.00887146  0.67938668  1
  O2-  O447  1  0.66460212  0.50532355  0.01776297  1
  O2-  O448  1  0.69331617  0.50933980  0.29659076  1
  O2-  O449  1  0.68374884  0.50460260  0.63877869  1
  O2-  O450  1  0.17634162  0.00628184  0.00565093  1
  O2-  O451  1  0.17235313  -0.01153492  0.34567852  1
  O2-  O452  1  0.17532372  -0.00909067  0.70711411  1
  O2-  O453  1  0.16594013  0.50879548  -0.00442132  1
  O2-  O454  1  0.15271044  0.50105133  0.31331027  1
  O2-  O455  1  0.14718139  0.50666123  0.65004365  1
  O2-  O456  1  0.50695043  -0.00042452  0.01316946  1
  O2-  O457  1  0.48153613  0.01248599  0.29521367  1
  O2-  O458  1  0.48918981  -0.00456695  0.65223549  1
  O2-  O459  1  0.50844075  0.51175452  0.02884351  1
  O2-  O460  1  0.49335884  0.51477605  0.32056724  1
  O2-  O461  1  0.48035237  0.49962692  0.62939234  1
  O2-  O462  1  0.83668716  -0.00507870  0.02093428  1
  O2-  O463  1  0.83801372  -0.00157699  0.34224622  1
  O2-  O464  1  0.82665194  -0.01382145  0.65622531  1
  O2-  O465  1  0.82573528  0.50923159  -0.01110210  1
  O2-  O466  1  0.83694178  0.49633886  0.34726115  1
  O2-  O467  1  0.83307467  0.50480895  0.68060466  1
  O2-  O468  1  0.57954411  0.75016522  0.60779915  1
  O2-  O469  1  0.42113250  0.75617555  0.72504597  1
  O2-  O470  1  0.75340960  0.25329733  0.74357157  1
  O2-  O471  1  0.41842362  0.75530612  0.40217760  1
  O2-  O472  1  0.26497409  0.75275218  0.27549168  1
  O2-  O473  1  0.90645448  0.75574682  0.26567470  1
  O2-  O474  1  0.59057286  0.24833218  0.26954454  1
  O2-  O475  1  0.24484962  0.25562697  0.26102405  1
  O2-  O476  1  0.25269631  0.75374991  0.61152200  1
  O2-  O477  1  0.91453536  0.24998412  0.27144519  1
  O2-  O478  1  0.08807903  0.25152057  0.07415901  1
  O2-  O479  1  0.90478957  0.25271707  0.92789912  1
  O2-  O480  1  0.57175579  0.75031288  0.94343260  1
  O2-  O481  1  0.91844973  0.25167553  0.59707343  1
  O2-  O482  1  0.42621914  0.25196610  0.72410554  1
  O2-  O483  1  0.74292322  0.74834208  0.39376394  1
  O2-  O484  1  0.41924762  0.24824570  0.39782047  1
  O2-  O485  1  0.58706898  0.24987011  0.93702008  1
  O2-  O486  1  0.09415968  0.74805346  0.72408848  1
  O2-  O487  1  0.57476335  0.24901848  0.60813780  1
  O2-  O488  1  0.41691937  0.75095816  0.05750134  1
  O2-  O489  1  0.26621877  0.75087584  0.92713532  1
  O2-  O490  1  0.07999421  0.25127248  0.39639959  1
  O2-  O491  1  0.75177378  0.25287374  0.06586621  1
  O2-  O492  1  0.57887445  0.74817811  0.27091672  1
