# generated using pymatgen
data_Ca108Mn108O277
_symmetry_space_group_name_H-M   'P 1'
_cell_length_a   16.02662761
_cell_length_b   22.30638824
_cell_length_c   16.38855800
_cell_angle_alpha   89.99761554
_cell_angle_beta   90.00316782
_cell_angle_gamma   89.99677614
_symmetry_Int_Tables_number   1
_chemical_formula_structural   Ca108Mn108O277
_chemical_formula_sum   'Ca108 Mn108 O277'
_cell_volume   5858.84681712
_cell_formula_units_Z   1
loop_
 _symmetry_equiv_pos_site_id
 _symmetry_equiv_pos_as_xyz
  1  'x, y, z'
loop_
 _atom_type_symbol
 _atom_type_oxidation_number
  Ca2+  2.0
  Mn3.34+  3.34
  O2-  -2.0
loop_
 _atom_site_type_symbol
 _atom_site_label
 _atom_site_symmetry_multiplicity
 _atom_site_fract_x
 _atom_site_fract_y
 _atom_site_fract_z
 _atom_site_occupancy
  Ca2+  Ca0  1  0.09418453  0.25567496  0.24556019  1
  Ca2+  Ca1  1  0.09376625  0.25152251  0.58464046  1
  Ca2+  Ca2  1  0.06635226  0.25053278  0.91950269  1
  Ca2+  Ca3  1  0.05619938  0.74106523  0.26062312  1
  Ca2+  Ca4  1  0.09963231  0.74572991  0.59212399  1
  Ca2+  Ca5  1  0.06734782  0.74266433  0.88690291  1
  Ca2+  Ca6  1  0.41881474  0.25412228  0.24380251  1
  Ca2+  Ca7  1  0.39554753  0.23698929  0.58071349  1
  Ca2+  Ca8  1  0.42239668  0.25193616  0.93271383  1
  Ca2+  Ca9  1  0.42070912  0.75983457  0.25132201  1
  Ca2+  Ca10  1  0.39866223  0.72968111  0.59938447  1
  Ca2+  Ca11  1  0.41889133  0.76191761  0.90578604  1
  Ca2+  Ca12  1  0.73715457  0.24630913  0.25705413  1
  Ca2+  Ca13  1  0.76069373  0.24049128  0.59734673  1
  Ca2+  Ca14  1  0.76271577  0.24931376  0.90229768  1
  Ca2+  Ca15  1  0.76724521  0.75284726  0.25595403  1
  Ca2+  Ca16  1  0.74213866  0.74917900  0.57815175  1
  Ca2+  Ca17  1  0.76712983  0.74926805  0.92426207  1
  Ca2+  Ca18  1  0.26545143  0.24524530  0.10166018  1
  Ca2+  Ca19  1  0.25941367  0.25694537  0.42735010  1
  Ca2+  Ca20  1  0.25783036  0.24720529  0.72702837  1
  Ca2+  Ca21  1  0.26088704  0.75725308  0.08882578  1
  Ca2+  Ca22  1  0.23928013  0.74683294  0.44465212  1
  Ca2+  Ca23  1  0.25920911  0.74943481  0.73565372  1
  Ca2+  Ca24  1  0.56790073  0.25389578  0.09432661  1
  Ca2+  Ca25  1  0.58270032  0.26282933  0.41351047  1
  Ca2+  Ca26  1  0.59815156  0.25736488  0.74414178  1
  Ca2+  Ca27  1  0.58354122  0.74380003  0.09197627  1
  Ca2+  Ca28  1  0.59438974  0.74462972  0.44133723  1
  Ca2+  Ca29  1  0.56182691  0.74214637  0.73568172  1
  Ca2+  Ca30  1  0.92173868  0.25172936  0.07887763  1
  Ca2+  Ca31  1  0.90380564  0.25560955  0.43032818  1
  Ca2+  Ca32  1  0.90126874  0.25261690  0.74398998  1
  Ca2+  Ca33  1  0.89985443  0.74242435  0.09544309  1
  Ca2+  Ca34  1  0.91454029  0.75180901  0.41182688  1
  Ca2+  Ca35  1  0.92955569  0.74686486  0.74707768  1
  Ca2+  Ca36  1  0.26181767  0.08115833  0.72619701  1
  Ca2+  Ca37  1  0.95397625  0.59353570  0.76012934  1
  Ca2+  Ca38  1  0.89802215  0.60146615  0.09536830  1
  Ca2+  Ca39  1  0.25798961  0.09297100  0.07794683  1
  Ca2+  Ca40  1  0.12192753  0.09823531  0.59122082  1
  Ca2+  Ca41  1  0.27536566  0.08976431  0.43368044  1
  Ca2+  Ca42  1  0.26560718  0.08818049  0.43687347  1
  Ca2+  Ca43  1  0.91488551  0.59058403  0.39393616  1
  Ca2+  Ca44  1  0.60179059  0.08307738  0.39836524  1
  Ca2+  Ca45  1  0.09060512  0.59859987  0.57937935  1
  Ca2+  Ca46  1  0.90584778  0.59401938  0.39629417  1
  Ca2+  Ca47  1  0.07938074  0.06883560  0.95007993  1
  Ca2+  Ca48  1  0.74292321  0.60739249  0.22434021  1
  Ca2+  Ca49  1  0.43072487  0.58450985  0.92745183  1
  Ca2+  Ca50  1  0.39085250  0.07631472  0.60096902  1
  Ca2+  Ca51  1  0.75114034  0.61186338  0.22228066  1
  Ca2+  Ca52  1  0.73414784  0.59988939  0.57322017  1
  Ca2+  Ca53  1  0.40064253  0.06342254  0.91444420  1
  Ca2+  Ca54  1  0.89801246  0.11008399  0.76122883  1
  Ca2+  Ca55  1  0.74198970  0.57113743  0.98128549  1
  Ca2+  Ca56  1  0.56107807  0.09723293  0.08882740  1
  Ca2+  Ca57  1  0.25545787  0.60326525  0.73571666  1
  Ca2+  Ca58  1  0.24155774  0.60276364  0.42267312  1
  Ca2+  Ca59  1  0.41364044  0.06255588  0.91581997  1
  Ca2+  Ca60  1  0.06860722  0.06939720  0.95020580  1
  Ca2+  Ca61  1  0.59146419  0.08386737  0.40020855  1
  Ca2+  Ca62  1  0.94316952  0.59144902  0.75789714  1
  Ca2+  Ca63  1  0.92034041  0.08362723  0.06885534  1
  Ca2+  Ca64  1  0.87635279  0.09140222  0.41092888  1
  Ca2+  Ca65  1  0.41876416  0.58225831  0.93149172  1
  Ca2+  Ca66  1  0.41985874  0.10105489  0.24373102  1
  Ca2+  Ca67  1  0.42721404  0.59943499  0.23940670  1
  Ca2+  Ca68  1  0.24488229  0.60380767  0.73375508  1
  Ca2+  Ca69  1  0.06774766  0.08789172  0.23288939  1
  Ca2+  Ca70  1  0.09844522  0.60248783  0.58368709  1
  Ca2+  Ca71  1  0.57366282  0.09630754  0.08765187  1
  Ca2+  Ca72  1  0.75943533  0.41103263  0.24455352  1
  Ca2+  Ca73  1  0.57993862  0.91109928  0.06510678  1
  Ca2+  Ca74  1  0.89364639  0.90841119  0.40959004  1
  Ca2+  Ca75  1  0.74718923  0.41354307  0.24512379  1
  Ca2+  Ca76  1  0.25212689  0.90800805  0.42735743  1
  Ca2+  Ca77  1  0.61111124  0.42746285  0.05601881  1
  Ca2+  Ca78  1  0.75243485  0.40173832  0.59006176  1
  Ca2+  Ca79  1  0.07325670  0.40773965  0.91520918  1
  Ca2+  Ca80  1  0.56739077  0.91056525  0.06568011  1
  Ca2+  Ca81  1  0.90886876  0.90205992  0.76410854  1
  Ca2+  Ca82  1  0.09989951  0.90614622  0.58246517  1
  Ca2+  Ca83  1  0.41315858  0.39022137  0.58121972  1
  Ca2+  Ca84  1  0.39790241  0.92021475  0.59764140  1
  Ca2+  Ca85  1  0.27569459  0.92233917  0.75256759  1
  Ca2+  Ca86  1  0.22979112  0.92928564  0.04467249  1
  Ca2+  Ca87  1  0.55206174  0.91558276  0.76751856  1
  Ca2+  Ca88  1  0.93591889  0.91630450  0.06932558  1
  Ca2+  Ca89  1  0.74608588  0.89728541  0.57229923  1
  Ca2+  Ca90  1  0.07695454  0.40622510  0.26214850  1
  Ca2+  Ca91  1  0.08584475  0.40969001  0.91660442  1
  Ca2+  Ca92  1  0.75070195  0.89781782  0.92275145  1
  Ca2+  Ca93  1  0.89499643  0.41433164  0.07078336  1
  Ca2+  Ca94  1  0.26394119  0.90720017  0.42777693  1
  Ca2+  Ca95  1  0.91989988  0.90025155  0.76408892  1
  Ca2+  Ca96  1  0.42591507  0.40743522  0.92673062  1
  Ca2+  Ca97  1  0.24317530  0.40118310  0.08038922  1
  Ca2+  Ca98  1  0.60045004  0.42697797  0.05615576  1
  Ca2+  Ca99  1  0.76361075  0.40200734  0.58906290  1
  Ca2+  Ca100  1  0.42554122  0.91436501  0.26320188  1
  Ca2+  Ca101  1  0.07013696  0.90645848  0.24277710  1
  Ca2+  Ca102  1  0.25518738  0.40118459  0.08058604  1
  Ca2+  Ca103  1  0.91701250  0.40491076  0.41938547  1
  Ca2+  Ca104  1  0.59771891  0.90349271  0.41166573  1
  Ca2+  Ca105  1  0.07070796  0.91575303  0.93135857  1
  Ca2+  Ca106  1  0.40440519  0.39257493  0.57640764  1
  Ca2+  Ca107  1  0.24115240  0.92949870  0.04439465  1
  Mn3.34+  Mn108  1  0.08042439  0.33179635  0.08788694  1
  Mn3.34+  Mn109  1  0.08514293  0.33476292  0.41864540  1
  Mn3.34+  Mn110  1  0.08422063  0.33443324  0.74973457  1
  Mn3.34+  Mn111  1  0.08611817  0.83080971  0.08863259  1
  Mn3.34+  Mn112  1  0.08033104  0.83676371  0.41776643  1
  Mn3.34+  Mn113  1  0.08867037  0.83155900  0.75081174  1
  Mn3.34+  Mn114  1  0.41805360  0.33224359  0.08588198  1
  Mn3.34+  Mn115  1  0.41986444  0.33020890  0.40972324  1
  Mn3.34+  Mn116  1  0.42065212  0.32725817  0.75647304  1
  Mn3.34+  Mn117  1  0.41329043  0.83040049  0.08330061  1
  Mn3.34+  Mn118  1  0.42184048  0.83748001  0.42168485  1
  Mn3.34+  Mn119  1  0.41633190  0.83462285  0.75127813  1
  Mn3.34+  Mn120  1  0.74804177  0.32769352  0.08274816  1
  Mn3.34+  Mn121  1  0.74521484  0.33677341  0.41924097  1
  Mn3.34+  Mn122  1  0.75143559  0.33476306  0.75540251  1
  Mn3.34+  Mn123  1  0.74922304  0.82855218  0.08958436  1
  Mn3.34+  Mn124  1  0.74935583  0.83259142  0.41491663  1
  Mn3.34+  Mn125  1  0.74207008  0.83066014  0.75000808  1
  Mn3.34+  Mn126  1  0.25288000  0.33412376  0.25735061  1
  Mn3.34+  Mn127  1  0.24138141  0.33116532  0.58503163  1
  Mn3.34+  Mn128  1  0.25116852  0.33041558  0.90454267  1
  Mn3.34+  Mn129  1  0.24711669  0.83400661  0.24624158  1
  Mn3.34+  Mn130  1  0.25274540  0.83438335  0.58758548  1
  Mn3.34+  Mn131  1  0.24742173  0.83648125  0.90939929  1
  Mn3.34+  Mn132  1  0.57941547  0.33914070  0.24880607  1
  Mn3.34+  Mn133  1  0.58235603  0.33408149  0.58452374  1
  Mn3.34+  Mn134  1  0.58838143  0.33766319  0.91064695  1
  Mn3.34+  Mn135  1  0.58867455  0.83571467  0.24725024  1
  Mn3.34+  Mn136  1  0.57823994  0.83237602  0.58639007  1
  Mn3.34+  Mn137  1  0.58560520  0.83454387  0.91092728  1
  Mn3.34+  Mn138  1  0.91495248  0.32957292  0.24757547  1
  Mn3.34+  Mn139  1  0.92906936  0.33348354  0.58832804  1
  Mn3.34+  Mn140  1  0.91173396  0.33468647  0.91355642  1
  Mn3.34+  Mn141  1  0.91267674  0.83534755  0.24782319  1
  Mn3.34+  Mn142  1  0.91766892  0.83128932  0.58132006  1
  Mn3.34+  Mn143  1  0.91793697  0.83152922  0.92182018  1
  Mn3.34+  Mn144  1  0.25115077  0.67324897  0.92226148  1
  Mn3.34+  Mn145  1  0.41876734  0.16526958  0.74982872  1
  Mn3.34+  Mn146  1  0.75463377  0.66315149  0.75076275  1
  Mn3.34+  Mn147  1  0.24541745  0.17154802  0.90966744  1
  Mn3.34+  Mn148  1  0.90549511  0.16227954  0.24237340  1
  Mn3.34+  Mn149  1  0.74798216  0.66745866  0.41699487  1
  Mn3.34+  Mn150  1  0.25045736  0.16490944  0.24827761  1
  Mn3.34+  Mn151  1  0.91670393  0.16699785  0.58332713  1
  Mn3.34+  Mn152  1  0.08076179  0.16871056  0.08882515  1
  Mn3.34+  Mn153  1  0.42138395  0.16346212  0.41799997  1
  Mn3.34+  Mn154  1  0.41393818  0.67056936  0.09238114  1
  Mn3.34+  Mn155  1  0.08686235  0.16575157  0.41229429  1
  Mn3.34+  Mn156  1  0.58332486  0.67011087  0.25298596  1
  Mn3.34+  Mn157  1  0.08250265  0.67051822  0.41561144  1
  Mn3.34+  Mn158  1  0.59006134  0.16197535  0.58624262  1
  Mn3.34+  Mn159  1  0.58523212  0.16252792  0.90774483  1
  Mn3.34+  Mn160  1  0.07304685  0.15962386  0.41488147  1
  Mn3.34+  Mn161  1  0.24852556  0.67057832  0.25049231  1
  Mn3.34+  Mn162  1  0.42576181  0.66653598  0.42290926  1
  Mn3.34+  Mn163  1  0.91576038  0.66507416  0.57808264  1
  Mn3.34+  Mn164  1  0.74068256  0.65791884  0.75196778  1
  Mn3.34+  Mn165  1  0.57975289  0.16659988  0.58781209  1
  Mn3.34+  Mn166  1  0.59439302  0.66096281  0.91952751  1
  Mn3.34+  Mn167  1  0.24192800  0.66746252  0.91996654  1
  Mn3.34+  Mn168  1  0.75544181  0.17188334  0.08417126  1
  Mn3.34+  Mn169  1  0.08146068  0.66677505  0.08621399  1
  Mn3.34+  Mn170  1  0.25395240  0.16559994  0.90648485  1
  Mn3.34+  Mn171  1  0.91755868  0.16801276  0.91467623  1
  Mn3.34+  Mn172  1  0.74835051  0.17037895  0.41777816  1
  Mn3.34+  Mn173  1  0.59311342  0.15590762  0.90402193  1
  Mn3.34+  Mn174  1  0.91426451  0.66478684  0.91936597  1
  Mn3.34+  Mn175  1  0.41523370  0.67014474  0.41949482  1
  Mn3.34+  Mn176  1  0.58535724  0.66716766  0.91990255  1
  Mn3.34+  Mn177  1  0.09107094  0.66133559  0.08863977  1
  Mn3.34+  Mn178  1  0.58669777  0.16976628  0.24755129  1
  Mn3.34+  Mn179  1  0.08153085  0.16940800  0.75284697  1
  Mn3.34+  Mn180  1  0.07924444  0.00080532  0.75887619  1
  Mn3.34+  Mn181  1  0.91569759  0.00029174  0.58293053  1
  Mn3.34+  Mn182  1  0.41216560  0.50246007  0.08270835  1
  Mn3.34+  Mn183  1  0.57366935  0.50271556  0.57125787  1
  Mn3.34+  Mn184  1  0.57528619  0.00169460  0.58775471  1
  Mn3.34+  Mn185  1  0.74815085  0.00534073  0.76616285  1
  Mn3.34+  Mn186  1  0.24568849  0.49476065  0.58378791  1
  Mn3.34+  Mn187  1  0.41497529  -0.00342995  0.09511264  1
  Mn3.34+  Mn188  1  0.24223696  0.50870757  0.24875714  1
  Mn3.34+  Mn189  1  0.43109619  0.50132149  0.41112291  1
  Mn3.34+  Mn190  1  0.91936234  0.49884675  0.25338882  1
  Mn3.34+  Mn191  1  0.73674553  0.01295047  0.76346109  1
  Mn3.34+  Mn192  1  0.91385047  0.49805602  0.92639072  1
  Mn3.34+  Mn193  1  0.42043775  0.49662313  0.41060294  1
  Mn3.34+  Mn194  1  0.25194867  0.50298316  0.24950515  1
  Mn3.34+  Mn195  1  0.42516198  0.49847217  0.74652945  1
  Mn3.34+  Mn196  1  0.58833007  -0.00380386  0.26036820  1
  Mn3.34+  Mn197  1  0.73293057  0.50157066  0.40642268  1
  Mn3.34+  Mn198  1  0.25597815  0.00152972  0.25488594  1
  Mn3.34+  Mn199  1  0.74751643  0.49959333  0.74737363  1
  Mn3.34+  Mn200  1  0.90702885  -0.00145929  0.25968684  1
  Mn3.34+  Mn201  1  0.90297401  0.00722905  0.58431900  1
  Mn3.34+  Mn202  1  0.58551964  -0.00321109  0.59053216  1
  Mn3.34+  Mn203  1  0.06344609  -0.00078651  0.40920077  1
  Mn3.34+  Mn204  1  0.41319558  0.49126050  0.74412432  1
  Mn3.34+  Mn205  1  0.24334770  0.49984651  0.91437941  1
  Mn3.34+  Mn206  1  0.91911881  0.50153850  0.58962002  1
  Mn3.34+  Mn207  1  0.75112147  -0.00080683  0.09936865  1
  Mn3.34+  Mn208  1  0.75154914  0.00384804  0.08544670  1
  Mn3.34+  Mn209  1  0.09060937  0.00414605  0.75580028  1
  Mn3.34+  Mn210  1  0.24168247  -0.00464106  0.25422629  1
  Mn3.34+  Mn211  1  0.58694557  0.50852496  0.57265515  1
  Mn3.34+  Mn212  1  0.58584390  0.50458118  0.24606728  1
  Mn3.34+  Mn213  1  0.08403947  0.49814832  0.41829148  1
  Mn3.34+  Mn214  1  0.08271951  0.49807080  0.08512386  1
  Mn3.34+  Mn215  1  0.09028843  0.49677664  0.74313751  1
  O2-  O216  1  0.00712766  0.15602025  -0.00160980  1
  O2-  O217  1  -0.00397226  0.15158913  0.32935453  1
  O2-  O218  1  0.00430782  0.15256252  0.66383360  1
  O2-  O219  1  0.00655803  0.66357450  -0.00016761  1
  O2-  O220  1  -0.00322930  0.66069610  0.34353196  1
  O2-  O221  1  -0.00398204  0.64977909  0.65856886  1
  O2-  O222  1  0.33838085  0.15166049  -0.01428512  1
  O2-  O223  1  0.33234616  0.14778863  0.33438522  1
  O2-  O224  1  0.33802789  0.15879136  0.67291212  1
  O2-  O225  1  0.32998558  0.65384562  0.00294228  1
  O2-  O226  1  0.33929816  0.65497417  0.33429800  1
  O2-  O227  1  0.33077377  0.66282971  0.67711287  1
  O2-  O228  1  0.66736747  0.16771633  -0.00351341  1
  O2-  O229  1  0.66456179  0.16042701  0.33386128  1
  O2-  O230  1  0.66665737  0.16782505  0.66586532  1
  O2-  O231  1  0.66982289  0.68838986  -0.00317967  1
  O2-  O232  1  0.66488730  0.66429101  0.33541190  1
  O2-  O233  1  0.66614454  0.65882938  0.67045081  1
  O2-  O234  1  0.17090463  0.15363023  -0.00244717  1
  O2-  O235  1  0.16360541  0.13829172  0.33101170  1
  O2-  O236  1  0.16583788  0.16825874  0.67838039  1
  O2-  O237  1  0.16610785  0.69101701  0.00530513  1
  O2-  O238  1  0.17319392  0.67115387  0.33891008  1
  O2-  O239  1  0.16142004  0.65549895  0.66506388  1
  O2-  O240  1  0.50945960  0.16396894  -0.00291724  1
  O2-  O241  1  0.50625258  0.14697652  0.33448079  1
  O2-  O242  1  0.49889894  0.14027821  0.66257922  1
  O2-  O243  1  0.50747333  0.66072174  0.00483778  1
  O2-  O244  1  0.49842116  0.66128172  0.33542300  1
  O2-  O245  1  0.48486910  0.66565409  0.67270401  1
  O2-  O246  1  0.84415797  0.16529290  0.00968827  1
  O2-  O247  1  0.83420131  0.17266623  0.33397144  1
  O2-  O248  1  0.84061442  0.16255411  0.66032412  1
  O2-  O249  1  0.83587034  0.66279024  -0.00246064  1
  O2-  O250  1  0.82335114  0.65332549  0.32941435  1
  O2-  O251  1  0.83618867  0.63968236  0.66408749  1
  O2-  O252  1  -0.00036481  0.35046755  0.00511144  1
  O2-  O253  1  -0.00564387  0.33264566  0.33079602  1
  O2-  O254  1  0.00466173  0.31262682  0.67324732  1
  O2-  O255  1  0.00557195  0.83948583  0.00081767  1
  O2-  O256  1  -0.00429498  0.85367236  0.33529858  1
  O2-  O257  1  0.00020166  0.85645755  0.66890412  1
  O2-  O258  1  0.32853156  0.33681331  -0.00312284  1
  O2-  O259  1  0.33538510  0.33084710  0.33552387  1
  O2-  O260  1  0.33558114  0.33773296  0.66966922  1
  O2-  O261  1  0.32417227  0.84517820  0.00349784  1
  O2-  O262  1  0.33069095  0.84914170  0.33089577  1
  O2-  O263  1  0.33183958  0.84648289  0.67044830  1
  O2-  O264  1  0.65944218  0.32136451  0.00435828  1
  O2-  O265  1  0.67273338  0.35095720  0.32543084  1
  O2-  O266  1  0.66887496  0.33966904  0.66195180  1
  O2-  O267  1  0.66340129  0.82571934  0.00290522  1
  O2-  O268  1  0.66019881  0.82763740  0.33785831  1
  O2-  O269  1  0.66120462  0.85038627  0.67007264  1
  O2-  O270  1  0.16299878  0.34483026  -0.00223570  1
  O2-  O271  1  0.15960234  0.34273702  0.32653260  1
  O2-  O272  1  0.16466409  0.32201734  0.67025252  1
  O2-  O273  1  0.17055412  0.82914119  0.00429035  1
  O2-  O274  1  0.16959912  0.85176874  0.33271598  1
  O2-  O275  1  0.17136929  0.85021682  0.67253416  1
  O2-  O276  1  0.49975765  0.33601214  -0.00110264  1
  O2-  O277  1  0.50359627  0.34096498  0.33514448  1
  O2-  O278  1  0.49824118  0.35270718  0.66799904  1
  O2-  O279  1  0.50308464  0.83702855  -0.00188605  1
  O2-  O280  1  0.49993625  0.84609766  0.32824924  1
  O2-  O281  1  0.49705938  0.85466354  0.66538718  1
  O2-  O282  1  0.83472355  0.33419484  0.00504205  1
  O2-  O283  1  0.83202533  0.34456351  0.33357114  1
  O2-  O284  1  0.83622593  0.33846757  0.66298031  1
  O2-  O285  1  0.83108497  0.83592127  0.00290339  1
  O2-  O286  1  0.83045050  0.84329596  0.33097738  1
  O2-  O287  1  0.83310813  0.85422489  0.67001229  1
  O2-  O288  1  -0.00178414  0.18299744  0.16989855  1
  O2-  O289  1  0.00486784  0.18516420  0.50026339  1
  O2-  O290  1  -0.00263104  0.18866285  0.82806046  1
  O2-  O291  1  -0.00254670  0.68189024  0.15889054  1
  O2-  O292  1  0.00674877  0.67709447  0.50720958  1
  O2-  O293  1  -0.01160866  0.67298793  0.82782417  1
  O2-  O294  1  0.33177102  0.17472213  0.17476441  1
  O2-  O295  1  0.33487054  0.17363460  0.48844601  1
  O2-  O296  1  0.33454523  0.19302015  0.83318064  1
  O2-  O297  1  0.33138125  0.69400716  0.17884193  1
  O2-  O298  1  0.32878165  0.67587419  0.49117326  1
  O2-  O299  1  0.33507706  0.68555562  0.84754564  1
  O2-  O300  1  0.65978429  0.18111182  0.15498632  1
  O2-  O301  1  0.66184564  0.18346283  0.49862698  1
  O2-  O302  1  0.66488491  0.19275761  0.83486934  1
  O2-  O303  1  0.66312594  0.69135370  0.18182651  1
  O2-  O304  1  0.68106112  0.67980954  0.50272820  1
  O2-  O305  1  0.66478546  0.68991633  0.83645384  1
  O2-  O306  1  0.16565626  0.17873356  0.16663768  1
  O2-  O307  1  0.17097499  0.17084148  0.48982407  1
  O2-  O308  1  0.16410374  0.19495075  0.83617094  1
  O2-  O309  1  0.16366071  0.68968762  0.16906752  1
  O2-  O310  1  0.15994611  0.67462004  0.50020544  1
  O2-  O311  1  0.17547629  0.68224029  0.83036581  1
  O2-  O312  1  0.50481789  0.17077577  0.17108363  1
  O2-  O313  1  0.50551421  0.17490959  0.50040687  1
  O2-  O314  1  0.49981732  0.18458714  0.83760171  1
  O2-  O315  1  0.49483270  0.68749355  0.17891145  1
  O2-  O316  1  0.49536106  0.68493643  0.50388637  1
  O2-  O317  1  0.49927479  0.68387830  0.85042606  1
  O2-  O318  1  0.83003111  0.19821672  0.16798493  1
  O2-  O319  1  0.83462381  0.17803035  0.49361004  1
  O2-  O320  1  0.84276285  0.18253638  0.83840928  1
  O2-  O321  1  0.82150720  0.67998911  0.16326879  1
  O2-  O322  1  0.84357276  0.67614275  0.49003948  1
  O2-  O323  1  0.83148857  0.67485632  0.83095598  1
  O2-  O324  1  0.00255684  0.31625813  0.17003227  1
  O2-  O325  1  -0.00187702  0.32251672  0.49518130  1
  O2-  O326  1  0.00782229  0.32587333  0.84367202  1
  O2-  O327  1  0.00126815  0.82206442  0.16650135  1
  O2-  O328  1  0.00522182  0.82670758  0.50552232  1
  O2-  O329  1  -0.00590573  0.82466094  0.82691939  1
  O2-  O330  1  0.32869202  0.32674984  0.16265542  1
  O2-  O331  1  0.33989922  0.32191030  0.50400308  1
  O2-  O332  1  0.33936686  0.30854945  0.83766742  1
  O2-  O333  1  0.33606101  0.81796751  0.17286449  1
  O2-  O334  1  0.32945695  0.82423364  0.49605142  1
  O2-  O335  1  0.32764690  0.81745458  0.83149666  1
  O2-  O336  1  0.66891227  0.31306594  0.16701530  1
  O2-  O337  1  0.67017887  0.32566924  0.50779285  1
  O2-  O338  1  0.66974252  0.31970654  0.83678549  1
  O2-  O339  1  0.66496383  0.81214641  0.16552754  1
  O2-  O340  1  0.67042360  0.82016443  0.50374126  1
  O2-  O341  1  0.67188348  0.81240642  0.84137331  1
  O2-  O342  1  0.17381407  0.32204803  0.15717906  1
  O2-  O343  1  0.16535348  0.32139103  0.49777668  1
  O2-  O344  1  0.16246758  0.31105686  0.83790137  1
  O2-  O345  1  0.16328204  0.80611370  0.17239581  1
  O2-  O346  1  0.16998986  0.82657115  0.49995150  1
  O2-  O347  1  0.16433484  0.81165177  0.83673961  1
  O2-  O348  1  0.50279517  0.33166686  0.16194709  1
  O2-  O349  1  0.49410607  0.32422094  0.50740590  1
  O2-  O350  1  0.50398236  0.31201198  0.84016948  1
  O2-  O351  1  0.50382132  0.81873400  0.16312617  1
  O2-  O352  1  0.50735846  0.82529842  0.49315496  1
  O2-  O353  1  0.50768974  0.82094211  0.82839400  1
  O2-  O354  1  0.82875510  0.31873664  0.17067265  1
  O2-  O355  1  0.82901985  0.32829687  0.50030765  1
  O2-  O356  1  0.83644789  0.32180181  0.83267450  1
  O2-  O357  1  0.83472154  0.81833795  0.16413850  1
  O2-  O358  1  0.83284327  0.82005616  0.50109988  1
  O2-  O359  1  0.83478253  0.82622537  0.83089523  1
  O2-  O360  1  0.07689543  0.08526160  0.09758288  1
  O2-  O361  1  0.08192418  0.07990388  0.45552220  1
  O2-  O362  1  0.09769128  0.08304982  0.80011358  1
  O2-  O363  1  0.07144038  0.57980650  0.11148613  1
  O2-  O364  1  0.08875029  0.58152736  0.44256531  1
  O2-  O365  1  0.08867278  0.57147765  0.78716558  1
  O2-  O366  1  0.42688600  0.07690601  0.11019615  1
  O2-  O367  1  0.41447368  0.08125797  0.44835371  1
  O2-  O368  1  0.40344532  0.08554283  0.78408507  1
  O2-  O369  1  0.41844209  0.58464436  0.10457593  1
  O2-  O370  1  0.41344933  0.58216441  0.44727328  1
  O2-  O371  1  0.39496936  0.57097375  0.79930267  1
  O2-  O372  1  0.75649029  0.08450220  0.10894389  1
  O2-  O373  1  0.73615361  0.08845462  0.43113072  1
  O2-  O374  1  0.76079565  0.08862467  0.78661210  1
  O2-  O375  1  0.76902107  0.56754408  0.11061655  1
  O2-  O376  1  0.76772744  0.58195805  0.44102531  1
  O2-  O377  1  0.74209568  0.57815988  0.79185032  1
  O2-  O378  1  0.24645203  0.07871213  0.21080536  1
  O2-  O379  1  0.25209217  0.06928611  0.55911259  1
  O2-  O380  1  0.26349631  0.08115732  0.87674384  1
  O2-  O381  1  0.26754738  0.58650861  0.21768816  1
  O2-  O382  1  0.22998444  0.56952304  0.54509062  1
  O2-  O383  1  0.25675749  0.58317096  0.88477363  1
  O2-  O384  1  0.59288678  0.07702275  0.22003855  1
  O2-  O385  1  0.59326713  0.07748146  0.53784867  1
  O2-  O386  1  0.55223812  0.07503799  0.90386091  1
  O2-  O387  1  0.59350535  0.58468707  0.22008346  1
  O2-  O388  1  0.59224015  0.58500327  0.54851523  1
  O2-  O389  1  0.56333820  0.58083907  0.89257335  1
  O2-  O390  1  0.91438452  0.07304716  0.20892045  1
  O2-  O391  1  0.92166981  0.08358196  0.54448292  1
  O2-  O392  1  0.93964963  0.08617368  0.89390709  1
  O2-  O393  1  0.89472492  0.57616690  0.23373954  1
  O2-  O394  1  0.92637748  0.57833238  0.53551897  1
  O2-  O395  1  0.91083103  0.57798224  0.89286330  1
  O2-  O396  1  0.08908094  0.41675387  0.12154747  1
  O2-  O397  1  0.06313133  0.41748737  0.41941989  1
  O2-  O398  1  0.09048423  0.42072935  0.78140426  1
  O2-  O399  1  0.10387965  0.91444416  0.10456604  1
  O2-  O400  1  0.10404121  0.92142764  0.44648377  1
  O2-  O401  1  0.07332443  0.91903542  0.78846254  1
  O2-  O402  1  0.39035971  0.42027422  0.09227034  1
  O2-  O403  1  0.41785754  0.41614307  0.44331644  1
  O2-  O404  1  0.41717981  0.41483381  0.79007188  1
  O2-  O405  1  0.42578270  0.91372714  0.11123928  1
  O2-  O406  1  0.40561154  0.91762037  0.44385988  1
  O2-  O407  1  0.41398005  0.91596622  0.77782018  1
  O2-  O408  1  0.74035655  0.41633305  0.11137560  1
  O2-  O409  1  0.75051045  0.42139938  0.45283201  1
  O2-  O410  1  0.75101796  0.41930717  0.73832814  1
  O2-  O411  1  0.72612182  0.91756616  0.09317885  1
  O2-  O412  1  0.74700853  0.91186996  0.43859449  1
  O2-  O413  1  0.75537911  0.92477182  0.79220963  1
  O2-  O414  1  0.23961488  0.42277658  0.21439657  1
  O2-  O415  1  0.27115855  0.41582907  0.56594540  1
  O2-  O416  1  0.23363635  0.41770179  0.89111735  1
  O2-  O417  1  0.25113326  0.92322083  0.19367670  1
  O2-  O418  1  0.25186340  0.91887053  0.55914140  1
  O2-  O419  1  0.22995560  0.91694627  0.90048243  1
  O2-  O420  1  0.60150120  0.42410597  0.20813389  1
  O2-  O421  1  0.57939288  0.42157104  0.55742762  1
  O2-  O422  1  0.57621937  0.41613697  0.91558988  1
  O2-  O423  1  0.57615137  0.92514638  0.20216651  1
  O2-  O424  1  0.59447356  0.91936481  0.54659598  1
  O2-  O425  1  0.60317528  0.91669089  0.90774868  1
  O2-  O426  1  0.90300871  0.42091083  0.21301118  1
  O2-  O427  1  0.90157675  0.41979288  0.56153374  1
  O2-  O428  1  0.92985721  0.41974989  0.89237932  1
  O2-  O429  1  0.91851258  0.92382446  0.21109463  1
  O2-  O430  1  0.90531073  0.92220930  0.54696317  1
  O2-  O431  1  0.91376948  0.91485124  0.89720269  1
  O2-  O432  1  0.00734970  -0.00726956  -0.00832894  1
  O2-  O433  1  0.01628808  -0.00033446  0.29550202  1
  O2-  O434  1  -0.00403203  -0.00150837  0.67178175  1
  O2-  O435  1  0.00837072  0.48542465  -0.00701313  1
  O2-  O436  1  -0.01130510  0.51204408  0.34894553  1
  O2-  O437  1  0.00593063  0.52391898  0.66695584  1
  O2-  O438  1  0.32902780  0.00730699  0.01574573  1
  O2-  O439  1  0.32167384  -0.00531168  0.35100492  1
  O2-  O440  1  0.33040898  -0.00145248  0.67691621  1
  O2-  O441  1  0.35022520  0.50306210  -0.02810937  1
  O2-  O442  1  0.32189867  0.50631833  0.34553939  1
  O2-  O443  1  0.33298051  0.51153575  0.66268766  1
  O2-  O444  1  0.64702203  0.01008620  0.03910950  1
  O2-  O445  1  0.64682098  -0.00505797  0.35673527  1
  O2-  O446  1  0.66356435  -0.00710032  0.67559183  1
  O2-  O447  1  0.66022570  0.50308240  0.01270671  1
  O2-  O448  1  0.69487304  0.50254864  0.28640783  1
  O2-  O449  1  0.67483589  0.50240233  0.64652542  1
  O2-  O450  1  0.17030591  0.00693965  -0.00248116  1
  O2-  O451  1  0.16737006  0.00645564  0.34220933  1
  O2-  O452  1  0.16659788  0.00280460  0.67226298  1
  O2-  O453  1  0.17689559  0.47956874  0.01255947  1
  O2-  O454  1  0.15421303  0.49817227  0.32301450  1
  O2-  O455  1  0.17016235  0.51990070  0.66761012  1
  O2-  O456  1  0.50125543  -0.00178590  0.02223006  1
  O2-  O457  1  0.49377039  0.00869772  0.31053019  1
  O2-  O458  1  0.48193375  -0.00535656  0.65232151  1
  O2-  O459  1  0.50006501  0.49429041  0.01719136  1
  O2-  O460  1  0.48867278  0.51045256  0.30918589  1
  O2-  O461  1  0.50320795  0.50123183  0.66190458  1
  O2-  O462  1  0.85244536  -0.00471232  0.03639339  1
  O2-  O463  1  0.86196211  -0.00014455  0.35876030  1
  O2-  O464  1  0.83493357  -0.00369236  0.68107711  1
  O2-  O465  1  0.84418280  0.49824023  0.00523063  1
  O2-  O466  1  0.83959479  0.48541248  0.33886433  1
  O2-  O467  1  0.83489691  0.51400666  0.66940697  1
  O2-  O468  1  0.91251961  0.74601382  0.60938923  1
  O2-  O469  1  0.08322898  0.25103742  0.05873457  1
  O2-  O470  1  0.08867753  0.24687954  0.38947817  1
  O2-  O471  1  0.57173618  0.25150467  0.60358762  1
  O2-  O472  1  0.07582576  0.75543155  0.72767061  1
  O2-  O473  1  0.91697761  0.75763448  0.27224329  1
  O2-  O474  1  0.24312361  0.24494611  0.27320696  1
  O2-  O475  1  0.25124862  0.25182037  0.58707572  1
  O2-  O476  1  0.41656244  0.25317419  0.07689977  1
  O2-  O477  1  0.42809002  0.24649775  0.39374680  1
  O2-  O478  1  0.24780742  0.75486469  0.59806114  1
  O2-  O479  1  0.57633767  0.25118587  0.26967034  1
  O2-  O480  1  0.07660684  0.75390066  0.39848222  1
  O2-  O481  1  0.41054533  0.74973705  0.05287298  1
  O2-  O482  1  0.92230717  0.25295642  0.94056106  1
  O2-  O483  1  0.73988291  0.25519544  0.39671426  1
  O2-  O484  1  0.42002383  0.75518785  0.73015711  1
  O2-  O485  1  0.91735231  0.74870311  0.93007890  1
  O2-  O486  1  0.58263096  0.75469546  0.60168200  1
  O2-  O487  1  0.91000622  0.24944535  0.58994069  1
  O2-  O488  1  0.75340071  0.25688466  0.73529903  1
  O2-  O489  1  0.76522395  0.74403959  0.72080229  1
  O2-  O490  1  0.76148615  0.74876413  0.39719344  1
  O2-  O491  1  0.41270208  0.75253646  0.39145435  1
  O2-  O492  1  0.43154466  0.24812944  0.71815109  1
