# generated using pymatgen
data_Ca108Mn108O277
_symmetry_space_group_name_H-M   'P 1'
_cell_length_a   16.03371616
_cell_length_b   22.31469749
_cell_length_c   16.39508247
_cell_angle_alpha   89.99600311
_cell_angle_beta   90.00028810
_cell_angle_gamma   89.98902982
_symmetry_Int_Tables_number   1
_chemical_formula_structural   Ca108Mn108O277
_chemical_formula_sum   'Ca108 Mn108 O277'
_cell_volume   5865.95586975
_cell_formula_units_Z   1
loop_
 _symmetry_equiv_pos_site_id
 _symmetry_equiv_pos_as_xyz
  1  'x, y, z'
loop_
 _atom_type_symbol
 _atom_type_oxidation_number
  Ca2+  2.0
  Mn3.34+  3.34
  O2-  -2.0
loop_
 _atom_site_type_symbol
 _atom_site_label
 _atom_site_symmetry_multiplicity
 _atom_site_fract_x
 _atom_site_fract_y
 _atom_site_fract_z
 _atom_site_occupancy
  Ca2+  Ca0  1  0.06716209  0.25402354  0.25405373  1
  Ca2+  Ca1  1  0.07092597  0.26095440  0.58128339  1
  Ca2+  Ca2  1  0.08026709  0.26907120  0.91631360  1
  Ca2+  Ca3  1  0.06538121  0.72237164  0.24604454  1
  Ca2+  Ca4  1  0.06865898  0.74626149  0.58645145  1
  Ca2+  Ca5  1  0.08166523  0.73172013  0.91982585  1
  Ca2+  Ca6  1  0.41594548  0.25384316  0.24497680  1
  Ca2+  Ca7  1  0.40387652  0.25637613  0.59602293  1
  Ca2+  Ca8  1  0.43214901  0.25139010  0.91900803  1
  Ca2+  Ca9  1  0.41950220  0.76473794  0.25589568  1
  Ca2+  Ca10  1  0.42385046  0.75407252  0.58708873  1
  Ca2+  Ca11  1  0.41658411  0.75613706  0.90141219  1
  Ca2+  Ca12  1  0.75934547  0.25086422  0.23557810  1
  Ca2+  Ca13  1  0.77059363  0.24961947  0.58091271  1
  Ca2+  Ca14  1  0.73655067  0.23842775  0.92747557  1
  Ca2+  Ca15  1  0.76102635  0.73920065  0.25433570  1
  Ca2+  Ca16  1  0.74780851  0.75602772  0.58164420  1
  Ca2+  Ca17  1  0.74826928  0.72914694  0.91454837  1
  Ca2+  Ca18  1  0.24669454  0.26883492  0.07354394  1
  Ca2+  Ca19  1  0.23524399  0.25794344  0.41560562  1
  Ca2+  Ca20  1  0.25652944  0.26069643  0.76543290  1
  Ca2+  Ca21  1  0.23722396  0.74865389  0.07885433  1
  Ca2+  Ca22  1  0.24524007  0.75260358  0.41314825  1
  Ca2+  Ca23  1  0.25309502  0.74602401  0.76670640  1
  Ca2+  Ca24  1  0.59973357  0.23888666  0.07401732  1
  Ca2+  Ca25  1  0.60206029  0.26108039  0.40919670  1
  Ca2+  Ca26  1  0.58441078  0.25566733  0.78031987  1
  Ca2+  Ca27  1  0.60148330  0.75153520  0.07613432  1
  Ca2+  Ca28  1  0.59763563  0.74524343  0.41444417  1
  Ca2+  Ca29  1  0.58927978  0.74778107  0.75602402  1
  Ca2+  Ca30  1  0.89488873  0.26083888  0.07822883  1
  Ca2+  Ca31  1  0.91430602  0.25235099  0.41638896  1
  Ca2+  Ca32  1  0.91405056  0.25545763  0.75276012  1
  Ca2+  Ca33  1  0.90687267  0.74351872  0.08839354  1
  Ca2+  Ca34  1  0.90734553  0.72229182  0.41301479  1
  Ca2+  Ca35  1  0.90868558  0.74972980  0.75718235  1
  Ca2+  Ca36  1  0.07401353  0.08184442  0.92568385  1
  Ca2+  Ca37  1  0.45010963  0.08692632  0.94343878  1
  Ca2+  Ca38  1  0.76986492  0.62079079  0.56717235  1
  Ca2+  Ca39  1  0.41729638  0.58839971  0.90998227  1
  Ca2+  Ca40  1  0.20635495  0.59187336  0.06622992  1
  Ca2+  Ca41  1  0.90357329  0.09019909  0.41367237  1
  Ca2+  Ca42  1  0.24092584  0.08925473  0.41214310  1
  Ca2+  Ca43  1  0.58446696  0.59700563  0.75590685  1
  Ca2+  Ca44  1  0.58830651  0.10674463  0.78131672  1
  Ca2+  Ca45  1  0.22029326  0.57953616  0.77245804  1
  Ca2+  Ca46  1  0.88066990  0.10359805  0.07370273  1
  Ca2+  Ca47  1  0.71757312  0.08788716  0.25561658  1
  Ca2+  Ca48  1  0.91756375  0.60178066  0.74656180  1
  Ca2+  Ca49  1  0.24100482  0.58154524  0.41167343  1
  Ca2+  Ca50  1  0.92803733  0.60143905  0.74789393  1
  Ca2+  Ca51  1  0.59718013  0.57826596  0.04921990  1
  Ca2+  Ca52  1  0.44766330  0.07834955  0.25493278  1
  Ca2+  Ca53  1  0.21620522  0.59038624  0.06173496  1
  Ca2+  Ca54  1  0.25352788  0.08724256  0.41154306  1
  Ca2+  Ca55  1  0.44333122  0.09147919  0.94816630  1
  Ca2+  Ca56  1  0.25150767  0.08644958  0.74763679  1
  Ca2+  Ca57  1  0.89114815  0.10123758  0.07085961  1
  Ca2+  Ca58  1  0.41666752  0.58601553  0.26237901  1
  Ca2+  Ca59  1  0.60464052  0.07722180  0.39934925  1
  Ca2+  Ca60  1  0.59785202  0.10466896  0.77797186  1
  Ca2+  Ca61  1  0.94417950  0.60768390  0.09778769  1
  Ca2+  Ca62  1  0.77024068  0.59664526  0.25494905  1
  Ca2+  Ca63  1  0.08517656  0.09316777  0.26395072  1
  Ca2+  Ca64  1  0.42935897  0.58629331  0.26190037  1
  Ca2+  Ca65  1  0.76422814  0.08870053  0.57369407  1
  Ca2+  Ca66  1  0.72703980  0.09061556  0.25827306  1
  Ca2+  Ca67  1  0.26432872  0.08689620  0.74774638  1
  Ca2+  Ca68  1  0.61757149  0.60238120  0.41953616  1
  Ca2+  Ca69  1  0.25382352  0.58146614  0.41199087  1
  Ca2+  Ca70  1  0.08118434  0.08927454  0.57777449  1
  Ca2+  Ca71  1  0.07448647  0.59480516  0.59632222  1
  Ca2+  Ca72  1  0.59347119  0.92685132  0.38433412  1
  Ca2+  Ca73  1  0.72658308  0.42044823  0.92950389  1
  Ca2+  Ca74  1  0.43276884  0.40426474  0.26611085  1
  Ca2+  Ca75  1  0.72482319  0.89906423  0.90837327  1
  Ca2+  Ca76  1  0.25944163  0.90880860  0.74729815  1
  Ca2+  Ca77  1  0.73482778  0.90151345  0.91190581  1
  Ca2+  Ca78  1  0.60254496  0.92304824  0.38500453  1
  Ca2+  Ca79  1  0.26173755  0.90147642  0.42220809  1
  Ca2+  Ca80  1  0.08520693  0.88947297  0.24562150  1
  Ca2+  Ca81  1  0.07411133  0.90542268  0.91658705  1
  Ca2+  Ca82  1  0.73976886  0.91234964  0.25705216  1
  Ca2+  Ca83  1  0.74003111  0.40783586  0.58271193  1
  Ca2+  Ca84  1  0.26924486  0.90545347  0.75066324  1
  Ca2+  Ca85  1  0.26204116  0.89715551  0.08005365  1
  Ca2+  Ca86  1  0.93934926  0.41010770  0.75582724  1
  Ca2+  Ca87  1  0.92907233  0.41311629  0.75330573  1
  Ca2+  Ca88  1  0.39352185  0.42130692  0.58830567  1
  Ca2+  Ca89  1  0.09041065  0.40764950  0.25198359  1
  Ca2+  Ca90  1  0.56166954  0.90773648  0.08775108  1
  Ca2+  Ca91  1  0.10864329  0.42499569  0.92140643  1
  Ca2+  Ca92  1  0.88707699  0.90637445  0.42342622  1
  Ca2+  Ca93  1  0.08587696  0.90574188  0.91691185  1
  Ca2+  Ca94  1  0.42863484  0.40740276  0.91455289  1
  Ca2+  Ca95  1  0.08439118  0.90235365  0.58294148  1
  Ca2+  Ca96  1  0.91665821  0.89761650  0.74576855  1
  Ca2+  Ca97  1  0.92110299  0.90344286  0.07996757  1
  Ca2+  Ca98  1  0.22323134  0.42501204  0.74285586  1
  Ca2+  Ca99  1  0.40261185  0.41881306  0.59222180  1
  Ca2+  Ca100  1  0.24511645  0.41300788  0.41033167  1
  Ca2+  Ca101  1  0.74108651  0.40552935  0.25014220  1
  Ca2+  Ca102  1  0.07796055  0.40926494  0.25223476  1
  Ca2+  Ca103  1  0.72750652  0.40650776  0.58045270  1
  Ca2+  Ca104  1  0.56855273  0.89733153  0.75489258  1
  Ca2+  Ca105  1  0.57879571  0.41158897  0.75554052  1
  Ca2+  Ca106  1  0.91827327  0.40840024  0.40383010  1
  Ca2+  Ca107  1  0.89733413  0.90234115  0.42093137  1
  Mn3.34+  Mn108  1  0.08185967  0.33788740  0.07989614  1
  Mn3.34+  Mn109  1  0.08144838  0.33421489  0.42125864  1
  Mn3.34+  Mn110  1  0.08737949  0.33603491  0.75049364  1
  Mn3.34+  Mn111  1  0.08226346  0.82854533  0.08934703  1
  Mn3.34+  Mn112  1  0.08133242  0.82906356  0.41813085  1
  Mn3.34+  Mn113  1  0.08384603  0.83132015  0.75083223  1
  Mn3.34+  Mn114  1  0.41996149  0.33735342  0.08697720  1
  Mn3.34+  Mn115  1  0.41891080  0.32866471  0.42152027  1
  Mn3.34+  Mn116  1  0.41597343  0.33660985  0.75497484  1
  Mn3.34+  Mn117  1  0.41644216  0.83234597  0.08680444  1
  Mn3.34+  Mn118  1  0.42084692  0.83200686  0.41909858  1
  Mn3.34+  Mn119  1  0.41974104  0.82909587  0.74476448  1
  Mn3.34+  Mn120  1  0.74494909  0.33809041  0.08193219  1
  Mn3.34+  Mn121  1  0.75050823  0.33354598  0.41268229  1
  Mn3.34+  Mn122  1  0.74951772  0.33616467  0.75755889  1
  Mn3.34+  Mn123  1  0.74937759  0.83155947  0.08896089  1
  Mn3.34+  Mn124  1  0.74538497  0.82667840  0.41645708  1
  Mn3.34+  Mn125  1  0.74698823  0.82889974  0.74446188  1
  Mn3.34+  Mn126  1  0.25292440  0.33256830  0.24512798  1
  Mn3.34+  Mn127  1  0.24124874  0.34236901  0.58000701  1
  Mn3.34+  Mn128  1  0.25447727  0.34217093  0.91762982  1
  Mn3.34+  Mn129  1  0.25205142  0.82828888  0.25156473  1
  Mn3.34+  Mn130  1  0.25029538  0.83348726  0.57840803  1
  Mn3.34+  Mn131  1  0.25498388  0.83164043  0.91761092  1
  Mn3.34+  Mn132  1  0.58366273  0.33309581  0.24310507  1
  Mn3.34+  Mn133  1  0.57664649  0.33234405  0.58002451  1
  Mn3.34+  Mn134  1  0.58505484  0.33746819  0.92286608  1
  Mn3.34+  Mn135  1  0.58277835  0.83082617  0.24575889  1
  Mn3.34+  Mn136  1  0.58207600  0.83764686  0.57474162  1
  Mn3.34+  Mn137  1  0.57402806  0.83074722  0.91763977  1
  Mn3.34+  Mn138  1  0.91340304  0.33605746  0.24215189  1
  Mn3.34+  Mn139  1  0.91908921  0.33644836  0.58034618  1
  Mn3.34+  Mn140  1  0.91363755  0.33969281  0.92355718  1
  Mn3.34+  Mn141  1  0.91533864  0.82689922  0.24973507  1
  Mn3.34+  Mn142  1  0.91459912  0.82751944  0.57992812  1
  Mn3.34+  Mn143  1  0.91201732  0.83095486  0.91722461  1
  Mn3.34+  Mn144  1  0.41374368  0.17265890  0.42219726  1
  Mn3.34+  Mn145  1  0.91108707  0.17222121  0.91385352  1
  Mn3.34+  Mn146  1  0.24775774  0.66402107  0.91313587  1
  Mn3.34+  Mn147  1  0.75141218  0.66176510  0.08301919  1
  Mn3.34+  Mn148  1  0.75061031  0.66466471  0.75008151  1
  Mn3.34+  Mn149  1  0.42220137  0.66903423  0.08795741  1
  Mn3.34+  Mn150  1  0.25108246  0.66131122  0.58557212  1
  Mn3.34+  Mn151  1  0.42025744  0.66644255  0.75291966  1
  Mn3.34+  Mn152  1  0.07936695  0.16998399  0.42079261  1
  Mn3.34+  Mn153  1  0.07178865  0.16181483  0.75482039  1
  Mn3.34+  Mn154  1  0.76017269  0.17241660  0.75030728  1
  Mn3.34+  Mn155  1  0.08194016  0.16715522  0.75182123  1
  Mn3.34+  Mn156  1  0.08189950  0.66988090  0.75267120  1
  Mn3.34+  Mn157  1  0.26091112  0.65620534  0.58265240  1
  Mn3.34+  Mn158  1  0.58075839  0.16684587  0.58413031  1
  Mn3.34+  Mn159  1  0.58966995  0.17260813  0.58669243  1
  Mn3.34+  Mn160  1  0.57998610  0.17225515  0.24647657  1
  Mn3.34+  Mn161  1  0.75088914  0.16942012  0.41745953  1
  Mn3.34+  Mn162  1  0.91567210  0.66412627  0.92320594  1
  Mn3.34+  Mn163  1  0.41317730  0.67499295  0.08625508  1
  Mn3.34+  Mn164  1  0.41448808  0.16936404  0.75536095  1
  Mn3.34+  Mn165  1  0.09678808  0.16389243  0.08686119  1
  Mn3.34+  Mn166  1  0.08577345  0.16840643  0.08442379  1
  Mn3.34+  Mn167  1  0.25359963  0.17227510  0.24364356  1
  Mn3.34+  Mn168  1  0.58886097  0.66737948  0.24453412  1
  Mn3.34+  Mn169  1  0.91510134  0.16838917  0.24978555  1
  Mn3.34+  Mn170  1  0.42232165  0.66800344  0.42339775  1
  Mn3.34+  Mn171  1  0.91653262  0.16554694  0.58458634  1
  Mn3.34+  Mn172  1  0.58533605  0.66222161  0.91340292  1
  Mn3.34+  Mn173  1  0.25345490  0.16848184  0.91973194  1
  Mn3.34+  Mn174  1  0.41310917  0.16781431  0.09319525  1
  Mn3.34+  Mn175  1  0.58119295  0.66366957  0.58324797  1
  Mn3.34+  Mn176  1  0.42279427  0.17851506  0.42108605  1
  Mn3.34+  Mn177  1  0.07664176  0.66562525  0.41738099  1
  Mn3.34+  Mn178  1  0.24677894  0.66694443  0.24492295  1
  Mn3.34+  Mn179  1  0.24775196  0.16859079  0.58155147  1
  Mn3.34+  Mn180  1  0.73051747  -0.00270669  0.07654276  1
  Mn3.34+  Mn181  1  0.43130331  0.50188596  0.41748873  1
  Mn3.34+  Mn182  1  0.07631523  0.49568827  0.07326422  1
  Mn3.34+  Mn183  1  0.26735833  -0.00055778  0.59279726  1
  Mn3.34+  Mn184  1  0.09150630  -0.00042962  0.07979029  1
  Mn3.34+  Mn185  1  0.92134469  -0.00053373  0.58318230  1
  Mn3.34+  Mn186  1  0.41227487  0.50189973  0.74416815  1
  Mn3.34+  Mn187  1  0.24264760  0.50431510  0.24583591  1
  Mn3.34+  Mn188  1  0.26440860  -0.00549884  0.24036465  1
  Mn3.34+  Mn189  1  0.74529807  0.49867378  0.74589359  1
  Mn3.34+  Mn190  1  0.92016725  0.49770236  0.25436442  1
  Mn3.34+  Mn191  1  0.74725484  0.49960153  0.07615838  1
  Mn3.34+  Mn192  1  0.06618418  0.00328542  0.73457037  1
  Mn3.34+  Mn193  1  0.91361436  0.50406804  0.92809494  1
  Mn3.34+  Mn194  1  0.43234027  -0.00030578  0.77437985  1
  Mn3.34+  Mn195  1  0.42390407  0.50046771  0.07760738  1
  Mn3.34+  Mn196  1  0.91411442  0.00144815  0.24961343  1
  Mn3.34+  Mn197  1  0.91279788  0.50510552  0.57519253  1
  Mn3.34+  Mn198  1  0.58760253  0.50139324  0.24424383  1
  Mn3.34+  Mn199  1  0.56967240  0.00455729  0.58904320  1
  Mn3.34+  Mn200  1  0.25548444  0.00198824  0.92658301  1
  Mn3.34+  Mn201  1  0.41292494  -0.00299515  0.43192478  1
  Mn3.34+  Mn202  1  0.75046994  0.49824687  0.40045042  1
  Mn3.34+  Mn203  1  0.07632255  0.50265310  0.42013056  1
  Mn3.34+  Mn204  1  0.91211263  0.00255599  0.91962446  1
  Mn3.34+  Mn205  1  0.72044645  0.00282584  0.07206011  1
  Mn3.34+  Mn206  1  0.08395546  -0.00347095  0.42009819  1
  Mn3.34+  Mn207  1  0.58243871  -0.00233134  0.58728071  1
  Mn3.34+  Mn208  1  0.25107359  0.00106915  0.23892456  1
  Mn3.34+  Mn209  1  0.75015281  0.00252742  0.74792780  1
  Mn3.34+  Mn210  1  0.76080095  0.00757718  0.75016021  1
  Mn3.34+  Mn211  1  0.58033061  0.50072867  0.58018777  1
  Mn3.34+  Mn212  1  0.41044384  0.49458700  0.07741684  1
  Mn3.34+  Mn213  1  0.92893543  -0.00438538  0.24964120  1
  Mn3.34+  Mn214  1  0.92502722  0.49860618  0.57608427  1
  Mn3.34+  Mn215  1  0.41847943  0.00007742  0.08677434  1
  O2-  O216  1  -0.00363536  0.14840471  0.00853447  1
  O2-  O217  1  -0.00489386  0.15030315  0.33640699  1
  O2-  O218  1  -0.00155273  0.14391457  0.66915833  1
  O2-  O219  1  -0.00317651  0.67246453  -0.00257817  1
  O2-  O220  1  0.00356020  0.65473763  0.34178370  1
  O2-  O221  1  -0.00072235  0.67408784  0.67496255  1
  O2-  O222  1  0.34537905  0.15556885  -0.00778580  1
  O2-  O223  1  0.33175976  0.17514172  0.33384575  1
  O2-  O224  1  0.32692357  0.16340893  0.67264640  1
  O2-  O225  1  0.32655329  0.65771607  0.01113676  1
  O2-  O226  1  0.33470870  0.64828677  0.33237892  1
  O2-  O227  1  0.33193671  0.66294891  0.67199139  1
  O2-  O228  1  0.65980954  0.16153552  -0.00613484  1
  O2-  O229  1  0.65600310  0.16485373  0.34115125  1
  O2-  O230  1  0.67002226  0.14616689  0.66593165  1
  O2-  O231  1  0.66524915  0.65614240  -0.00276032  1
  O2-  O232  1  0.66967031  0.65436707  0.31707221  1
  O2-  O233  1  0.66758504  0.66329719  0.66741910  1
  O2-  O234  1  0.16501912  0.14458264  -0.00369903  1
  O2-  O235  1  0.17413918  0.15845162  0.33736487  1
  O2-  O236  1  0.16253155  0.14720154  0.66485978  1
  O2-  O237  1  0.16693214  0.67112320  -0.00457815  1
  O2-  O238  1  0.17456754  0.64742263  0.33369369  1
  O2-  O239  1  0.16732427  0.65879730  0.66436613  1
  O2-  O240  1  0.49521416  0.16892266  0.01161010  1
  O2-  O241  1  0.49629400  0.17360722  0.33035192  1
  O2-  O242  1  0.50539173  0.15165996  0.67577961  1
  O2-  O243  1  0.49658122  0.65680444  0.00009670  1
  O2-  O244  1  0.50493361  0.64598726  0.33825527  1
  O2-  O245  1  0.50642134  0.67304218  0.67435645  1
  O2-  O246  1  0.82957097  0.16738400  -0.00810604  1
  O2-  O247  1  0.82239493  0.14138172  0.32237153  1
  O2-  O248  1  0.82795204  0.15346352  0.65839268  1
  O2-  O249  1  0.83642207  0.64895067  0.00376499  1
  O2-  O250  1  0.82753925  0.66482455  0.33421906  1
  O2-  O251  1  0.83645300  0.66562933  0.67683716  1
  O2-  O252  1  0.00848588  0.35170438  -0.00970811  1
  O2-  O253  1  0.00503903  0.34784856  0.32834883  1
  O2-  O254  1  0.00061868  0.34881348  0.66517759  1
  O2-  O255  1  0.00126914  0.83951469  0.00010007  1
  O2-  O256  1  -0.00988308  0.85451224  0.33925211  1
  O2-  O257  1  0.00178729  0.83550385  0.66506296  1
  O2-  O258  1  0.33901176  0.33289558  -0.00006191  1
  O2-  O259  1  0.33450248  0.32639075  0.33411830  1
  O2-  O260  1  0.32987164  0.34571377  0.66472434  1
  O2-  O261  1  0.33243501  0.82713814  0.00317668  1
  O2-  O262  1  0.33641947  0.84467222  0.33332822  1
  O2-  O263  1  0.32796354  0.83390996  0.66694230  1
  O2-  O264  1  0.66261321  0.34914223  0.00427248  1
  O2-  O265  1  0.66705093  0.33137654  0.32798203  1
  O2-  O266  1  0.65884991  0.34570597  0.67146599  1
  O2-  O267  1  0.66022281  0.85057690  0.01098122  1
  O2-  O268  1  0.66443266  0.84280977  0.33303483  1
  O2-  O269  1  0.66001398  0.83057308  0.66776802  1
  O2-  O270  1  0.16881891  0.34873603  -0.00169405  1
  O2-  O271  1  0.16897881  0.33480579  0.33608216  1
  O2-  O272  1  0.17267950  0.32803204  0.67015242  1
  O2-  O273  1  0.16559564  0.84246530  0.00093971  1
  O2-  O274  1  0.17043595  0.85034065  0.34062030  1
  O2-  O275  1  0.17144484  0.84946369  0.67284253  1
  O2-  O276  1  0.49328033  0.33731743  -0.00420274  1
  O2-  O277  1  0.49907636  0.31636929  0.33115960  1
  O2-  O278  1  0.48786586  0.35150088  0.65559322  1
  O2-  O279  1  0.49630078  0.82903376  0.00355381  1
  O2-  O280  1  0.50680460  0.84989269  0.33961062  1
  O2-  O281  1  0.50195713  0.82786680  0.66349325  1
  O2-  O282  1  0.82501522  0.34790320  -0.00591945  1
  O2-  O283  1  0.83500965  0.35136550  0.32868632  1
  O2-  O284  1  0.83239814  0.36063244  0.66588005  1
  O2-  O285  1  0.82595185  0.85871524  -0.00147619  1
  O2-  O286  1  0.82774831  0.84885820  0.32666414  1
  O2-  O287  1  0.83915789  0.82646007  0.66922809  1
  O2-  O288  1  0.00289984  0.18265113  0.16503374  1
  O2-  O289  1  0.00341653  0.17770886  0.50755402  1
  O2-  O290  1  0.01090943  0.18048751  0.85006592  1
  O2-  O291  1  0.00669938  0.68819702  0.13821376  1
  O2-  O292  1  0.01199193  0.68006200  0.50193530  1
  O2-  O293  1  -0.00400781  0.68061747  0.83126342  1
  O2-  O294  1  0.32522184  0.19761635  0.16026861  1
  O2-  O295  1  0.32909155  0.19338626  0.50009874  1
  O2-  O296  1  0.33282181  0.18587533  0.83364307  1
  O2-  O297  1  0.34022938  0.68963817  0.17369440  1
  O2-  O298  1  0.33348657  0.68754538  0.50343029  1
  O2-  O299  1  0.34094688  0.66977377  0.84099655  1
  O2-  O300  1  0.67037715  0.17882801  0.18503492  1
  O2-  O301  1  0.67154167  0.19238220  0.50641089  1
  O2-  O302  1  0.66931235  0.18293541  0.82049150  1
  O2-  O303  1  0.66302280  0.68112873  0.15905068  1
  O2-  O304  1  0.66165515  0.68194369  0.50985133  1
  O2-  O305  1  0.66175176  0.67127124  0.82745088  1
  O2-  O306  1  0.15820320  0.18781617  0.18189973  1
  O2-  O307  1  0.16637051  0.18864669  0.50091523  1
  O2-  O308  1  0.17631282  0.17811467  0.82027099  1
  O2-  O309  1  0.17755804  0.67531014  0.15896645  1
  O2-  O310  1  0.17534019  0.68612782  0.50441869  1
  O2-  O311  1  0.17217100  0.67201649  0.82705030  1
  O2-  O312  1  0.49797885  0.19000960  0.17061646  1
  O2-  O313  1  0.49805194  0.19028108  0.50805716  1
  O2-  O314  1  0.49896727  0.16922340  0.83588868  1
  O2-  O315  1  0.49823485  0.68929689  0.17013858  1
  O2-  O316  1  0.50222446  0.68636299  0.50221465  1
  O2-  O317  1  0.50021320  0.68226663  0.83543709  1
  O2-  O318  1  0.84303457  0.17626882  0.16345376  1
  O2-  O319  1  0.84041905  0.17883189  0.49290813  1
  O2-  O320  1  0.83898350  0.19033530  0.82960103  1
  O2-  O321  1  0.82769563  0.67220127  0.16171496  1
  O2-  O322  1  0.83632188  0.69816632  0.52128681  1
  O2-  O323  1  0.83884032  0.66857779  0.82813580  1
  O2-  O324  1  0.00158635  0.31954412  0.16706208  1
  O2-  O325  1  -0.00782643  0.31997045  0.49076036  1
  O2-  O326  1  -0.00246843  0.32757698  0.82477302  1
  O2-  O327  1  0.00163558  0.81513271  0.17094532  1
  O2-  O328  1  -0.00328479  0.81270920  0.50041903  1
  O2-  O329  1  0.00257658  0.82119085  0.83525120  1
  O2-  O330  1  0.33497136  0.31570605  0.16699081  1
  O2-  O331  1  0.33012429  0.31327098  0.50299021  1
  O2-  O332  1  0.34075930  0.32131328  0.83976856  1
  O2-  O333  1  0.32929889  0.81352933  0.16030418  1
  O2-  O334  1  0.32928878  0.81408962  0.49684275  1
  O2-  O335  1  0.32759374  0.82830704  0.82502385  1
  O2-  O336  1  0.66848438  0.31780182  0.16960518  1
  O2-  O337  1  0.67072677  0.31657864  0.51224029  1
  O2-  O338  1  0.67382822  0.32130094  0.84015919  1
  O2-  O339  1  0.67174671  0.81491908  0.17161097  1
  O2-  O340  1  0.66541088  0.81453581  0.49821970  1
  O2-  O341  1  0.66887129  0.82320753  0.83630467  1
  O2-  O342  1  0.16089264  0.31791711  0.17487872  1
  O2-  O343  1  0.16216389  0.31755525  0.50231408  1
  O2-  O344  1  0.16763763  0.32402372  0.83192237  1
  O2-  O345  1  0.16439928  0.81087351  0.16771316  1
  O2-  O346  1  0.16152989  0.81378339  0.50769877  1
  O2-  O347  1  0.16614013  0.83507749  0.83634026  1
  O2-  O348  1  0.50053693  0.31199492  0.16595035  1
  O2-  O349  1  0.49875910  0.30277525  0.50191730  1
  O2-  O350  1  0.50291665  0.32576012  0.83215620  1
  O2-  O351  1  0.50577095  0.81662202  0.16089710  1
  O2-  O352  1  0.50271426  0.81046783  0.49802544  1
  O2-  O353  1  0.50173579  0.81771898  0.82526504  1
  O2-  O354  1  0.82878927  0.32643064  0.16775694  1
  O2-  O355  1  0.82872357  0.32498466  0.50532105  1
  O2-  O356  1  0.84563659  0.32988660  0.82048456  1
  O2-  O357  1  0.83907885  0.81961828  0.16038451  1
  O2-  O358  1  0.83705999  0.82298580  0.49044206  1
  O2-  O359  1  0.82998391  0.83813939  0.83337588  1
  O2-  O360  1  0.08933307  0.08161563  0.12427524  1
  O2-  O361  1  0.10245974  0.08336230  0.44331097  1
  O2-  O362  1  0.09311276  0.08059741  0.79108402  1
  O2-  O363  1  0.08226013  0.56556048  0.12305290  1
  O2-  O364  1  0.09940286  0.58298656  0.45593200  1
  O2-  O365  1  0.06612875  0.58785831  0.75321297  1
  O2-  O366  1  0.41494264  0.07830575  0.12344431  1
  O2-  O367  1  0.39270486  0.08439764  0.43959513  1
  O2-  O368  1  0.39809405  0.08593482  0.78819878  1
  O2-  O369  1  0.42311824  0.58047437  0.12683839  1
  O2-  O370  1  0.39951338  0.58442952  0.44662117  1
  O2-  O371  1  0.43174966  0.58137714  0.77063433  1
  O2-  O372  1  0.75720026  0.07561087  0.12755029  1
  O2-  O373  1  0.74264532  0.08677844  0.44028924  1
  O2-  O374  1  0.73497061  0.08499647  0.79014536  1
  O2-  O375  1  0.73479251  0.57480308  0.11580428  1
  O2-  O376  1  0.74601082  0.56521501  0.45885816  1
  O2-  O377  1  0.76290263  0.57992642  0.75796128  1
  O2-  O378  1  0.26335464  0.08392406  0.23106715  1
  O2-  O379  1  0.24326968  0.07930821  0.54563361  1
  O2-  O380  1  0.25039159  0.08089205  0.88318482  1
  O2-  O381  1  0.26859701  0.58271288  0.19862996  1
  O2-  O382  1  0.24262126  0.57643237  0.54596109  1
  O2-  O383  1  0.24588860  0.58381199  0.90920555  1
  O2-  O384  1  0.58272742  0.08680215  0.24177263  1
  O2-  O385  1  0.58195110  0.08104559  0.53520273  1
  O2-  O386  1  0.53629112  0.04731705  0.86579253  1
  O2-  O387  1  0.56341841  0.58220881  0.20885483  1
  O2-  O388  1  0.58635062  0.58059014  0.55727744  1
  O2-  O389  1  0.56970387  0.58393717  0.89306576  1
  O2-  O390  1  0.92587842  0.07841881  0.20312544  1
  O2-  O391  1  0.91252573  0.07942793  0.54911427  1
  O2-  O392  1  0.92022087  0.08494042  0.90915961  1
  O2-  O393  1  0.89874741  0.56638943  0.21284985  1
  O2-  O394  1  0.92260416  0.58557407  0.58572725  1
  O2-  O395  1  0.92506042  0.58028567  0.88504871  1
  O2-  O396  1  0.08542976  0.42340979  0.12024378  1
  O2-  O397  1  0.08940678  0.41753005  0.43549180  1
  O2-  O398  1  0.07930154  0.41774992  0.77797226  1
  O2-  O399  1  0.08377534  0.91756092  0.11290273  1
  O2-  O400  1  0.07325236  0.91431726  0.44814796  1
  O2-  O401  1  0.07694148  0.92058554  0.77839949  1
  O2-  O402  1  0.41161365  0.42331594  0.13399706  1
  O2-  O403  1  0.41651081  0.41812041  0.45070180  1
  O2-  O404  1  0.42505902  0.42200829  0.77937416  1
  O2-  O405  1  0.40935932  0.92141602  0.11285917  1
  O2-  O406  1  0.41461997  0.91535208  0.45026173  1
  O2-  O407  1  0.41428782  0.91241001  0.76195082  1
  O2-  O408  1  0.74791860  0.42593381  0.11758331  1
  O2-  O409  1  0.75112391  0.42105505  0.44869785  1
  O2-  O410  1  0.74504759  0.42112424  0.78791564  1
  O2-  O411  1  0.75135631  0.92039314  0.12272534  1
  O2-  O412  1  0.74368693  0.91411733  0.43083548  1
  O2-  O413  1  0.74486244  0.91922738  0.76822907  1
  O2-  O414  1  0.22952584  0.41938286  0.24276138  1
  O2-  O415  1  0.26855132  0.42251078  0.54390986  1
  O2-  O416  1  0.25442384  0.41989336  0.88513069  1
  O2-  O417  1  0.23866895  0.91472457  0.21389004  1
  O2-  O418  1  0.23454036  0.92123460  0.55550366  1
  O2-  O419  1  0.24903846  0.92055086  0.89064291  1
  O2-  O420  1  0.58171603  0.41850655  0.23397772  1
  O2-  O421  1  0.59238227  0.42068822  0.54625431  1
  O2-  O422  1  0.58121843  0.41721383  0.88973879  1
  O2-  O423  1  0.59217476  0.91379745  0.23082361  1
  O2-  O424  1  0.57984963  0.92662900  0.53017393  1
  O2-  O425  1  0.58912651  0.91094499  0.88632578  1
  O2-  O426  1  0.93615058  0.42056549  0.21802261  1
  O2-  O427  1  0.91624963  0.42244721  0.53766283  1
  O2-  O428  1  0.91342821  0.42567899  0.88707146  1
  O2-  O429  1  0.92228007  0.91631860  0.21437501  1
  O2-  O430  1  0.91973167  0.91839869  0.55518482  1
  O2-  O431  1  0.93417696  0.92213278  0.88494016  1
  O2-  O432  1  -0.00188135  -0.00915909  -0.00064240  1
  O2-  O433  1  0.00730345  0.01842577  0.32925774  1
  O2-  O434  1  0.03305355  -0.00245112  0.61631356  1
  O2-  O435  1  0.01428554  0.49640654  -0.01686824  1
  O2-  O436  1  0.01462647  0.48753627  0.31834243  1
  O2-  O437  1  -0.02060615  0.49437319  0.68179052  1
  O2-  O438  1  0.34244212  0.00991961  0.00123637  1
  O2-  O439  1  0.33191310  0.00229877  0.34076386  1
  O2-  O440  1  0.32474157  -0.00129236  0.70619221  1
  O2-  O441  1  0.32335199  0.52709081  0.01818053  1
  O2-  O442  1  0.33426558  0.51478681  0.33035232  1
  O2-  O443  1  0.32407567  0.48328019  0.68019965  1
  O2-  O444  1  0.67732411  -0.01699881  -0.02843487  1
  O2-  O445  1  0.67815695  0.00324928  0.31573317  1
  O2-  O446  1  0.68322387  0.01662599  0.64819609  1
  O2-  O447  1  0.66422310  0.49574597  0.01174091  1
  O2-  O448  1  0.67728504  0.51892183  0.31733843  1
  O2-  O449  1  0.65822641  0.48380111  0.66825274  1
  O2-  O450  1  0.14538899  -0.00556796  -0.03646144  1
  O2-  O451  1  0.17176580  0.00784431  0.33105582  1
  O2-  O452  1  0.17979770  0.01158135  0.68782577  1
  O2-  O453  1  0.16722103  0.49868891  0.01821713  1
  O2-  O454  1  0.18160619  0.50252771  0.35994150  1
  O2-  O455  1  0.17194080  0.51258073  0.68655503  1
  O2-  O456  1  0.50788318  0.00849503  0.02564866  1
  O2-  O457  1  0.51451861  0.00598958  0.37337126  1
  O2-  O458  1  0.52370896  0.00701386  0.69441015  1
  O2-  O459  1  0.48616144  0.50298179  -0.01636893  1
  O2-  O460  1  0.48550249  0.50059928  0.30460193  1
  O2-  O461  1  0.48893748  0.48539320  0.65352603  1
  O2-  O462  1  0.84000943  0.00519704  0.02242204  1
  O2-  O463  1  0.85239391  -0.00895483  0.34867057  1
  O2-  O464  1  0.85115157  -0.00224165  0.67679766  1
  O2-  O465  1  0.82497126  0.49593674  -0.00141491  1
  O2-  O466  1  0.83564521  0.47875130  0.32632082  1
  O2-  O467  1  0.81964008  0.48375720  0.65003248  1
  O2-  O468  1  0.76449625  0.25022943  0.38707126  1
  O2-  O469  1  0.74939244  0.25800056  0.06516785  1
  O2-  O470  1  0.23758058  0.24925039  0.93666717  1
  O2-  O471  1  0.41644896  0.74838769  0.38902957  1
  O2-  O472  1  0.25077700  0.74703187  0.27870389  1
  O2-  O473  1  0.07043105  0.24878251  0.72491923  1
  O2-  O474  1  0.75703755  0.25494173  0.71851908  1
  O2-  O475  1  0.09064027  0.24948842  0.05185716  1
  O2-  O476  1  0.91497737  0.75068609  0.27431217  1
  O2-  O477  1  0.89486118  0.74928523  0.93040257  1
  O2-  O478  1  0.92788271  0.25481967  0.94128907  1
  O2-  O479  1  0.75248469  0.75057393  0.05392595  1
  O2-  O480  1  0.10399106  0.75232065  0.73491130  1
  O2-  O481  1  0.57865998  0.74831628  0.27724908  1
  O2-  O482  1  0.42500703  0.25170403  0.73100495  1
  O2-  O483  1  0.58494106  0.25432923  0.93054230  1
  O2-  O484  1  0.25032180  0.74990749  0.92097660  1
  O2-  O485  1  0.91395957  0.25331022  0.27607911  1
  O2-  O486  1  0.91816409  0.24947970  0.61122455  1
  O2-  O487  1  0.09077452  0.74886043  0.38453014  1
  O2-  O488  1  0.07345346  0.25030669  0.39206204  1
  O2-  O489  1  0.40189970  0.74807132  0.74170881  1
  O2-  O490  1  0.75361860  0.74784388  0.75226406  1
  O2-  O491  1  0.74960026  0.74911391  0.39336897  1
  O2-  O492  1  0.59191351  0.74814967  0.93473945  1
