# generated using pymatgen
data_Ca108Mn108O277
_symmetry_space_group_name_H-M   'P 1'
_cell_length_a   16.02659096
_cell_length_b   22.30232362
_cell_length_c   16.38610427
_cell_angle_alpha   89.99691704
_cell_angle_beta   90.00190793
_cell_angle_gamma   90.00078316
_symmetry_Int_Tables_number   1
_chemical_formula_structural   Ca108Mn108O277
_chemical_formula_sum   'Ca108 Mn108 O277'
_cell_volume   5856.88880988
_cell_formula_units_Z   1
loop_
 _symmetry_equiv_pos_site_id
 _symmetry_equiv_pos_as_xyz
  1  'x, y, z'
loop_
 _atom_type_symbol
 _atom_type_oxidation_number
  Ca2+  2.0
  Mn3.34+  3.34
  O2-  -2.0
loop_
 _atom_site_type_symbol
 _atom_site_label
 _atom_site_symmetry_multiplicity
 _atom_site_fract_x
 _atom_site_fract_y
 _atom_site_fract_z
 _atom_site_occupancy
  Ca2+  Ca0  1  0.09329210  0.26374377  0.24203963  1
  Ca2+  Ca1  1  0.09087014  0.25323445  0.60183091  1
  Ca2+  Ca2  1  0.08857862  0.24074476  0.89258991  1
  Ca2+  Ca3  1  0.09357161  0.74097874  0.25503910  1
  Ca2+  Ca4  1  0.07437487  0.74633454  0.58916858  1
  Ca2+  Ca5  1  0.08779186  0.75030908  0.90549845  1
  Ca2+  Ca6  1  0.41042357  0.25453647  0.26957409  1
  Ca2+  Ca7  1  0.40607301  0.25630529  0.58385681  1
  Ca2+  Ca8  1  0.40527116  0.25469635  0.90049996  1
  Ca2+  Ca9  1  0.42016576  0.75848060  0.24424068  1
  Ca2+  Ca10  1  0.43473656  0.75162090  0.58407082  1
  Ca2+  Ca11  1  0.42063836  0.76063846  0.93163981  1
  Ca2+  Ca12  1  0.74125827  0.25112199  0.26337664  1
  Ca2+  Ca13  1  0.75704300  0.24941186  0.58903131  1
  Ca2+  Ca14  1  0.76227884  0.24700417  0.89610362  1
  Ca2+  Ca15  1  0.73841444  0.75171774  0.26200600  1
  Ca2+  Ca16  1  0.73621534  0.73895183  0.58609947  1
  Ca2+  Ca17  1  0.73974864  0.75967261  0.90958069  1
  Ca2+  Ca18  1  0.24089189  0.24833911  0.04762764  1
  Ca2+  Ca19  1  0.26657838  0.25086616  0.43638563  1
  Ca2+  Ca20  1  0.24771771  0.22551600  0.75748785  1
  Ca2+  Ca21  1  0.25673631  0.74829877  0.09250626  1
  Ca2+  Ca22  1  0.25095839  0.75364438  0.41546430  1
  Ca2+  Ca23  1  0.22499499  0.74164206  0.74698646  1
  Ca2+  Ca24  1  0.58266765  0.25844795  0.06868081  1
  Ca2+  Ca25  1  0.56561876  0.24083002  0.42344341  1
  Ca2+  Ca26  1  0.57986462  0.24633924  0.75854720  1
  Ca2+  Ca27  1  0.57845008  0.75670652  0.09101275  1
  Ca2+  Ca28  1  0.58874350  0.75417121  0.42373973  1
  Ca2+  Ca29  1  0.59445205  0.75008414  0.73637050  1
  Ca2+  Ca30  1  0.92592515  0.24983276  0.05233772  1
  Ca2+  Ca31  1  0.90826284  0.24830161  0.43547216  1
  Ca2+  Ca32  1  0.93146919  0.24713245  0.75878300  1
  Ca2+  Ca33  1  0.91371093  0.75639387  0.08256534  1
  Ca2+  Ca34  1  0.90850783  0.74840181  0.42606297  1
  Ca2+  Ca35  1  0.92617836  0.73940641  0.73549345  1
  Ca2+  Ca36  1  0.59059854  0.59096914  0.73647192  1
  Ca2+  Ca37  1  0.21411889  0.59479344  0.41497999  1
  Ca2+  Ca38  1  0.42000991  0.58848407  0.59573067  1
  Ca2+  Ca39  1  0.08148486  0.09666825  0.60964415  1
  Ca2+  Ca40  1  0.91115960  0.59163537  0.09248222  1
  Ca2+  Ca41  1  0.58104696  0.10312758  0.42303592  1
  Ca2+  Ca42  1  0.42214162  0.11010349  0.58856470  1
  Ca2+  Ca43  1  0.43880246  0.09460476  0.27079773  1
  Ca2+  Ca44  1  0.08532618  0.59355940  0.27451621  1
  Ca2+  Ca45  1  0.08082256  0.08622912  0.25432796  1
  Ca2+  Ca46  1  0.58492985  0.07336446  0.03951576  1
  Ca2+  Ca47  1  0.24036324  0.58587062  0.75077274  1
  Ca2+  Ca48  1  0.75922771  0.08566717  0.30800375  1
  Ca2+  Ca49  1  0.42021446  0.59983572  0.24014079  1
  Ca2+  Ca50  1  0.10085762  0.59849582  0.90440883  1
  Ca2+  Ca51  1  0.07237272  0.10039012  0.61569477  1
  Ca2+  Ca52  1  0.06866528  0.08382508  0.25223100  1
  Ca2+  Ca53  1  0.92157910  0.08282616  0.05919603  1
  Ca2+  Ca54  1  0.74936739  0.60272567  0.25499483  1
  Ca2+  Ca55  1  0.07302097  0.59982145  0.57424793  1
  Ca2+  Ca56  1  0.73854598  0.57862890  0.91608875  1
  Ca2+  Ca57  1  0.58144745  0.09556549  0.75105592  1
  Ca2+  Ca58  1  0.22173193  0.06436845  0.00669372  1
  Ca2+  Ca59  1  0.94213208  0.60844287  0.41511085  1
  Ca2+  Ca60  1  0.40031170  0.10564749  0.88201171  1
  Ca2+  Ca61  1  0.92715008  0.11007123  0.76703166  1
  Ca2+  Ca62  1  0.43122072  0.10770855  0.59292345  1
  Ca2+  Ca63  1  0.74451490  0.10050643  0.55576254  1
  Ca2+  Ca64  1  0.08335267  0.60101602  0.57282598  1
  Ca2+  Ca65  1  0.74703734  0.09600538  0.91004498  1
  Ca2+  Ca66  1  0.39171930  0.10275555  0.88557230  1
  Ca2+  Ca67  1  0.74794375  0.08598025  0.30521122  1
  Ca2+  Ca68  1  0.27334585  0.10360445  0.42926096  1
  Ca2+  Ca69  1  0.75334424  0.10225947  0.56083524  1
  Ca2+  Ca70  1  0.42755875  0.09424579  0.26985202  1
  Ca2+  Ca71  1  0.92376448  0.59247393  0.09284847  1
  Ca2+  Ca72  1  0.75283701  0.40537765  0.25197821  1
  Ca2+  Ca73  1  0.10161170  0.92052721  0.93894189  1
  Ca2+  Ca74  1  0.90758717  0.41431602  0.07470168  1
  Ca2+  Ca75  1  0.73778617  0.40488028  0.91088963  1
  Ca2+  Ca76  1  0.25400093  0.41604783  0.04834641  1
  Ca2+  Ca77  1  0.76493816  0.40538830  0.58791106  1
  Ca2+  Ca78  1  0.24319672  0.41538458  0.05124200  1
  Ca2+  Ca79  1  0.59071543  0.41454004  0.04904279  1
  Ca2+  Ca80  1  0.55877687  0.41982866  0.76926034  1
  Ca2+  Ca81  1  0.90068876  0.90142279  0.41796910  1
  Ca2+  Ca82  1  0.24702388  0.40877411  0.42115837  1
  Ca2+  Ca83  1  0.42129802  0.41200931  0.25626887  1
  Ca2+  Ca84  1  0.09816087  0.92351805  0.92996562  1
  Ca2+  Ca85  1  0.07437935  0.89241516  0.24498895  1
  Ca2+  Ca86  1  0.74803108  0.90655309  0.26766190  1
  Ca2+  Ca87  1  0.72960969  0.91167931  0.91841749  1
  Ca2+  Ca88  1  0.90648284  0.90442355  0.74229679  1
  Ca2+  Ca89  1  0.75260927  0.40766677  0.59157489  1
  Ca2+  Ca90  1  0.91387807  0.90656572  0.08677312  1
  Ca2+  Ca91  1  0.08689266  0.41405635  0.57688888  1
  Ca2+  Ca92  1  0.27326159  0.41508743  0.76363303  1
  Ca2+  Ca93  1  0.42630359  0.89957651  0.57969044  1
  Ca2+  Ca94  1  0.40982401  0.41242590  0.25596337  1
  Ca2+  Ca95  1  0.07700024  0.42105055  0.28212925  1
  Ca2+  Ca96  1  0.26166147  0.90570535  0.75867422  1
  Ca2+  Ca97  1  0.08702458  0.89239261  0.24407889  1
  Ca2+  Ca98  1  0.92146218  0.40567658  0.75098375  1
  Ca2+  Ca99  1  0.07679112  0.89734930  0.57955891  1
  Ca2+  Ca100  1  0.73994846  0.40540784  0.25148763  1
  Ca2+  Ca101  1  0.25974581  0.91264028  0.06471804  1
  Ca2+  Ca102  1  0.08554938  0.41956604  0.27563592  1
  Ca2+  Ca103  1  0.09412640  0.40694494  0.90895417  1
  Ca2+  Ca104  1  0.58609404  0.90184236  0.75414630  1
  Ca2+  Ca105  1  0.57617554  0.39781401  0.41584768  1
  Ca2+  Ca106  1  0.91915265  0.41453372  0.07614251  1
  Ca2+  Ca107  1  0.24940371  0.90741499  0.75735058  1
  Mn3.34+  Mn108  1  0.08246924  0.33806525  0.08460981  1
  Mn3.34+  Mn109  1  0.08160748  0.33408588  0.42329060  1
  Mn3.34+  Mn110  1  0.08778012  0.33644835  0.74761138  1
  Mn3.34+  Mn111  1  0.08248060  0.83026315  0.08231376  1
  Mn3.34+  Mn112  1  0.08291339  0.82470032  0.42087315  1
  Mn3.34+  Mn113  1  0.08043112  0.83295615  0.75219619  1
  Mn3.34+  Mn114  1  0.41853146  0.33315623  0.08246223  1
  Mn3.34+  Mn115  1  0.41571181  0.33302322  0.42479257  1
  Mn3.34+  Mn116  1  0.41748242  0.33747564  0.74792289  1
  Mn3.34+  Mn117  1  0.42224128  0.83986238  0.08853570  1
  Mn3.34+  Mn118  1  0.41877668  0.83620017  0.41447126  1
  Mn3.34+  Mn119  1  0.41939778  0.83091356  0.75410820  1
  Mn3.34+  Mn120  1  0.74999224  0.32881727  0.08352904  1
  Mn3.34+  Mn121  1  0.74636767  0.32614530  0.42242430  1
  Mn3.34+  Mn122  1  0.74733487  0.33305050  0.75186075  1
  Mn3.34+  Mn123  1  0.74539653  0.83435002  0.08599831  1
  Mn3.34+  Mn124  1  0.74318078  0.83870620  0.42266849  1
  Mn3.34+  Mn125  1  0.75011974  0.83287990  0.74873789  1
  Mn3.34+  Mn126  1  0.25106401  0.33839788  0.24595079  1
  Mn3.34+  Mn127  1  0.25242850  0.33858999  0.58848213  1
  Mn3.34+  Mn128  1  0.25215724  0.33098937  0.90523449  1
  Mn3.34+  Mn129  1  0.25926698  0.82997713  0.25242228  1
  Mn3.34+  Mn130  1  0.25225993  0.82823149  0.57863934  1
  Mn3.34+  Mn131  1  0.25554226  0.83230089  0.91643822  1
  Mn3.34+  Mn132  1  0.58103222  0.32888540  0.24186659  1
  Mn3.34+  Mn133  1  0.57860181  0.33033539  0.58576972  1
  Mn3.34+  Mn134  1  0.57965726  0.33106964  0.91108784  1
  Mn3.34+  Mn135  1  0.58116967  0.83102702  0.25268334  1
  Mn3.34+  Mn136  1  0.58879578  0.83371743  0.58183789  1
  Mn3.34+  Mn137  1  0.57791353  0.84199153  0.91977232  1
  Mn3.34+  Mn138  1  0.91575051  0.32760549  0.25039502  1
  Mn3.34+  Mn139  1  0.92189172  0.33249617  0.58189370  1
  Mn3.34+  Mn140  1  0.91881583  0.33275303  0.90947624  1
  Mn3.34+  Mn141  1  0.91204283  0.82537626  0.24918247  1
  Mn3.34+  Mn142  1  0.90876259  0.83326831  0.58156551  1
  Mn3.34+  Mn143  1  0.91450014  0.83496150  0.91497548  1
  Mn3.34+  Mn144  1  0.58670351  0.66321323  0.92248147  1
  Mn3.34+  Mn145  1  0.08748326  0.15779668  0.07709314  1
  Mn3.34+  Mn146  1  0.74341555  0.67086745  0.42162275  1
  Mn3.34+  Mn147  1  0.75262908  0.16507633  0.74839018  1
  Mn3.34+  Mn148  1  0.74764025  0.67032504  0.08684060  1
  Mn3.34+  Mn149  1  0.24409523  0.16945002  0.25058683  1
  Mn3.34+  Mn150  1  0.24713216  0.66669739  0.58203027  1
  Mn3.34+  Mn151  1  0.58235199  0.16732255  0.90894327  1
  Mn3.34+  Mn152  1  0.41395374  0.67086514  0.08502675  1
  Mn3.34+  Mn153  1  0.91370220  0.17019240  0.58118522  1
  Mn3.34+  Mn154  1  0.41646213  0.66126622  0.75761217  1
  Mn3.34+  Mn155  1  0.91705932  0.17561895  0.24905527  1
  Mn3.34+  Mn156  1  0.75038406  0.66457769  0.74464419  1
  Mn3.34+  Mn157  1  0.42440102  0.16319001  0.08920792  1
  Mn3.34+  Mn158  1  0.74419145  0.17068587  0.08663773  1
  Mn3.34+  Mn159  1  0.07819208  0.16396051  0.07742627  1
  Mn3.34+  Mn160  1  0.41473947  0.66498560  0.41926488  1
  Mn3.34+  Mn161  1  0.41470163  0.16212714  0.08213748  1
  Mn3.34+  Mn162  1  0.25202847  0.17136687  0.58618629  1
  Mn3.34+  Mn163  1  0.90978950  0.66932050  0.91217966  1
  Mn3.34+  Mn164  1  0.74940987  0.15947559  0.09174397  1
  Mn3.34+  Mn165  1  0.08330068  0.17135598  0.42530492  1
  Mn3.34+  Mn166  1  0.25540761  0.65658185  0.92242534  1
  Mn3.34+  Mn167  1  0.91830652  0.67491420  0.24967249  1
  Mn3.34+  Mn168  1  0.42497823  0.66021761  0.42026843  1
  Mn3.34+  Mn169  1  0.58816687  0.17691287  0.58650778  1
  Mn3.34+  Mn170  1  0.57701092  0.65780244  0.92155325  1
  Mn3.34+  Mn171  1  0.25446197  0.16411457  0.24807082  1
  Mn3.34+  Mn172  1  0.08956406  0.66901593  0.08521109  1
  Mn3.34+  Mn173  1  0.58463643  0.66590513  0.24740724  1
  Mn3.34+  Mn174  1  0.58610818  0.17434924  0.24529395  1
  Mn3.34+  Mn175  1  0.25005191  0.66689305  0.24926214  1
  Mn3.34+  Mn176  1  0.91172110  0.18316209  0.25184039  1
  Mn3.34+  Mn177  1  0.91117286  0.66648624  0.58196137  1
  Mn3.34+  Mn178  1  0.40792752  0.66720832  0.75593752  1
  Mn3.34+  Mn179  1  0.92270248  0.66225548  0.90970208  1
  Mn3.34+  Mn180  1  0.58526775  0.50204711  0.57937150  1
  Mn3.34+  Mn181  1  0.42085489  0.50577816  0.05812092  1
  Mn3.34+  Mn182  1  0.74961932  0.00023488  0.73958692  1
  Mn3.34+  Mn183  1  0.91362792  0.49992045  0.57820883  1
  Mn3.34+  Mn184  1  0.41965411  -0.00476593  0.41753704  1
  Mn3.34+  Mn185  1  0.07710884  0.50121890  0.73603094  1
  Mn3.34+  Mn186  1  0.42948336  0.51326832  0.05435721  1
  Mn3.34+  Mn187  1  0.42693976  -0.00471997  0.74104244  1
  Mn3.34+  Mn188  1  0.75769781  0.50241029  0.74483799  1
  Mn3.34+  Mn189  1  0.91775658  0.00468274  0.90982798  1
  Mn3.34+  Mn190  1  0.25863231  -0.00739162  0.57647672  1
  Mn3.34+  Mn191  1  0.09121676  -0.00375240  0.42397016  1
  Mn3.34+  Mn192  1  0.07673803  0.00221005  0.42395736  1
  Mn3.34+  Mn193  1  0.74162328  0.50592807  0.42092770  1
  Mn3.34+  Mn194  1  0.07909752  0.00171687  0.74876139  1
  Mn3.34+  Mn195  1  0.25359918  0.50390136  0.24764520  1
  Mn3.34+  Mn196  1  0.09373855  0.50838202  0.08141476  1
  Mn3.34+  Mn197  1  0.24395225  -0.00175698  0.57842718  1
  Mn3.34+  Mn198  1  0.58786692  -0.00284842  0.58123316  1
  Mn3.34+  Mn199  1  0.91155425  0.50088927  0.25120746  1
  Mn3.34+  Mn200  1  0.92116400  0.50014252  0.91891854  1
  Mn3.34+  Mn201  1  0.26724332  -0.00787994  0.24627401  1
  Mn3.34+  Mn202  1  0.73568346  0.50634306  0.07485732  1
  Mn3.34+  Mn203  1  0.25866376  0.50053587  0.59486980  1
  Mn3.34+  Mn204  1  0.42405437  0.49845178  0.41200543  1
  Mn3.34+  Mn205  1  0.90742311  -0.00082129  0.91095711  1
  Mn3.34+  Mn206  1  0.58217847  -0.00270071  0.23594676  1
  Mn3.34+  Mn207  1  0.42150078  -0.00298446  0.06837582  1
  Mn3.34+  Mn208  1  0.75249519  0.50007334  0.42258943  1
  Mn3.34+  Mn209  1  0.91590699  -0.00053274  0.23982875  1
  Mn3.34+  Mn210  1  0.25502565  -0.00061339  0.24239714  1
  Mn3.34+  Mn211  1  0.91451802  -0.00063425  0.58343348  1
  Mn3.34+  Mn212  1  0.58602697  0.50130315  0.23919734  1
  Mn3.34+  Mn213  1  0.57050914  0.49822595  0.58456694  1
  Mn3.34+  Mn214  1  0.74129668  -0.00433143  0.07961486  1
  Mn3.34+  Mn215  1  0.57221911  -0.00804757  0.23907153  1
  O2-  O216  1  -0.00610133  0.15758714  0.00490305  1
  O2-  O217  1  0.00653098  0.17316460  0.33201665  1
  O2-  O218  1  -0.00883449  0.16348249  0.66344845  1
  O2-  O219  1  -0.00059823  0.64634327  -0.00166827  1
  O2-  O220  1  0.00118672  0.67874230  0.32629321  1
  O2-  O221  1  -0.00112957  0.66082639  0.65427500  1
  O2-  O222  1  0.33618754  0.16452907  0.00270385  1
  O2-  O223  1  0.34028137  0.15277981  0.32985554  1
  O2-  O224  1  0.33537891  0.16670584  0.66161135  1
  O2-  O225  1  0.32990260  0.68388889  0.00029683  1
  O2-  O226  1  0.33523438  0.64967754  0.33829674  1
  O2-  O227  1  0.33062575  0.65048821  0.66822960  1
  O2-  O228  1  0.66707109  0.15412117  0.00015318  1
  O2-  O229  1  0.66661898  0.17114783  0.32590741  1
  O2-  O230  1  0.67202102  0.15350417  0.66215027  1
  O2-  O231  1  0.67370632  0.64808422  -0.00026594  1
  O2-  O232  1  0.66989212  0.66205010  0.32820998  1
  O2-  O233  1  0.66586788  0.66317256  0.67702617  1
  O2-  O234  1  0.16845876  0.15985573  -0.00149292  1
  O2-  O235  1  0.16130433  0.14471063  0.33489367  1
  O2-  O236  1  0.16396341  0.16539854  0.65654724  1
  O2-  O237  1  0.16702201  0.66259538  -0.00152024  1
  O2-  O238  1  0.16992550  0.66771536  0.33041431  1
  O2-  O239  1  0.16933107  0.65109731  0.66107359  1
  O2-  O240  1  0.50686204  0.16197326  0.00455927  1
  O2-  O241  1  0.50717432  0.16535882  0.32927044  1
  O2-  O242  1  0.50777685  0.17231288  0.66831465  1
  O2-  O243  1  0.49646453  0.66062640  0.00175243  1
  O2-  O244  1  0.49810026  0.65351677  0.33126984  1
  O2-  O245  1  0.49565450  0.65602209  0.67595915  1
  O2-  O246  1  0.82872983  0.16356951  0.00593449  1
  O2-  O247  1  0.82718462  0.18008021  0.33231551  1
  O2-  O248  1  0.82845393  0.14742502  0.65908989  1
  O2-  O249  1  0.83944335  0.64901087  0.00225538  1
  O2-  O250  1  0.83635163  0.66880874  0.32920254  1
  O2-  O251  1  0.83306317  0.66378620  0.66819873  1
  O2-  O252  1  -0.00226674  0.35165194  0.00225463  1
  O2-  O253  1  0.00536146  0.32180186  0.32994374  1
  O2-  O254  1  0.00433739  0.34898320  0.66210725  1
  O2-  O255  1  0.00159977  0.85431909  -0.00138034  1
  O2-  O256  1  0.00014596  0.82396448  0.33136447  1
  O2-  O257  1  -0.00114974  0.84781693  0.66951158  1
  O2-  O258  1  0.32796187  0.33248219  0.00523276  1
  O2-  O259  1  0.33351703  0.35177134  0.33275977  1
  O2-  O260  1  0.33567936  0.33269857  0.66824385  1
  O2-  O261  1  0.32992833  0.83089488  0.00226452  1
  O2-  O262  1  0.32969847  0.83650417  0.33851515  1
  O2-  O263  1  0.33119172  0.84964093  0.66608672  1
  O2-  O264  1  0.66969129  0.33599895  0.00060051  1
  O2-  O265  1  0.66375211  0.33303617  0.33140537  1
  O2-  O266  1  0.66893580  0.34553684  0.66139526  1
  O2-  O267  1  0.66932578  0.84176853  -0.00281266  1
  O2-  O268  1  0.66892028  0.83539603  0.33144633  1
  O2-  O269  1  0.66261412  0.84170436  0.67409194  1
  O2-  O270  1  0.16688639  0.34258940  -0.00026627  1
  O2-  O271  1  0.16335709  0.34412853  0.33078753  1
  O2-  O272  1  0.16674026  0.35313573  0.66458452  1
  O2-  O273  1  0.16654399  0.84190958  -0.00128741  1
  O2-  O274  1  0.15805374  0.82897818  0.32947596  1
  O2-  O275  1  0.16840173  0.85101749  0.67226130  1
  O2-  O276  1  0.50250194  0.33177975  0.00331588  1
  O2-  O277  1  0.49644915  0.33949895  0.32552840  1
  O2-  O278  1  0.50102761  0.31106016  0.66996073  1
  O2-  O279  1  0.49909408  0.83670483  0.00143957  1
  O2-  O280  1  0.49981209  0.83284316  0.33418505  1
  O2-  O281  1  0.49821496  0.84252064  0.67059856  1
  O2-  O282  1  0.83785351  0.34086518  0.00421348  1
  O2-  O283  1  0.82555077  0.32621804  0.33037806  1
  O2-  O284  1  0.83471020  0.34777976  0.66942129  1
  O2-  O285  1  0.83439939  0.85007378  -0.00014427  1
  O2-  O286  1  0.83472271  0.83101556  0.33153067  1
  O2-  O287  1  0.83492595  0.84065784  0.66943389  1
  O2-  O288  1  0.00220978  0.18461254  0.16615800  1
  O2-  O289  1  0.00519398  0.18663589  0.50982581  1
  O2-  O290  1  0.00735396  0.17878662  0.82773870  1
  O2-  O291  1  -0.00498285  0.68208054  0.15860615  1
  O2-  O292  1  -0.00354028  0.67796649  0.50270905  1
  O2-  O293  1  0.00423649  0.67826181  0.83710359  1
  O2-  O294  1  0.33378779  0.18925442  0.16297146  1
  O2-  O295  1  0.33784296  0.17124247  0.51001512  1
  O2-  O296  1  0.34366086  0.18402459  0.83302413  1
  O2-  O297  1  0.33875240  0.67842673  0.17346192  1
  O2-  O298  1  0.32996333  0.67832814  0.49835947  1
  O2-  O299  1  0.33405679  0.68303585  0.83913512  1
  O2-  O300  1  0.66237830  0.19578641  0.16273971  1
  O2-  O301  1  0.66808594  0.18381605  0.50559869  1
  O2-  O302  1  0.66910097  0.17564234  0.82999037  1
  O2-  O303  1  0.67250633  0.68000676  0.17062599  1
  O2-  O304  1  0.66675118  0.67964740  0.49337266  1
  O2-  O305  1  0.66551419  0.67943338  0.83896589  1
  O2-  O306  1  0.15383154  0.17457631  0.17048082  1
  O2-  O307  1  0.17561709  0.18123885  0.49261967  1
  O2-  O308  1  0.16273379  0.16453781  0.83749756  1
  O2-  O309  1  0.16677089  0.67890576  0.16927824  1
  O2-  O310  1  0.16402392  0.67495368  0.50693481  1
  O2-  O311  1  0.17807551  0.68235949  0.84843490  1
  O2-  O312  1  0.49573237  0.19134998  0.17219389  1
  O2-  O313  1  0.50220288  0.17862712  0.51159301  1
  O2-  O314  1  0.49786010  0.18120307  0.83997285  1
  O2-  O315  1  0.49709990  0.67758472  0.17134260  1
  O2-  O316  1  0.49287940  0.67754817  0.50452762  1
  O2-  O317  1  0.50119631  0.68213176  0.83465887  1
  O2-  O318  1  0.83389914  0.19677026  0.16181598  1
  O2-  O319  1  0.82907941  0.17977072  0.50588139  1
  O2-  O320  1  0.83339723  0.17785543  0.82071957  1
  O2-  O321  1  0.83883234  0.68162521  0.16051774  1
  O2-  O322  1  0.83483582  0.67686807  0.49450301  1
  O2-  O323  1  0.82774143  0.67895660  0.83618172  1
  O2-  O324  1  -0.00538930  0.32075443  0.16441918  1
  O2-  O325  1  0.00308342  0.31216152  0.50187930  1
  O2-  O326  1  0.00062367  0.32982762  0.82880197  1
  O2-  O327  1  0.00030081  0.81540427  0.16933467  1
  O2-  O328  1  -0.00021403  0.81741522  0.50119823  1
  O2-  O329  1  0.00444345  0.82851508  0.83916331  1
  O2-  O330  1  0.34259416  0.32687179  0.17194882  1
  O2-  O331  1  0.32924402  0.33000819  0.49908138  1
  O2-  O332  1  0.33141831  0.32002423  0.82248951  1
  O2-  O333  1  0.32823284  0.82696706  0.16254675  1
  O2-  O334  1  0.33826813  0.81606197  0.50652604  1
  O2-  O335  1  0.32711621  0.81648705  0.82697900  1
  O2-  O336  1  0.67062538  0.31193894  0.16879353  1
  O2-  O337  1  0.66251610  0.31120941  0.50213209  1
  O2-  O338  1  0.66694664  0.31986950  0.83112468  1
  O2-  O339  1  0.67044050  0.81614001  0.16984583  1
  O2-  O340  1  0.66916229  0.82264148  0.50317155  1
  O2-  O341  1  0.66683336  0.82595269  0.83310705  1
  O2-  O342  1  0.16819080  0.32770337  0.16477199  1
  O2-  O343  1  0.16720697  0.32161097  0.49555226  1
  O2-  O344  1  0.16382653  0.33298765  0.83279117  1
  O2-  O345  1  0.16034004  0.81931145  0.16887935  1
  O2-  O346  1  0.16194765  0.81035999  0.50484952  1
  O2-  O347  1  0.17003942  0.81892499  0.83364062  1
  O2-  O348  1  0.49685887  0.31108546  0.16605401  1
  O2-  O349  1  0.50359993  0.31640430  0.49896713  1
  O2-  O350  1  0.49930479  0.31675201  0.82808023  1
  O2-  O351  1  0.50094684  0.82358404  0.16934142  1
  O2-  O352  1  0.49870506  0.82262200  0.50278475  1
  O2-  O353  1  0.50362601  0.81958606  0.83028396  1
  O2-  O354  1  0.83036617  0.31500422  0.16905955  1
  O2-  O355  1  0.82608179  0.31801964  0.50781449  1
  O2-  O356  1  0.83154002  0.32485437  0.83085815  1
  O2-  O357  1  0.83538276  0.81819340  0.16504523  1
  O2-  O358  1  0.83683091  0.82490893  0.49459845  1
  O2-  O359  1  0.83493553  0.82180849  0.83364386  1
  O2-  O360  1  0.07047592  0.07728206  0.11852661  1
  O2-  O361  1  0.08451258  0.08163150  0.45923527  1
  O2-  O362  1  0.06576931  0.08081848  0.74652095  1
  O2-  O363  1  0.06350106  0.58321279  0.12371398  1
  O2-  O364  1  0.07984381  0.57120906  0.44567811  1
  O2-  O365  1  0.09815414  0.57139155  0.77725813  1
  O2-  O366  1  0.41981954  0.07286930  0.13405929  1
  O2-  O367  1  0.41977057  0.07357588  0.46052346  1
  O2-  O368  1  0.43829507  0.07596862  0.76118137  1
  O2-  O369  1  0.40892627  0.58528040  0.10555551  1
  O2-  O370  1  0.41240384  0.57805061  0.45145236  1
  O2-  O371  1  0.41222711  0.58236662  0.77479908  1
  O2-  O372  1  0.75287623  0.07778230  0.14191872  1
  O2-  O373  1  0.72705974  0.07693438  0.43345821  1
  O2-  O374  1  0.74683246  0.07917867  0.77730579  1
  O2-  O375  1  0.76986277  0.58169224  0.11879999  1
  O2-  O376  1  0.76071202  0.58636856  0.41984866  1
  O2-  O377  1  0.73850006  0.58100001  0.77710178  1
  O2-  O378  1  0.23758720  0.07832417  0.20216158  1
  O2-  O379  1  0.24465428  0.08129416  0.56160296  1
  O2-  O380  1  0.28054056  0.06442776  0.88946889  1
  O2-  O381  1  0.24720095  0.58361599  0.23939053  1
  O2-  O382  1  0.25053022  0.57777663  0.55118062  1
  O2-  O383  1  0.24106191  0.58099354  0.89145613  1
  O2-  O384  1  0.57052176  0.08073640  0.20344455  1
  O2-  O385  1  0.59343421  0.07943917  0.55309207  1
  O2-  O386  1  0.57591979  0.08707564  0.89053540  1
  O2-  O387  1  0.58656579  0.58242556  0.22659254  1
  O2-  O388  1  0.56840025  0.58083290  0.56883502  1
  O2-  O389  1  0.59139973  0.58091467  0.88341762  1
  O2-  O390  1  0.93084980  0.08611201  0.21895647  1
  O2-  O391  1  0.91517214  0.08272130  0.55497086  1
  O2-  O392  1  0.90015940  0.08514688  0.90148549  1
  O2-  O393  1  0.91109312  0.58252420  0.22813860  1
  O2-  O394  1  0.93069290  0.58097901  0.55263579  1
  O2-  O395  1  0.90797501  0.58109725  0.88879639  1
  O2-  O396  1  0.07345598  0.42989520  0.13745089  1
  O2-  O397  1  0.08518588  0.41547544  0.42616170  1
  O2-  O398  1  0.07623445  0.42492292  0.77579446  1
  O2-  O399  1  0.07544484  0.91310908  0.11535247  1
  O2-  O400  1  0.07141859  0.91424430  0.42932186  1
  O2-  O401  1  0.09809167  0.92308883  0.78901366  1
  O2-  O402  1  0.42879334  0.43017543  0.11871697  1
  O2-  O403  1  0.43383561  0.41704319  0.43651769  1
  O2-  O404  1  0.41821355  0.41514853  0.76723316  1
  O2-  O405  1  0.40713415  0.92422924  0.11227507  1
  O2-  O406  1  0.40985940  0.91601125  0.44455925  1
  O2-  O407  1  0.40309777  0.91677472  0.77501153  1
  O2-  O408  1  0.75728355  0.42241672  0.11917598  1
  O2-  O409  1  0.73625453  0.41891922  0.45346221  1
  O2-  O410  1  0.74562148  0.42012759  0.77454946  1
  O2-  O411  1  0.76258897  0.91983613  0.12191275  1
  O2-  O412  1  0.76251688  0.91654855  0.41434692  1
  O2-  O413  1  0.75252827  0.92090355  0.77631232  1
  O2-  O414  1  0.25930400  0.42566163  0.20269272  1
  O2-  O415  1  0.24158715  0.42398226  0.55578526  1
  O2-  O416  1  0.25226786  0.41539837  0.90500056  1
  O2-  O417  1  0.23055798  0.91366821  0.23349999  1
  O2-  O418  1  0.23942926  0.91336634  0.54988339  1
  O2-  O419  1  0.23791023  0.91899730  0.88837193  1
  O2-  O420  1  0.60252822  0.41819883  0.20759387  1
  O2-  O421  1  0.59669976  0.42004338  0.55103770  1
  O2-  O422  1  0.58837708  0.41136091  0.89919933  1
  O2-  O423  1  0.59807167  0.91219363  0.23045050  1
  O2-  O424  1  0.57188821  0.91898397  0.57241193  1
  O2-  O425  1  0.59029085  0.91883675  0.89081662  1
  O2-  O426  1  0.89960474  0.41935813  0.21694486  1
  O2-  O427  1  0.90280517  0.41724946  0.54800218  1
  O2-  O428  1  0.90947269  0.41843453  0.89423002  1
  O2-  O429  1  0.93647482  0.91645978  0.23108578  1
  O2-  O430  1  0.92565181  0.91881959  0.55361981  1
  O2-  O431  1  0.91229625  0.91950025  0.88193917  1
  O2-  O432  1  0.00567986  -0.00454251  -0.01446707  1
  O2-  O433  1  0.01447286  0.00797742  0.31776136  1
  O2-  O434  1  0.01599792  -0.00281226  0.64450672  1
  O2-  O435  1  -0.00965830  0.49765019  0.02526861  1
  O2-  O436  1  0.01400493  0.50387793  0.29820973  1
  O2-  O437  1  0.00554507  0.48971888  0.64828254  1
  O2-  O438  1  0.32661956  0.00247450  0.02591791  1
  O2-  O439  1  0.34013085  0.02422441  0.32661449  1
  O2-  O440  1  0.33179310  -0.00584719  0.66800367  1
  O2-  O441  1  0.31384964  0.49957039  0.02331123  1
  O2-  O442  1  0.33540787  0.48344957  0.32905593  1
  O2-  O443  1  0.32158929  0.50765229  0.67898464  1
  O2-  O444  1  0.68394748  0.01576857  -0.01192554  1
  O2-  O445  1  0.66393201  0.01183802  0.31476638  1
  O2-  O446  1  0.65904113  0.01165258  0.67155273  1
  O2-  O447  1  0.69080156  0.48711066  -0.02226824  1
  O2-  O448  1  0.66562793  0.48311878  0.32888662  1
  O2-  O449  1  0.66847393  0.49518238  0.65998455  1
  O2-  O450  1  0.16890363  -0.02261335  0.01307127  1
  O2-  O451  1  0.16939221  0.01419460  0.32939664  1
  O2-  O452  1  0.17050286  -0.00406570  0.67051777  1
  O2-  O453  1  0.15195275  0.47640125  -0.00273409  1
  O2-  O454  1  0.16907327  0.49210377  0.31770020  1
  O2-  O455  1  0.15923384  0.50506416  0.65217674  1
  O2-  O456  1  0.48321751  0.02156792  -0.01185376  1
  O2-  O457  1  0.50129160  0.02018808  0.33086760  1
  O2-  O458  1  0.48930318  0.01194138  0.64148001  1
  O2-  O459  1  0.53058545  0.49878366  0.01545580  1
  O2-  O460  1  0.49417967  0.48531290  0.31166814  1
  O2-  O461  1  0.50285431  0.50237250  0.67197485  1
  O2-  O462  1  0.84494874  0.00264569  0.01782038  1
  O2-  O463  1  0.82131255  0.00008321  0.30199665  1
  O2-  O464  1  0.84711597  0.00226287  0.67876672  1
  O2-  O465  1  0.84632958  0.49981652  0.02612081  1
  O2-  O466  1  0.82145414  0.48596495  0.32384196  1
  O2-  O467  1  0.82915670  0.48082582  0.65652972  1
  O2-  O468  1  0.25869849  0.74905714  0.26486622  1
  O2-  O469  1  0.59580010  0.24858081  0.93289107  1
  O2-  O470  1  0.90799693  0.25135448  0.61324772  1
  O2-  O471  1  0.75471930  0.74955959  0.05272383  1
  O2-  O472  1  0.24824556  0.25369845  0.27784379  1
  O2-  O473  1  0.58151388  0.74812585  0.26890438  1
  O2-  O474  1  0.23975804  0.25150785  0.91611670  1
  O2-  O475  1  0.74887985  0.75139684  0.40318012  1
  O2-  O476  1  0.91410950  0.75135781  0.59994073  1
  O2-  O477  1  0.08804175  0.25659209  0.73976270  1
  O2-  O478  1  0.07961988  0.75525716  0.73115820  1
  O2-  O479  1  0.74812927  0.75064939  0.73650781  1
  O2-  O480  1  0.92507206  0.74991913  0.94286278  1
  O2-  O481  1  0.92179035  0.25367855  0.92065551  1
  O2-  O482  1  0.58398707  0.75496571  0.59840334  1
  O2-  O483  1  0.25264789  0.74850572  0.61126310  1
  O2-  O484  1  0.41337592  0.74754269  0.39559409  1
  O2-  O485  1  0.40800215  0.25485310  0.40329358  1
  O2-  O486  1  0.58487404  0.74595724  0.94093395  1
  O2-  O487  1  0.41457647  0.74641066  0.72615923  1
  O2-  O488  1  0.24886187  0.25420643  0.59456762  1
  O2-  O489  1  0.74583039  0.24966317  0.72667118  1
  O2-  O490  1  0.08609667  0.24855573  0.06496691  1
  O2-  O491  1  0.42384861  0.75314183  0.07662814  1
  O2-  O492  1  0.07626942  0.74993353  0.05172073  1
