# generated using pymatgen
data_Ca108Mn108O277
_symmetry_space_group_name_H-M   'P 1'
_cell_length_a   16.03337187
_cell_length_b   22.31484132
_cell_length_c   16.39463277
_cell_angle_alpha   90.00078391
_cell_angle_beta   89.99835618
_cell_angle_gamma   89.99118839
_symmetry_Int_Tables_number   1
_chemical_formula_structural   Ca108Mn108O277
_chemical_formula_sum   'Ca108 Mn108 O277'
_cell_volume   5865.70687579
_cell_formula_units_Z   1
loop_
 _symmetry_equiv_pos_site_id
 _symmetry_equiv_pos_as_xyz
  1  'x, y, z'
loop_
 _atom_type_symbol
 _atom_type_oxidation_number
  Ca2+  2.0
  Mn3.34+  3.34
  O2-  -2.0
loop_
 _atom_site_type_symbol
 _atom_site_label
 _atom_site_symmetry_multiplicity
 _atom_site_fract_x
 _atom_site_fract_y
 _atom_site_fract_z
 _atom_site_occupancy
  Ca2+  Ca0  1  0.06609970  0.22616526  0.24371782  1
  Ca2+  Ca1  1  0.11561884  0.24151708  0.58293150  1
  Ca2+  Ca2  1  0.09729718  0.24916039  0.91698498  1
  Ca2+  Ca3  1  0.04803749  0.75068248  0.25399697  1
  Ca2+  Ca4  1  0.07848882  0.76812222  0.58105593  1
  Ca2+  Ca5  1  0.06710005  0.76736380  0.92388041  1
  Ca2+  Ca6  1  0.41477041  0.24177742  0.25352007  1
  Ca2+  Ca7  1  0.39833756  0.23950901  0.57729359  1
  Ca2+  Ca8  1  0.41634554  0.24642401  0.91918916  1
  Ca2+  Ca9  1  0.43365110  0.75019648  0.24731829  1
  Ca2+  Ca10  1  0.42570282  0.75348567  0.57742721  1
  Ca2+  Ca11  1  0.42871034  0.76515396  0.92520913  1
  Ca2+  Ca12  1  0.75347038  0.24193817  0.25005681  1
  Ca2+  Ca13  1  0.74618821  0.26221880  0.57650892  1
  Ca2+  Ca14  1  0.73961626  0.24288176  0.93671390  1
  Ca2+  Ca15  1  0.76063408  0.73618906  0.25640760  1
  Ca2+  Ca16  1  0.74905832  0.73490622  0.58371817  1
  Ca2+  Ca17  1  0.75298956  0.75798387  0.90537365  1
  Ca2+  Ca18  1  0.24990613  0.25649443  0.08480208  1
  Ca2+  Ca19  1  0.27338184  0.21792601  0.41695925  1
  Ca2+  Ca20  1  0.25579769  0.25408713  0.74489911  1
  Ca2+  Ca21  1  0.26496267  0.76736754  0.08255632  1
  Ca2+  Ca22  1  0.24425582  0.76279578  0.42787560  1
  Ca2+  Ca23  1  0.25658884  0.76721751  0.73957481  1
  Ca2+  Ca24  1  0.58136615  0.24287751  0.08287003  1
  Ca2+  Ca25  1  0.57377969  0.24559460  0.40421861  1
  Ca2+  Ca26  1  0.57336974  0.26636363  0.75741045  1
  Ca2+  Ca27  1  0.57413293  0.75585130  0.08902143  1
  Ca2+  Ca28  1  0.61022897  0.74736789  0.40951859  1
  Ca2+  Ca29  1  0.61339462  0.74543484  0.74266618  1
  Ca2+  Ca30  1  0.91401541  0.24492258  0.10338959  1
  Ca2+  Ca31  1  0.89890363  0.23458729  0.39705074  1
  Ca2+  Ca32  1  0.93120775  0.24928356  0.75422947  1
  Ca2+  Ca33  1  0.91481037  0.76142179  0.09195521  1
  Ca2+  Ca34  1  0.90000438  0.75247905  0.41009371  1
  Ca2+  Ca35  1  0.89760134  0.76504544  0.74488648  1
  Ca2+  Ca36  1  0.88810977  0.60614966  0.74708770  1
  Ca2+  Ca37  1  0.24632089  0.58396789  0.74776593  1
  Ca2+  Ca38  1  0.57882961  0.08579328  0.76716372  1
  Ca2+  Ca39  1  0.08684678  0.57251534  0.93908385  1
  Ca2+  Ca40  1  0.08229328  0.59267870  0.58997339  1
  Ca2+  Ca41  1  0.75645850  0.59587954  0.92237616  1
  Ca2+  Ca42  1  0.92467331  0.08958794  0.34220327  1
  Ca2+  Ca43  1  0.27180459  0.58686465  0.40129067  1
  Ca2+  Ca44  1  0.88083920  0.10228772  0.09947409  1
  Ca2+  Ca45  1  0.44273109  0.10975906  0.22996894  1
  Ca2+  Ca46  1  0.89970952  0.60753493  0.10890293  1
  Ca2+  Ca47  1  0.27638377  0.11175777  0.08875697  1
  Ca2+  Ca48  1  0.58729037  0.10095235  0.36621769  1
  Ca2+  Ca49  1  0.23943208  0.09777957  0.72144367  1
  Ca2+  Ca50  1  0.87559632  0.60366886  0.74659259  1
  Ca2+  Ca51  1  0.45269822  0.58027633  0.24749421  1
  Ca2+  Ca52  1  0.61501019  0.58227737  0.70715731  1
  Ca2+  Ca53  1  0.89003759  0.10370950  0.10320927  1
  Ca2+  Ca54  1  0.60444879  0.09710197  0.10196045  1
  Ca2+  Ca55  1  0.74510893  0.07926155  0.95799157  1
  Ca2+  Ca56  1  0.62493287  0.59224199  0.40991316  1
  Ca2+  Ca57  1  0.27178233  0.56680125  0.07883582  1
  Ca2+  Ca58  1  0.73755765  0.10745122  0.24149697  1
  Ca2+  Ca59  1  0.44756095  0.08086311  0.97264066  1
  Ca2+  Ca60  1  0.43828292  0.08360562  0.97550437  1
  Ca2+  Ca61  1  0.62523230  0.59892392  0.40607245  1
  Ca2+  Ca62  1  0.74496435  0.59518379  0.92135320  1
  Ca2+  Ca63  1  0.44165658  0.58892323  0.56909456  1
  Ca2+  Ca64  1  0.23186199  0.09451395  0.72649208  1
  Ca2+  Ca65  1  0.10611547  0.07909301  0.58224323  1
  Ca2+  Ca66  1  0.07379963  0.09132273  0.92098176  1
  Ca2+  Ca67  1  0.95826412  0.06823030  0.75855871  1
  Ca2+  Ca68  1  0.75867446  0.09018075  0.56478240  1
  Ca2+  Ca69  1  0.74585231  0.09006948  0.56526227  1
  Ca2+  Ca70  1  0.59062585  0.08576604  0.76741627  1
  Ca2+  Ca71  1  0.06976317  0.59293156  0.58909124  1
  Ca2+  Ca72  1  0.09108199  0.40359585  0.23563727  1
  Ca2+  Ca73  1  0.57902797  0.90834967  0.40851636  1
  Ca2+  Ca74  1  0.04330030  0.91691303  0.26659340  1
  Ca2+  Ca75  1  0.03951530  0.92339916  0.90753408  1
  Ca2+  Ca76  1  0.59040736  0.90842576  0.40962503  1
  Ca2+  Ca77  1  0.76258471  0.90328663  0.59049926  1
  Ca2+  Ca78  1  0.44050401  0.92762582  0.95242349  1
  Ca2+  Ca79  1  0.90335125  0.39282257  0.41346859  1
  Ca2+  Ca80  1  0.07955916  0.40314380  0.23752710  1
  Ca2+  Ca81  1  0.59055300  0.90526064  0.76223208  1
  Ca2+  Ca82  1  0.40687478  0.90992941  0.58634228  1
  Ca2+  Ca83  1  0.26210527  0.40089168  0.41739371  1
  Ca2+  Ca84  1  0.43021344  0.91431375  0.22882406  1
  Ca2+  Ca85  1  0.43920023  0.41184173  0.24411879  1
  Ca2+  Ca86  1  0.92102769  0.40135382  0.75616525  1
  Ca2+  Ca87  1  0.91230452  0.40322699  0.08538407  1
  Ca2+  Ca88  1  0.71117382  0.42265703  0.58539726  1
  Ca2+  Ca89  1  0.43060222  0.40927965  0.24907459  1
  Ca2+  Ca90  1  0.90816209  0.40043480  0.75580533  1
  Ca2+  Ca91  1  0.25036196  0.39977895  0.41623570  1
  Ca2+  Ca92  1  0.10019677  0.40932662  0.92865590  1
  Ca2+  Ca93  1  0.76108486  0.91857608  0.23435562  1
  Ca2+  Ca94  1  0.40398059  0.40695145  0.93898144  1
  Ca2+  Ca95  1  0.58872652  0.40913081  0.41037838  1
  Ca2+  Ca96  1  0.59439406  0.93454898  0.06772782  1
  Ca2+  Ca97  1  0.89700884  0.92577296  0.06587575  1
  Ca2+  Ca98  1  0.44187987  0.91209900  0.22774352  1
  Ca2+  Ca99  1  0.75132369  0.92723221  0.93150613  1
  Ca2+  Ca100  1  0.74365733  0.39562259  0.92254206  1
  Ca2+  Ca101  1  0.43831052  0.40389927  0.58334306  1
  Ca2+  Ca102  1  0.39466657  0.90732790  0.58525669  1
  Ca2+  Ca103  1  0.57329733  0.40975086  0.07990152  1
  Ca2+  Ca104  1  0.21567542  0.93036720  0.70485262  1
  Ca2+  Ca105  1  0.92486864  0.40475563  0.08368379  1
  Ca2+  Ca106  1  0.07981640  0.39192694  0.58132873  1
  Ca2+  Ca107  1  0.05422925  0.91418735  0.27019449  1
  Mn3.34+  Mn108  1  0.08680136  0.33132317  0.07942829  1
  Mn3.34+  Mn109  1  0.08148316  0.32334934  0.41646399  1
  Mn3.34+  Mn110  1  0.08867349  0.33307444  0.75347935  1
  Mn3.34+  Mn111  1  0.08716916  0.83373694  0.08600225  1
  Mn3.34+  Mn112  1  0.07759822  0.83712283  0.42013786  1
  Mn3.34+  Mn113  1  0.07825426  0.84535039  0.75449185  1
  Mn3.34+  Mn114  1  0.41697893  0.33442226  0.08752107  1
  Mn3.34+  Mn115  1  0.42128828  0.32873388  0.41961734  1
  Mn3.34+  Mn116  1  0.41495453  0.33504063  0.75219566  1
  Mn3.34+  Mn117  1  0.41772339  0.83416497  0.07996522  1
  Mn3.34+  Mn118  1  0.40758438  0.83272508  0.41439202  1
  Mn3.34+  Mn119  1  0.41681305  0.83355464  0.75853782  1
  Mn3.34+  Mn120  1  0.74429435  0.33265945  0.09172734  1
  Mn3.34+  Mn121  1  0.74385316  0.33316323  0.41512846  1
  Mn3.34+  Mn122  1  0.74520333  0.33230846  0.74751962  1
  Mn3.34+  Mn123  1  0.74666267  0.83897878  0.08397285  1
  Mn3.34+  Mn124  1  0.75749603  0.83508385  0.41708725  1
  Mn3.34+  Mn125  1  0.75159395  0.83894941  0.75201285  1
  Mn3.34+  Mn126  1  0.25123709  0.33137628  0.24362478  1
  Mn3.34+  Mn127  1  0.25417730  0.32998086  0.58700422  1
  Mn3.34+  Mn128  1  0.25383918  0.33069840  0.91509037  1
  Mn3.34+  Mn129  1  0.24738512  0.83325489  0.24869492  1
  Mn3.34+  Mn130  1  0.24107326  0.83656494  0.58174331  1
  Mn3.34+  Mn131  1  0.24706449  0.83314082  0.91002185  1
  Mn3.34+  Mn132  1  0.59178214  0.33230689  0.24511362  1
  Mn3.34+  Mn133  1  0.58029097  0.33430592  0.58454889  1
  Mn3.34+  Mn134  1  0.58099595  0.33289899  0.91450240  1
  Mn3.34+  Mn135  1  0.59232291  0.83440499  0.24114161  1
  Mn3.34+  Mn136  1  0.58343286  0.83513498  0.58263856  1
  Mn3.34+  Mn137  1  0.58715247  0.83808578  0.91592140  1
  Mn3.34+  Mn138  1  0.91143330  0.32913795  0.25120187  1
  Mn3.34+  Mn139  1  0.91262458  0.32910852  0.57746425  1
  Mn3.34+  Mn140  1  0.91536830  0.31995708  0.91663076  1
  Mn3.34+  Mn141  1  0.90493452  0.83569419  0.24847830  1
  Mn3.34+  Mn142  1  0.91751391  0.83586911  0.58303213  1
  Mn3.34+  Mn143  1  0.91022882  0.84017149  0.91690542  1
  Mn3.34+  Mn144  1  0.25434430  0.67388812  0.24890419  1
  Mn3.34+  Mn145  1  0.75529226  0.16698359  0.75747790  1
  Mn3.34+  Mn146  1  0.08543913  0.16763221  0.08192635  1
  Mn3.34+  Mn147  1  0.58332684  0.17043574  0.92013933  1
  Mn3.34+  Mn148  1  0.58818782  0.66795546  0.57509517  1
  Mn3.34+  Mn149  1  0.25226733  0.17184841  0.24775215  1
  Mn3.34+  Mn150  1  0.41423291  0.65985776  0.74858741  1
  Mn3.34+  Mn151  1  0.26049716  0.66358795  0.91792573  1
  Mn3.34+  Mn152  1  0.06906874  0.66348833  0.41360758  1
  Mn3.34+  Mn153  1  0.92923660  0.16062363  0.57888509  1
  Mn3.34+  Mn154  1  0.58306560  0.16799553  0.58213347  1
  Mn3.34+  Mn155  1  0.08838580  0.66531074  0.08623933  1
  Mn3.34+  Mn156  1  0.59133985  0.66602019  0.24705075  1
  Mn3.34+  Mn157  1  0.08314832  0.66867916  0.41165254  1
  Mn3.34+  Mn158  1  0.74342412  0.66767626  0.09164653  1
  Mn3.34+  Mn159  1  0.41742794  0.16967556  0.75407453  1
  Mn3.34+  Mn160  1  0.42258197  0.67048524  0.41671854  1
  Mn3.34+  Mn161  1  0.07693574  0.65714852  0.08944306  1
  Mn3.34+  Mn162  1  0.90726974  0.67278855  0.57311695  1
  Mn3.34+  Mn163  1  0.42407035  0.66577437  0.74582770  1
  Mn3.34+  Mn164  1  0.76571927  0.16187063  0.76074310  1
  Mn3.34+  Mn165  1  0.58134111  0.66741826  0.92199029  1
  Mn3.34+  Mn166  1  0.91918266  0.16609685  0.58174713  1
  Mn3.34+  Mn167  1  0.25662891  0.66994107  0.57581625  1
  Mn3.34+  Mn168  1  0.08101762  0.67443917  0.75795051  1
  Mn3.34+  Mn169  1  0.08205414  0.17005895  0.75432624  1
  Mn3.34+  Mn170  1  0.57352855  0.16208970  0.57958361  1
  Mn3.34+  Mn171  1  0.24655044  0.66708817  0.24668113  1
  Mn3.34+  Mn172  1  0.25270866  0.66969272  0.92033104  1
  Mn3.34+  Mn173  1  0.08827446  0.68111407  0.75511739  1
  Mn3.34+  Mn174  1  0.09168992  0.15628428  0.41440586  1
  Mn3.34+  Mn175  1  0.25180371  0.16738138  0.91169601  1
  Mn3.34+  Mn176  1  0.91632911  0.67340118  0.92094771  1
  Mn3.34+  Mn177  1  0.91847445  0.16259512  0.91663270  1
  Mn3.34+  Mn178  1  0.57234443  0.66137568  0.91974395  1
  Mn3.34+  Mn179  1  0.41828318  0.66203552  0.09207385  1
  Mn3.34+  Mn180  1  0.40401170  0.00095369  0.75894460  1
  Mn3.34+  Mn181  1  0.07687852  0.50283308  0.40731095  1
  Mn3.34+  Mn182  1  0.08074501  0.00542397  0.08964762  1
  Mn3.34+  Mn183  1  0.73738396  0.49000256  0.74869519  1
  Mn3.34+  Mn184  1  0.90541998  0.49883883  0.26091249  1
  Mn3.34+  Mn185  1  0.74375461  0.50287558  0.09065368  1
  Mn3.34+  Mn186  1  0.25724312  0.49493690  0.91795440  1
  Mn3.34+  Mn187  1  0.25224758  0.50316122  0.58316014  1
  Mn3.34+  Mn188  1  0.92414261  -0.00327522  0.58575726  1
  Mn3.34+  Mn189  1  0.77718128  -0.00975807  0.40251698  1
  Mn3.34+  Mn190  1  0.26447858  0.49845442  0.58434073  1
  Mn3.34+  Mn191  1  0.08629364  0.50054159  0.75217128  1
  Mn3.34+  Mn192  1  0.76156548  -0.00644000  0.40590004  1
  Mn3.34+  Mn193  1  0.42378783  0.49874988  0.41521348  1
  Mn3.34+  Mn194  1  0.42322349  0.49795048  0.75237492  1
  Mn3.34+  Mn195  1  0.09399089  -0.00091432  0.08992197  1
  Mn3.34+  Mn196  1  0.40128622  0.01060786  0.42327960  1
  Mn3.34+  Mn197  1  0.25499411  0.49914997  0.24931462  1
  Mn3.34+  Mn198  1  0.41526639  -0.00396813  0.76195071  1
  Mn3.34+  Mn199  1  0.24162694  0.00772287  0.24624895  1
  Mn3.34+  Mn200  1  0.24997025  0.00135447  0.90622040  1
  Mn3.34+  Mn201  1  0.07617509  0.00024560  0.41099664  1
  Mn3.34+  Mn202  1  0.89256697  0.49864665  0.57237596  1
  Mn3.34+  Mn203  1  0.23607838  -0.00488281  0.90626463  1
  Mn3.34+  Mn204  1  0.41620840  0.01372686  0.42000921  1
  Mn3.34+  Mn205  1  0.43894588  0.49522844  0.75020197  1
  Mn3.34+  Mn206  1  0.56098877  0.50137972  0.92110361  1
  Mn3.34+  Mn207  1  0.06354081  0.49588273  0.40754467  1
  Mn3.34+  Mn208  1  0.25557702  0.00295802  0.24554804  1
  Mn3.34+  Mn209  1  0.90301505  0.50506944  0.56945444  1
  Mn3.34+  Mn210  1  0.75486637  0.49431211  0.40191910  1
  Mn3.34+  Mn211  1  0.76810777  -0.00041900  0.74531130  1
  Mn3.34+  Mn212  1  0.91243930  0.49727241  0.91364901  1
  Mn3.34+  Mn213  1  0.58551799  0.00244064  0.59147530  1
  Mn3.34+  Mn214  1  0.57627150  0.49906456  0.92055839  1
  Mn3.34+  Mn215  1  0.92438253  0.50067198  0.91677744  1
  O2-  O216  1  0.00033184  0.15426319  -0.00218347  1
  O2-  O217  1  0.00375418  0.17497135  0.34815364  1
  O2-  O218  1  -0.00597927  0.14745413  0.67305956  1
  O2-  O219  1  -0.00223367  0.64185949  -0.00031142  1
  O2-  O220  1  -0.00757896  0.66509559  0.33482010  1
  O2-  O221  1  -0.00341938  0.64724176  0.67609152  1
  O2-  O222  1  0.33939616  0.15392777  -0.01749980  1
  O2-  O223  1  0.33482769  0.15586464  0.31695663  1
  O2-  O224  1  0.33521065  0.15562248  0.68076947  1
  O2-  O225  1  0.32523958  0.65968871  0.01550011  1
  O2-  O226  1  0.33689224  0.67141114  0.33329972  1
  O2-  O227  1  0.33462612  0.63768807  0.66334879  1
  O2-  O228  1  0.66764576  0.16262460  -0.00735158  1
  O2-  O229  1  0.67323331  0.18005910  0.33424017  1
  O2-  O230  1  0.66542962  0.14144070  0.66327656  1
  O2-  O231  1  0.66624590  0.65511201  0.00158649  1
  O2-  O232  1  0.67254167  0.66696710  0.32757894  1
  O2-  O233  1  0.66406465  0.66415094  0.65639934  1
  O2-  O234  1  0.16938479  0.14941015  -0.00769745  1
  O2-  O235  1  0.16204488  0.17125080  0.32862229  1
  O2-  O236  1  0.15123677  0.15992891  0.66493536  1
  O2-  O237  1  0.16113315  0.65450351  -0.00428334  1
  O2-  O238  1  0.16842249  0.64540327  0.33463428  1
  O2-  O239  1  0.16486184  0.65308126  0.66616507  1
  O2-  O240  1  0.50502504  0.17079494  0.00198715  1
  O2-  O241  1  0.51805313  0.18257763  0.31028432  1
  O2-  O242  1  0.50611455  0.14090096  0.67031922  1
  O2-  O243  1  0.49420202  0.64814975  -0.00160166  1
  O2-  O244  1  0.50766867  0.66012068  0.33918364  1
  O2-  O245  1  0.50471626  0.64537988  0.66426493  1
  O2-  O246  1  0.84183071  0.17309326  -0.00261896  1
  O2-  O247  1  0.81541539  0.16660144  0.33204536  1
  O2-  O248  1  0.83593882  0.13549684  0.66688825  1
  O2-  O249  1  0.82788128  0.65884711  -0.00247217  1
  O2-  O250  1  0.83838552  0.66584773  0.34234030  1
  O2-  O251  1  0.83059006  0.65997886  0.65477260  1
  O2-  O252  1  -0.00489678  0.34620536  -0.00119666  1
  O2-  O253  1  0.00132433  0.34849823  0.32963192  1
  O2-  O254  1  -0.00850716  0.34883296  0.67172035  1
  O2-  O255  1  0.00142149  0.85290652  0.00222782  1
  O2-  O256  1  -0.00672021  0.83870167  0.33219659  1
  O2-  O257  1  0.00278233  0.82430419  0.67268194  1
  O2-  O258  1  0.34085317  0.32584198  0.00020499  1
  O2-  O259  1  0.34112328  0.35849823  0.32450687  1
  O2-  O260  1  0.34117317  0.35006574  0.65892769  1
  O2-  O261  1  0.33686125  0.83292981  -0.00578411  1
  O2-  O262  1  0.32985640  0.80540263  0.33352304  1
  O2-  O263  1  0.32964031  0.84715181  0.67530009  1
  O2-  O264  1  0.66489131  0.33827790  0.00734292  1
  O2-  O265  1  0.66174382  0.31724633  0.33454923  1
  O2-  O266  1  0.66781730  0.34589596  0.66238168  1
  O2-  O267  1  0.67238743  0.83417159  -0.00375271  1
  O2-  O268  1  0.66749244  0.85376198  0.32880230  1
  O2-  O269  1  0.66590035  0.85255683  0.66649877  1
  O2-  O270  1  0.16931610  0.34218893  0.00102293  1
  O2-  O271  1  0.16630179  0.35119190  0.33319618  1
  O2-  O272  1  0.16583265  0.34148736  0.66385526  1
  O2-  O273  1  0.16910147  0.82071559  -0.00447267  1
  O2-  O274  1  0.15637217  0.83939235  0.32185022  1
  O2-  O275  1  0.16218160  0.83667348  0.67011599  1
  O2-  O276  1  0.49987495  0.33748141  0.00572780  1
  O2-  O277  1  0.50431684  0.34435828  0.33331346  1
  O2-  O278  1  0.50569538  0.34911098  0.67572503  1
  O2-  O279  1  0.50664194  0.84675288  0.00340626  1
  O2-  O280  1  0.49230068  0.85214779  0.32968553  1
  O2-  O281  1  0.49367127  0.85780088  0.66599648  1
  O2-  O282  1  0.83043247  0.32137415  -0.00041189  1
  O2-  O283  1  0.82935513  0.32969229  0.33321795  1
  O2-  O284  1  0.82797314  0.35700765  0.65867863  1
  O2-  O285  1  0.83077613  0.83692175  0.00403648  1
  O2-  O286  1  0.82858443  0.86004036  0.33082649  1
  O2-  O287  1  0.83764187  0.84752946  0.67318352  1
  O2-  O288  1  -0.00667738  0.16938020  0.14968157  1
  O2-  O289  1  0.00952866  0.18780109  0.50407778  1
  O2-  O290  1  0.00439956  0.18481056  0.84138990  1
  O2-  O291  1  -0.00417460  0.67305073  0.16432663  1
  O2-  O292  1  0.01289649  0.67981851  0.51812255  1
  O2-  O293  1  -0.01151323  0.69034609  0.82912992  1
  O2-  O294  1  0.32942457  0.18675872  0.16470755  1
  O2-  O295  1  0.32599983  0.15785704  0.51959590  1
  O2-  O296  1  0.33402233  0.18316155  0.83169185  1
  O2-  O297  1  0.33265003  0.69850739  0.16980887  1
  O2-  O298  1  0.33581322  0.69008353  0.49185184  1
  O2-  O299  1  0.33432536  0.68607244  0.82990468  1
  O2-  O300  1  0.66367365  0.17954043  0.16371312  1
  O2-  O301  1  0.67303850  0.18251115  0.51254636  1
  O2-  O302  1  0.65695874  0.17671656  0.82329146  1
  O2-  O303  1  0.66152384  0.69098780  0.16248717  1
  O2-  O304  1  0.66151510  0.67760504  0.49280173  1
  O2-  O305  1  0.66990201  0.67583515  0.84811365  1
  O2-  O306  1  0.16835120  0.18705147  0.15685215  1
  O2-  O307  1  0.16549285  0.17777274  0.48881395  1
  O2-  O308  1  0.17417541  0.18662486  0.82276901  1
  O2-  O309  1  0.16245842  0.69065108  0.17079330  1
  O2-  O310  1  0.16106180  0.67197046  0.49625298  1
  O2-  O311  1  0.17170317  0.69405581  0.83759185  1
  O2-  O312  1  0.51463914  0.18313351  0.17015107  1
  O2-  O313  1  0.50005214  0.18556128  0.50108527  1
  O2-  O314  1  0.50485232  0.18191263  0.82899087  1
  O2-  O315  1  0.49767237  0.67454611  0.17338602  1
  O2-  O316  1  0.49705583  0.68871252  0.49967332  1
  O2-  O317  1  0.50431431  0.68178610  0.82934562  1
  O2-  O318  1  0.81936458  0.18138559  0.15948015  1
  O2-  O319  1  0.83166671  0.17890715  0.50952838  1
  O2-  O320  1  0.83953905  0.19697764  0.84301575  1
  O2-  O321  1  0.82962465  0.69145572  0.15031264  1
  O2-  O322  1  0.83930340  0.68415583  0.49476411  1
  O2-  O323  1  0.83157412  0.67110431  0.84110638  1
  O2-  O324  1  -0.00195469  0.32651003  0.16525473  1
  O2-  O325  1  0.00373992  0.31484520  0.50394272  1
  O2-  O326  1  -0.00143761  0.31773168  0.83603770  1
  O2-  O327  1  0.00015765  0.82338278  0.17333009  1
  O2-  O328  1  -0.00589114  0.81879670  0.49689035  1
  O2-  O329  1  -0.00308880  0.82745396  0.83635149  1
  O2-  O330  1  0.33760221  0.31747567  0.16855849  1
  O2-  O331  1  0.32798150  0.32657156  0.49182797  1
  O2-  O332  1  0.33207339  0.31254914  0.83307849  1
  O2-  O333  1  0.34365643  0.82512649  0.17427704  1
  O2-  O334  1  0.33740793  0.82077372  0.50944328  1
  O2-  O335  1  0.33479630  0.80698966  0.83754829  1
  O2-  O336  1  0.66714815  0.30448393  0.16725111  1
  O2-  O337  1  0.66043373  0.31774926  0.49540934  1
  O2-  O338  1  0.67478828  0.31875223  0.83935090  1
  O2-  O339  1  0.66895914  0.81460187  0.16299406  1
  O2-  O340  1  0.65873992  0.82653913  0.48953523  1
  O2-  O341  1  0.66385914  0.81986972  0.83056045  1
  O2-  O342  1  0.15686993  0.31913665  0.17392766  1
  O2-  O343  1  0.17244720  0.31938576  0.49372756  1
  O2-  O344  1  0.16435178  0.32299141  0.83933919  1
  O2-  O345  1  0.16981948  0.81008751  0.16635618  1
  O2-  O346  1  0.16278505  0.82402359  0.49981256  1
  O2-  O347  1  0.16144316  0.80841131  0.82907926  1
  O2-  O348  1  0.49813911  0.31137443  0.17029531  1
  O2-  O349  1  0.49399968  0.31596771  0.50769952  1
  O2-  O350  1  0.49097662  0.32179529  0.84324087  1
  O2-  O351  1  0.49825799  0.82364735  0.17049240  1
  O2-  O352  1  0.49612618  0.82712195  0.49364606  1
  O2-  O353  1  0.50624657  0.82087467  0.83024309  1
  O2-  O354  1  0.83897804  0.32340113  0.15892294  1
  O2-  O355  1  0.83453810  0.31243926  0.49014648  1
  O2-  O356  1  0.84157336  0.31774978  0.82230786  1
  O2-  O357  1  0.82684959  0.82431495  0.16453510  1
  O2-  O358  1  0.82458369  0.81931333  0.51046765  1
  O2-  O359  1  0.82974830  0.82264436  0.83774875  1
  O2-  O360  1  0.09538873  0.08544456  0.10813339  1
  O2-  O361  1  0.06689791  0.07755576  0.44843925  1
  O2-  O362  1  0.09310098  0.08886791  0.78529914  1
  O2-  O363  1  0.10939343  0.57963312  0.10428916  1
  O2-  O364  1  0.07386579  0.57844602  0.45549561  1
  O2-  O365  1  0.08835561  0.58488248  0.79407460  1
  O2-  O366  1  0.41285739  0.07766450  0.10428698  1
  O2-  O367  1  0.45042244  0.08862712  0.41019189  1
  O2-  O368  1  0.43458455  0.08094179  0.79270429  1
  O2-  O369  1  0.40133084  0.58479718  0.12113976  1
  O2-  O370  1  0.40917397  0.58105150  0.43573781  1
  O2-  O371  1  0.40688473  0.57553811  0.79733401  1
  O2-  O372  1  0.75199006  0.07637183  0.10513193  1
  O2-  O373  1  0.75236756  0.07384088  0.43423077  1
  O2-  O374  1  0.74469862  0.08042190  0.80457485  1
  O2-  O375  1  0.75641766  0.58340444  0.10100042  1
  O2-  O376  1  0.75135130  0.56066205  0.46023362  1
  O2-  O377  1  0.75741136  0.57050001  0.79098409  1
  O2-  O378  1  0.24371518  0.08664139  0.21653310  1
  O2-  O379  1  0.24792372  0.07598777  0.58255250  1
  O2-  O380  1  0.24007820  0.08073936  0.86764373  1
  O2-  O381  1  0.26610602  0.58266308  0.22196215  1
  O2-  O382  1  0.24816065  0.58128858  0.53852403  1
  O2-  O383  1  0.24240129  0.57710503  0.88394532  1
  O2-  O384  1  0.58840751  0.07587736  0.23348878  1
  O2-  O385  1  0.60446630  0.08073477  0.53381187  1
  O2-  O386  1  0.57010597  0.08612265  0.89993731  1
  O2-  O387  1  0.59009899  0.58521055  0.25502289  1
  O2-  O388  1  0.57570513  0.58669788  0.53860881  1
  O2-  O389  1  0.60231185  0.57721873  0.87433241  1
  O2-  O390  1  0.90713761  0.07197407  0.21744879  1
  O2-  O391  1  0.90400444  0.07859732  0.53671999  1
  O2-  O392  1  0.91689708  0.08557341  0.88885893  1
  O2-  O393  1  0.89594702  0.57082780  0.22866831  1
  O2-  O394  1  0.93110183  0.58793189  0.55651409  1
  O2-  O395  1  0.91821784  0.58256337  0.88020954  1
  O2-  O396  1  0.06482916  0.41700755  0.10625221  1
  O2-  O397  1  0.09172308  0.42100761  0.45255519  1
  O2-  O398  1  0.05625438  0.42054608  0.78684404  1
  O2-  O399  1  0.09534046  0.92238670  0.13573567  1
  O2-  O400  1  0.08330495  0.91871897  0.41705329  1
  O2-  O401  1  0.09671392  0.92232716  0.78453995  1
  O2-  O402  1  0.42321047  0.41480161  0.11290499  1
  O2-  O403  1  0.40785117  0.41859770  0.44989909  1
  O2-  O404  1  0.41145646  0.41897695  0.79354520  1
  O2-  O405  1  0.42048087  0.91700946  0.09753519  1
  O2-  O406  1  0.39502097  0.92939490  0.45350130  1
  O2-  O407  1  0.41289903  0.91786109  0.80299995  1
  O2-  O408  1  0.77255609  0.42082900  0.09212945  1
  O2-  O409  1  0.75203142  0.42064916  0.45227757  1
  O2-  O410  1  0.77271180  0.41675260  0.79066459  1
  O2-  O411  1  0.74406949  0.91881131  0.09744900  1
  O2-  O412  1  0.74376194  0.91907299  0.45812092  1
  O2-  O413  1  0.73642782  0.92247483  0.78596142  1
  O2-  O414  1  0.23129262  0.41701544  0.21938470  1
  O2-  O415  1  0.23884108  0.41830155  0.55206188  1
  O2-  O416  1  0.25966793  0.41576787  0.89394721  1
  O2-  O417  1  0.27551904  0.92235515  0.23260782  1
  O2-  O418  1  0.25902036  0.91498550  0.56865111  1
  O2-  O419  1  0.25008197  0.91728169  0.87323179  1
  O2-  O420  1  0.57100059  0.41545634  0.21402722  1
  O2-  O421  1  0.57572354  0.41353747  0.54888740  1
  O2-  O422  1  0.59635342  0.41799735  0.89212704  1
  O2-  O423  1  0.57818238  0.91757771  0.21245324  1
  O2-  O424  1  0.56563787  0.92383262  0.54299958  1
  O2-  O425  1  0.58883550  0.91744883  0.89977008  1
  O2-  O426  1  0.92110590  0.42073494  0.21799930  1
  O2-  O427  1  0.92279983  0.41844964  0.54459176  1
  O2-  O428  1  0.90422868  0.41451800  0.89385954  1
  O2-  O429  1  0.92146193  0.91844070  0.21021404  1
  O2-  O430  1  0.90748751  0.91913292  0.55939760  1
  O2-  O431  1  0.89944826  0.91955441  0.90794960  1
  O2-  O432  1  0.00328518  -0.00649940  0.00502821  1
  O2-  O433  1  -0.00322266  -0.00257910  0.33411490  1
  O2-  O434  1  0.00578287  0.01870792  0.65016326  1
  O2-  O435  1  0.00063760  0.49400779  0.00049249  1
  O2-  O436  1  0.01653231  0.48737219  0.30216568  1
  O2-  O437  1  0.00805168  0.50435417  0.63896835  1
  O2-  O438  1  0.34644873  0.00523807  -0.03087544  1
  O2-  O439  1  0.32843320  0.01087844  0.33433518  1
  O2-  O440  1  0.34583746  -0.01782395  0.66302296  1
  O2-  O441  1  0.33284946  0.50084165  -0.01027627  1
  O2-  O442  1  0.31894681  0.49045181  0.35650484  1
  O2-  O443  1  0.32375874  0.50434454  0.68506074  1
  O2-  O444  1  0.67030365  0.00180621  -0.00219956  1
  O2-  O445  1  0.65478026  -0.01230051  0.35793975  1
  O2-  O446  1  0.66375305  0.02394847  0.68150047  1
  O2-  O447  1  0.66587760  0.50352156  -0.00155391  1
  O2-  O448  1  0.64378014  0.49717676  0.37732659  1
  O2-  O449  1  0.67556118  0.50196959  0.65839721  1
  O2-  O450  1  0.16874139  0.00397449  -0.00114821  1
  O2-  O451  1  0.15929860  -0.00316369  0.32297522  1
  O2-  O452  1  0.17511376  0.01851731  0.67249359  1
  O2-  O453  1  0.16275937  0.49553960  -0.02814643  1
  O2-  O454  1  0.16980723  0.49787210  0.34041082  1
  O2-  O455  1  0.16396805  0.52380388  0.66003985  1
  O2-  O456  1  0.51480855  0.00268714  0.00912720  1
  O2-  O457  1  0.49076145  -0.02436752  0.34292012  1
  O2-  O458  1  0.51161612  -0.00255254  0.69024106  1
  O2-  O459  1  0.49450016  0.47782540  0.00181295  1
  O2-  O460  1  0.48082434  0.48903488  0.31543986  1
  O2-  O461  1  0.49066528  0.51410682  0.65612192  1
  O2-  O462  1  0.83217940  0.00861077  0.01230237  1
  O2-  O463  1  0.81432135  0.00384543  0.30163093  1
  O2-  O464  1  0.81670829  0.00786688  0.63163750  1
  O2-  O465  1  0.82471815  0.51223973  -0.00903470  1
  O2-  O466  1  0.86384689  0.48476648  0.36528582  1
  O2-  O467  1  0.85169168  0.50015716  0.68560272  1
  O2-  O468  1  0.75195877  0.24572922  0.71364512  1
  O2-  O469  1  0.24300193  0.74958832  0.60429557  1
  O2-  O470  1  0.91856831  0.75018767  0.60711696  1
  O2-  O471  1  0.42312035  0.25055804  0.72036785  1
  O2-  O472  1  0.91872851  0.75268090  0.94658768  1
  O2-  O473  1  0.24346070  0.24747592  0.94284725  1
  O2-  O474  1  0.90362935  0.75609096  0.27048814  1
  O2-  O475  1  0.58612554  0.24832270  0.62041547  1
  O2-  O476  1  0.06123531  0.74299766  0.05878571  1
  O2-  O477  1  0.57628521  0.75332740  0.60794832  1
  O2-  O478  1  0.41024120  0.25278991  0.39567709  1
  O2-  O479  1  0.41738964  0.74958331  0.71526865  1
  O2-  O480  1  0.75521840  0.75870900  0.39128776  1
  O2-  O481  1  0.25630999  0.25467033  0.28105412  1
  O2-  O482  1  0.57534924  0.75078756  0.94292096  1
  O2-  O483  1  0.58937023  0.25250412  0.93323982  1
  O2-  O484  1  0.90544242  0.24574561  0.62023344  1
  O2-  O485  1  0.07587703  0.24972322  0.05563077  1
  O2-  O486  1  0.92112756  0.25130938  0.25922960  1
  O2-  O487  1  0.25914756  0.25175529  0.60325794  1
  O2-  O488  1  0.42956734  0.74913555  0.06192182  1
  O2-  O489  1  0.57760498  0.75448679  0.27354274  1
  O2-  O490  1  0.08806306  0.75220478  0.39868973  1
  O2-  O491  1  0.07534301  0.25124632  0.72186706  1
  O2-  O492  1  0.75260227  0.75869371  0.73128126  1
