# generated using pymatgen
data_Ca108Mn108O277
_symmetry_space_group_name_H-M   'P 1'
_cell_length_a   16.03054277
_cell_length_b   22.31275174
_cell_length_c   16.39266777
_cell_angle_alpha   89.99534882
_cell_angle_beta   90.00233588
_cell_angle_gamma   90.00351079
_symmetry_Int_Tables_number   1
_chemical_formula_structural   Ca108Mn108O277
_chemical_formula_sum   'Ca108 Mn108 O277'
_cell_volume   5863.41987610
_cell_formula_units_Z   1
loop_
 _symmetry_equiv_pos_site_id
 _symmetry_equiv_pos_as_xyz
  1  'x, y, z'
loop_
 _atom_type_symbol
 _atom_type_oxidation_number
  Ca2+  2.0
  Mn3.34+  3.34
  O2-  -2.0
loop_
 _atom_site_type_symbol
 _atom_site_label
 _atom_site_symmetry_multiplicity
 _atom_site_fract_x
 _atom_site_fract_y
 _atom_site_fract_z
 _atom_site_occupancy
  Ca2+  Ca0  1  0.08669419  0.25863917  0.25366190  1
  Ca2+  Ca1  1  0.06677062  0.24888331  0.59059961  1
  Ca2+  Ca2  1  0.08652681  0.23539309  0.91634322  1
  Ca2+  Ca3  1  0.09173963  0.75301945  0.24499065  1
  Ca2+  Ca4  1  0.07650867  0.76292261  0.58101409  1
  Ca2+  Ca5  1  0.09643362  0.76149134  0.92231857  1
  Ca2+  Ca6  1  0.43249795  0.25750637  0.23614362  1
  Ca2+  Ca7  1  0.43078793  0.25694156  0.57683132  1
  Ca2+  Ca8  1  0.41068785  0.24957490  0.92406899  1
  Ca2+  Ca9  1  0.42234371  0.74120950  0.24539879  1
  Ca2+  Ca10  1  0.40637619  0.74924623  0.59102171  1
  Ca2+  Ca11  1  0.39792016  0.75308211  0.92226792  1
  Ca2+  Ca12  1  0.73394412  0.25896059  0.25106926  1
  Ca2+  Ca13  1  0.75392005  0.23903269  0.60088001  1
  Ca2+  Ca14  1  0.74116306  0.24690665  0.91491622  1
  Ca2+  Ca15  1  0.73045206  0.74043561  0.26116746  1
  Ca2+  Ca16  1  0.77584504  0.73472250  0.57813788  1
  Ca2+  Ca17  1  0.75337156  0.76296539  0.91882699  1
  Ca2+  Ca18  1  0.25773464  0.25011135  0.06568046  1
  Ca2+  Ca19  1  0.24091384  0.25227927  0.41618175  1
  Ca2+  Ca20  1  0.23404062  0.25069031  0.78026377  1
  Ca2+  Ca21  1  0.25216910  0.75322732  0.08341366  1
  Ca2+  Ca22  1  0.24334037  0.75590526  0.41113928  1
  Ca2+  Ca23  1  0.24565608  0.75892981  0.75441213  1
  Ca2+  Ca24  1  0.58585994  0.24662726  0.07508842  1
  Ca2+  Ca25  1  0.59290312  0.25814016  0.41224326  1
  Ca2+  Ca26  1  0.61264689  0.24303416  0.76588580  1
  Ca2+  Ca27  1  0.57334937  0.74713755  0.10900024  1
  Ca2+  Ca28  1  0.58800338  0.73110822  0.40185594  1
  Ca2+  Ca29  1  0.56986296  0.74678419  0.74300389  1
  Ca2+  Ca30  1  0.90600104  0.25244023  0.06531726  1
  Ca2+  Ca31  1  0.91179822  0.25597208  0.43479837  1
  Ca2+  Ca32  1  0.89929458  0.24700152  0.75411946  1
  Ca2+  Ca33  1  0.93106438  0.75765311  0.08806641  1
  Ca2+  Ca34  1  0.91570702  0.74143005  0.43606449  1
  Ca2+  Ca35  1  0.92597690  0.74787311  0.73159484  1
  Ca2+  Ca36  1  0.25811268  0.59548134  0.40416771  1
  Ca2+  Ca37  1  0.94370759  0.56188234  0.06107619  1
  Ca2+  Ca38  1  0.26992219  0.60626569  0.76133898  1
  Ca2+  Ca39  1  0.77400313  0.55745397  0.92887940  1
  Ca2+  Ca40  1  0.39278658  0.59098750  0.92185752  1
  Ca2+  Ca41  1  0.44327948  0.60316750  0.59243490  1
  Ca2+  Ca42  1  0.04569717  0.60837868  0.57609012  1
  Ca2+  Ca43  1  0.10510207  0.59063239  0.23644710  1
  Ca2+  Ca44  1  0.11438704  0.57077753  0.94797183  1
  Ca2+  Ca45  1  0.06650424  0.07535740  0.61659199  1
  Ca2+  Ca46  1  0.70809489  0.58357428  0.27201677  1
  Ca2+  Ca47  1  0.41258639  0.09764261  0.92020182  1
  Ca2+  Ca48  1  0.42115134  0.08040818  0.59271889  1
  Ca2+  Ca49  1  0.60019340  0.08733860  0.41139433  1
  Ca2+  Ca50  1  0.24025970  0.08946458  0.41564609  1
  Ca2+  Ca51  1  0.41969574  0.09933672  0.24593325  1
  Ca2+  Ca52  1  0.40833567  0.07980310  0.59311589  1
  Ca2+  Ca53  1  0.61056905  0.08361446  0.41325574  1
  Ca2+  Ca54  1  0.26002351  0.60469462  0.76412976  1
  Ca2+  Ca55  1  0.91177141  0.10055121  0.42895182  1
  Ca2+  Ca56  1  0.46394351  0.59656184  0.24510861  1
  Ca2+  Ca57  1  0.43348630  0.60142474  0.59562061  1
  Ca2+  Ca58  1  0.61667813  0.08488086  0.07191617  1
  Ca2+  Ca59  1  0.93265163  0.56174467  0.05978788  1
  Ca2+  Ca60  1  0.90494106  0.11258231  0.77274009  1
  Ca2+  Ca61  1  0.21695841  0.09046432  0.76530200  1
  Ca2+  Ca62  1  0.08223093  0.09437103  0.24179678  1
  Ca2+  Ca63  1  0.09501088  0.09521201  0.24093513  1
  Ca2+  Ca64  1  0.91893373  0.09585408  0.04655995  1
  Ca2+  Ca65  1  0.61474633  0.11024794  0.76544105  1
  Ca2+  Ca66  1  0.23589146  0.09743218  0.04965581  1
  Ca2+  Ca67  1  0.89184451  0.59482190  0.72468060  1
  Ca2+  Ca68  1  0.60686615  0.08771760  0.06963231  1
  Ca2+  Ca69  1  0.05742627  0.60941545  0.58026175  1
  Ca2+  Ca70  1  0.75761390  0.11073065  0.91496454  1
  Ca2+  Ca71  1  0.07582013  0.07836566  0.61917209  1
  Ca2+  Ca72  1  0.43234264  0.41440800  0.25005232  1
  Ca2+  Ca73  1  0.60278064  0.41945620  0.09256278  1
  Ca2+  Ca74  1  0.95734918  0.92056523  0.73723637  1
  Ca2+  Ca75  1  0.90951578  0.40591601  0.75891922  1
  Ca2+  Ca76  1  0.59013937  0.90688099  0.42209366  1
  Ca2+  Ca77  1  0.92334799  0.89952769  0.42401630  1
  Ca2+  Ca78  1  0.26021473  0.40496303  0.41262848  1
  Ca2+  Ca79  1  0.41247008  0.88845446  0.24476483  1
  Ca2+  Ca80  1  0.73883643  0.92061547  0.94314746  1
  Ca2+  Ca81  1  0.92731467  0.91646199  0.07732641  1
  Ca2+  Ca82  1  0.92291049  0.41780337  0.05601265  1
  Ca2+  Ca83  1  0.08563315  0.40719752  0.23751894  1
  Ca2+  Ca84  1  0.61476859  0.41945077  0.09683358  1
  Ca2+  Ca85  1  0.94554200  0.91810308  0.73548146  1
  Ca2+  Ca86  1  0.42342312  0.41065642  0.58737370  1
  Ca2+  Ca87  1  0.58525245  0.39926446  0.75080391  1
  Ca2+  Ca88  1  0.08773827  0.89891306  0.24802872  1
  Ca2+  Ca89  1  0.22411454  0.91954042  0.74590278  1
  Ca2+  Ca90  1  0.42195792  0.90560890  0.59486044  1
  Ca2+  Ca91  1  0.38711604  0.41232046  0.91373791  1
  Ca2+  Ca92  1  0.76984602  0.41440640  0.93280395  1
  Ca2+  Ca93  1  0.43506675  0.40846190  0.58426204  1
  Ca2+  Ca94  1  0.88248399  0.41081358  0.41959300  1
  Ca2+  Ca95  1  0.40952293  0.90388926  0.59339638  1
  Ca2+  Ca96  1  0.07344213  0.39815215  0.58361710  1
  Ca2+  Ca97  1  0.91768191  0.91449588  0.07420869  1
  Ca2+  Ca98  1  0.57746600  0.90844974  0.42100517  1
  Ca2+  Ca99  1  0.58246450  0.89383124  0.75031420  1
  Ca2+  Ca100  1  0.23676932  0.42440973  0.05739761  1
  Ca2+  Ca101  1  0.75398298  0.89584010  0.58735155  1
  Ca2+  Ca102  1  0.24737283  0.40443753  0.41237286  1
  Ca2+  Ca103  1  0.59687066  0.40060474  0.75126051  1
  Ca2+  Ca104  1  0.08199382  0.41152970  0.93186269  1
  Ca2+  Ca105  1  0.61022393  0.42703722  0.38508069  1
  Ca2+  Ca106  1  0.74369912  0.90493038  0.24360182  1
  Ca2+  Ca107  1  0.73257224  0.90892807  0.23999475  1
  Mn3.34+  Mn108  1  0.08235627  0.33061603  0.08553258  1
  Mn3.34+  Mn109  1  0.07748042  0.33046446  0.41510018  1
  Mn3.34+  Mn110  1  0.07926764  0.33041116  0.75438158  1
  Mn3.34+  Mn111  1  0.08982464  0.84097056  0.08164153  1
  Mn3.34+  Mn112  1  0.08567108  0.83634342  0.41565804  1
  Mn3.34+  Mn113  1  0.08978712  0.83308213  0.75238164  1
  Mn3.34+  Mn114  1  0.41745996  0.33774032  0.08135709  1
  Mn3.34+  Mn115  1  0.42211717  0.33636975  0.41260464  1
  Mn3.34+  Mn116  1  0.41394824  0.33147674  0.75495368  1
  Mn3.34+  Mn117  1  0.41647085  0.82899901  0.07804083  1
  Mn3.34+  Mn118  1  0.41463343  0.82854710  0.42085738  1
  Mn3.34+  Mn119  1  0.41356167  0.83174311  0.76099719  1
  Mn3.34+  Mn120  1  0.75536603  0.33383075  0.08780678  1
  Mn3.34+  Mn121  1  0.74931272  0.33509584  0.41706363  1
  Mn3.34+  Mn122  1  0.75496399  0.33384665  0.75308615  1
  Mn3.34+  Mn123  1  0.75002674  0.83346798  0.08127266  1
  Mn3.34+  Mn124  1  0.75323927  0.83087871  0.41846435  1
  Mn3.34+  Mn125  1  0.75105083  0.82817905  0.75389361  1
  Mn3.34+  Mn126  1  0.25391241  0.33613397  0.23573664  1
  Mn3.34+  Mn127  1  0.24781506  0.32728836  0.58609601  1
  Mn3.34+  Mn128  1  0.24351269  0.33413411  0.91655137  1
  Mn3.34+  Mn129  1  0.25179992  0.82857622  0.24937930  1
  Mn3.34+  Mn130  1  0.24279279  0.83214089  0.58026604  1
  Mn3.34+  Mn131  1  0.25112732  0.84185256  0.92099133  1
  Mn3.34+  Mn132  1  0.58648725  0.33604116  0.24861758  1
  Mn3.34+  Mn133  1  0.59449269  0.33513849  0.57660818  1
  Mn3.34+  Mn134  1  0.58002304  0.33394794  0.92033086  1
  Mn3.34+  Mn135  1  0.58028409  0.83139556  0.24804291  1
  Mn3.34+  Mn136  1  0.58571786  0.82032527  0.58060287  1
  Mn3.34+  Mn137  1  0.57960645  0.83509884  0.91768300  1
  Mn3.34+  Mn138  1  0.91395029  0.33586978  0.24316796  1
  Mn3.34+  Mn139  1  0.90970939  0.33679965  0.58586727  1
  Mn3.34+  Mn140  1  0.91999921  0.33438100  0.91296083  1
  Mn3.34+  Mn141  1  0.91717753  0.83056360  0.25191589  1
  Mn3.34+  Mn142  1  0.91955233  0.83241118  0.58180537  1
  Mn3.34+  Mn143  1  0.92019182  0.83585679  0.90909733  1
  Mn3.34+  Mn144  1  0.24678210  0.16818910  0.58334739  1
  Mn3.34+  Mn145  1  0.58799356  0.16916535  0.58281649  1
  Mn3.34+  Mn146  1  0.90901804  0.66947009  0.91169517  1
  Mn3.34+  Mn147  1  0.75341326  0.17084521  0.08173628  1
  Mn3.34+  Mn148  1  0.57284374  0.67469215  0.91269724  1
  Mn3.34+  Mn149  1  0.41984011  0.16830206  0.41706002  1
  Mn3.34+  Mn150  1  0.25068634  0.17170881  0.24300460  1
  Mn3.34+  Mn151  1  0.08460015  0.66876838  0.75629121  1
  Mn3.34+  Mn152  1  0.41241044  0.66339665  0.08707757  1
  Mn3.34+  Mn153  1  0.58756661  0.16609771  0.24418155  1
  Mn3.34+  Mn154  1  0.74423010  0.64781492  0.42995718  1
  Mn3.34+  Mn155  1  0.41210592  0.16919055  0.75277127  1
  Mn3.34+  Mn156  1  0.73710820  0.66269016  0.74805783  1
  Mn3.34+  Mn157  1  0.41664280  0.16722980  0.08470119  1
  Mn3.34+  Mn158  1  0.25365599  0.66676775  0.24713342  1
  Mn3.34+  Mn159  1  0.24809153  0.67047133  0.92145482  1
  Mn3.34+  Mn160  1  0.91056420  0.16726220  0.58755128  1
  Mn3.34+  Mn161  1  0.08404536  0.16579301  0.42603395  1
  Mn3.34+  Mn162  1  0.08014778  0.17028533  0.08421985  1
  Mn3.34+  Mn163  1  0.90690012  0.17704570  0.24960929  1
  Mn3.34+  Mn164  1  0.75325818  0.66122768  0.08641413  1
  Mn3.34+  Mn165  1  0.24843926  0.66999967  0.57771307  1
  Mn3.34+  Mn166  1  0.08801792  0.66750973  0.08421157  1
  Mn3.34+  Mn167  1  0.75080911  0.16953061  0.41893728  1
  Mn3.34+  Mn168  1  0.92350965  0.65821911  0.25318191  1
  Mn3.34+  Mn169  1  0.91518594  0.17082158  0.24708862  1
  Mn3.34+  Mn170  1  0.42119361  0.17489746  0.75085851  1
  Mn3.34+  Mn171  1  0.74117752  0.65517021  0.08831665  1
  Mn3.34+  Mn172  1  0.91119312  0.66346772  0.25399252  1
  Mn3.34+  Mn173  1  0.40799018  0.16442178  0.41917974  1
  Mn3.34+  Mn174  1  0.59522808  0.67150734  0.58175143  1
  Mn3.34+  Mn175  1  0.41807688  0.66559674  0.41850672  1
  Mn3.34+  Mn176  1  0.58483809  0.66749145  0.90985662  1
  Mn3.34+  Mn177  1  0.08568487  0.67125483  0.41245931  1
  Mn3.34+  Mn178  1  0.92112885  0.66403060  0.91019034  1
  Mn3.34+  Mn179  1  0.07389524  0.16878902  0.76022713  1
  Mn3.34+  Mn180  1  0.60445901  0.50510849  0.58641567  1
  Mn3.34+  Mn181  1  0.59310190  0.00053534  0.58727947  1
  Mn3.34+  Mn182  1  0.75791386  -0.00034568  0.76114327  1
  Mn3.34+  Mn183  1  0.08371718  0.49743850  0.75614809  1
  Mn3.34+  Mn184  1  0.39957408  -0.00546987  0.40911205  1
  Mn3.34+  Mn185  1  0.58069210  -0.00297639  0.92154586  1
  Mn3.34+  Mn186  1  0.58368392  0.50788801  0.91656112  1
  Mn3.34+  Mn187  1  0.90370896  0.49734698  0.58956402  1
  Mn3.34+  Mn188  1  0.92094844  0.00388954  0.25018341  1
  Mn3.34+  Mn189  1  0.42447940  0.50664272  0.40683525  1
  Mn3.34+  Mn190  1  0.40776354  -0.00819653  0.08022028  1
  Mn3.34+  Mn191  1  0.08977993  0.00073318  0.41837118  1
  Mn3.34+  Mn192  1  0.07351845  0.50300645  0.75448955  1
  Mn3.34+  Mn193  1  0.91996259  -0.00112605  0.92893062  1
  Mn3.34+  Mn194  1  0.40893183  0.50267900  0.07751592  1
  Mn3.34+  Mn195  1  0.57521360  0.00213895  0.25580816  1
  Mn3.34+  Mn196  1  0.24512470  -0.00542978  0.23482536  1
  Mn3.34+  Mn197  1  0.25856582  0.50016499  0.24590882  1
  Mn3.34+  Mn198  1  0.25716977  0.00153491  0.23071781  1
  Mn3.34+  Mn199  1  0.42968796  0.50317267  0.74452026  1
  Mn3.34+  Mn200  1  0.57011837  0.50182026  0.91746021  1
  Mn3.34+  Mn201  1  0.74654238  0.50009428  0.73583923  1
  Mn3.34+  Mn202  1  0.24115822  0.50053102  0.58666871  1
  Mn3.34+  Mn203  1  0.90965376  0.00927279  0.24944663  1
  Mn3.34+  Mn204  1  0.06790656  0.49814126  0.41334063  1
  Mn3.34+  Mn205  1  0.41702173  -0.00224225  0.08364111  1
  Mn3.34+  Mn206  1  0.89344491  0.49226140  0.25451198  1
  Mn3.34+  Mn207  1  0.88003979  0.49465346  0.25469208  1
  Mn3.34+  Mn208  1  0.23830980  -0.00572562  0.93608304  1
  Mn3.34+  Mn209  1  0.74338234  -0.00576374  0.76062391  1
  Mn3.34+  Mn210  1  0.24434365  -0.00279022  0.58142383  1
  Mn3.34+  Mn211  1  0.08191225  0.50388126  0.40935461  1
  Mn3.34+  Mn212  1  0.90636759  -0.00002861  0.58182836  1
  Mn3.34+  Mn213  1  0.76163908  -0.00155541  0.42839327  1
  Mn3.34+  Mn214  1  0.41922789  -0.00181769  0.75592908  1
  Mn3.34+  Mn215  1  0.25590536  0.50633064  0.58683582  1
  O2-  O216  1  -0.00199405  0.18179708  0.01406709  1
  O2-  O217  1  -0.00186240  0.14976855  0.32895862  1
  O2-  O218  1  0.00040813  0.15998798  0.66153440  1
  O2-  O219  1  -0.01042451  0.64902349  0.00335607  1
  O2-  O220  1  0.00452503  0.64461634  0.33163338  1
  O2-  O221  1  -0.00202768  0.65472970  0.68496033  1
  O2-  O222  1  0.33969808  0.15984064  0.00440087  1
  O2-  O223  1  0.32778413  0.15549759  0.33191604  1
  O2-  O224  1  0.33284114  0.16309732  0.66702917  1
  O2-  O225  1  0.33135292  0.66028778  -0.00256494  1
  O2-  O226  1  0.33138362  0.66623249  0.33760152  1
  O2-  O227  1  0.33226471  0.65406711  0.65833055  1
  O2-  O228  1  0.66997036  0.15985972  0.00479902  1
  O2-  O229  1  0.66704083  0.15270892  0.33084965  1
  O2-  O230  1  0.66289017  0.16517492  0.66098805  1
  O2-  O231  1  0.66577593  0.65992675  -0.01059133  1
  O2-  O232  1  0.67833156  0.66587825  0.34498441  1
  O2-  O233  1  0.66836782  0.69940895  0.66491929  1
  O2-  O234  1  0.16123074  0.17711792  0.01318380  1
  O2-  O235  1  0.16625358  0.15399564  0.33106706  1
  O2-  O236  1  0.16160103  0.15392546  0.65907513  1
  O2-  O237  1  0.15608084  0.66141798  -0.00742471  1
  O2-  O238  1  0.16683417  0.65151708  0.33256293  1
  O2-  O239  1  0.16347128  0.63984171  0.66418311  1
  O2-  O240  1  0.50240469  0.14018569  0.01827635  1
  O2-  O241  1  0.50669836  0.13958388  0.33775748  1
  O2-  O242  1  0.49513538  0.15360113  0.66441458  1
  O2-  O243  1  0.49648525  0.65704433  -0.00566611  1
  O2-  O244  1  0.49056919  0.67285577  0.33573878  1
  O2-  O245  1  0.50295696  0.68094760  0.65526927  1
  O2-  O246  1  0.83479949  0.17006977  0.00463823  1
  O2-  O247  1  0.83735602  0.16015494  0.33832369  1
  O2-  O248  1  0.83796058  0.16044828  0.66670490  1
  O2-  O249  1  0.82840360  0.63811626  0.00191072  1
  O2-  O250  1  0.83172243  0.64007599  0.32635028  1
  O2-  O251  1  0.82479918  0.67512768  0.68102985  1
  O2-  O252  1  0.00212773  0.32484391  -0.00214265  1
  O2-  O253  1  0.00231400  0.34709379  0.32451303  1
  O2-  O254  1  -0.00437552  0.34774806  0.67057432  1
  O2-  O255  1  -0.00366386  0.84768317  0.00197896  1
  O2-  O256  1  -0.00085852  0.84777719  0.32975163  1
  O2-  O257  1  0.00300074  0.84298111  0.66408070  1
  O2-  O258  1  0.33061097  0.34404161  0.00277488  1
  O2-  O259  1  0.33394766  0.34759015  0.32827003  1
  O2-  O260  1  0.34418617  0.32525455  0.65719070  1
  O2-  O261  1  0.33718596  0.84016691  -0.00190108  1
  O2-  O262  1  0.34176015  0.82295996  0.33209393  1
  O2-  O263  1  0.33826663  0.83494389  0.66913036  1
  O2-  O264  1  0.66495097  0.35541787  0.00020866  1
  O2-  O265  1  0.66695993  0.33856646  0.33074425  1
  O2-  O266  1  0.66811216  0.34355947  0.66907713  1
  O2-  O267  1  0.67297067  0.83613581  -0.00838597  1
  O2-  O268  1  0.66772391  0.84910078  0.33465931  1
  O2-  O269  1  0.66869752  0.83388678  0.66463407  1
  O2-  O270  1  0.16587776  0.33630806  0.00649768  1
  O2-  O271  1  0.17333349  0.34068546  0.32801992  1
  O2-  O272  1  0.16127779  0.33797727  0.66184652  1
  O2-  O273  1  0.16714782  0.84324768  -0.00022447  1
  O2-  O274  1  0.16848492  0.84368982  0.33252311  1
  O2-  O275  1  0.17140725  0.84514405  0.66923105  1
  O2-  O276  1  0.49961477  0.36189619  -0.00000353  1
  O2-  O277  1  0.50533487  0.35140111  0.33417208  1
  O2-  O278  1  0.50174620  0.34433844  0.66619112  1
  O2-  O279  1  0.50766185  0.81515682  0.00189144  1
  O2-  O280  1  0.50325118  0.84778692  0.34068022  1
  O2-  O281  1  0.49846950  0.82207172  0.66345635  1
  O2-  O282  1  0.84063517  0.33928112  0.00359928  1
  O2-  O283  1  0.84185927  0.32938788  0.33678023  1
  O2-  O284  1  0.83592568  0.34738664  0.67433963  1
  O2-  O285  1  0.83722925  0.85281485  -0.00333453  1
  O2-  O286  1  0.83022469  0.85950661  0.32873569  1
  O2-  O287  1  0.84109809  0.84557456  0.67496519  1
  O2-  O288  1  0.00572641  0.18997760  0.17779470  1
  O2-  O289  1  -0.00405852  0.17954355  0.49813232  1
  O2-  O290  1  -0.00784077  0.18325606  0.82824564  1
  O2-  O291  1  0.00123036  0.68218260  0.17388654  1
  O2-  O292  1  0.01148400  0.68200622  0.49923679  1
  O2-  O293  1  0.00670918  0.69173197  0.83665347  1
  O2-  O294  1  0.33503041  0.18905572  0.16952560  1
  O2-  O295  1  0.33277082  0.19480943  0.50841641  1
  O2-  O296  1  0.33595459  0.18496005  0.83238807  1
  O2-  O297  1  0.33219821  0.68167059  0.16938293  1
  O2-  O298  1  0.33351486  0.68656736  0.50189412  1
  O2-  O299  1  0.32661754  0.68014574  0.83618735  1
  O2-  O300  1  0.66071424  0.18106177  0.16111570  1
  O2-  O301  1  0.65448210  0.17331071  0.48724118  1
  O2-  O302  1  0.67689488  0.17571601  0.84243520  1
  O2-  O303  1  0.66969623  0.67283134  0.17097110  1
  O2-  O304  1  0.67237156  0.68720806  0.50095777  1
  O2-  O305  1  0.66120114  0.69204983  0.83117102  1
  O2-  O306  1  0.15875492  0.18622830  0.17551093  1
  O2-  O307  1  0.17378577  0.19020415  0.50145911  1
  O2-  O308  1  0.16045438  0.17258026  0.82723839  1
  O2-  O309  1  0.16504011  0.67708042  0.16985355  1
  O2-  O310  1  0.16672785  0.68117013  0.49886678  1
  O2-  O311  1  0.17691553  0.67983391  0.82300084  1
  O2-  O312  1  0.49445733  0.17754174  0.17617435  1
  O2-  O313  1  0.49458153  0.17741607  0.50689296  1
  O2-  O314  1  0.50219519  0.18291401  0.82882964  1
  O2-  O315  1  0.49350101  0.67446147  0.16140133  1
  O2-  O316  1  0.49627630  0.68249663  0.50216981  1
  O2-  O317  1  0.49384663  0.69456507  0.83922206  1
  O2-  O318  1  0.83039077  0.19258123  0.16737859  1
  O2-  O319  1  0.83424944  0.17978646  0.49891924  1
  O2-  O320  1  0.83148091  0.18406919  0.84459497  1
  O2-  O321  1  0.84185802  0.68259441  0.16517937  1
  O2-  O322  1  0.82943874  0.67037081  0.48531835  1
  O2-  O323  1  0.82575645  0.68634295  0.83722375  1
  O2-  O324  1  -0.00056354  0.30832630  0.16404589  1
  O2-  O325  1  0.00074196  0.32246600  0.50619605  1
  O2-  O326  1  -0.00775895  0.31028117  0.83093633  1
  O2-  O327  1  0.00019187  0.82101832  0.17241098  1
  O2-  O328  1  -0.00513942  0.82226906  0.49132288  1
  O2-  O329  1  -0.00183437  0.82081059  0.82387473  1
  O2-  O330  1  0.33903467  0.31478860  0.16534999  1
  O2-  O331  1  0.33005230  0.32182799  0.49324267  1
  O2-  O332  1  0.33516935  0.32289513  0.83755580  1
  O2-  O333  1  0.33574661  0.81613246  0.17093105  1
  O2-  O334  1  0.33764280  0.81803160  0.50746800  1
  O2-  O335  1  0.32857923  0.81957098  0.83312769  1
  O2-  O336  1  0.66111081  0.32239649  0.16029457  1
  O2-  O337  1  0.66585348  0.31840883  0.49528972  1
  O2-  O338  1  0.66344416  0.32721205  0.83211903  1
  O2-  O339  1  0.67629289  0.82594887  0.17602809  1
  O2-  O340  1  0.65994604  0.82002237  0.49124486  1
  O2-  O341  1  0.66124517  0.81078961  0.82752383  1
  O2-  O342  1  0.16658650  0.31001672  0.16469772  1
  O2-  O343  1  0.17238811  0.32225929  0.49388484  1
  O2-  O344  1  0.15439646  0.32067070  0.84211158  1
  O2-  O345  1  0.16489839  0.82536167  0.17009084  1
  O2-  O346  1  0.16457275  0.81811521  0.49834088  1
  O2-  O347  1  0.16899920  0.82315340  0.83163681  1
  O2-  O348  1  0.50455766  0.32892151  0.16223822  1
  O2-  O349  1  0.49462534  0.32913829  0.50588082  1
  O2-  O350  1  0.50456813  0.31564061  0.82677227  1
  O2-  O351  1  0.49525490  0.82005613  0.17359774  1
  O2-  O352  1  0.49953856  0.80788911  0.49993193  1
  O2-  O353  1  0.50052209  0.81597386  0.83281462  1
  O2-  O354  1  0.83159948  0.31068196  0.16880157  1
  O2-  O355  1  0.83295889  0.32313251  0.50006546  1
  O2-  O356  1  0.83029423  0.32234847  0.84172062  1
  O2-  O357  1  0.83793163  0.82418598  0.16506017  1
  O2-  O358  1  0.83060396  0.82429060  0.50377086  1
  O2-  O359  1  0.83444851  0.81356768  0.83150122  1
  O2-  O360  1  0.07900741  0.09035962  0.10784568  1
  O2-  O361  1  0.09908394  0.08069973  0.47102103  1
  O2-  O362  1  0.06982785  0.08562344  0.75740816  1
  O2-  O363  1  0.07269274  0.58375789  0.10433008  1
  O2-  O364  1  0.09090686  0.58209037  0.44934443  1
  O2-  O365  1  0.08846431  0.58162512  0.79729297  1
  O2-  O366  1  0.39198858  0.07695886  0.12005397  1
  O2-  O367  1  0.39963253  0.07990010  0.45683081  1
  O2-  O368  1  0.40856328  0.08232098  0.77583939  1
  O2-  O369  1  0.40999028  0.57985432  0.11128047  1
  O2-  O370  1  0.39943561  0.57753069  0.46369103  1
  O2-  O371  1  0.40121717  0.58052821  0.77594799  1
  O2-  O372  1  0.75282487  0.08808334  0.09743563  1
  O2-  O373  1  0.75025062  0.08382319  0.44246796  1
  O2-  O374  1  0.75425150  0.07909990  0.78194871  1
  O2-  O375  1  0.75843640  0.57746766  0.11853413  1
  O2-  O376  1  0.72865762  0.57526611  0.43927878  1
  O2-  O377  1  0.75574275  0.57711923  0.78383133  1
  O2-  O378  1  0.22926547  0.08071722  0.19662651  1
  O2-  O379  1  0.27016702  0.07965568  0.55097509  1
  O2-  O380  1  0.25661666  0.06078365  0.88428494  1
  O2-  O381  1  0.25164679  0.58210618  0.23784975  1
  O2-  O382  1  0.24889705  0.58400647  0.54372725  1
  O2-  O383  1  0.24877965  0.58555053  0.89367290  1
  O2-  O384  1  0.57587585  0.08087190  0.20621655  1
  O2-  O385  1  0.56074639  0.07927898  0.54255810  1
  O2-  O386  1  0.56562896  0.06661474  0.87756669  1
  O2-  O387  1  0.58460163  0.55460832  0.22931550  1
  O2-  O388  1  0.57282844  0.58693740  0.56336366  1
  O2-  O389  1  0.57011378  0.58465326  0.87497645  1
  O2-  O390  1  0.93075460  0.08450623  0.19521889  1
  O2-  O391  1  0.93315467  0.08085964  0.56005509  1
  O2-  O392  1  0.90061456  0.07151032  0.89899180  1
  O2-  O393  1  0.92097626  0.57209948  0.20127179  1
  O2-  O394  1  0.91852827  0.57740211  0.57396722  1
  O2-  O395  1  0.91242566  0.58409167  0.88039003  1
  O2-  O396  1  0.08056720  0.40925320  0.10255242  1
  O2-  O397  1  0.10262215  0.41950173  0.44625545  1
  O2-  O398  1  0.06502770  0.41701244  0.78583387  1
  O2-  O399  1  0.05967349  0.91947240  0.11692715  1
  O2-  O400  1  0.06725435  0.91856006  0.42926512  1
  O2-  O401  1  0.08472580  0.91565613  0.77049286  1
  O2-  O402  1  0.40854083  0.42367680  0.11494724  1
  O2-  O403  1  0.39530903  0.42748518  0.45744550  1
  O2-  O404  1  0.44530767  0.42108622  0.77188466  1
  O2-  O405  1  0.42289980  0.91244493  0.11006739  1
  O2-  O406  1  0.43622470  0.91911071  0.45920191  1
  O2-  O407  1  0.43870338  0.91604171  0.74337871  1
  O2-  O408  1  0.74945747  0.41575533  0.10675597  1
  O2-  O409  1  0.74598687  0.41325412  0.43239476  1
  O2-  O410  1  0.74435935  0.42206846  0.78607335  1
  O2-  O411  1  0.77220211  0.92238449  0.11305860  1
  O2-  O412  1  0.72996644  0.91754748  0.45597527  1
  O2-  O413  1  0.74104749  0.91564543  0.78916870  1
  O2-  O414  1  0.24040496  0.42305225  0.20658827  1
  O2-  O415  1  0.25317001  0.41999256  0.55078974  1
  O2-  O416  1  0.24203227  0.41583088  0.90454608  1
  O2-  O417  1  0.26567011  0.91407996  0.23637300  1
  O2-  O418  1  0.27163691  0.91560946  0.56566148  1
  O2-  O419  1  0.25249284  0.92680231  0.88273591  1
  O2-  O420  1  0.58266793  0.41689684  0.22635503  1
  O2-  O421  1  0.57135888  0.42096831  0.55656146  1
  O2-  O422  1  0.57667850  0.42180712  0.88030859  1
  O2-  O423  1  0.59270606  0.91905690  0.23182966  1
  O2-  O424  1  0.56614008  0.91465545  0.55839205  1
  O2-  O425  1  0.59580455  0.92286625  0.88189623  1
  O2-  O426  1  0.92975637  0.42282974  0.19927544  1
  O2-  O427  1  0.92623693  0.42065909  0.55049451  1
  O2-  O428  1  0.92226658  0.41376396  0.89857627  1
  O2-  O429  1  0.91804294  0.92312073  0.21563955  1
  O2-  O430  1  0.90159824  0.91869479  0.55774098  1
  O2-  O431  1  0.91239241  0.93223796  0.86570479  1
  O2-  O432  1  -0.01498943  -0.00047898  0.01513293  1
  O2-  O433  1  0.00045800  0.02859112  0.33256750  1
  O2-  O434  1  -0.00476355  -0.00436533  0.66174655  1
  O2-  O435  1  0.01323953  0.49759260  -0.00650751  1
  O2-  O436  1  -0.00796377  0.49654197  0.32485521  1
  O2-  O437  1  0.02136407  0.50110836  0.64597874  1
  O2-  O438  1  0.33708561  0.01043494  -0.00945746  1
  O2-  O439  1  0.33959131  0.02339897  0.31251900  1
  O2-  O440  1  0.34006935  0.00041715  0.65675568  1
  O2-  O441  1  0.34542728  0.49583790  -0.00972359  1
  O2-  O442  1  0.32024118  0.48808611  0.34695053  1
  O2-  O443  1  0.32889274  0.49042176  0.67339241  1
  O2-  O444  1  0.67040850  0.01291626  -0.01658798  1
  O2-  O445  1  0.66087161  -0.00328028  0.35218215  1
  O2-  O446  1  0.65813615  -0.00396052  0.68482098  1
  O2-  O447  1  0.67872252  0.49037804  -0.01970480  1
  O2-  O448  1  0.65028870  0.51107314  0.33530997  1
  O2-  O449  1  0.63105997  0.49191359  0.70841260  1
  O2-  O450  1  0.17152985  0.00841882  0.01139702  1
  O2-  O451  1  0.16569249  0.02043230  0.32125589  1
  O2-  O452  1  0.17204901  0.01533780  0.66765947  1
  O2-  O453  1  0.15761093  0.48468071  -0.01314042  1
  O2-  O454  1  0.15835151  0.49305095  0.32023079  1
  O2-  O455  1  0.17636044  0.50884103  0.68431439  1
  O2-  O456  1  0.51070307  0.01150786  0.01261299  1
  O2-  O457  1  0.51168352  0.00937320  0.36390626  1
  O2-  O458  1  0.48891031  0.00700550  0.65032816  1
  O2-  O459  1  0.51629405  0.49547994  0.02271270  1
  O2-  O460  1  0.49124385  0.48757556  0.32569963  1
  O2-  O461  1  0.47096220  0.50327868  0.62067363  1
  O2-  O462  1  0.83695986  -0.01594187  -0.00549579  1
  O2-  O463  1  0.82970632  -0.01136018  0.32894909  1
  O2-  O464  1  0.83134935  -0.01265529  0.67287817  1
  O2-  O465  1  0.84879407  0.49917668  0.00912358  1
  O2-  O466  1  0.82627428  0.49726449  0.35164491  1
  O2-  O467  1  0.85916585  0.49482341  0.70110341  1
  O2-  O468  1  0.08016276  0.24769143  0.39024202  1
  O2-  O469  1  0.08878843  0.25047142  0.72675371  1
  O2-  O470  1  0.24406249  0.75326911  0.94018647  1
  O2-  O471  1  0.24176879  0.74795510  0.61256597  1
  O2-  O472  1  0.91112687  0.74647566  0.95193869  1
  O2-  O473  1  0.42832060  0.24967785  0.38374651  1
  O2-  O474  1  0.40862738  0.74676694  0.06570503  1
  O2-  O475  1  0.91266505  0.74874303  0.28431987  1
  O2-  O476  1  0.74394303  0.24863606  0.39470299  1
  O2-  O477  1  0.58582191  0.75345795  0.26403401  1
  O2-  O478  1  0.23627069  0.74802842  0.27020263  1
  O2-  O479  1  0.57920260  0.24851554  0.27346776  1
  O2-  O480  1  0.43266558  0.25135556  0.05911877  1
  O2-  O481  1  0.58168317  0.25720788  0.94084645  1
  O2-  O482  1  0.25019722  0.25372000  0.92833733  1
  O2-  O483  1  0.73940822  0.25436313  0.05659440  1
  O2-  O484  1  0.08445590  0.75114761  0.38559099  1
  O2-  O485  1  0.57735694  0.25216909  0.60077425  1
  O2-  O486  1  0.76660983  0.75504176  0.39160699  1
  O2-  O487  1  0.91397360  0.25229820  0.60419195  1
  O2-  O488  1  0.75283240  0.25577536  0.73582594  1
  O2-  O489  1  0.07800215  0.75179347  0.06327790  1
  O2-  O490  1  0.75288232  0.74259886  0.06193653  1
  O2-  O491  1  0.09040303  0.74830191  0.72084428  1
  O2-  O492  1  0.92060654  0.75293769  0.59392183  1
