# generated using pymatgen
data_Ca108Mn108O277
_symmetry_space_group_name_H-M   'P 1'
_cell_length_a   16.00565700
_cell_length_b   22.27569467
_cell_length_c   16.37223551
_cell_angle_alpha   90.00018768
_cell_angle_beta   90.00106847
_cell_angle_gamma   90.00050048
_symmetry_Int_Tables_number   1
_chemical_formula_structural   Ca108Mn108O277
_chemical_formula_sum   'Ca108 Mn108 O277'
_cell_volume   5837.30982972
_cell_formula_units_Z   1
loop_
 _symmetry_equiv_pos_site_id
 _symmetry_equiv_pos_as_xyz
  1  'x, y, z'
loop_
 _atom_type_symbol
 _atom_type_oxidation_number
  Ca2+  2.0
  Mn3.34+  3.34
  O2-  -2.0
loop_
 _atom_site_type_symbol
 _atom_site_label
 _atom_site_symmetry_multiplicity
 _atom_site_fract_x
 _atom_site_fract_y
 _atom_site_fract_z
 _atom_site_occupancy
  Ca2+  Ca0  1  0.09642687  0.24791780  0.23560317  1
  Ca2+  Ca1  1  0.09511422  0.24608667  0.59824001  1
  Ca2+  Ca2  1  0.07626636  0.25464354  0.91228087  1
  Ca2+  Ca3  1  0.08460088  0.74477321  0.25646550  1
  Ca2+  Ca4  1  0.09620718  0.76199750  0.57382696  1
  Ca2+  Ca5  1  0.08770735  0.75912241  0.91762793  1
  Ca2+  Ca6  1  0.40745534  0.23900322  0.25684595  1
  Ca2+  Ca7  1  0.40339877  0.24654987  0.57303765  1
  Ca2+  Ca8  1  0.42369807  0.24948374  0.91870886  1
  Ca2+  Ca9  1  0.41668460  0.75646889  0.24038195  1
  Ca2+  Ca10  1  0.41560962  0.75421107  0.58789969  1
  Ca2+  Ca11  1  0.42480747  0.74376423  0.91809511  1
  Ca2+  Ca12  1  0.74899269  0.24468758  0.24897798  1
  Ca2+  Ca13  1  0.75250249  0.24879377  0.60289664  1
  Ca2+  Ca14  1  0.74818420  0.23639419  0.89858028  1
  Ca2+  Ca15  1  0.74382513  0.76166161  0.24388961  1
  Ca2+  Ca16  1  0.73825199  0.75797366  0.59473399  1
  Ca2+  Ca17  1  0.73532160  0.74693664  0.90748944  1
  Ca2+  Ca18  1  0.24716184  0.24876046  0.09930710  1
  Ca2+  Ca19  1  0.26766116  0.23745113  0.41855430  1
  Ca2+  Ca20  1  0.24460555  0.24862550  0.73421484  1
  Ca2+  Ca21  1  0.25819551  0.74708491  0.08217792  1
  Ca2+  Ca22  1  0.24092158  0.75194406  0.41860677  1
  Ca2+  Ca23  1  0.25840361  0.75650237  0.74922640  1
  Ca2+  Ca24  1  0.58090253  0.24418744  0.08113926  1
  Ca2+  Ca25  1  0.56777431  0.24917263  0.41557591  1
  Ca2+  Ca26  1  0.59933127  0.24967015  0.75263767  1
  Ca2+  Ca27  1  0.57049896  0.74779909  0.07177156  1
  Ca2+  Ca28  1  0.57648797  0.76549780  0.42088756  1
  Ca2+  Ca29  1  0.58013756  0.74605136  0.75821603  1
  Ca2+  Ca30  1  0.92414171  0.25142083  0.07817043  1
  Ca2+  Ca31  1  0.90769688  0.25792287  0.42173935  1
  Ca2+  Ca32  1  0.90551867  0.25018402  0.75285924  1
  Ca2+  Ca33  1  0.91846739  0.75336628  0.08178603  1
  Ca2+  Ca34  1  0.93058358  0.75736761  0.41025996  1
  Ca2+  Ca35  1  0.90801059  0.75604418  0.75778712  1
  Ca2+  Ca36  1  0.60839548  0.10272311  0.76700089  1
  Ca2+  Ca37  1  0.90417318  0.58036993  0.75879255  1
  Ca2+  Ca38  1  0.92131127  0.59793287  0.40738262  1
  Ca2+  Ca39  1  0.42005597  0.60349868  0.91814170  1
  Ca2+  Ca40  1  0.25491488  0.59516537  0.08074924  1
  Ca2+  Ca41  1  0.26214003  0.59395079  0.75912600  1
  Ca2+  Ca42  1  0.72922586  0.09140637  0.24925503  1
  Ca2+  Ca43  1  0.40197215  0.60352801  0.23235441  1
  Ca2+  Ca44  1  0.91367424  0.57804832  0.76341772  1
  Ca2+  Ca45  1  0.39048808  0.09381793  0.57114002  1
  Ca2+  Ca46  1  0.11724273  0.09039350  0.24769461  1
  Ca2+  Ca47  1  0.25453816  0.09890827  0.10243131  1
  Ca2+  Ca48  1  0.09226727  0.61068552  0.24510522  1
  Ca2+  Ca49  1  0.58148430  0.10731300  0.08625451  1
  Ca2+  Ca50  1  0.73038453  0.58447515  0.59146121  1
  Ca2+  Ca51  1  0.90459930  0.09570445  0.08481299  1
  Ca2+  Ca52  1  0.24326762  0.08775186  0.72897251  1
  Ca2+  Ca53  1  0.89796531  0.10358673  0.75748008  1
  Ca2+  Ca54  1  0.57587325  0.60766703  0.75720137  1
  Ca2+  Ca55  1  0.91627685  0.09517708  0.08476368  1
  Ca2+  Ca56  1  0.11488187  0.09111318  0.58862573  1
  Ca2+  Ca57  1  0.90830064  0.08480013  0.41135719  1
  Ca2+  Ca58  1  0.93938338  0.58896248  0.07910470  1
  Ca2+  Ca59  1  0.58745127  0.59126956  0.43232010  1
  Ca2+  Ca60  1  0.57081280  0.09251827  0.41036873  1
  Ca2+  Ca61  1  0.42515989  0.59757094  0.60074946  1
  Ca2+  Ca62  1  0.73762232  0.09444631  0.59866370  1
  Ca2+  Ca63  1  0.56195041  0.59627619  0.07093672  1
  Ca2+  Ca64  1  0.90877130  0.10171192  0.75625723  1
  Ca2+  Ca65  1  0.08587671  0.57445400  0.93434812  1
  Ca2+  Ca66  1  0.09422808  0.59036871  0.58201062  1
  Ca2+  Ca67  1  0.92931113  0.59161215  0.08270299  1
  Ca2+  Ca68  1  0.40457475  0.10189880  0.25630300  1
  Ca2+  Ca69  1  0.26991819  0.59873160  0.75552148  1
  Ca2+  Ca70  1  0.10693795  0.08955607  0.24968068  1
  Ca2+  Ca71  1  0.75951858  0.59928694  0.25289438  1
  Ca2+  Ca72  1  0.93485454  0.41924106  0.05704258  1
  Ca2+  Ca73  1  0.25030563  0.90883072  0.74251254  1
  Ca2+  Ca74  1  0.41664551  0.39747762  0.23771824  1
  Ca2+  Ca75  1  0.42988088  0.40126197  0.58386942  1
  Ca2+  Ca76  1  0.59337593  0.90335922  0.09079329  1
  Ca2+  Ca77  1  0.90771665  0.40516216  0.43007262  1
  Ca2+  Ca78  1  0.06801562  0.41521608  0.59833967  1
  Ca2+  Ca79  1  0.08061222  0.41508967  0.59753221  1
  Ca2+  Ca80  1  0.57246705  0.40230163  0.07771997  1
  Ca2+  Ca81  1  0.24962247  0.90397429  0.08875692  1
  Ca2+  Ca82  1  0.75038100  0.40088516  0.24928586  1
  Ca2+  Ca83  1  0.73836488  0.90603805  0.56927349  1
  Ca2+  Ca84  1  0.25165060  0.41637750  0.06101425  1
  Ca2+  Ca85  1  0.92375131  0.41887710  0.05910658  1
  Ca2+  Ca86  1  0.23092273  0.41177211  0.76583243  1
  Ca2+  Ca87  1  0.92798674  0.41696716  0.75733439  1
  Ca2+  Ca88  1  0.91699809  0.41595433  0.75511126  1
  Ca2+  Ca89  1  0.73975474  0.40944645  0.58534118  1
  Ca2+  Ca90  1  0.92696712  0.90157976  0.75177968  1
  Ca2+  Ca91  1  0.25410530  0.39700928  0.42422847  1
  Ca2+  Ca92  1  0.40655669  0.40780444  0.92657637  1
  Ca2+  Ca93  1  0.24106923  0.41031045  0.76140398  1
  Ca2+  Ca94  1  0.08214907  0.90823075  0.25227904  1
  Ca2+  Ca95  1  0.58201908  0.90365341  0.09086067  1
  Ca2+  Ca96  1  0.73749737  0.40025343  0.24901448  1
  Ca2+  Ca97  1  0.09484149  0.90870515  0.25312013  1
  Ca2+  Ca98  1  0.41333367  0.90784648  0.57833509  1
  Ca2+  Ca99  1  0.91553431  0.90159798  0.75093433  1
  Ca2+  Ca100  1  0.57842415  0.90512718  0.74883090  1
  Ca2+  Ca101  1  0.75300375  0.40383133  0.90933334  1
  Ca2+  Ca102  1  0.25182482  0.91275248  0.42714991  1
  Ca2+  Ca103  1  0.41505498  0.90296611  0.91074467  1
  Ca2+  Ca104  1  0.91176334  0.90281360  0.09073290  1
  Ca2+  Ca105  1  0.08116053  0.40275197  0.23962912  1
  Ca2+  Ca106  1  0.73905041  0.90431889  0.91630065  1
  Ca2+  Ca107  1  0.09382811  0.40253551  0.23967435  1
  Mn3.34+  Mn108  1  0.08673823  0.33586592  0.07819722  1
  Mn3.34+  Mn109  1  0.08510414  0.32686251  0.41865281  1
  Mn3.34+  Mn110  1  0.08224447  0.33184073  0.75423416  1
  Mn3.34+  Mn111  1  0.08511006  0.83101570  0.08456514  1
  Mn3.34+  Mn112  1  0.08237101  0.83447382  0.42004208  1
  Mn3.34+  Mn113  1  0.08799762  0.83676127  0.74979245  1
  Mn3.34+  Mn114  1  0.41664673  0.33634065  0.08382797  1
  Mn3.34+  Mn115  1  0.42118191  0.32996334  0.41724600  1
  Mn3.34+  Mn116  1  0.42218561  0.33215427  0.75065886  1
  Mn3.34+  Mn117  1  0.41400114  0.83054783  0.08567066  1
  Mn3.34+  Mn118  1  0.41732711  0.83928307  0.41392115  1
  Mn3.34+  Mn119  1  0.41681123  0.83329107  0.75029980  1
  Mn3.34+  Mn120  1  0.74772035  0.32584668  0.07992883  1
  Mn3.34+  Mn121  1  0.74143758  0.33269967  0.42237183  1
  Mn3.34+  Mn122  1  0.74501927  0.33127446  0.75045843  1
  Mn3.34+  Mn123  1  0.75218362  0.83452648  0.08645369  1
  Mn3.34+  Mn124  1  0.75216618  0.84384757  0.41386380  1
  Mn3.34+  Mn125  1  0.74682889  0.83400941  0.74974459  1
  Mn3.34+  Mn126  1  0.25435010  0.32712940  0.25056018  1
  Mn3.34+  Mn127  1  0.25214075  0.33069032  0.58207652  1
  Mn3.34+  Mn128  1  0.25058504  0.33471640  0.91734140  1
  Mn3.34+  Mn129  1  0.25461102  0.83979145  0.25115046  1
  Mn3.34+  Mn130  1  0.25043593  0.83820696  0.58051395  1
  Mn3.34+  Mn131  1  0.24904902  0.83227138  0.91610745  1
  Mn3.34+  Mn132  1  0.57944401  0.32386317  0.24872612  1
  Mn3.34+  Mn133  1  0.58318094  0.34131959  0.58220028  1
  Mn3.34+  Mn134  1  0.58319414  0.32932151  0.91448665  1
  Mn3.34+  Mn135  1  0.58330988  0.83797112  0.25860370  1
  Mn3.34+  Mn136  1  0.58128990  0.83202067  0.57931083  1
  Mn3.34+  Mn137  1  0.58117111  0.83111108  0.91436681  1
  Mn3.34+  Mn138  1  0.91629606  0.32932759  0.24975989  1
  Mn3.34+  Mn139  1  0.91481123  0.33423763  0.58184749  1
  Mn3.34+  Mn140  1  0.91501729  0.33491408  0.91336500  1
  Mn3.34+  Mn141  1  0.91193837  0.83482703  0.25466902  1
  Mn3.34+  Mn142  1  0.91697642  0.83189996  0.57577706  1
  Mn3.34+  Mn143  1  0.91778157  0.82945555  0.92016671  1
  Mn3.34+  Mn144  1  0.91693449  0.16846582  0.58353646  1
  Mn3.34+  Mn145  1  0.57904872  0.67119050  0.24730258  1
  Mn3.34+  Mn146  1  0.07944224  0.66317327  0.75473177  1
  Mn3.34+  Mn147  1  0.08928758  0.17135354  0.41961580  1
  Mn3.34+  Mn148  1  0.41412897  0.16357107  0.41654622  1
  Mn3.34+  Mn149  1  0.91559518  0.66378248  0.91500746  1
  Mn3.34+  Mn150  1  0.25383327  0.16486552  0.91937572  1
  Mn3.34+  Mn151  1  0.08069495  0.16511436  0.42039038  1
  Mn3.34+  Mn152  1  0.08741913  0.66545895  0.08573053  1
  Mn3.34+  Mn153  1  0.92194829  0.66007791  0.58089740  1
  Mn3.34+  Mn154  1  0.08257570  0.16743860  0.08357849  1
  Mn3.34+  Mn155  1  0.91575647  0.16574277  0.24752540  1
  Mn3.34+  Mn156  1  0.74090926  0.16067879  0.41673170  1
  Mn3.34+  Mn157  1  0.09088902  0.66913554  0.75366886  1
  Mn3.34+  Mn158  1  0.41397328  0.66389174  0.08487411  1
  Mn3.34+  Mn159  1  0.91625035  0.17066992  0.91698357  1
  Mn3.34+  Mn160  1  0.42121611  0.17005232  0.08583782  1
  Mn3.34+  Mn161  1  0.74661415  0.67588088  0.41273117  1
  Mn3.34+  Mn162  1  0.24336093  0.16014743  0.91885489  1
  Mn3.34+  Mn163  1  0.08931139  0.67003626  0.41088001  1
  Mn3.34+  Mn164  1  0.90883643  0.66681136  0.58188266  1
  Mn3.34+  Mn165  1  0.74677265  0.67585356  0.41253095  1
  Mn3.34+  Mn166  1  0.58028220  0.16385760  0.58248362  1
  Mn3.34+  Mn167  1  0.75157206  0.66894867  0.08082549  1
  Mn3.34+  Mn168  1  0.42569159  0.16254703  0.75359460  1
  Mn3.34+  Mn169  1  0.24996963  0.66804063  0.57998446  1
  Mn3.34+  Mn170  1  0.41526447  0.16650111  0.75125660  1
  Mn3.34+  Mn171  1  0.74334171  0.16824391  0.07935615  1
  Mn3.34+  Mn172  1  0.25136633  0.66570183  0.91943632  1
  Mn3.34+  Mn173  1  0.08433836  0.16518144  0.75184401  1
  Mn3.34+  Mn174  1  0.74513167  0.66635268  0.75651097  1
  Mn3.34+  Mn175  1  0.41644501  0.67050752  0.41405108  1
  Mn3.34+  Mn176  1  0.75107283  0.16571831  0.41729633  1
  Mn3.34+  Mn177  1  0.74251163  0.66307218  0.08094092  1
  Mn3.34+  Mn178  1  0.40568663  0.66613885  0.41359095  1
  Mn3.34+  Mn179  1  0.58074864  0.66568647  0.58632883  1
  Mn3.34+  Mn180  1  0.08943951  -0.00004849  0.07929761  1
  Mn3.34+  Mn181  1  0.41874879  0.00241937  0.08550279  1
  Mn3.34+  Mn182  1  0.92534334  -0.00233410  0.91886365  1
  Mn3.34+  Mn183  1  0.92111442  0.49950773  0.24429946  1
  Mn3.34+  Mn184  1  0.08173648  0.49989977  0.42323341  1
  Mn3.34+  Mn185  1  0.42472433  0.49467611  0.42466208  1
  Mn3.34+  Mn186  1  0.24691893  0.50194083  0.58384143  1
  Mn3.34+  Mn187  1  0.42625531  0.49725467  0.75004971  1
  Mn3.34+  Mn188  1  0.74673421  0.49876232  0.42246599  1
  Mn3.34+  Mn189  1  0.91273668  0.00140117  0.57575480  1
  Mn3.34+  Mn190  1  0.73957902  0.49948430  0.73798452  1
  Mn3.34+  Mn191  1  0.25878892  0.49996809  0.24179442  1
  Mn3.34+  Mn192  1  0.08879218  -0.00208283  0.40936704  1
  Mn3.34+  Mn193  1  0.74684276  0.00191309  0.75021899  1
  Mn3.34+  Mn194  1  0.41136084  0.50092359  0.42517480  1
  Mn3.34+  Mn195  1  0.58742340  0.50474058  0.24491997  1
  Mn3.34+  Mn196  1  0.58302889  -0.00178492  0.58695579  1
  Mn3.34+  Mn197  1  0.24332211  -0.00280203  0.91917470  1
  Mn3.34+  Mn198  1  0.57437281  0.49874036  0.91559833  1
  Mn3.34+  Mn199  1  0.58916379  -0.00025859  0.26844868  1
  Mn3.34+  Mn200  1  0.43752897  0.50026550  0.74591407  1
  Mn3.34+  Mn201  1  0.91430207  0.00260886  0.91813952  1
  Mn3.34+  Mn202  1  0.09269064  0.50492488  0.42251903  1
  Mn3.34+  Mn203  1  0.41168034  0.00050656  0.73591697  1
  Mn3.34+  Mn204  1  0.90540092  -0.00209413  0.26726424  1
  Mn3.34+  Mn205  1  0.91056037  0.50337305  0.24631564  1
  Mn3.34+  Mn206  1  0.75105609  0.49932350  0.08002732  1
  Mn3.34+  Mn207  1  0.08984228  0.00211324  0.74347771  1
  Mn3.34+  Mn208  1  0.40893303  0.00078020  0.39848918  1
  Mn3.34+  Mn209  1  0.74520044  0.00022354  0.08633248  1
  Mn3.34+  Mn210  1  0.57673262  0.49942392  0.24498179  1
  Mn3.34+  Mn211  1  0.58513006  0.00491379  0.92165742  1
  Mn3.34+  Mn212  1  0.58866760  0.50517488  0.91775140  1
  Mn3.34+  Mn213  1  0.92685514  -0.00467657  0.57659481  1
  Mn3.34+  Mn214  1  0.40810416  -0.00202509  0.08706734  1
  Mn3.34+  Mn215  1  0.24806826  0.50522848  0.24200481  1
  O2-  O216  1  -0.00819428  0.16214062  0.00941594  1
  O2-  O217  1  0.00106766  0.16451799  0.33585011  1
  O2-  O218  1  -0.00214238  0.15946889  0.66913748  1
  O2-  O219  1  -0.00144245  0.66459549  0.00098285  1
  O2-  O220  1  0.00243198  0.66717558  0.33767295  1
  O2-  O221  1  -0.00081198  0.65948164  0.66935541  1
  O2-  O222  1  0.33152748  0.17123993  0.00359768  1
  O2-  O223  1  0.33865389  0.16745819  0.33541984  1
  O2-  O224  1  0.33612603  0.16218964  0.67343954  1
  O2-  O225  1  0.33182674  0.66368720  0.00033403  1
  O2-  O226  1  0.33580486  0.67222515  0.32639761  1
  O2-  O227  1  0.32511340  0.66240575  0.66836561  1
  O2-  O228  1  0.66660472  0.18250103  0.00329078  1
  O2-  O229  1  0.66573561  0.16909094  0.33027963  1
  O2-  O230  1  0.66103333  0.17184572  0.65979398  1
  O2-  O231  1  0.66129203  0.66673434  0.00545303  1
  O2-  O232  1  0.66201422  0.66336449  0.32917785  1
  O2-  O233  1  0.67094111  0.66202108  0.66478826  1
  O2-  O234  1  0.16603758  0.16548921  0.00572991  1
  O2-  O235  1  0.15884758  0.17080571  0.32921029  1
  O2-  O236  1  0.16264679  0.16386571  0.67257057  1
  O2-  O237  1  0.16366953  0.66798390  -0.00166539  1
  O2-  O238  1  0.16311477  0.67448849  0.33032298  1
  O2-  O239  1  0.16787461  0.65786494  0.66634473  1
  O2-  O240  1  0.49695092  0.18565414  0.00664422  1
  O2-  O241  1  0.49911364  0.16682679  0.33862819  1
  O2-  O242  1  0.49843993  0.16828258  0.66404062  1
  O2-  O243  1  0.49397214  0.66405220  0.00418648  1
  O2-  O244  1  0.50042175  0.65893805  0.33441156  1
  O2-  O245  1  0.50079676  0.66792268  0.66488677  1
  O2-  O246  1  0.83948041  0.16844173  0.00729080  1
  O2-  O247  1  0.83490691  0.16109653  0.33344901  1
  O2-  O248  1  0.83832519  0.16078289  0.66343027  1
  O2-  O249  1  0.83979215  0.66060436  0.00321253  1
  O2-  O250  1  0.83420151  0.67278825  0.32898576  1
  O2-  O251  1  0.83609921  0.65785826  0.67224887  1
  O2-  O252  1  -0.00631768  0.33701438  0.00414008  1
  O2-  O253  1  0.00387834  0.33504710  0.33291829  1
  O2-  O254  1  0.00157923  0.34078742  0.66545006  1
  O2-  O255  1  -0.00179393  0.82462633  0.00620893  1
  O2-  O256  1  0.00498133  0.82973178  0.32609341  1
  O2-  O257  1  -0.00667340  0.83525697  0.67443200  1
  O2-  O258  1  0.33619758  0.33061773  0.00065871  1
  O2-  O259  1  0.33310771  0.33933893  0.33448020  1
  O2-  O260  1  0.32857184  0.34331863  0.67047511  1
  O2-  O261  1  0.33394986  0.83755653  -0.00020736  1
  O2-  O262  1  0.32779022  0.82413122  0.33529745  1
  O2-  O263  1  0.33453803  0.82802151  0.66802128  1
  O2-  O264  1  0.66359114  0.32544305  0.00074831  1
  O2-  O265  1  0.67145580  0.33002109  0.32265819  1
  O2-  O266  1  0.66875839  0.32751632  0.66032557  1
  O2-  O267  1  0.66347194  0.84004499  0.00171771  1
  O2-  O268  1  0.67153491  0.81967489  0.33861245  1
  O2-  O269  1  0.66713994  0.83687549  0.66554648  1
  O2-  O270  1  0.17248204  0.33243820  0.00351117  1
  O2-  O271  1  0.16319008  0.33765110  0.32932981  1
  O2-  O272  1  0.16432048  0.34105742  0.66539827  1
  O2-  O273  1  0.16951079  0.82551849  0.00543264  1
  O2-  O274  1  0.16535415  0.83074321  0.32823404  1
  O2-  O275  1  0.17110599  0.83158435  0.66960982  1
  O2-  O276  1  0.49965579  0.32452864  0.00136685  1
  O2-  O277  1  0.49671295  0.32599814  0.32790856  1
  O2-  O278  1  0.49904512  0.32469009  0.65932296  1
  O2-  O279  1  0.50310518  0.84119873  0.00300211  1
  O2-  O280  1  0.49816818  0.82689477  0.33382829  1
  O2-  O281  1  0.49978467  0.82972886  0.66847330  1
  O2-  O282  1  0.83637958  0.33656506  0.00350774  1
  O2-  O283  1  0.83012714  0.34026548  0.33116621  1
  O2-  O284  1  0.83642445  0.34202522  0.67003550  1
  O2-  O285  1  0.83193512  0.83836623  0.00049651  1
  O2-  O286  1  0.83223414  0.81135945  0.33591722  1
  O2-  O287  1  0.83500544  0.83812410  0.67117835  1
  O2-  O288  1  -0.00085720  0.16543710  0.16610481  1
  O2-  O289  1  -0.00199890  0.17631037  0.49809901  1
  O2-  O290  1  -0.00552209  0.17146207  0.83021126  1
  O2-  O291  1  0.00032776  0.67701945  0.15554277  1
  O2-  O292  1  -0.00040610  0.66854719  0.49755747  1
  O2-  O293  1  -0.00259201  0.66978556  0.83480531  1
  O2-  O294  1  0.33587802  0.17783302  0.15814536  1
  O2-  O295  1  0.33954328  0.17068649  0.50012722  1
  O2-  O296  1  0.33307936  0.16987336  0.83286948  1
  O2-  O297  1  0.33515741  0.67498389  0.16240937  1
  O2-  O298  1  0.33746706  0.66948420  0.50584601  1
  O2-  O299  1  0.32713062  0.67011704  0.83488804  1
  O2-  O300  1  0.67169063  0.18106579  0.16343378  1
  O2-  O301  1  0.66411145  0.17579717  0.50208967  1
  O2-  O302  1  0.66077251  0.17922038  0.83273979  1
  O2-  O303  1  0.66817301  0.66790011  0.17083753  1
  O2-  O304  1  0.66427926  0.67429259  0.50068181  1
  O2-  O305  1  0.66394636  0.67328354  0.82628160  1
  O2-  O306  1  0.15861285  0.16914574  0.16574467  1
  O2-  O307  1  0.16330585  0.17719507  0.50277520  1
  O2-  O308  1  0.16947333  0.17128302  0.83190300  1
  O2-  O309  1  0.16335336  0.68098810  0.16034020  1
  O2-  O310  1  0.16048102  0.67175466  0.50705628  1
  O2-  O311  1  0.16980907  0.66766164  0.83737176  1
  O2-  O312  1  0.49744995  0.18044986  0.16472229  1
  O2-  O313  1  0.50122488  0.17544719  0.50094407  1
  O2-  O314  1  0.50430953  0.17660219  0.82800679  1
  O2-  O315  1  0.49977932  0.67053264  0.16601043  1
  O2-  O316  1  0.49819874  0.66854580  0.49621709  1
  O2-  O317  1  0.49572068  0.67643183  0.83044798  1
  O2-  O318  1  0.83485776  0.17324131  0.16078325  1
  O2-  O319  1  0.83379117  0.16920049  0.49805521  1
  O2-  O320  1  0.84141134  0.17360153  0.83420916  1
  O2-  O321  1  0.83191092  0.67022571  0.15992425  1
  O2-  O322  1  0.83142517  0.67334931  0.49768406  1
  O2-  O323  1  0.84121782  0.66751196  0.82587123  1
  O2-  O324  1  0.00070137  0.33514555  0.16744537  1
  O2-  O325  1  0.00135194  0.32664200  0.50022756  1
  O2-  O326  1  -0.00613271  0.33154896  0.82733006  1
  O2-  O327  1  0.00152525  0.82186937  0.16872613  1
  O2-  O328  1  0.00128604  0.82217613  0.49916106  1
  O2-  O329  1  -0.00608468  0.82966773  0.82855769  1
  O2-  O330  1  0.33355672  0.32705269  0.16471613  1
  O2-  O331  1  0.33391934  0.33227296  0.50036402  1
  O2-  O332  1  0.32938250  0.33453059  0.83081713  1
  O2-  O333  1  0.32807288  0.82237707  0.16471728  1
  O2-  O334  1  0.33364890  0.82973353  0.49975365  1
  O2-  O335  1  0.33560502  0.82433475  0.83206868  1
  O2-  O336  1  0.66909127  0.32214130  0.16935452  1
  O2-  O337  1  0.66507072  0.31960582  0.50703376  1
  O2-  O338  1  0.67141121  0.32368717  0.83954656  1
  O2-  O339  1  0.66286975  0.83079396  0.16183822  1
  O2-  O340  1  0.67191961  0.82304819  0.49970122  1
  O2-  O341  1  0.66746935  0.83171609  0.83392747  1
  O2-  O342  1  0.16380056  0.33388505  0.16990865  1
  O2-  O343  1  0.16420789  0.33015202  0.50301079  1
  O2-  O344  1  0.17161785  0.32999854  0.82764474  1
  O2-  O345  1  0.16543293  0.82072474  0.17085017  1
  O2-  O346  1  0.17129412  0.82861528  0.49439139  1
  O2-  O347  1  0.17012035  0.82727280  0.82962865  1
  O2-  O348  1  0.50000789  0.32083749  0.16353156  1
  O2-  O349  1  0.49927280  0.32141633  0.50545185  1
  O2-  O350  1  0.49686588  0.32069180  0.84004007  1
  O2-  O351  1  0.50586447  0.83122371  0.15913508  1
  O2-  O352  1  0.49497760  0.82894688  0.50518170  1
  O2-  O353  1  0.49924189  0.82665746  0.83231258  1
  O2-  O354  1  0.82935067  0.33108740  0.16638455  1
  O2-  O355  1  0.83481463  0.33119072  0.49977587  1
  O2-  O356  1  0.83565933  0.33321284  0.82977433  1
  O2-  O357  1  0.83904142  0.82255185  0.16543041  1
  O2-  O358  1  0.82669520  0.81953523  0.49986180  1
  O2-  O359  1  0.83499669  0.83364736  0.83052375  1
  O2-  O360  1  0.07575386  0.08091229  0.10676709  1
  O2-  O361  1  0.07475078  0.07839947  0.43873323  1
  O2-  O362  1  0.07399483  0.08199084  0.76539056  1
  O2-  O363  1  0.07776800  0.58362599  0.10246209  1
  O2-  O364  1  0.07809544  0.58608731  0.43272743  1
  O2-  O365  1  0.08365021  0.58010161  0.76973633  1
  O2-  O366  1  0.41819394  0.08478810  0.10241880  1
  O2-  O367  1  0.42638649  0.07746629  0.43624157  1
  O2-  O368  1  0.41699981  0.07997691  0.76656784  1
  O2-  O369  1  0.41473726  0.58184266  0.10027354  1
  O2-  O370  1  0.42175887  0.58188004  0.43569233  1
  O2-  O371  1  0.40909839  0.58200423  0.76971935  1
  O2-  O372  1  0.75993814  0.08153832  0.10659741  1
  O2-  O373  1  0.75022366  0.07983629  0.43895759  1
  O2-  O374  1  0.76098890  0.08108764  0.76195130  1
  O2-  O375  1  0.75311118  0.57952305  0.10576823  1
  O2-  O376  1  0.74958043  0.58176426  0.43858146  1
  O2-  O377  1  0.75877444  0.58025090  0.76242850  1
  O2-  O378  1  0.23621820  0.07228211  0.22217388  1
  O2-  O379  1  0.25042303  0.07838252  0.58311838  1
  O2-  O380  1  0.24910135  0.07877754  0.89364802  1
  O2-  O381  1  0.24846145  0.58570982  0.22631410  1
  O2-  O382  1  0.24940433  0.58310639  0.57468617  1
  O2-  O383  1  0.24725490  0.58127207  0.89443761  1
  O2-  O384  1  0.58411646  0.07040738  0.22159024  1
  O2-  O385  1  0.58743939  0.07742719  0.55789237  1
  O2-  O386  1  0.58602574  0.07880908  0.89712165  1
  O2-  O387  1  0.58207384  0.58601625  0.23276828  1
  O2-  O388  1  0.58486650  0.58459823  0.56413032  1
  O2-  O389  1  0.57500163  0.58308634  0.89929266  1
  O2-  O390  1  0.91726166  0.07883619  0.22643985  1
  O2-  O391  1  0.91874920  0.08303674  0.55903887  1
  O2-  O392  1  0.91644434  0.08493798  0.90185520  1
  O2-  O393  1  0.91335496  0.58512349  0.22672015  1
  O2-  O394  1  0.91225397  0.57845701  0.56179211  1
  O2-  O395  1  0.92626186  0.57980748  0.89701641  1
  O2-  O396  1  0.07369384  0.42146932  0.10787167  1
  O2-  O397  1  0.08334553  0.41784787  0.43279827  1
  O2-  O398  1  0.08834269  0.41622768  0.75375843  1
  O2-  O399  1  0.08434949  0.92007497  0.11287710  1
  O2-  O400  1  0.09321239  0.91647633  0.41257530  1
  O2-  O401  1  0.07045941  0.92091963  0.76321072  1
  O2-  O402  1  0.41996460  0.41834868  0.09954458  1
  O2-  O403  1  0.41432208  0.41388283  0.43172199  1
  O2-  O404  1  0.41186561  0.41627381  0.76636051  1
  O2-  O405  1  0.41700329  0.91520353  0.09559859  1
  O2-  O406  1  0.40737306  0.92439318  0.43694972  1
  O2-  O407  1  0.41567352  0.92216032  0.76830227  1
  O2-  O408  1  0.74791753  0.41902673  0.10862754  1
  O2-  O409  1  0.75565736  0.41651735  0.42968197  1
  O2-  O410  1  0.76133236  0.42046488  0.76693550  1
  O2-  O411  1  0.74383699  0.91767534  0.09384491  1
  O2-  O412  1  0.75199634  0.92004633  0.43391151  1
  O2-  O413  1  0.75778687  0.91969542  0.76859852  1
  O2-  O414  1  0.24211476  0.41693656  0.23591982  1
  O2-  O415  1  0.24159756  0.41999984  0.56446042  1
  O2-  O416  1  0.25849918  0.41999858  0.89909484  1
  O2-  O417  1  0.22967752  0.91893046  0.22918430  1
  O2-  O418  1  0.26256258  0.91738538  0.57241535  1
  O2-  O419  1  0.25829647  0.91708507  0.89668269  1
  O2-  O420  1  0.59247160  0.41634905  0.22981570  1
  O2-  O421  1  0.58388451  0.41835673  0.57043023  1
  O2-  O422  1  0.58526407  0.41825869  0.91269244  1
  O2-  O423  1  0.58375661  0.92601729  0.22520187  1
  O2-  O424  1  0.58515079  0.91596422  0.57658761  1
  O2-  O425  1  0.58251986  0.92215575  0.89531309  1
  O2-  O426  1  0.91944844  0.41617678  0.24002671  1
  O2-  O427  1  0.92896514  0.41806223  0.56579253  1
  O2-  O428  1  0.90760375  0.41940781  0.90183436  1
  O2-  O429  1  0.93384086  0.92288967  0.22795247  1
  O2-  O430  1  0.90970732  0.91456231  0.57738535  1
  O2-  O431  1  0.91420633  0.91569108  0.90097245  1
  O2-  O432  1  -0.00792053  0.00515900  0.01566990  1
  O2-  O433  1  0.00429180  0.00726317  0.32362417  1
  O2-  O434  1  -0.00429872  0.00357333  0.67261616  1
  O2-  O435  1  -0.01352170  0.50658984  0.02673054  1
  O2-  O436  1  -0.00029598  0.50145294  0.33476013  1
  O2-  O437  1  -0.00628304  0.49316597  0.67892069  1
  O2-  O438  1  0.33071622  -0.00216824  0.00076669  1
  O2-  O439  1  0.32825621  0.00316592  0.33620782  1
  O2-  O440  1  0.32941952  0.00287729  0.67064650  1
  O2-  O441  1  0.32313138  0.50239875  0.00352859  1
  O2-  O442  1  0.33449076  0.49993171  0.33338364  1
  O2-  O443  1  0.32969228  0.50177771  0.67359895  1
  O2-  O444  1  0.66195500  -0.00553752  0.00653530  1
  O2-  O445  1  0.66948126  0.01132098  0.33015752  1
  O2-  O446  1  0.66875124  0.00343391  0.66503231  1
  O2-  O447  1  0.66772280  0.49993907  -0.00111534  1
  O2-  O448  1  0.67160055  0.50181351  0.32841413  1
  O2-  O449  1  0.67272060  0.50465923  0.65789735  1
  O2-  O450  1  0.17581297  0.00241331  0.01230520  1
  O2-  O451  1  0.15499368  -0.00001329  0.32206312  1
  O2-  O452  1  0.17247973  0.00719056  0.67673620  1
  O2-  O453  1  0.17818245  0.50869734  0.00960388  1
  O2-  O454  1  0.16367381  0.49886774  0.32773715  1
  O2-  O455  1  0.16663875  0.49588902  0.66354559  1
  O2-  O456  1  0.50282439  -0.00270504  0.00491227  1
  O2-  O457  1  0.50153925  0.00908918  0.33525854  1
  O2-  O458  1  0.50072788  -0.00089502  0.66827184  1
  O2-  O459  1  0.49727661  0.50101360  -0.00289378  1
  O2-  O460  1  0.50001624  0.50453198  0.33418914  1
  O2-  O461  1  0.49805868  0.50728618  0.65421717  1
  O2-  O462  1  0.83744423  0.00227217  0.01014681  1
  O2-  O463  1  0.82920011  0.01520744  0.33445525  1
  O2-  O464  1  0.83509751  0.00234205  0.66657897  1
  O2-  O465  1  0.84459512  0.49679418  0.02293400  1
  O2-  O466  1  0.83420208  0.50184769  0.33583657  1
  O2-  O467  1  0.84021129  0.50134949  0.68640271  1
  O2-  O468  1  0.75334701  0.25190811  0.74691358  1
  O2-  O469  1  0.07914077  0.25081034  0.08404380  1
  O2-  O470  1  0.91243746  0.74754158  0.91773606  1
  O2-  O471  1  0.08029338  0.75039126  0.74738077  1
  O2-  O472  1  0.25099037  0.25242483  0.59085942  1
  O2-  O473  1  0.24731780  0.25015116  0.25209611  1
  O2-  O474  1  0.74994325  0.75238931  0.07956092  1
  O2-  O475  1  0.42008827  0.75319954  0.41796132  1
  O2-  O476  1  0.91600982  0.24856760  0.25458038  1
  O2-  O477  1  0.92190793  0.25212160  0.92327079  1
  O2-  O478  1  0.24913145  0.74992318  0.58580750  1
  O2-  O479  1  0.75667315  0.24884457  0.40923806  1
  O2-  O480  1  0.41254266  0.24953003  0.41530779  1
  O2-  O481  1  0.42002979  0.75001619  0.07699152  1
  O2-  O482  1  0.08348195  0.75183971  0.41684630  1
  O2-  O483  1  0.91482804  0.25085785  0.58799736  1
  O2-  O484  1  0.58482604  0.74995019  0.58489288  1
  O2-  O485  1  0.40801849  0.24953782  0.74695947  1
  O2-  O486  1  0.91694903  0.74862222  0.59278588  1
  O2-  O487  1  0.75425332  0.75014000  0.74555515  1
  O2-  O488  1  0.24875331  0.74934358  0.91985070  1
  O2-  O489  1  0.24923430  0.24887456  0.91674686  1
  O2-  O490  1  0.58262784  0.75058823  0.25043754  1
  O2-  O491  1  0.58372285  0.75237808  0.92145117  1
  O2-  O492  1  0.08327954  0.24958111  0.74503045  1
