# generated using pymatgen
data_Ca108Mn108O277
_symmetry_space_group_name_H-M   'P 1'
_cell_length_a   16.02899218
_cell_length_b   22.30764746
_cell_length_c   16.39092927
_cell_angle_alpha   90.00475199
_cell_angle_beta   89.99346068
_cell_angle_gamma   89.99979973
_symmetry_Int_Tables_number   1
_chemical_formula_structural   Ca108Mn108O277
_chemical_formula_sum   'Ca108 Mn108 O277'
_cell_volume   5860.88987703
_cell_formula_units_Z   1
loop_
 _symmetry_equiv_pos_site_id
 _symmetry_equiv_pos_as_xyz
  1  'x, y, z'
loop_
 _atom_type_symbol
 _atom_type_oxidation_number
  Ca2+  2.0
  Mn3.34+  3.34
  O2-  -2.0
loop_
 _atom_site_type_symbol
 _atom_site_label
 _atom_site_symmetry_multiplicity
 _atom_site_fract_x
 _atom_site_fract_y
 _atom_site_fract_z
 _atom_site_occupancy
  Ca2+  Ca0  1  0.10331296  0.25016339  0.23870300  1
  Ca2+  Ca1  1  0.09064630  0.25100630  0.59562544  1
  Ca2+  Ca2  1  0.08422611  0.24613925  0.90958867  1
  Ca2+  Ca3  1  0.05761730  0.74306474  0.26811690  1
  Ca2+  Ca4  1  0.06804482  0.75004400  0.56473181  1
  Ca2+  Ca5  1  0.08719384  0.75817142  0.91714562  1
  Ca2+  Ca6  1  0.39974799  0.23760559  0.24518283  1
  Ca2+  Ca7  1  0.42680220  0.24799737  0.58471173  1
  Ca2+  Ca8  1  0.40464315  0.24706425  0.93066105  1
  Ca2+  Ca9  1  0.42917597  0.75686145  0.25407671  1
  Ca2+  Ca10  1  0.41598407  0.76219579  0.59112532  1
  Ca2+  Ca11  1  0.43043795  0.74613897  0.91104616  1
  Ca2+  Ca12  1  0.75387792  0.23526142  0.26051534  1
  Ca2+  Ca13  1  0.73862571  0.23731932  0.58492719  1
  Ca2+  Ca14  1  0.75413075  0.24392444  0.89680395  1
  Ca2+  Ca15  1  0.76882839  0.74124831  0.27053760  1
  Ca2+  Ca16  1  0.76597879  0.75907890  0.56212717  1
  Ca2+  Ca17  1  0.73139597  0.75734797  0.91864744  1
  Ca2+  Ca18  1  0.26449402  0.25435475  0.09068127  1
  Ca2+  Ca19  1  0.26492645  0.24896162  0.40485074  1
  Ca2+  Ca20  1  0.25625694  0.24269735  0.74593905  1
  Ca2+  Ca21  1  0.24592301  0.75755086  0.07586659  1
  Ca2+  Ca22  1  0.23716999  0.76045336  0.41587321  1
  Ca2+  Ca23  1  0.25014010  0.76090290  0.76166188  1
  Ca2+  Ca24  1  0.56271782  0.24914760  0.08557463  1
  Ca2+  Ca25  1  0.59597326  0.23910029  0.42486706  1
  Ca2+  Ca26  1  0.59605698  0.24034189  0.73496780  1
  Ca2+  Ca27  1  0.58193092  0.75003986  0.07498190  1
  Ca2+  Ca28  1  0.61110330  0.74955613  0.39869541  1
  Ca2+  Ca29  1  0.57470748  0.75393547  0.77695551  1
  Ca2+  Ca30  1  0.91496191  0.24634748  0.08353735  1
  Ca2+  Ca31  1  0.88927222  0.24541573  0.40944364  1
  Ca2+  Ca32  1  0.89926097  0.24182759  0.75561386  1
  Ca2+  Ca33  1  0.91888052  0.75634492  0.11071662  1
  Ca2+  Ca34  1  0.91462537  0.73860938  0.40631327  1
  Ca2+  Ca35  1  0.92256317  0.76631567  0.74921145  1
  Ca2+  Ca36  1  0.88263726  0.09650231  0.75183187  1
  Ca2+  Ca37  1  0.11066218  0.10993536  0.60284196  1
  Ca2+  Ca38  1  0.19886382  0.57735323  0.40971423  1
  Ca2+  Ca39  1  0.73975833  0.59648109  0.56359494  1
  Ca2+  Ca40  1  0.93071840  0.60157963  0.10786767  1
  Ca2+  Ca41  1  0.61980369  0.08130980  0.72992739  1
  Ca2+  Ca42  1  0.41977847  0.57149087  0.59327030  1
  Ca2+  Ca43  1  0.25843583  0.57016025  0.07095227  1
  Ca2+  Ca44  1  0.25928217  0.59382874  0.75459533  1
  Ca2+  Ca45  1  0.07985415  0.10565814  0.90256092  1
  Ca2+  Ca46  1  0.25924991  0.11300640  0.10167644  1
  Ca2+  Ca47  1  0.07780638  0.59886015  0.56005619  1
  Ca2+  Ca48  1  0.93639341  0.59781947  0.41321706  1
  Ca2+  Ca49  1  0.26904249  0.09980663  0.40656833  1
  Ca2+  Ca50  1  0.75372843  0.08923529  0.90723610  1
  Ca2+  Ca51  1  0.56675682  0.58948406  0.74662563  1
  Ca2+  Ca52  1  0.42430064  0.58870530  0.92338986  1
  Ca2+  Ca53  1  0.57772072  0.58877741  0.74913524  1
  Ca2+  Ca54  1  0.59578668  0.59124563  0.37722657  1
  Ca2+  Ca55  1  0.73391073  0.08821316  0.59201810  1
  Ca2+  Ca56  1  0.09949918  0.10882039  0.60506511  1
  Ca2+  Ca57  1  0.89302493  0.09645196  0.75051701  1
  Ca2+  Ca58  1  0.91149434  0.58049080  0.74239613  1
  Ca2+  Ca59  1  0.72110715  0.59856419  0.91994289  1
  Ca2+  Ca60  1  0.05912873  0.59007620  0.27516894  1
  Ca2+  Ca61  1  0.75994712  0.60362153  0.27054970  1
  Ca2+  Ca62  1  0.25107642  0.57639531  0.07163287  1
  Ca2+  Ca63  1  0.87825566  0.09561828  0.41315770  1
  Ca2+  Ca64  1  0.40709765  0.09352231  0.93842677  1
  Ca2+  Ca65  1  0.26842353  0.11087930  0.09792403  1
  Ca2+  Ca66  1  0.40974660  0.10549565  0.58053292  1
  Ca2+  Ca67  1  0.23957356  0.11343727  0.75133191  1
  Ca2+  Ca68  1  0.75257651  0.59683274  0.56290834  1
  Ca2+  Ca69  1  0.09393336  0.58503699  0.92789779  1
  Ca2+  Ca70  1  0.09382592  0.09994674  0.24139502  1
  Ca2+  Ca71  1  0.92242243  0.58429476  0.73793831  1
  Ca2+  Ca72  1  0.90659376  0.91714680  0.74375356  1
  Ca2+  Ca73  1  0.59586323  0.91563214  0.08113697  1
  Ca2+  Ca74  1  0.74546404  0.92707441  0.58770944  1
  Ca2+  Ca75  1  0.60684302  0.92423103  0.72345511  1
  Ca2+  Ca76  1  0.43623327  0.40890057  0.58277583  1
  Ca2+  Ca77  1  0.74733009  0.39684889  0.24699721  1
  Ca2+  Ca78  1  0.08972466  0.89583410  0.58215667  1
  Ca2+  Ca79  1  0.93299789  0.40571851  0.41498134  1
  Ca2+  Ca80  1  0.24887989  0.91451764  0.07978124  1
  Ca2+  Ca81  1  0.08406155  0.40541076  0.92887053  1
  Ca2+  Ca82  1  0.26497853  0.39473004  0.74378759  1
  Ca2+  Ca83  1  0.08967588  0.39863894  0.57085913  1
  Ca2+  Ca84  1  0.91288313  0.90861332  0.41742090  1
  Ca2+  Ca85  1  0.59634331  0.92497850  0.72391902  1
  Ca2+  Ca86  1  0.27031354  0.40924286  0.09023496  1
  Ca2+  Ca87  1  0.09334263  0.41458552  0.27023439  1
  Ca2+  Ca88  1  0.56837231  0.40457797  0.42049594  1
  Ca2+  Ca89  1  0.23714321  0.91215140  0.08313277  1
  Ca2+  Ca90  1  0.76127139  0.91032383  0.24596729  1
  Ca2+  Ca91  1  0.73535182  0.39669171  0.24569075  1
  Ca2+  Ca92  1  0.90646038  0.39711605  0.74810589  1
  Ca2+  Ca93  1  0.41919325  0.90721311  0.57687561  1
  Ca2+  Ca94  1  0.75153663  0.91784107  0.91426790  1
  Ca2+  Ca95  1  0.25301281  0.39490252  0.74269208  1
  Ca2+  Ca96  1  0.73415673  0.39815982  0.58384931  1
  Ca2+  Ca97  1  0.55088576  0.41352691  0.09553786  1
  Ca2+  Ca98  1  0.08277971  0.90536200  0.91943661  1
  Ca2+  Ca99  1  0.75239499  0.91319501  0.24976388  1
  Ca2+  Ca100  1  0.41631292  0.40854326  0.93498177  1
  Ca2+  Ca101  1  0.41405095  0.90762732  0.26578312  1
  Ca2+  Ca102  1  0.92391726  0.39885907  0.08448889  1
  Ca2+  Ca103  1  0.76215550  0.91846321  0.91540729  1
  Ca2+  Ca104  1  0.41112740  0.90751047  0.91952804  1
  Ca2+  Ca105  1  0.58372860  0.91860580  0.07925967  1
  Ca2+  Ca106  1  0.74967667  0.39563434  0.91283110  1
  Ca2+  Ca107  1  0.91914825  0.39774056  0.74682462  1
  Mn3.34+  Mn108  1  0.08675763  0.33421565  0.08738742  1
  Mn3.34+  Mn109  1  0.08703382  0.33305466  0.41740020  1
  Mn3.34+  Mn110  1  0.08338634  0.31879876  0.75045463  1
  Mn3.34+  Mn111  1  0.07841128  0.83391081  0.08916714  1
  Mn3.34+  Mn112  1  0.08203137  0.83099034  0.41353606  1
  Mn3.34+  Mn113  1  0.08481405  0.83184233  0.74954083  1
  Mn3.34+  Mn114  1  0.41554974  0.33351634  0.08857600  1
  Mn3.34+  Mn115  1  0.41408952  0.33750692  0.41483431  1
  Mn3.34+  Mn116  1  0.42951839  0.32987301  0.75483520  1
  Mn3.34+  Mn117  1  0.41739734  0.83384780  0.08929991  1
  Mn3.34+  Mn118  1  0.41660947  0.83303730  0.41819036  1
  Mn3.34+  Mn119  1  0.41257014  0.83405280  0.75164875  1
  Mn3.34+  Mn120  1  0.74467794  0.32516611  0.08206793  1
  Mn3.34+  Mn121  1  0.74679585  0.32844696  0.42047879  1
  Mn3.34+  Mn122  1  0.74147929  0.33000233  0.74927833  1
  Mn3.34+  Mn123  1  0.75448685  0.83823811  0.08557794  1
  Mn3.34+  Mn124  1  0.74925393  0.83836597  0.41959506  1
  Mn3.34+  Mn125  1  0.75180491  0.83663346  0.74881068  1
  Mn3.34+  Mn126  1  0.25412764  0.33173163  0.25273195  1
  Mn3.34+  Mn127  1  0.25556371  0.32736916  0.57186094  1
  Mn3.34+  Mn128  1  0.24858326  0.33015352  0.91737706  1
  Mn3.34+  Mn129  1  0.24545047  0.83792753  0.25113624  1
  Mn3.34+  Mn130  1  0.24900946  0.83534033  0.58139165  1
  Mn3.34+  Mn131  1  0.25063766  0.83521704  0.91386781  1
  Mn3.34+  Mn132  1  0.57234877  0.33753994  0.25199957  1
  Mn3.34+  Mn133  1  0.58092142  0.33352856  0.58264777  1
  Mn3.34+  Mn134  1  0.58250038  0.33036849  0.91886612  1
  Mn3.34+  Mn135  1  0.58466672  0.83582644  0.24716772  1
  Mn3.34+  Mn136  1  0.58432180  0.83886365  0.57588671  1
  Mn3.34+  Mn137  1  0.57976516  0.83869695  0.91236140  1
  Mn3.34+  Mn138  1  0.92119513  0.32861726  0.24820080  1
  Mn3.34+  Mn139  1  0.91785947  0.32557310  0.57574807  1
  Mn3.34+  Mn140  1  0.91695529  0.32880327  0.91891118  1
  Mn3.34+  Mn141  1  0.92234506  0.83973141  0.25159352  1
  Mn3.34+  Mn142  1  0.91574516  0.83843194  0.58262177  1
  Mn3.34+  Mn143  1  0.91925608  0.83862175  0.92176430  1
  Mn3.34+  Mn144  1  0.07713875  0.16314410  0.08208265  1
  Mn3.34+  Mn145  1  0.91753795  0.16727177  0.91750305  1
  Mn3.34+  Mn146  1  0.75413936  0.66567570  0.75466539  1
  Mn3.34+  Mn147  1  0.58657341  0.16620937  0.91446651  1
  Mn3.34+  Mn148  1  0.58285011  0.67444151  0.57875308  1
  Mn3.34+  Mn149  1  0.24587386  0.16879033  0.91238160  1
  Mn3.34+  Mn150  1  0.24755145  0.67069652  0.58338732  1
  Mn3.34+  Mn151  1  0.74503331  0.15613371  0.08709755  1
  Mn3.34+  Mn152  1  0.91400701  0.66277358  0.92440746  1
  Mn3.34+  Mn153  1  0.25640929  0.66477820  0.58127122  1
  Mn3.34+  Mn154  1  0.42483173  0.15929100  0.41591393  1
  Mn3.34+  Mn155  1  0.57599450  0.16207007  0.91509700  1
  Mn3.34+  Mn156  1  0.24886865  0.66864680  0.91568797  1
  Mn3.34+  Mn157  1  0.73831185  0.66866312  0.09063081  1
  Mn3.34+  Mn158  1  0.92473840  0.66816064  0.92505680  1
  Mn3.34+  Mn159  1  0.91430853  0.16696232  0.57842498  1
  Mn3.34+  Mn160  1  0.41554353  0.16766187  0.75056003  1
  Mn3.34+  Mn161  1  0.75479902  0.15117525  0.08883646  1
  Mn3.34+  Mn162  1  0.41110778  0.66572822  0.41344607  1
  Mn3.34+  Mn163  1  0.42500936  0.66059781  0.41633101  1
  Mn3.34+  Mn164  1  0.57438551  0.66824824  0.57590837  1
  Mn3.34+  Mn165  1  0.57586775  0.16115767  0.25385085  1
  Mn3.34+  Mn166  1  0.43257477  0.66662756  0.08950870  1
  Mn3.34+  Mn167  1  0.91556291  0.66871293  0.58033674  1
  Mn3.34+  Mn168  1  0.41756556  0.66196873  0.09154100  1
  Mn3.34+  Mn169  1  0.41466276  0.66775589  0.75515451  1
  Mn3.34+  Mn170  1  0.58483100  0.16034202  0.57764775  1
  Mn3.34+  Mn171  1  0.07556600  0.17548354  0.41703332  1
  Mn3.34+  Mn172  1  0.08290250  0.67023100  0.74938080  1
  Mn3.34+  Mn173  1  0.08977982  0.17591665  0.42172818  1
  Mn3.34+  Mn174  1  0.74456996  0.67144479  0.75284783  1
  Mn3.34+  Mn175  1  0.08646119  0.66931671  0.08931605  1
  Mn3.34+  Mn176  1  0.91725750  0.16539415  0.24601216  1
  Mn3.34+  Mn177  1  0.24538883  0.66757796  0.24702030  1
  Mn3.34+  Mn178  1  0.74923826  0.67249648  0.08899274  1
  Mn3.34+  Mn179  1  0.25332891  0.66095434  0.24526626  1
  Mn3.34+  Mn180  1  0.73824605  0.00147596  0.40387236  1
  Mn3.34+  Mn181  1  0.58070717  0.00047095  0.92082905  1
  Mn3.34+  Mn182  1  0.92085996  0.49359349  0.25499563  1
  Mn3.34+  Mn183  1  0.08538508  0.00193493  0.75647665  1
  Mn3.34+  Mn184  1  0.75178072  0.50482926  0.09160638  1
  Mn3.34+  Mn185  1  0.09963851  -0.00398553  0.75382386  1
  Mn3.34+  Mn186  1  0.07629330  -0.00048544  0.07493816  1
  Mn3.34+  Mn187  1  0.73701537  0.49694278  0.40917827  1
  Mn3.34+  Mn188  1  0.25103195  0.49725480  0.57639800  1
  Mn3.34+  Mn189  1  0.08777944  0.50048361  0.75335123  1
  Mn3.34+  Mn190  1  0.73610957  0.49610944  0.73955824  1
  Mn3.34+  Mn191  1  0.40777668  0.00628978  0.74644590  1
  Mn3.34+  Mn192  1  0.09004230  0.00332686  0.41839288  1
  Mn3.34+  Mn193  1  0.92308862  0.00427716  0.94296527  1
  Mn3.34+  Mn194  1  0.24795222  0.00127457  0.92333944  1
  Mn3.34+  Mn195  1  0.57944377  0.00502993  0.25936813  1
  Mn3.34+  Mn196  1  0.42116187  0.50128585  0.39611595  1
  Mn3.34+  Mn197  1  0.42455382  -0.00126119  0.41073948  1
  Mn3.34+  Mn198  1  0.39740668  0.00135509  0.74380231  1
  Mn3.34+  Mn199  1  0.25434846  0.00141236  0.26347619  1
  Mn3.34+  Mn200  1  0.41976643  0.49670650  0.74863291  1
  Mn3.34+  Mn201  1  0.74752464  0.49265315  0.41276117  1
  Mn3.34+  Mn202  1  0.91848299  0.00328113  0.58420653  1
  Mn3.34+  Mn203  1  0.91527104  0.49774362  0.92289279  1
  Mn3.34+  Mn204  1  0.24911459  0.00108969  0.57177986  1
  Mn3.34+  Mn205  1  0.25283670  0.49720884  0.91388285  1
  Mn3.34+  Mn206  1  0.41771799  0.00070099  0.08828140  1
  Mn3.34+  Mn207  1  0.57621666  0.49635629  0.91826954  1
  Mn3.34+  Mn208  1  0.07988025  -0.00179300  0.41991327  1
  Mn3.34+  Mn209  1  0.91821963  0.49660009  0.57669622  1
  Mn3.34+  Mn210  1  0.58687880  0.49155463  0.91865935  1
  Mn3.34+  Mn211  1  0.25487193  0.49662237  0.26752436  1
  Mn3.34+  Mn212  1  0.07862141  0.50225749  0.09005568  1
  Mn3.34+  Mn213  1  0.09975797  0.49630744  0.75245394  1
  Mn3.34+  Mn214  1  0.91799956  0.00611481  0.25017154  1
  Mn3.34+  Mn215  1  0.73758737  0.49913883  0.09057515  1
  O2-  O216  1  0.00443217  0.17655393  -0.00496854  1
  O2-  O217  1  -0.00161918  0.16426379  0.33651577  1
  O2-  O218  1  -0.00236345  0.16665232  0.66041731  1
  O2-  O219  1  0.00875140  0.64493076  0.00207397  1
  O2-  O220  1  -0.01090446  0.66526369  0.33249987  1
  O2-  O221  1  -0.00123170  0.64585150  0.66578547  1
  O2-  O222  1  0.32499114  0.15892608  -0.00753489  1
  O2-  O223  1  0.34189792  0.17141319  0.34331138  1
  O2-  O224  1  0.33400213  0.16157711  0.67323970  1
  O2-  O225  1  0.33493553  0.64840617  0.00853940  1
  O2-  O226  1  0.33077654  0.65394908  0.33122689  1
  O2-  O227  1  0.33629721  0.65367292  0.66553755  1
  O2-  O228  1  0.66617737  0.14890367  -0.00187580  1
  O2-  O229  1  0.65167884  0.18366864  0.31929931  1
  O2-  O230  1  0.66272714  0.16245971  0.66281685  1
  O2-  O231  1  0.66833748  0.66673415  0.00278714  1
  O2-  O232  1  0.67286787  0.67233417  0.32559803  1
  O2-  O233  1  0.66190932  0.65860951  0.66493688  1
  O2-  O234  1  0.16344686  0.15511025  -0.00320663  1
  O2-  O235  1  0.16428228  0.16377029  0.33958493  1
  O2-  O236  1  0.16775928  0.18056062  0.66491185  1
  O2-  O237  1  0.17420339  0.64708106  0.00763677  1
  O2-  O238  1  0.16245336  0.65923210  0.32603475  1
  O2-  O239  1  0.16959312  0.65288273  0.66761459  1
  O2-  O240  1  0.49777742  0.16152058  -0.00752351  1
  O2-  O241  1  0.50125082  0.18379950  0.33590011  1
  O2-  O242  1  0.49678264  0.15437916  0.67256716  1
  O2-  O243  1  0.49758617  0.65315387  0.00214315  1
  O2-  O244  1  0.50805908  0.66782020  0.34034521  1
  O2-  O245  1  0.49688328  0.64976152  0.66193566  1
  O2-  O246  1  0.83168040  0.14747035  0.00059640  1
  O2-  O247  1  0.83669697  0.15836917  0.32222598  1
  O2-  O248  1  0.83576830  0.16298583  0.66150944  1
  O2-  O249  1  0.82888154  0.63721023  0.00868891  1
  O2-  O250  1  0.84549471  0.66172470  0.34134933  1
  O2-  O251  1  0.83220978  0.64389986  0.66847571  1
  O2-  O252  1  0.00458430  0.33419498  -0.00215024  1
  O2-  O253  1  0.00281430  0.33840599  0.33346411  1
  O2-  O254  1  -0.00277869  0.32069586  0.66763393  1
  O2-  O255  1  0.00505061  0.84382052  -0.00167461  1
  O2-  O256  1  -0.00527006  0.84819226  0.34024489  1
  O2-  O257  1  -0.00536970  0.85125469  0.67101205  1
  O2-  O258  1  0.33177355  0.34389694  -0.00344970  1
  O2-  O259  1  0.33591754  0.32572012  0.33395645  1
  O2-  O260  1  0.33424698  0.33671164  0.66156232  1
  O2-  O261  1  0.33004083  0.85069664  0.00774610  1
  O2-  O262  1  0.33155524  0.83222829  0.32971972  1
  O2-  O263  1  0.33151293  0.82763380  0.66536412  1
  O2-  O264  1  0.66215923  0.34910694  0.00452094  1
  O2-  O265  1  0.66301625  0.34717199  0.33722586  1
  O2-  O266  1  0.66536632  0.33919115  0.66601161  1
  O2-  O267  1  0.66884570  0.85145787  -0.00707859  1
  O2-  O268  1  0.67511223  0.83983061  0.32204758  1
  O2-  O269  1  0.66429606  0.83936821  0.66755868  1
  O2-  O270  1  0.16614807  0.34258977  -0.00065795  1
  O2-  O271  1  0.16248464  0.33059577  0.33089800  1
  O2-  O272  1  0.17155011  0.32227629  0.66846576  1
  O2-  O273  1  0.16858191  0.84589892  -0.00066207  1
  O2-  O274  1  0.16237206  0.81895665  0.32672848  1
  O2-  O275  1  0.16506735  0.82454372  0.66155012  1
  O2-  O276  1  0.50144280  0.34209775  0.00332258  1
  O2-  O277  1  0.50450597  0.32019156  0.34159293  1
  O2-  O278  1  0.49907379  0.34392957  0.66594510  1
  O2-  O279  1  0.50385292  0.85523429  0.00255470  1
  O2-  O280  1  0.50248456  0.82937345  0.32795905  1
  O2-  O281  1  0.50197347  0.84336071  0.66715315  1
  O2-  O282  1  0.83501515  0.34897189  -0.00022966  1
  O2-  O283  1  0.83203407  0.35001577  0.33551149  1
  O2-  O284  1  0.83490282  0.34060438  0.66434209  1
  O2-  O285  1  0.82938036  0.85495547  -0.00213781  1
  O2-  O286  1  0.83196819  0.85484066  0.33407294  1
  O2-  O287  1  0.82882100  0.85494299  0.66370247  1
  O2-  O288  1  0.00663002  0.18784741  0.16837472  1
  O2-  O289  1  0.00236832  0.19100323  0.49947432  1
  O2-  O290  1  -0.00877450  0.18091494  0.83426421  1
  O2-  O291  1  0.00427290  0.67846519  0.16169685  1
  O2-  O292  1  -0.00691626  0.67399189  0.50482202  1
  O2-  O293  1  -0.00922468  0.67789004  0.82525151  1
  O2-  O294  1  0.32894122  0.18241810  0.15969619  1
  O2-  O295  1  0.34646440  0.18235548  0.49227473  1
  O2-  O296  1  0.33105951  0.18210762  0.83430603  1
  O2-  O297  1  0.33779344  0.69012282  0.16951553  1
  O2-  O298  1  0.33593878  0.68392762  0.50101138  1
  O2-  O299  1  0.33233947  0.68105207  0.83363782  1
  O2-  O300  1  0.66782100  0.17820066  0.16491411  1
  O2-  O301  1  0.66550313  0.17131698  0.50742026  1
  O2-  O302  1  0.66471675  0.17050815  0.83667692  1
  O2-  O303  1  0.66755048  0.69500342  0.16959527  1
  O2-  O304  1  0.66920826  0.69142279  0.50756617  1
  O2-  O305  1  0.65799074  0.67308120  0.82967119  1
  O2-  O306  1  0.16512582  0.17889067  0.15132958  1
  O2-  O307  1  0.16746332  0.18775547  0.50074052  1
  O2-  O308  1  0.16667205  0.18385187  0.83463382  1
  O2-  O309  1  0.17373703  0.69299095  0.16292860  1
  O2-  O310  1  0.16749380  0.68244156  0.50372447  1
  O2-  O311  1  0.16197458  0.68098282  0.83209599  1
  O2-  O312  1  0.51300934  0.19377784  0.18428601  1
  O2-  O313  1  0.49810649  0.18041841  0.50134332  1
  O2-  O314  1  0.49877760  0.18177626  0.83358600  1
  O2-  O315  1  0.50266471  0.68797988  0.16805711  1
  O2-  O316  1  0.48975982  0.69390314  0.50717187  1
  O2-  O317  1  0.50011087  0.67066593  0.82431840  1
  O2-  O318  1  0.83788544  0.17613096  0.16194502  1
  O2-  O319  1  0.83790475  0.18019383  0.50171502  1
  O2-  O320  1  0.83542852  0.16909555  0.83785886  1
  O2-  O321  1  0.83275282  0.67717513  0.16448175  1
  O2-  O322  1  0.82734186  0.67514935  0.51379428  1
  O2-  O323  1  0.82860749  0.68199692  0.84552415  1
  O2-  O324  1  -0.00098946  0.31420677  0.16075214  1
  O2-  O325  1  0.00215700  0.30855657  0.49598406  1
  O2-  O326  1  -0.00297732  0.31478290  0.82903138  1
  O2-  O327  1  0.00500407  0.82085345  0.17349395  1
  O2-  O328  1  0.00135987  0.82905078  0.50717928  1
  O2-  O329  1  0.00069454  0.82438667  0.83729927  1
  O2-  O330  1  0.32857277  0.32866264  0.16373838  1
  O2-  O331  1  0.33858692  0.30904009  0.49886832  1
  O2-  O332  1  0.32468623  0.32359129  0.82630268  1
  O2-  O333  1  0.33445197  0.81618753  0.16900943  1
  O2-  O334  1  0.33222608  0.81506152  0.50493902  1
  O2-  O335  1  0.33899024  0.81791922  0.84334059  1
  O2-  O336  1  0.67046244  0.31208222  0.17942457  1
  O2-  O337  1  0.66811089  0.31835570  0.50403516  1
  O2-  O338  1  0.67229489  0.32105659  0.84163751  1
  O2-  O339  1  0.66016533  0.82290460  0.15400615  1
  O2-  O340  1  0.66688689  0.81921278  0.50088387  1
  O2-  O341  1  0.66748068  0.82336271  0.83239366  1
  O2-  O342  1  0.16914922  0.32098503  0.16332898  1
  O2-  O343  1  0.16454858  0.31154386  0.50093528  1
  O2-  O344  1  0.16766833  0.31948565  0.82982335  1
  O2-  O345  1  0.17763403  0.82579220  0.15531591  1
  O2-  O346  1  0.16350755  0.81713351  0.50380555  1
  O2-  O347  1  0.16586546  0.81905628  0.83693757  1
  O2-  O348  1  0.50184420  0.32377416  0.16521465  1
  O2-  O349  1  0.49733000  0.32435461  0.50107127  1
  O2-  O350  1  0.48981174  0.31961614  0.84974303  1
  O2-  O351  1  0.50462024  0.81621843  0.16415626  1
  O2-  O352  1  0.49840923  0.81690738  0.50694844  1
  O2-  O353  1  0.49505868  0.82511633  0.83669514  1
  O2-  O354  1  0.83091705  0.32625067  0.16831060  1
  O2-  O355  1  0.83256860  0.32072346  0.49996857  1
  O2-  O356  1  0.83807738  0.32575286  0.82881924  1
  O2-  O357  1  0.82412549  0.82812044  0.17618501  1
  O2-  O358  1  0.83905091  0.83040701  0.49677412  1
  O2-  O359  1  0.83161501  0.83198615  0.83453383  1
  O2-  O360  1  0.08980229  0.07824272  0.10783686  1
  O2-  O361  1  0.08001201  0.08472656  0.45981448  1
  O2-  O362  1  0.09195733  0.08438636  0.76251273  1
  O2-  O363  1  0.09652131  0.58339009  0.12432875  1
  O2-  O364  1  0.06878016  0.56680602  0.43996033  1
  O2-  O365  1  0.08079185  0.58118123  0.78712543  1
  O2-  O366  1  0.39469952  0.07852430  0.08675340  1
  O2-  O367  1  0.40872640  0.07709607  0.44729753  1
  O2-  O368  1  0.40032342  0.08354379  0.79163608  1
  O2-  O369  1  0.40040097  0.58290675  0.11381182  1
  O2-  O370  1  0.42352992  0.58116514  0.45399536  1
  O2-  O371  1  0.41256774  0.58037840  0.78275999  1
  O2-  O372  1  0.74658602  0.07146661  0.09976294  1
  O2-  O373  1  0.76068471  0.06151522  0.46764291  1
  O2-  O374  1  0.76569122  0.06956417  0.77774719  1
  O2-  O375  1  0.74836548  0.58370589  0.12843156  1
  O2-  O376  1  0.73997387  0.57946432  0.43176573  1
  O2-  O377  1  0.77113139  0.57601553  0.79565582  1
  O2-  O378  1  0.23726297  0.07497695  0.22224102  1
  O2-  O379  1  0.22852358  0.07845615  0.53980381  1
  O2-  O380  1  0.24225287  0.08243018  0.88627388  1
  O2-  O381  1  0.25447263  0.57405559  0.20732497  1
  O2-  O382  1  0.25631034  0.57847718  0.54241352  1
  O2-  O383  1  0.25143931  0.58135057  0.88983945  1
  O2-  O384  1  0.57631837  0.08438757  0.23302073  1
  O2-  O385  1  0.57827394  0.08253905  0.57851342  1
  O2-  O386  1  0.57757870  0.07986941  0.88288989  1
  O2-  O387  1  0.61498003  0.58238417  0.24064528  1
  O2-  O388  1  0.60051416  0.58771299  0.53147538  1
  O2-  O389  1  0.58038111  0.57575614  0.88125364  1
  O2-  O390  1  0.94614537  0.08442409  0.23032714  1
  O2-  O391  1  0.93824542  0.08128399  0.55320445  1
  O2-  O392  1  0.93103745  0.08117401  0.88749635  1
  O2-  O393  1  0.91443038  0.57086713  0.23139212  1
  O2-  O394  1  0.89834837  0.58043817  0.55550882  1
  O2-  O395  1  0.92351017  0.57849317  0.87488777  1
  O2-  O396  1  0.07145467  0.42073359  0.11067469  1
  O2-  O397  1  0.07695831  0.41206653  0.43914552  1
  O2-  O398  1  0.07734563  0.41257467  0.76194071  1
  O2-  O399  1  0.09635917  0.91851941  0.10395979  1
  O2-  O400  1  0.08938817  0.91728249  0.44661240  1
  O2-  O401  1  0.08782641  0.91607447  0.77810025  1
  O2-  O402  1  0.41350303  0.41587083  0.09397458  1
  O2-  O403  1  0.41858130  0.42545311  0.44709032  1
  O2-  O404  1  0.39754569  0.41604064  0.77693325  1
  O2-  O405  1  0.42698884  0.92107771  0.12666349  1
  O2-  O406  1  0.42017642  0.91760531  0.44182599  1
  O2-  O407  1  0.40479500  0.92015083  0.77849752  1
  O2-  O408  1  0.74746789  0.41753580  0.11296204  1
  O2-  O409  1  0.74465275  0.41477736  0.45018763  1
  O2-  O410  1  0.77093899  0.41791796  0.77628316  1
  O2-  O411  1  0.73305227  0.91994318  0.11498742  1
  O2-  O412  1  0.74928844  0.92555775  0.44802798  1
  O2-  O413  1  0.73931658  0.91929076  0.77623642  1
  O2-  O414  1  0.23625485  0.42087491  0.22591977  1
  O2-  O415  1  0.23435495  0.41550405  0.58985537  1
  O2-  O416  1  0.23559728  0.41655231  0.87991289  1
  O2-  O417  1  0.26884296  0.92627233  0.21416226  1
  O2-  O418  1  0.24955526  0.91951305  0.56620908  1
  O2-  O419  1  0.24428916  0.91925891  0.89383942  1
  O2-  O420  1  0.60692802  0.41859412  0.21741853  1
  O2-  O421  1  0.58680195  0.41593661  0.55855383  1
  O2-  O422  1  0.58602362  0.41235954  0.88752533  1
  O2-  O423  1  0.58440155  0.92597630  0.21449812  1
  O2-  O424  1  0.58277643  0.91730934  0.57572610  1
  O2-  O425  1  0.57760717  0.92429172  0.86417876  1
  O2-  O426  1  0.91698713  0.41488727  0.21998495  1
  O2-  O427  1  0.94025658  0.41366048  0.56586567  1
  O2-  O428  1  0.93307650  0.41596364  0.88103907  1
  O2-  O429  1  0.89758595  0.92550683  0.22318846  1
  O2-  O430  1  0.91779553  0.92374691  0.55582788  1
  O2-  O431  1  0.91303807  0.92647933  0.88837435  1
  O2-  O432  1  0.03959888  0.00189461  -0.04414884  1
  O2-  O433  1  -0.00666642  -0.00299571  0.34247976  1
  O2-  O434  1  -0.00307393  -0.00628482  0.67792873  1
  O2-  O435  1  0.00184286  0.50953478  0.00288036  1
  O2-  O436  1  0.00220404  0.49105687  0.32197083  1
  O2-  O437  1  -0.00385626  0.51107880  0.67637842  1
  O2-  O438  1  0.33963329  -0.01731611  -0.00030760  1
  O2-  O439  1  0.32513266  0.00168315  0.34847400  1
  O2-  O440  1  0.34880629  0.01362548  0.63632465  1
  O2-  O441  1  0.32474239  0.50118887  0.00345826  1
  O2-  O442  1  0.31202934  0.51819489  0.36062130  1
  O2-  O443  1  0.33301534  0.50413496  0.66447100  1
  O2-  O444  1  0.66268437  -0.02942200  -0.00955820  1
  O2-  O445  1  0.68131817  -0.01496222  0.30892072  1
  O2-  O446  1  0.67103517  -0.00387698  0.66692657  1
  O2-  O447  1  0.67054837  0.51627037  -0.00429701  1
  O2-  O448  1  0.68361246  0.50469505  0.31013308  1
  O2-  O449  1  0.67421373  0.54568387  0.66608402  1
  O2-  O450  1  0.18902088  -0.00167989  0.03193932  1
  O2-  O451  1  0.16138319  0.01574076  0.32885578  1
  O2-  O452  1  0.16468696  0.01320874  0.65704453  1
  O2-  O453  1  0.16535423  0.50727062  0.00322186  1
  O2-  O454  1  0.15551597  0.50972791  0.30415340  1
  O2-  O455  1  0.16416694  0.51395013  0.65806749  1
  O2-  O456  1  0.50375948  -0.01324278  0.00908449  1
  O2-  O457  1  0.48381691  -0.01024587  0.31340664  1
  O2-  O458  1  0.50730961  -0.00581869  0.68916360  1
  O2-  O459  1  0.48450900  0.49717736  -0.01527184  1
  O2-  O460  1  0.53054210  0.49950421  0.37744260  1
  O2-  O461  1  0.50646523  0.51973104  0.67405709  1
  O2-  O462  1  0.80963636  0.00509580  -0.04980900  1
  O2-  O463  1  0.83517321  0.00036180  0.34132803  1
  O2-  O464  1  0.83727070  0.00647365  0.65645416  1
  O2-  O465  1  0.83043053  0.49292492  0.00696460  1
  O2-  O466  1  0.84147598  0.48747385  0.33971361  1
  O2-  O467  1  0.84290374  0.50069100  0.67828343  1
  O2-  O468  1  0.42690220  0.74840441  0.73075525  1
  O2-  O469  1  0.24849985  0.25213165  0.25810234  1
  O2-  O470  1  0.91121293  0.75195736  0.94469719  1
  O2-  O471  1  0.58026220  0.75963070  0.93339634  1
  O2-  O472  1  0.08199864  0.74913291  0.05459059  1
  O2-  O473  1  0.76517229  0.75482563  0.05365480  1
  O2-  O474  1  0.74780645  0.25227016  0.39758861  1
  O2-  O475  1  0.91395557  0.75152569  0.60949111  1
  O2-  O476  1  0.91267920  0.76057033  0.26527658  1
  O2-  O477  1  0.59486942  0.24818558  0.94263360  1
  O2-  O478  1  0.40808549  0.74734184  0.39397051  1
  O2-  O479  1  0.24778847  0.75083521  0.94090108  1
  O2-  O480  1  0.75614459  0.23865680  0.05689514  1
  O2-  O481  1  0.76607716  0.75452792  0.72636282  1
  O2-  O482  1  0.41830723  0.74653613  0.05189728  1
  O2-  O483  1  0.06797124  0.75325218  0.40898922  1
  O2-  O484  1  0.75999924  0.75941019  0.40465419  1
  O2-  O485  1  0.74945508  0.25206861  0.73861942  1
  O2-  O486  1  0.06874460  0.74956437  0.72405744  1
  O2-  O487  1  0.57802080  0.25026007  0.60034716  1
  O2-  O488  1  0.25113971  0.25073951  0.94251525  1
  O2-  O489  1  0.41450805  0.25371661  0.06873910  1
  O2-  O490  1  0.90516295  0.24945817  0.26979371  1
  O2-  O491  1  0.41957104  0.24978060  0.72906623  1
  O2-  O492  1  0.89624575  0.24908622  0.93898371  1
