# generated using pymatgen
data_Ca108Mn108O277
_symmetry_space_group_name_H-M   'P 1'
_cell_length_a   16.01789058
_cell_length_b   22.29395101
_cell_length_c   16.38195849
_cell_angle_alpha   90.00521328
_cell_angle_beta   89.99917992
_cell_angle_gamma   90.00455115
_symmetry_Int_Tables_number   1
_chemical_formula_structural   Ca108Mn108O277
_chemical_formula_sum   'Ca108 Mn108 O277'
_cell_volume   5850.03121025
_cell_formula_units_Z   1
loop_
 _symmetry_equiv_pos_site_id
 _symmetry_equiv_pos_as_xyz
  1  'x, y, z'
loop_
 _atom_type_symbol
 _atom_type_oxidation_number
  Ca2+  2.0
  Mn3.34+  3.34
  O2-  -2.0
loop_
 _atom_site_type_symbol
 _atom_site_label
 _atom_site_symmetry_multiplicity
 _atom_site_fract_x
 _atom_site_fract_y
 _atom_site_fract_z
 _atom_site_occupancy
  Ca2+  Ca0  1  0.09005050  0.25578972  0.24810282  1
  Ca2+  Ca1  1  0.08330433  0.24497133  0.56579155  1
  Ca2+  Ca2  1  0.08394537  0.25291131  0.93319303  1
  Ca2+  Ca3  1  0.08493940  0.74896676  0.26883549  1
  Ca2+  Ca4  1  0.10358877  0.74413879  0.57535597  1
  Ca2+  Ca5  1  0.10537480  0.73451211  0.90699609  1
  Ca2+  Ca6  1  0.41105765  0.24835479  0.24926607  1
  Ca2+  Ca7  1  0.40920378  0.25932209  0.55557404  1
  Ca2+  Ca8  1  0.42778379  0.24673234  0.93810089  1
  Ca2+  Ca9  1  0.42422059  0.75700375  0.25137494  1
  Ca2+  Ca10  1  0.39447691  0.74458201  0.56852842  1
  Ca2+  Ca11  1  0.40026620  0.74815451  0.92671526  1
  Ca2+  Ca12  1  0.75302853  0.25373016  0.25813612  1
  Ca2+  Ca13  1  0.75636677  0.26390352  0.57683084  1
  Ca2+  Ca14  1  0.72734024  0.25019137  0.91860362  1
  Ca2+  Ca15  1  0.74793400  0.74371582  0.25270575  1
  Ca2+  Ca16  1  0.74299735  0.74013830  0.58721526  1
  Ca2+  Ca17  1  0.75329451  0.74564566  0.90939503  1
  Ca2+  Ca18  1  0.25579030  0.25155107  0.09277169  1
  Ca2+  Ca19  1  0.26299319  0.25025611  0.40901762  1
  Ca2+  Ca20  1  0.24426107  0.26337476  0.74376065  1
  Ca2+  Ca21  1  0.25446539  0.74403153  0.06579867  1
  Ca2+  Ca22  1  0.23576097  0.73886122  0.43826371  1
  Ca2+  Ca23  1  0.23457229  0.75124144  0.74452917  1
  Ca2+  Ca24  1  0.55660366  0.24422797  0.07721694  1
  Ca2+  Ca25  1  0.55915250  0.25035040  0.40513549  1
  Ca2+  Ca26  1  0.57413719  0.26097366  0.76728679  1
  Ca2+  Ca27  1  0.58026294  0.74836711  0.09164465  1
  Ca2+  Ca28  1  0.58150611  0.74771361  0.40889033  1
  Ca2+  Ca29  1  0.61348730  0.73363991  0.75299908  1
  Ca2+  Ca30  1  0.93663756  0.25759985  0.09247730  1
  Ca2+  Ca31  1  0.92785112  0.25545300  0.40974057  1
  Ca2+  Ca32  1  0.92875684  0.26273452  0.73957502  1
  Ca2+  Ca33  1  0.91376097  0.74731710  0.08126314  1
  Ca2+  Ca34  1  0.92683777  0.74175025  0.40880825  1
  Ca2+  Ca35  1  0.90680688  0.73553312  0.76071620  1
  Ca2+  Ca36  1  0.42320657  0.09305528  0.94856674  1
  Ca2+  Ca37  1  0.74327142  0.09422212  0.92676325  1
  Ca2+  Ca38  1  0.23624715  0.59382981  0.42737743  1
  Ca2+  Ca39  1  0.23203152  0.08045385  0.73963037  1
  Ca2+  Ca40  1  0.76114527  0.59501678  0.87893803  1
  Ca2+  Ca41  1  0.41530543  0.10839110  0.23664667  1
  Ca2+  Ca42  1  0.24298946  0.11098082  0.41766513  1
  Ca2+  Ca43  1  0.09432283  0.58883105  0.57774960  1
  Ca2+  Ca44  1  0.73980308  0.58435073  0.61344562  1
  Ca2+  Ca45  1  0.40673945  0.59349315  0.91808087  1
  Ca2+  Ca46  1  0.23631654  0.59494273  0.74758640  1
  Ca2+  Ca47  1  0.76264510  0.08909235  0.25209515  1
  Ca2+  Ca48  1  0.58170058  0.09728914  0.76751758  1
  Ca2+  Ca49  1  0.41941235  0.59349610  0.91801954  1
  Ca2+  Ca50  1  0.22056693  0.07721125  0.74332785  1
  Ca2+  Ca51  1  0.58687773  0.59926367  0.08183160  1
  Ca2+  Ca52  1  0.24526280  0.59206253  0.74390602  1
  Ca2+  Ca53  1  0.75035491  0.59592315  0.87971284  1
  Ca2+  Ca54  1  0.92603288  0.58196919  0.07946161  1
  Ca2+  Ca55  1  0.93300146  0.10907237  0.40887017  1
  Ca2+  Ca56  1  0.59368246  0.09804613  0.76712680  1
  Ca2+  Ca57  1  0.39982281  0.58710352  0.56733237  1
  Ca2+  Ca58  1  0.42115911  0.58647976  0.27399139  1
  Ca2+  Ca59  1  0.39792353  0.09918250  0.56473809  1
  Ca2+  Ca60  1  0.55941719  0.08534810  0.38699428  1
  Ca2+  Ca61  1  0.56774011  0.10051769  0.09153696  1
  Ca2+  Ca62  1  0.07321368  0.10118541  0.24088090  1
  Ca2+  Ca63  1  0.76407655  0.59321868  0.30038892  1
  Ca2+  Ca64  1  0.06401992  0.09899093  0.24492490  1
  Ca2+  Ca65  1  0.43309389  0.58620585  0.27077529  1
  Ca2+  Ca66  1  0.60114163  0.59788481  0.42024988  1
  Ca2+  Ca67  1  0.76146766  0.10010271  0.57613217  1
  Ca2+  Ca68  1  0.10165331  0.59316795  0.58220679  1
  Ca2+  Ca69  1  0.57031638  0.08518189  0.38673827  1
  Ca2+  Ca70  1  0.25020755  0.10729701  0.08671129  1
  Ca2+  Ca71  1  0.42723966  0.09973228  0.95127021  1
  Ca2+  Ca72  1  0.25309002  0.89791277  0.42181540  1
  Ca2+  Ca73  1  0.57317408  0.91130196  0.09180493  1
  Ca2+  Ca74  1  0.57278655  0.89393857  0.74303941  1
  Ca2+  Ca75  1  0.10030515  0.91420024  0.91886053  1
  Ca2+  Ca76  1  0.74811051  0.91023171  0.92339198  1
  Ca2+  Ca77  1  0.75060503  0.90387937  0.25540136  1
  Ca2+  Ca78  1  0.94069637  0.90728581  0.74750222  1
  Ca2+  Ca79  1  0.23783671  0.90414390  0.08214147  1
  Ca2+  Ca80  1  0.58585032  0.42095782  0.74535207  1
  Ca2+  Ca81  1  0.41435018  0.89430621  0.57606137  1
  Ca2+  Ca82  1  0.25231306  0.40883196  0.41445985  1
  Ca2+  Ca83  1  0.58588708  0.91121280  0.09189087  1
  Ca2+  Ca84  1  0.74751038  0.40519168  0.91246808  1
  Ca2+  Ca85  1  0.25073905  0.41374516  0.74669904  1
  Ca2+  Ca86  1  0.56703599  0.41165080  0.42381848  1
  Ca2+  Ca87  1  0.76005606  0.40592340  0.91165617  1
  Ca2+  Ca88  1  0.75987357  0.91084321  0.92244987  1
  Ca2+  Ca89  1  0.58563185  0.89464549  0.74284057  1
  Ca2+  Ca90  1  0.07671211  0.41344210  0.58114833  1
  Ca2+  Ca91  1  0.57750799  0.41231209  0.42449254  1
  Ca2+  Ca92  1  0.92837276  0.90767394  0.74698142  1
  Ca2+  Ca93  1  0.75570094  0.40515400  0.26265315  1
  Ca2+  Ca94  1  0.92343272  0.41918470  0.74294846  1
  Ca2+  Ca95  1  0.76683221  0.40618368  0.26319806  1
  Ca2+  Ca96  1  0.07118845  0.90396267  0.25180388  1
  Ca2+  Ca97  1  0.08974260  0.91467104  0.91866006  1
  Ca2+  Ca98  1  0.57465987  0.42106822  0.74577905  1
  Ca2+  Ca99  1  0.08482502  0.41203519  0.58745157  1
  Ca2+  Ca100  1  0.93787041  0.91788032  0.08958602  1
  Ca2+  Ca101  1  0.74852372  0.88847128  0.57211446  1
  Ca2+  Ca102  1  0.43507483  0.91222349  0.26107885  1
  Ca2+  Ca103  1  0.09392697  0.90304620  0.59085821  1
  Ca2+  Ca104  1  0.40509501  0.90225007  0.91780152  1
  Ca2+  Ca105  1  0.07474410  0.41027254  0.93816507  1
  Ca2+  Ca106  1  0.92566587  0.91996247  0.08893768  1
  Ca2+  Ca107  1  0.41048772  0.39823227  0.91650979  1
  Mn3.34+  Mn108  1  0.09065701  0.33817293  0.08973821  1
  Mn3.34+  Mn109  1  0.08275085  0.34740547  0.41178845  1
  Mn3.34+  Mn110  1  0.08329424  0.33939370  0.75731680  1
  Mn3.34+  Mn111  1  0.08383971  0.83116239  0.08981397  1
  Mn3.34+  Mn112  1  0.08164115  0.83003605  0.41893117  1
  Mn3.34+  Mn113  1  0.08751365  0.83105403  0.75145326  1
  Mn3.34+  Mn114  1  0.41265448  0.32838707  0.08807939  1
  Mn3.34+  Mn115  1  0.41439726  0.33932096  0.41235406  1
  Mn3.34+  Mn116  1  0.41463412  0.34299919  0.74853379  1
  Mn3.34+  Mn117  1  0.41317789  0.83365939  0.08781581  1
  Mn3.34+  Mn118  1  0.41750039  0.83022137  0.41497278  1
  Mn3.34+  Mn119  1  0.41279128  0.82100604  0.74903745  1
  Mn3.34+  Mn120  1  0.75167223  0.33047495  0.08638756  1
  Mn3.34+  Mn121  1  0.75182418  0.34132183  0.42324376  1
  Mn3.34+  Mn122  1  0.75221417  0.33937398  0.74748383  1
  Mn3.34+  Mn123  1  0.75322661  0.83063589  0.08927062  1
  Mn3.34+  Mn124  1  0.75308818  0.82386481  0.41765824  1
  Mn3.34+  Mn125  1  0.75520260  0.82777874  0.74940701  1
  Mn3.34+  Mn126  1  0.25061355  0.33367653  0.24864636  1
  Mn3.34+  Mn127  1  0.25150899  0.33381461  0.57987167  1
  Mn3.34+  Mn128  1  0.24970068  0.33418338  0.91659005  1
  Mn3.34+  Mn129  1  0.25052476  0.83321343  0.25104342  1
  Mn3.34+  Mn130  1  0.24976112  0.83147547  0.58532693  1
  Mn3.34+  Mn131  1  0.25118971  0.83043609  0.91387159  1
  Mn3.34+  Mn132  1  0.58179412  0.32849980  0.24273555  1
  Mn3.34+  Mn133  1  0.58314774  0.33620601  0.58413050  1
  Mn3.34+  Mn134  1  0.58061783  0.33284781  0.92083754  1
  Mn3.34+  Mn135  1  0.58670191  0.83636182  0.25544110  1
  Mn3.34+  Mn136  1  0.58097583  0.82402389  0.57618440  1
  Mn3.34+  Mn137  1  0.58038563  0.82953244  0.91698657  1
  Mn3.34+  Mn138  1  0.92781855  0.33573404  0.24896638  1
  Mn3.34+  Mn139  1  0.91487422  0.33505057  0.57550989  1
  Mn3.34+  Mn140  1  0.91750884  0.33013532  0.91638824  1
  Mn3.34+  Mn141  1  0.91389499  0.83672643  0.25505265  1
  Mn3.34+  Mn142  1  0.91934515  0.82976065  0.57781301  1
  Mn3.34+  Mn143  1  0.92046023  0.83158628  0.91836585  1
  Mn3.34+  Mn144  1  0.24269774  0.16524478  0.91593400  1
  Mn3.34+  Mn145  1  0.40243502  0.17629394  0.74751956  1
  Mn3.34+  Mn146  1  0.58328744  0.16771194  0.24596236  1
  Mn3.34+  Mn147  1  0.91805966  0.17113938  0.24806205  1
  Mn3.34+  Mn148  1  0.74824307  0.17560070  0.08415212  1
  Mn3.34+  Mn149  1  0.07884394  0.16794262  0.75058602  1
  Mn3.34+  Mn150  1  0.24362176  0.17001224  0.57494135  1
  Mn3.34+  Mn151  1  0.06874017  0.16261859  0.75190914  1
  Mn3.34+  Mn152  1  0.41262702  0.17058678  0.74906005  1
  Mn3.34+  Mn153  1  0.57791084  0.16852954  0.57801967  1
  Mn3.34+  Mn154  1  0.92188921  0.17271943  0.57259157  1
  Mn3.34+  Mn155  1  0.58678949  0.66792251  0.91863892  1
  Mn3.34+  Mn156  1  0.92021264  0.66534503  0.57612316  1
  Mn3.34+  Mn157  1  0.25180779  0.66616939  0.24953528  1
  Mn3.34+  Mn158  1  0.08004067  0.66207217  0.08121024  1
  Mn3.34+  Mn159  1  0.91906616  0.66495471  0.91473668  1
  Mn3.34+  Mn160  1  0.75791823  0.18172957  0.74983755  1
  Mn3.34+  Mn161  1  0.75312209  0.17133669  0.41416916  1
  Mn3.34+  Mn162  1  0.76000746  0.16964211  0.08478249  1
  Mn3.34+  Mn163  1  0.41700948  0.66550686  0.42354035  1
  Mn3.34+  Mn164  1  0.42931612  0.66377137  0.74646557  1
  Mn3.34+  Mn165  1  0.08904211  0.65606875  0.08076860  1
  Mn3.34+  Mn166  1  0.24960866  0.16947010  0.25040654  1
  Mn3.34+  Mn167  1  0.08115194  0.16600299  0.08059809  1
  Mn3.34+  Mn168  1  0.76772096  0.17629199  0.75162057  1
  Mn3.34+  Mn169  1  0.90686654  0.66231127  0.57915096  1
  Mn3.34+  Mn170  1  0.58826120  0.67005236  0.24869269  1
  Mn3.34+  Mn171  1  0.41635257  0.66576651  0.08655014  1
  Mn3.34+  Mn172  1  0.75527765  0.66743631  0.08544366  1
  Mn3.34+  Mn173  1  0.41977392  0.66949462  0.74487533  1
  Mn3.34+  Mn174  1  0.91969466  0.65831878  0.24985005  1
  Mn3.34+  Mn175  1  0.24146475  0.66137580  0.24899338  1
  Mn3.34+  Mn176  1  0.58946129  0.16459748  0.57616091  1
  Mn3.34+  Mn177  1  0.58436899  0.66565055  0.57783222  1
  Mn3.34+  Mn178  1  0.08090272  0.66200836  0.75467042  1
  Mn3.34+  Mn179  1  0.92081619  0.16200951  0.91922201  1
  Mn3.34+  Mn180  1  0.24062481  0.49829488  0.24957833  1
  Mn3.34+  Mn181  1  0.92604836  0.01063077  0.92622155  1
  Mn3.34+  Mn182  1  0.23860463  0.00099915  0.58273629  1
  Mn3.34+  Mn183  1  0.75741618  0.50457497  0.08532861  1
  Mn3.34+  Mn184  1  0.59174810  0.49981501  0.24445914  1
  Mn3.34+  Mn185  1  0.75299869  -0.00019593  0.08738408  1
  Mn3.34+  Mn186  1  0.40896363  -0.00011835  0.08740941  1
  Mn3.34+  Mn187  1  0.93387998  0.00678292  0.58160954  1
  Mn3.34+  Mn188  1  0.06499949  0.00074527  0.41632238  1
  Mn3.34+  Mn189  1  0.58047222  0.50373261  0.91311699  1
  Mn3.34+  Mn190  1  0.08114706  -0.00222730  0.41729087  1
  Mn3.34+  Mn191  1  0.24947979  0.00039884  0.92401114  1
  Mn3.34+  Mn192  1  0.42076018  0.49119722  0.08891066  1
  Mn3.34+  Mn193  1  0.75126393  -0.00473544  0.41277236  1
  Mn3.34+  Mn194  1  0.24451701  -0.00135428  0.24687962  1
  Mn3.34+  Mn195  1  0.25519366  0.00248325  0.24800692  1
  Mn3.34+  Mn196  1  0.90895496  0.49830269  0.59211924  1
  Mn3.34+  Mn197  1  0.23010685  0.50220602  0.92377320  1
  Mn3.34+  Mn198  1  0.75170321  0.00574967  0.75235308  1
  Mn3.34+  Mn199  1  0.76309591  0.00179179  0.75300772  1
  Mn3.34+  Mn200  1  0.40778784  0.49753849  0.09085771  1
  Mn3.34+  Mn201  1  0.26043694  0.49426092  0.59686299  1
  Mn3.34+  Mn202  1  0.76618540  -0.00069891  0.41661519  1
  Mn3.34+  Mn203  1  0.42191369  -0.00597378  0.41062395  1
  Mn3.34+  Mn204  1  0.92069147  0.00062082  0.57833528  1
  Mn3.34+  Mn205  1  0.22600674  0.49986083  0.25340343  1
  Mn3.34+  Mn206  1  0.41622186  -0.00446294  0.75051619  1
  Mn3.34+  Mn207  1  0.92542709  0.50062719  0.91881370  1
  Mn3.34+  Mn208  1  0.57913662  -0.00462545  0.91966840  1
  Mn3.34+  Mn209  1  0.58128679  0.50347190  0.60026489  1
  Mn3.34+  Mn210  1  0.74501625  0.49902295  0.08562527  1
  Mn3.34+  Mn211  1  0.58180765  -0.00180354  0.57704439  1
  Mn3.34+  Mn212  1  0.22999944  0.50701074  0.93450634  1
  Mn3.34+  Mn213  1  0.92232000  0.49896335  0.26970335  1
  Mn3.34+  Mn214  1  0.58198104  0.49403298  0.24606572  1
  Mn3.34+  Mn215  1  0.40437288  -0.00072732  0.75258785  1
  O2-  O216  1  -0.00184821  0.17786364  -0.00077151  1
  O2-  O217  1  0.00145600  0.17082874  0.32464640  1
  O2-  O218  1  -0.00459034  0.15926102  0.66375081  1
  O2-  O219  1  -0.00561729  0.65829087  0.00343757  1
  O2-  O220  1  -0.00484474  0.68410926  0.31909970  1
  O2-  O221  1  -0.00342133  0.66341893  0.66434139  1
  O2-  O222  1  0.32878435  0.16028610  -0.00970030  1
  O2-  O223  1  0.32832658  0.15879953  0.32821018  1
  O2-  O224  1  0.32164608  0.14488651  0.67246486  1
  O2-  O225  1  0.34683121  0.65793248  -0.00224161  1
  O2-  O226  1  0.33635276  0.65187088  0.33124145  1
  O2-  O227  1  0.33603203  0.65468568  0.66726239  1
  O2-  O228  1  0.67288004  0.16517818  0.00064363  1
  O2-  O229  1  0.66691336  0.15602908  0.33770119  1
  O2-  O230  1  0.66602908  0.15383575  0.66818520  1
  O2-  O231  1  0.67241204  0.64787826  -0.00397748  1
  O2-  O232  1  0.66655190  0.66743994  0.32741297  1
  O2-  O233  1  0.66299965  0.67242572  0.65532346  1
  O2-  O234  1  0.16940197  0.17043618  0.00419401  1
  O2-  O235  1  0.16092055  0.15337660  0.32224698  1
  O2-  O236  1  0.16687915  0.15447001  0.67024782  1
  O2-  O237  1  0.16746892  0.66226126  0.00196189  1
  O2-  O238  1  0.17122989  0.66139041  0.33502923  1
  O2-  O239  1  0.16175157  0.65688235  0.66567843  1
  O2-  O240  1  0.50120212  0.16012949  0.00148391  1
  O2-  O241  1  0.50217872  0.16016101  0.32590393  1
  O2-  O242  1  0.49992802  0.13885206  0.66851789  1
  O2-  O243  1  0.50346501  0.65551827  0.00209247  1
  O2-  O244  1  0.50470189  0.65775957  0.33314963  1
  O2-  O245  1  0.50026537  0.68696690  0.66101882  1
  O2-  O246  1  0.83294950  0.17953161  -0.00315002  1
  O2-  O247  1  0.83144170  0.16512232  0.32986088  1
  O2-  O248  1  0.83081149  0.16482120  0.65599173  1
  O2-  O249  1  0.83276561  0.65002354  0.00034296  1
  O2-  O250  1  0.83690771  0.67956474  0.32048445  1
  O2-  O251  1  0.83236065  0.67226964  0.65890943  1
  O2-  O252  1  0.00019164  0.32765964  -0.00467489  1
  O2-  O253  1  0.00632145  0.32214476  0.33515215  1
  O2-  O254  1  0.00043252  0.34920032  0.66831182  1
  O2-  O255  1  0.00190303  0.85043882  0.00078353  1
  O2-  O256  1  0.00238913  0.83106966  0.32998201  1
  O2-  O257  1  0.00106887  0.84313346  0.66733983  1
  O2-  O258  1  0.33465394  0.32437350  -0.00696750  1
  O2-  O259  1  0.32990231  0.34009092  0.33583879  1
  O2-  O260  1  0.32668928  0.34565862  0.67219345  1
  O2-  O261  1  0.33025050  0.84448275  0.00374534  1
  O2-  O262  1  0.33740461  0.84841563  0.32997441  1
  O2-  O263  1  0.34035019  0.82985384  0.65990453  1
  O2-  O264  1  0.67529535  0.34023571  -0.00655462  1
  O2-  O265  1  0.67501225  0.33036610  0.33074657  1
  O2-  O266  1  0.66334363  0.33584930  0.67353499  1
  O2-  O267  1  0.66866707  0.85424978  0.00296210  1
  O2-  O268  1  0.67563284  0.82725047  0.32937581  1
  O2-  O269  1  0.66722048  0.83074409  0.66679310  1
  O2-  O270  1  0.16531971  0.32723568  -0.00564468  1
  O2-  O271  1  0.17027475  0.32932973  0.34222586  1
  O2-  O272  1  0.16357783  0.35004511  0.66654499  1
  O2-  O273  1  0.16314112  0.84600174  -0.00073896  1
  O2-  O274  1  0.16461005  0.84787340  0.33227146  1
  O2-  O275  1  0.16744526  0.83955582  0.66803262  1
  O2-  O276  1  0.49642591  0.33889410  -0.00397944  1
  O2-  O277  1  0.51134998  0.34315589  0.33782918  1
  O2-  O278  1  0.50685304  0.35244025  0.67308202  1
  O2-  O279  1  0.49808596  0.85091992  0.00267528  1
  O2-  O280  1  0.49939765  0.83952708  0.33220147  1
  O2-  O281  1  0.50345193  0.82326693  0.66902031  1
  O2-  O282  1  0.82871578  0.32049015  -0.00490886  1
  O2-  O283  1  0.83095218  0.33533975  0.33486450  1
  O2-  O284  1  0.83492118  0.33010917  0.66954740  1
  O2-  O285  1  0.83803399  0.85332982  0.00405461  1
  O2-  O286  1  0.83321893  0.81433225  0.33260129  1
  O2-  O287  1  0.83954686  0.84205982  0.66891322  1
  O2-  O288  1  0.00166182  0.17635187  0.16734719  1
  O2-  O289  1  -0.00631600  0.18365568  0.49216208  1
  O2-  O290  1  -0.00326555  0.18709418  0.83692290  1
  O2-  O291  1  -0.00163425  0.67848658  0.16028662  1
  O2-  O292  1  0.00315762  0.67735467  0.50801676  1
  O2-  O293  1  0.00127529  0.67960105  0.83723588  1
  O2-  O294  1  0.32642861  0.17502735  0.16892535  1
  O2-  O295  1  0.33208881  0.17646765  0.50769603  1
  O2-  O296  1  0.32866255  0.18729217  0.83866467  1
  O2-  O297  1  0.33387627  0.67498379  0.17350290  1
  O2-  O298  1  0.33305801  0.67066932  0.49419869  1
  O2-  O299  1  0.34073211  0.68411168  0.82551938  1
  O2-  O300  1  0.67077066  0.18364023  0.16782756  1
  O2-  O301  1  0.67549694  0.18856748  0.49827001  1
  O2-  O302  1  0.66598723  0.18010415  0.82399722  1
  O2-  O303  1  0.66272962  0.67845310  0.15947060  1
  O2-  O304  1  0.65753115  0.68145149  0.49757648  1
  O2-  O305  1  0.67020649  0.67378598  0.84459136  1
  O2-  O306  1  0.15971803  0.17329028  0.16964210  1
  O2-  O307  1  0.17391047  0.18586404  0.49403732  1
  O2-  O308  1  0.16758562  0.18094696  0.82860079  1
  O2-  O309  1  0.16483121  0.68077259  0.16516139  1
  O2-  O310  1  0.16334958  0.66408764  0.50538160  1
  O2-  O311  1  0.17423761  0.67157082  0.81713501  1
  O2-  O312  1  0.50553236  0.17380425  0.16892758  1
  O2-  O313  1  0.50169996  0.17155167  0.49204811  1
  O2-  O314  1  0.50201130  0.16950465  0.82670774  1
  O2-  O315  1  0.49613069  0.67443687  0.17114887  1
  O2-  O316  1  0.49707739  0.68182632  0.50145587  1
  O2-  O317  1  0.49973172  0.68549019  0.83487027  1
  O2-  O318  1  0.83218924  0.18201417  0.16923019  1
  O2-  O319  1  0.83181205  0.18500866  0.49652123  1
  O2-  O320  1  0.83608706  0.19589327  0.84129906  1
  O2-  O321  1  0.83812380  0.68275768  0.16257864  1
  O2-  O322  1  0.83423857  0.68825139  0.50125125  1
  O2-  O323  1  0.83400164  0.67422628  0.84219481  1
  O2-  O324  1  0.00553495  0.32589915  0.16906044  1
  O2-  O325  1  0.00754172  0.32486855  0.50160346  1
  O2-  O326  1  -0.00172607  0.31929563  0.83316618  1
  O2-  O327  1  -0.00535495  0.82011451  0.16513928  1
  O2-  O328  1  0.00722035  0.81502237  0.50831450  1
  O2-  O329  1  -0.00501947  0.82712990  0.82988480  1
  O2-  O330  1  0.33336831  0.31862331  0.17104594  1
  O2-  O331  1  0.32714489  0.32855547  0.49396572  1
  O2-  O332  1  0.33512298  0.32178396  0.83248230  1
  O2-  O333  1  0.33484633  0.82539308  0.16854354  1
  O2-  O334  1  0.33099743  0.82526213  0.49637615  1
  O2-  O335  1  0.33899428  0.81929230  0.83792702  1
  O2-  O336  1  0.67263446  0.31451910  0.16886132  1
  O2-  O337  1  0.66395379  0.32026649  0.49537969  1
  O2-  O338  1  0.67076289  0.32045598  0.83290160  1
  O2-  O339  1  0.66147122  0.82716041  0.16090595  1
  O2-  O340  1  0.66822444  0.81025370  0.50120669  1
  O2-  O341  1  0.67118796  0.83164638  0.83286531  1
  O2-  O342  1  0.17055385  0.32147138  0.16717116  1
  O2-  O343  1  0.16318374  0.32025876  0.50508912  1
  O2-  O344  1  0.16786275  0.31785588  0.83336248  1
  O2-  O345  1  0.16875120  0.82291440  0.16473155  1
  O2-  O346  1  0.16871251  0.83069979  0.50075340  1
  O2-  O347  1  0.15958447  0.82647427  0.84117542  1
  O2-  O348  1  0.49957150  0.31800498  0.16733388  1
  O2-  O349  1  0.50551986  0.32802006  0.49640944  1
  O2-  O350  1  0.50454207  0.33500332  0.83133347  1
  O2-  O351  1  0.50280697  0.82905917  0.16279406  1
  O2-  O352  1  0.49208665  0.81499910  0.50369933  1
  O2-  O353  1  0.50405497  0.81665617  0.82441514  1
  O2-  O354  1  0.82972899  0.32363702  0.17306798  1
  O2-  O355  1  0.83537693  0.31520931  0.49256775  1
  O2-  O356  1  0.82825662  0.31968566  0.83462648  1
  O2-  O357  1  0.83329723  0.81719857  0.17070006  1
  O2-  O358  1  0.82918891  0.81070733  0.50703748  1
  O2-  O359  1  0.83079262  0.83610336  0.83876580  1
  O2-  O360  1  0.09501545  0.08305603  0.10946607  1
  O2-  O361  1  0.07888760  0.08082612  0.43575091  1
  O2-  O362  1  0.08880732  0.08221295  0.77855204  1
  O2-  O363  1  0.06757099  0.57899208  0.10672900  1
  O2-  O364  1  0.10346670  0.57017334  0.45465186  1
  O2-  O365  1  0.09974874  0.58043025  0.75679926  1
  O2-  O366  1  0.40974642  0.08020693  0.09830251  1
  O2-  O367  1  0.43295263  0.07062570  0.44393413  1
  O2-  O368  1  0.40898980  0.07970681  0.79138339  1
  O2-  O369  1  0.42377832  0.57581358  0.12808690  1
  O2-  O370  1  0.42233928  0.58420376  0.43281488  1
  O2-  O371  1  0.40865588  0.58321417  0.78411942  1
  O2-  O372  1  0.74278294  0.08314588  0.10420107  1
  O2-  O373  1  0.75999380  0.07968621  0.44391086  1
  O2-  O374  1  0.74172296  0.08718420  0.78254201  1
  O2-  O375  1  0.75189561  0.58314042  0.12029378  1
  O2-  O376  1  0.73699054  0.57935712  0.44583022  1
  O2-  O377  1  0.74408293  0.56874878  0.76021141  1
  O2-  O378  1  0.24763861  0.08347624  0.22296847  1
  O2-  O379  1  0.24950392  0.08205965  0.55320885  1
  O2-  O380  1  0.25944881  0.07647743  0.87641254  1
  O2-  O381  1  0.25057991  0.57852386  0.20917020  1
  O2-  O382  1  0.25363193  0.56985214  0.56109854  1
  O2-  O383  1  0.27309766  0.57773103  0.87773764  1
  O2-  O384  1  0.59107672  0.08478294  0.23470420  1
  O2-  O385  1  0.59822852  0.08067884  0.53803654  1
  O2-  O386  1  0.58516865  0.07788469  0.89576656  1
  O2-  O387  1  0.57185298  0.58204605  0.21973600  1
  O2-  O388  1  0.58031393  0.57646815  0.55792098  1
  O2-  O389  1  0.56268506  0.58646619  0.89137433  1
  O2-  O390  1  0.92495039  0.08963433  0.24081085  1
  O2-  O391  1  0.90957150  0.08570226  0.54878672  1
  O2-  O392  1  0.87958061  0.08058796  0.88705529  1
  O2-  O393  1  0.90898291  0.57114241  0.22037934  1
  O2-  O394  1  0.90877685  0.57579096  0.55672028  1
  O2-  O395  1  0.90295289  0.57977943  0.89734499  1
  O2-  O396  1  0.08308048  0.41339897  0.07993301  1
  O2-  O397  1  0.10028153  0.42255394  0.44963115  1
  O2-  O398  1  0.08022239  0.41816475  0.78074713  1
  O2-  O399  1  0.07514333  0.91535553  0.11600966  1
  O2-  O400  1  0.08216526  0.91801766  0.44509380  1
  O2-  O401  1  0.06961381  0.91834887  0.78401426  1
  O2-  O402  1  0.40887025  0.41161643  0.08613969  1
  O2-  O403  1  0.43547642  0.42101047  0.43189346  1
  O2-  O404  1  0.42736143  0.42242809  0.78081026  1
  O2-  O405  1  0.42681114  0.91919078  0.11245307  1
  O2-  O406  1  0.41254075  0.91571734  0.44166313  1
  O2-  O407  1  0.43510487  0.91358513  0.76684434  1
  O2-  O408  1  0.75142533  0.41935486  0.11616279  1
  O2-  O409  1  0.71749083  0.41947156  0.40949595  1
  O2-  O410  1  0.73310819  0.42214530  0.78229660  1
  O2-  O411  1  0.75354097  0.91717616  0.11822268  1
  O2-  O412  1  0.74598272  0.91538575  0.43324584  1
  O2-  O413  1  0.74366014  0.91777157  0.76141492  1
  O2-  O414  1  0.24466115  0.41669842  0.24143788  1
  O2-  O415  1  0.23894124  0.41909853  0.55560153  1
  O2-  O416  1  0.25664369  0.42314929  0.88714094  1
  O2-  O417  1  0.24689986  0.91754146  0.22162130  1
  O2-  O418  1  0.25326659  0.92001658  0.56125705  1
  O2-  O419  1  0.25191166  0.91926296  0.89526098  1
  O2-  O420  1  0.60689414  0.41269834  0.23443953  1
  O2-  O421  1  0.58990467  0.42762483  0.55754995  1
  O2-  O422  1  0.60434831  0.42066121  0.88861980  1
  O2-  O423  1  0.58844903  0.92009554  0.22487027  1
  O2-  O424  1  0.57781690  0.91342050  0.59344352  1
  O2-  O425  1  0.58229667  0.91538451  0.87793545  1
  O2-  O426  1  0.90604835  0.42173422  0.23330722  1
  O2-  O427  1  0.92584461  0.42030302  0.56146150  1
  O2-  O428  1  0.89874952  0.42126628  0.88319909  1
  O2-  O429  1  0.91316844  0.92044181  0.22124077  1
  O2-  O430  1  0.90894605  0.92018366  0.56026023  1
  O2-  O431  1  0.90294538  0.93177658  0.87306176  1
  O2-  O432  1  0.00183951  -0.02807705  -0.00757116  1
  O2-  O433  1  0.01345734  0.00548263  0.31765799  1
  O2-  O434  1  -0.00598792  -0.01770395  0.67288731  1
  O2-  O435  1  -0.00685274  0.49854030  -0.00357281  1
  O2-  O436  1  -0.00246262  0.50241884  0.33477154  1
  O2-  O437  1  0.01057385  0.49864732  0.63574827  1
  O2-  O438  1  0.35200841  0.00563775  -0.01946615  1
  O2-  O439  1  0.33527131  -0.00029697  0.33196890  1
  O2-  O440  1  0.33886025  0.01197952  0.65705017  1
  O2-  O441  1  0.33553747  0.50873033  -0.00492741  1
  O2-  O442  1  0.33775028  0.51264772  0.30841672  1
  O2-  O443  1  0.31855056  0.51419661  0.68522145  1
  O2-  O444  1  0.67087489  -0.01894817  -0.00098876  1
  O2-  O445  1  0.65857530  0.00344521  0.35504202  1
  O2-  O446  1  0.66273089  0.01341670  0.67568123  1
  O2-  O447  1  0.66992099  0.50896598  -0.00683985  1
  O2-  O448  1  0.66465750  0.51401460  0.33184303  1
  O2-  O449  1  0.66197826  0.49571788  0.66630010  1
  O2-  O450  1  0.16646641  -0.01527791  -0.00528022  1
  O2-  O451  1  0.17416671  -0.00447642  0.34456057  1
  O2-  O452  1  0.17391996  0.00385972  0.67432656  1
  O2-  O453  1  0.14550884  0.49201516  0.00301108  1
  O2-  O454  1  0.18002142  0.50314413  0.35259510  1
  O2-  O455  1  0.16109538  0.49713399  0.64827602  1
  O2-  O456  1  0.50856823  0.00202435  0.01895890  1
  O2-  O457  1  0.49594401  0.00509188  0.33112821  1
  O2-  O458  1  0.50897226  0.01274056  0.68249899  1
  O2-  O459  1  0.49372090  0.51037944  -0.00349384  1
  O2-  O460  1  0.50023661  0.50993659  0.32724626  1
  O2-  O461  1  0.50265379  0.49454214  0.66905706  1
  O2-  O462  1  0.83454994  -0.01550370  -0.00215163  1
  O2-  O463  1  0.82646639  0.00992006  0.32292315  1
  O2-  O464  1  0.82764165  0.00864603  0.65504666  1
  O2-  O465  1  0.82638330  0.49431540  -0.01266098  1
  O2-  O466  1  0.81883307  0.49692851  0.30312248  1
  O2-  O467  1  0.83926426  0.49598204  0.66717634  1
  O2-  O468  1  0.41767515  0.75307732  0.06765415  1
  O2-  O469  1  0.91167271  0.25357180  0.25916811  1
  O2-  O470  1  0.08347716  0.25037047  0.08051108  1
  O2-  O471  1  0.25574380  0.25113929  0.60768165  1
  O2-  O472  1  0.41673631  0.25681546  0.40666729  1
  O2-  O473  1  0.58371763  0.24957894  0.27000657  1
  O2-  O474  1  0.24732439  0.25048032  0.26600503  1
  O2-  O475  1  0.90761102  0.74820309  0.93699555  1
  O2-  O476  1  0.42913879  0.25750590  0.72410121  1
  O2-  O477  1  0.75729941  0.75030019  0.75001628  1
  O2-  O478  1  0.24864039  0.75262753  0.93210434  1
  O2-  O479  1  0.74755454  0.75054152  0.05599748  1
  O2-  O480  1  0.24634422  0.75194203  0.59048777  1
  O2-  O481  1  0.57580858  0.75172628  0.25753989  1
  O2-  O482  1  0.08272764  0.74745085  0.06173450  1
  O2-  O483  1  0.41543991  0.25039630  0.07453817  1
  O2-  O484  1  0.08199174  0.24935501  0.72357418  1
  O2-  O485  1  0.92339926  0.25279596  0.60092053  1
  O2-  O486  1  0.08543117  0.74997089  0.73607950  1
  O2-  O487  1  0.09430133  0.75267693  0.40893426  1
  O2-  O488  1  0.59297522  0.74965516  0.94493560  1
  O2-  O489  1  0.25216295  0.75054232  0.26903959  1
  O2-  O490  1  0.57744094  0.25460738  0.92576406  1
  O2-  O491  1  0.57182655  0.24973979  0.61008651  1
  O2-  O492  1  0.41338338  0.74927984  0.39279581  1
