# generated using pymatgen
data_Ca108Mn108O277
_symmetry_space_group_name_H-M   'P 1'
_cell_length_a   16.03094442
_cell_length_b   22.31437553
_cell_length_c   16.39231863
_cell_angle_alpha   90.00291930
_cell_angle_beta   89.99522810
_cell_angle_gamma   89.99758241
_symmetry_Int_Tables_number   1
_chemical_formula_structural   Ca108Mn108O277
_chemical_formula_sum   'Ca108 Mn108 O277'
_cell_volume   5863.86860918
_cell_formula_units_Z   1
loop_
 _symmetry_equiv_pos_site_id
 _symmetry_equiv_pos_as_xyz
  1  'x, y, z'
loop_
 _atom_type_symbol
 _atom_type_oxidation_number
  Ca2+  2.0
  Mn3.34+  3.34
  O2-  -2.0
loop_
 _atom_site_type_symbol
 _atom_site_label
 _atom_site_symmetry_multiplicity
 _atom_site_fract_x
 _atom_site_fract_y
 _atom_site_fract_z
 _atom_site_occupancy
  Ca2+  Ca0  1  0.08432463  0.24306235  0.24816362  1
  Ca2+  Ca1  1  0.08215263  0.25402191  0.59097757  1
  Ca2+  Ca2  1  0.07357517  0.26058772  0.91098119  1
  Ca2+  Ca3  1  0.08022128  0.75203509  0.25667958  1
  Ca2+  Ca4  1  0.08584942  0.75003317  0.58314821  1
  Ca2+  Ca5  1  0.09759191  0.75362385  0.91657434  1
  Ca2+  Ca6  1  0.43594244  0.24500179  0.24428602  1
  Ca2+  Ca7  1  0.41587704  0.24251468  0.58902166  1
  Ca2+  Ca8  1  0.45095763  0.23149765  0.90928140  1
  Ca2+  Ca9  1  0.40132108  0.74383412  0.27056426  1
  Ca2+  Ca10  1  0.39073184  0.75334709  0.57926012  1
  Ca2+  Ca11  1  0.41520643  0.75433960  0.89731457  1
  Ca2+  Ca12  1  0.73051649  0.23911120  0.24252237  1
  Ca2+  Ca13  1  0.74313064  0.23456645  0.59715943  1
  Ca2+  Ca14  1  0.72556898  0.23924259  0.90444648  1
  Ca2+  Ca15  1  0.75942851  0.76473403  0.24973844  1
  Ca2+  Ca16  1  0.77029626  0.75575781  0.59810053  1
  Ca2+  Ca17  1  0.73889872  0.75432145  0.88917744  1
  Ca2+  Ca18  1  0.25608292  0.25410931  0.09423789  1
  Ca2+  Ca19  1  0.25159985  0.25376847  0.42462165  1
  Ca2+  Ca20  1  0.25974190  0.25396573  0.73379783  1
  Ca2+  Ca21  1  0.25484470  0.76671710  0.08055053  1
  Ca2+  Ca22  1  0.25804201  0.74655498  0.44148625  1
  Ca2+  Ca23  1  0.25245788  0.75229309  0.72994565  1
  Ca2+  Ca24  1  0.58305591  0.24765733  0.08215761  1
  Ca2+  Ca25  1  0.58274698  0.24378152  0.40440962  1
  Ca2+  Ca26  1  0.59256656  0.23677081  0.75238649  1
  Ca2+  Ca27  1  0.57814907  0.75664390  0.07540838  1
  Ca2+  Ca28  1  0.56267353  0.76120660  0.41692140  1
  Ca2+  Ca29  1  0.58989320  0.75341602  0.75451021  1
  Ca2+  Ca30  1  0.91039397  0.25458532  0.08630796  1
  Ca2+  Ca31  1  0.91572939  0.24145249  0.42112480  1
  Ca2+  Ca32  1  0.89344958  0.23829265  0.74013464  1
  Ca2+  Ca33  1  0.91689930  0.75354639  0.09560474  1
  Ca2+  Ca34  1  0.92507320  0.75244429  0.44136764  1
  Ca2+  Ca35  1  0.90596431  0.74295799  0.72827281  1
  Ca2+  Ca36  1  0.43045032  0.57575645  0.27948124  1
  Ca2+  Ca37  1  0.26960633  0.07334508  0.71891878  1
  Ca2+  Ca38  1  0.07244530  0.59082973  0.25501174  1
  Ca2+  Ca39  1  0.58741541  0.10234403  0.07952001  1
  Ca2+  Ca40  1  0.60082282  0.58593568  0.06534578  1
  Ca2+  Ca41  1  0.59039945  0.59341129  0.75153730  1
  Ca2+  Ca42  1  0.77293377  0.59106516  0.24292814  1
  Ca2+  Ca43  1  0.94900739  0.59576333  0.08393850  1
  Ca2+  Ca44  1  0.26105064  0.07062047  0.71496635  1
  Ca2+  Ca45  1  0.37053053  0.59943654  0.56863061  1
  Ca2+  Ca46  1  0.43095527  0.11017766  0.25002461  1
  Ca2+  Ca47  1  0.59137273  0.10629794  0.07171303  1
  Ca2+  Ca48  1  0.77989350  0.58778555  0.60973718  1
  Ca2+  Ca49  1  0.74727250  0.60625695  0.88798283  1
  Ca2+  Ca50  1  0.04871641  0.09575865  0.24699282  1
  Ca2+  Ca51  1  0.92178228  0.10413645  0.10107051  1
  Ca2+  Ca52  1  0.21770095  0.59504806  0.07193733  1
  Ca2+  Ca53  1  0.78202030  0.11079221  0.25868349  1
  Ca2+  Ca54  1  0.23836313  0.09234262  0.08204616  1
  Ca2+  Ca55  1  0.73373162  0.10007925  0.88998018  1
  Ca2+  Ca56  1  0.58888897  0.10696061  0.41484556  1
  Ca2+  Ca57  1  0.24976820  0.61049930  0.42725807  1
  Ca2+  Ca58  1  0.10964260  0.60781151  0.58462846  1
  Ca2+  Ca59  1  0.38225638  0.59956016  0.57228525  1
  Ca2+  Ca60  1  0.06832977  0.08607259  0.59225034  1
  Ca2+  Ca61  1  0.93289102  0.60480017  0.43972177  1
  Ca2+  Ca62  1  0.93343810  0.59362576  0.73880992  1
  Ca2+  Ca63  1  0.58605918  0.09577565  0.75635526  1
  Ca2+  Ca64  1  0.77456890  0.59269133  0.61564791  1
  Ca2+  Ca65  1  0.42108468  0.58007443  0.28533643  1
  Ca2+  Ca66  1  0.42033613  0.59382930  0.90455918  1
  Ca2+  Ca67  1  0.20885497  0.59156594  0.07571641  1
  Ca2+  Ca68  1  0.56757630  0.57521814  0.42147618  1
  Ca2+  Ca69  1  0.24538560  0.58851312  0.72586705  1
  Ca2+  Ca70  1  0.22672877  0.09044169  0.08310528  1
  Ca2+  Ca71  1  0.76461190  0.08670925  0.61771797  1
  Ca2+  Ca72  1  0.39933586  0.91349706  0.90407214  1
  Ca2+  Ca73  1  0.59649404  0.91256150  0.07618016  1
  Ca2+  Ca74  1  0.24161442  0.90305280  0.43148513  1
  Ca2+  Ca75  1  0.40782411  0.91686737  0.89919331  1
  Ca2+  Ca76  1  0.58048016  0.41398855  0.40850000  1
  Ca2+  Ca77  1  0.93668099  0.41009785  0.74223963  1
  Ca2+  Ca78  1  0.07928417  0.91087641  0.24959571  1
  Ca2+  Ca79  1  0.58338136  0.91638547  0.73908086  1
  Ca2+  Ca80  1  0.75830876  0.40936607  0.58371403  1
  Ca2+  Ca81  1  0.74918722  0.41215026  0.58715790  1
  Ca2+  Ca82  1  0.92653094  0.41218319  0.73946672  1
  Ca2+  Ca83  1  0.58372147  0.91266704  0.07663454  1
  Ca2+  Ca84  1  0.58983220  0.40335823  0.09817815  1
  Ca2+  Ca85  1  0.07931352  0.91178435  0.59196707  1
  Ca2+  Ca86  1  0.59377913  0.91570178  0.73924506  1
  Ca2+  Ca87  1  0.41893411  0.89827487  0.25351548  1
  Ca2+  Ca88  1  0.77309682  0.92410928  0.60710587  1
  Ca2+  Ca89  1  0.09663733  0.90779691  0.92655688  1
  Ca2+  Ca90  1  0.58393525  0.40618110  0.08952617  1
  Ca2+  Ca91  1  0.06054110  0.39779379  0.24276017  1
  Ca2+  Ca92  1  0.40693644  0.39300520  0.90813223  1
  Ca2+  Ca93  1  0.23237615  0.39887951  0.07639796  1
  Ca2+  Ca94  1  0.56863221  0.41169532  0.41150931  1
  Ca2+  Ca95  1  0.75853604  0.91240768  0.25759074  1
  Ca2+  Ca96  1  0.93702755  0.91282728  0.07329680  1
  Ca2+  Ca97  1  0.91359587  0.90647445  0.43140168  1
  Ca2+  Ca98  1  0.07166642  0.39379131  0.24620062  1
  Ca2+  Ca99  1  0.76062438  0.39639683  0.25601762  1
  Ca2+  Ca100  1  0.75893024  0.40337789  0.91320190  1
  Ca2+  Ca101  1  0.91760762  0.39163167  0.42483027  1
  Ca2+  Ca102  1  0.40758301  0.89854634  0.25203390  1
  Ca2+  Ca103  1  0.41655316  0.39737462  0.25209253  1
  Ca2+  Ca104  1  0.57434788  0.41034854  0.74314057  1
  Ca2+  Ca105  1  0.39108844  0.41244538  0.58930773  1
  Ca2+  Ca106  1  0.58524439  0.40922833  0.74272609  1
  Ca2+  Ca107  1  0.92543800  0.90919953  0.07120209  1
  Mn3.34+  Mn108  1  0.08004898  0.33703205  0.07849800  1
  Mn3.34+  Mn109  1  0.08799583  0.32964585  0.42235033  1
  Mn3.34+  Mn110  1  0.09541662  0.34129213  0.75375877  1
  Mn3.34+  Mn111  1  0.08920594  0.83585047  0.08923385  1
  Mn3.34+  Mn112  1  0.08251518  0.83584295  0.41986898  1
  Mn3.34+  Mn113  1  0.07952554  0.84133834  0.75510196  1
  Mn3.34+  Mn114  1  0.41217691  0.32924790  0.08110509  1
  Mn3.34+  Mn115  1  0.41247377  0.32943919  0.42269010  1
  Mn3.34+  Mn116  1  0.41212645  0.32932833  0.74865820  1
  Mn3.34+  Mn117  1  0.41345883  0.83808523  0.08176263  1
  Mn3.34+  Mn118  1  0.41461820  0.83248468  0.42826776  1
  Mn3.34+  Mn119  1  0.41622489  0.83839265  0.73962546  1
  Mn3.34+  Mn120  1  0.75792188  0.33088293  0.07960488  1
  Mn3.34+  Mn121  1  0.75084756  0.32224780  0.41986353  1
  Mn3.34+  Mn122  1  0.75048191  0.33110688  0.75380835  1
  Mn3.34+  Mn123  1  0.75311099  0.83194997  0.08011302  1
  Mn3.34+  Mn124  1  0.74672351  0.83897570  0.42405599  1
  Mn3.34+  Mn125  1  0.75505733  0.83723748  0.74962601  1
  Mn3.34+  Mn126  1  0.25054960  0.32804061  0.25473651  1
  Mn3.34+  Mn127  1  0.24479936  0.33687099  0.58229332  1
  Mn3.34+  Mn128  1  0.24777795  0.32529754  0.91233777  1
  Mn3.34+  Mn129  1  0.24452224  0.83080212  0.25342024  1
  Mn3.34+  Mn130  1  0.24531740  0.84122720  0.58857802  1
  Mn3.34+  Mn131  1  0.24876933  0.83272920  0.91205045  1
  Mn3.34+  Mn132  1  0.58479992  0.33111105  0.24949775  1
  Mn3.34+  Mn133  1  0.58173000  0.33037963  0.57679684  1
  Mn3.34+  Mn134  1  0.58397230  0.33457119  0.91528568  1
  Mn3.34+  Mn135  1  0.58970805  0.83245286  0.25268367  1
  Mn3.34+  Mn136  1  0.58446515  0.84117467  0.57502185  1
  Mn3.34+  Mn137  1  0.58340851  0.83549927  0.91132152  1
  Mn3.34+  Mn138  1  0.91095556  0.32148164  0.24905292  1
  Mn3.34+  Mn139  1  0.92051725  0.33068920  0.58093669  1
  Mn3.34+  Mn140  1  0.92099550  0.33910570  0.91834004  1
  Mn3.34+  Mn141  1  0.91804767  0.83417711  0.25588953  1
  Mn3.34+  Mn142  1  0.91910312  0.83829781  0.58784646  1
  Mn3.34+  Mn143  1  0.91784623  0.82464856  0.90747312  1
  Mn3.34+  Mn144  1  0.25095372  0.16870233  0.25380927  1
  Mn3.34+  Mn145  1  0.07886941  0.15930951  0.41828773  1
  Mn3.34+  Mn146  1  0.91872608  0.66527642  0.91383756  1
  Mn3.34+  Mn147  1  0.74147447  0.66802261  0.41839366  1
  Mn3.34+  Mn148  1  0.25151047  0.17029053  0.90691623  1
  Mn3.34+  Mn149  1  0.75415691  0.67214130  0.08160187  1
  Mn3.34+  Mn150  1  0.75541504  0.16810193  0.08087438  1
  Mn3.34+  Mn151  1  0.08205448  0.67914104  0.08805240  1
  Mn3.34+  Mn152  1  0.41657671  0.66448669  0.08031818  1
  Mn3.34+  Mn153  1  0.58517734  0.66888975  0.91262221  1
  Mn3.34+  Mn154  1  0.42045117  0.16124042  0.74700571  1
  Mn3.34+  Mn155  1  0.57859252  0.16584987  0.58123422  1
  Mn3.34+  Mn156  1  0.91121994  0.16834018  0.91247425  1
  Mn3.34+  Mn157  1  0.40631747  0.67000537  0.07708587  1
  Mn3.34+  Mn158  1  0.25121980  0.16442771  0.58016875  1
  Mn3.34+  Mn159  1  0.41339356  0.16738085  0.42311748  1
  Mn3.34+  Mn160  1  0.07969843  0.15959376  0.75090353  1
  Mn3.34+  Mn161  1  0.75396407  0.16422920  0.42310300  1
  Mn3.34+  Mn162  1  0.59656611  0.66003858  0.24186419  1
  Mn3.34+  Mn163  1  0.08995678  0.16303195  0.41709067  1
  Mn3.34+  Mn164  1  0.08302717  0.67213255  0.41828851  1
  Mn3.34+  Mn165  1  0.24387841  0.67044841  0.24989889  1
  Mn3.34+  Mn166  1  0.92956820  0.67205764  0.91402184  1
  Mn3.34+  Mn167  1  0.91315145  0.16304947  0.58520385  1
  Mn3.34+  Mn168  1  0.24088558  0.16575280  0.90592131  1
  Mn3.34+  Mn169  1  0.92542003  0.16272093  0.90998803  1
  Mn3.34+  Mn170  1  0.08083636  0.16835408  0.08462685  1
  Mn3.34+  Mn171  1  0.58261292  0.66607376  0.24662780  1
  Mn3.34+  Mn172  1  0.41622687  0.66780512  0.75217428  1
  Mn3.34+  Mn173  1  0.41305775  0.16590558  0.08144731  1
  Mn3.34+  Mn174  1  0.57824170  0.67192048  0.58104263  1
  Mn3.34+  Mn175  1  0.24603702  0.66927308  0.90683721  1
  Mn3.34+  Mn176  1  0.75564046  0.67357390  0.41724110  1
  Mn3.34+  Mn177  1  0.58575962  0.66112004  0.57790819  1
  Mn3.34+  Mn178  1  0.08990974  0.66387108  0.75460001  1
  Mn3.34+  Mn179  1  0.91750924  0.67021960  0.25308520  1
  Mn3.34+  Mn180  1  0.58162013  0.00544640  0.26290472  1
  Mn3.34+  Mn181  1  0.91369792  -0.00198187  0.25841143  1
  Mn3.34+  Mn182  1  0.23252458  0.49452082  0.24422509  1
  Mn3.34+  Mn183  1  0.39790470  0.49896554  0.07539704  1
  Mn3.34+  Mn184  1  0.77347333  0.50534728  0.42400832  1
  Mn3.34+  Mn185  1  0.41236089  0.50497761  0.07777490  1
  Mn3.34+  Mn186  1  0.58714748  0.00056327  0.92485281  1
  Mn3.34+  Mn187  1  0.22501152  0.49494864  0.90877692  1
  Mn3.34+  Mn188  1  0.07584138  -0.00218025  0.41393095  1
  Mn3.34+  Mn189  1  0.92018455  0.50035885  0.24501633  1
  Mn3.34+  Mn190  1  0.39938656  0.49367140  0.42332211  1
  Mn3.34+  Mn191  1  0.41706394  0.50012751  0.74034050  1
  Mn3.34+  Mn192  1  0.92782718  -0.00019502  0.90468811  1
  Mn3.34+  Mn193  1  0.24630402  0.50100384  0.24214603  1
  Mn3.34+  Mn194  1  0.41135677  0.00412823  0.43695385  1
  Mn3.34+  Mn195  1  0.40290453  0.00091706  0.07163351  1
  Mn3.34+  Mn196  1  0.91726358  -0.00509459  0.90330165  1
  Mn3.34+  Mn197  1  0.76592533  0.49910384  0.07878502  1
  Mn3.34+  Mn198  1  0.58924916  0.50005833  0.91904587  1
  Mn3.34+  Mn199  1  0.23923851  0.00268888  0.25606652  1
  Mn3.34+  Mn200  1  0.76161820  0.50734841  0.42530318  1
  Mn3.34+  Mn201  1  0.93612922  0.50046248  0.92846600  1
  Mn3.34+  Mn202  1  0.08002598  -0.00070202  0.73857549  1
  Mn3.34+  Mn203  1  0.77846591  0.49564317  0.07609595  1
  Mn3.34+  Mn204  1  0.75736746  0.00319665  0.08528416  1
  Mn3.34+  Mn205  1  0.75614210  0.00282574  0.42537743  1
  Mn3.34+  Mn206  1  0.25356569  -0.00228853  0.25648889  1
  Mn3.34+  Mn207  1  0.42266539  -0.00239294  0.43774791  1
  Mn3.34+  Mn208  1  0.58325791  0.00862871  0.59694887  1
  Mn3.34+  Mn209  1  0.08071131  0.50007141  0.43199373  1
  Mn3.34+  Mn210  1  0.09381810  0.49362907  0.43116299  1
  Mn3.34+  Mn211  1  0.23982824  0.00168696  0.91856837  1
  Mn3.34+  Mn212  1  0.74582876  0.49614685  0.75088058  1
  Mn3.34+  Mn213  1  0.08679859  0.50359900  0.73377668  1
  Mn3.34+  Mn214  1  0.23381644  0.50040135  0.90443015  1
  Mn3.34+  Mn215  1  0.59631867  0.00028021  0.26180900  1
  O2-  O216  1  0.00052361  0.16644045  -0.00223305  1
  O2-  O217  1  0.00055518  0.16806874  0.33641173  1
  O2-  O218  1  0.00711714  0.16571953  0.66330297  1
  O2-  O219  1  -0.00028780  0.68308637  0.00321690  1
  O2-  O220  1  0.00070732  0.65283649  0.33266067  1
  O2-  O221  1  0.01380358  0.66180443  0.67341946  1
  O2-  O222  1  0.31905896  0.15685975  0.00319209  1
  O2-  O223  1  0.33840631  0.16810404  0.32931064  1
  O2-  O224  1  0.32414020  0.16305228  0.67069227  1
  O2-  O225  1  0.32378548  0.63347568  0.00073200  1
  O2-  O226  1  0.33256270  0.64689938  0.31644870  1
  O2-  O227  1  0.33627745  0.65668261  0.67510868  1
  O2-  O228  1  0.67711688  0.15219383  -0.00226338  1
  O2-  O229  1  0.67708972  0.16070895  0.33805041  1
  O2-  O230  1  0.65919505  0.15372995  0.65492913  1
  O2-  O231  1  0.67155651  0.66111950  -0.00533938  1
  O2-  O232  1  0.67683823  0.64139212  0.32812822  1
  O2-  O233  1  0.67328598  0.65649643  0.65287738  1
  O2-  O234  1  0.16522586  0.17195551  -0.00227728  1
  O2-  O235  1  0.15775896  0.14299157  0.32523714  1
  O2-  O236  1  0.16540843  0.15743699  0.67165831  1
  O2-  O237  1  0.16339957  0.66930411  -0.00024652  1
  O2-  O238  1  0.16179112  0.65148133  0.32778919  1
  O2-  O239  1  0.17046363  0.66675022  0.67771420  1
  O2-  O240  1  0.49509915  0.15501772  0.00426928  1
  O2-  O241  1  0.49438111  0.17189118  0.34118428  1
  O2-  O242  1  0.49561876  0.15154047  0.65982640  1
  O2-  O243  1  0.50151175  0.64361686  0.00058350  1
  O2-  O244  1  0.50980285  0.64644605  0.33435471  1
  O2-  O245  1  0.50432769  0.65422080  0.66909646  1
  O2-  O246  1  0.84123598  0.14201980  -0.00073736  1
  O2-  O247  1  0.82347086  0.19293355  0.34064769  1
  O2-  O248  1  0.83583138  0.16560450  0.66206143  1
  O2-  O249  1  0.84405730  0.66621580  0.00218513  1
  O2-  O250  1  0.83926694  0.64234890  0.34083908  1
  O2-  O251  1  0.84791541  0.65385362  0.67236067  1
  O2-  O252  1  0.00056383  0.32109236  0.00251441  1
  O2-  O253  1  -0.00015763  0.32854186  0.32847821  1
  O2-  O254  1  0.00252597  0.34330308  0.66635756  1
  O2-  O255  1  0.00106271  0.82874915  0.00519541  1
  O2-  O256  1  -0.00092581  0.85453076  0.33465144  1
  O2-  O257  1  0.00474965  0.83498351  0.66695629  1
  O2-  O258  1  0.32528828  0.33885605  0.00394557  1
  O2-  O259  1  0.33991354  0.32690663  0.33173271  1
  O2-  O260  1  0.33168531  0.33835334  0.66782529  1
  O2-  O261  1  0.33531099  0.85328959  -0.00472614  1
  O2-  O262  1  0.32912255  0.84970376  0.33529830  1
  O2-  O263  1  0.33470764  0.83791271  0.66256171  1
  O2-  O264  1  0.66652790  0.35690722  0.00086383  1
  O2-  O265  1  0.66711067  0.34515476  0.33675491  1
  O2-  O266  1  0.66746962  0.35117723  0.66370693  1
  O2-  O267  1  0.66331115  0.84047205  0.00108011  1
  O2-  O268  1  0.67360246  0.84875852  0.32782838  1
  O2-  O269  1  0.66700396  0.84107772  0.66002273  1
  O2-  O270  1  0.16740420  0.31212715  0.00289116  1
  O2-  O271  1  0.16239785  0.35197266  0.32923130  1
  O2-  O272  1  0.16450956  0.32593949  0.66758491  1
  O2-  O273  1  0.16436657  0.82951534  -0.00003521  1
  O2-  O274  1  0.16152862  0.85149563  0.33149681  1
  O2-  O275  1  0.15945357  0.83256191  0.66891855  1
  O2-  O276  1  0.50184315  0.35512170  0.00009801  1
  O2-  O277  1  0.49988339  0.33991260  0.33431173  1
  O2-  O278  1  0.49819019  0.35630436  0.65628464  1
  O2-  O279  1  0.50108668  0.85774721  -0.00477929  1
  O2-  O280  1  0.49665342  0.84499817  0.33321500  1
  O2-  O281  1  0.51480645  0.83747497  0.67554655  1
  O2-  O282  1  0.83843390  0.35417342  0.00224967  1
  O2-  O283  1  0.83513679  0.32624916  0.33920445  1
  O2-  O284  1  0.83286174  0.35151741  0.67056651  1
  O2-  O285  1  0.84091070  0.81993631  0.00355442  1
  O2-  O286  1  0.83444689  0.85256529  0.33499161  1
  O2-  O287  1  0.83254903  0.84094477  0.66579130  1
  O2-  O288  1  0.00262588  0.18427001  0.16001014  1
  O2-  O289  1  0.00414892  0.18155557  0.50143808  1
  O2-  O290  1  -0.00376552  0.19198931  0.82706584  1
  O2-  O291  1  0.00017660  0.68850682  0.16881562  1
  O2-  O292  1  0.00446155  0.67711548  0.49773818  1
  O2-  O293  1  0.00293076  0.68589205  0.83128173  1
  O2-  O294  1  0.33350195  0.18327636  0.16927832  1
  O2-  O295  1  0.33007250  0.18480743  0.49953501  1
  O2-  O296  1  0.33634942  0.18843921  0.83354743  1
  O2-  O297  1  0.32363027  0.68312139  0.16043548  1
  O2-  O298  1  0.33106293  0.67400745  0.50409091  1
  O2-  O299  1  0.34289994  0.67328159  0.84128637  1
  O2-  O300  1  0.66497747  0.17682835  0.14871016  1
  O2-  O301  1  0.66167229  0.18508267  0.49367824  1
  O2-  O302  1  0.66458937  0.17051779  0.82401635  1
  O2-  O303  1  0.66314725  0.68871629  0.15652898  1
  O2-  O304  1  0.65587992  0.69643479  0.49620537  1
  O2-  O305  1  0.66022335  0.67918070  0.83272305  1
  O2-  O306  1  0.17223081  0.18341776  0.15721373  1
  O2-  O307  1  0.16359972  0.17551173  0.50064471  1
  O2-  O308  1  0.16167794  0.19100532  0.82936671  1
  O2-  O309  1  0.16929202  0.68969624  0.16221660  1
  O2-  O310  1  0.16293062  0.68027190  0.49295988  1
  O2-  O311  1  0.17207677  0.69491840  0.82894047  1
  O2-  O312  1  0.49715658  0.17132748  0.15564117  1
  O2-  O313  1  0.49934082  0.19015020  0.49600291  1
  O2-  O314  1  0.50408447  0.16878392  0.81810556  1
  O2-  O315  1  0.49514368  0.68761463  0.16726347  1
  O2-  O316  1  0.49538888  0.68187068  0.50737216  1
  O2-  O317  1  0.50040781  0.67544952  0.83361455  1
  O2-  O318  1  0.83258653  0.18182649  0.16183154  1
  O2-  O319  1  0.83160202  0.18482834  0.50389350  1
  O2-  O320  1  0.82717718  0.17367549  0.83884237  1
  O2-  O321  1  0.82882912  0.68773328  0.17382865  1
  O2-  O322  1  0.82724082  0.67586340  0.50583728  1
  O2-  O323  1  0.83393622  0.68212808  0.84239566  1
  O2-  O324  1  0.00210343  0.31477058  0.17153027  1
  O2-  O325  1  -0.00492685  0.31559646  0.49260119  1
  O2-  O326  1  -0.00096271  0.32771993  0.82622410  1
  O2-  O327  1  0.00147216  0.81770597  0.16914855  1
  O2-  O328  1  0.00152532  0.82569250  0.50058067  1
  O2-  O329  1  0.00306823  0.80474413  0.83452947  1
  O2-  O330  1  0.33497393  0.31947955  0.17166919  1
  O2-  O331  1  0.33872988  0.31455012  0.50595268  1
  O2-  O332  1  0.34291141  0.31305817  0.84260927  1
  O2-  O333  1  0.34162983  0.81953920  0.17998208  1
  O2-  O334  1  0.32492947  0.82665623  0.49828533  1
  O2-  O335  1  0.33870186  0.83414276  0.83569986  1
  O2-  O336  1  0.66156594  0.32531422  0.15850905  1
  O2-  O337  1  0.66766243  0.31609431  0.49803043  1
  O2-  O338  1  0.66696622  0.32265244  0.83408753  1
  O2-  O339  1  0.66679684  0.81546323  0.15829718  1
  O2-  O340  1  0.66348286  0.81291741  0.49834676  1
  O2-  O341  1  0.65870444  0.82573544  0.82641231  1
  O2-  O342  1  0.16297643  0.32099137  0.16834558  1
  O2-  O343  1  0.16533258  0.31727212  0.50058804  1
  O2-  O344  1  0.17067921  0.30636073  0.82988370  1
  O2-  O345  1  0.16563313  0.81393795  0.17081781  1
  O2-  O346  1  0.16510832  0.82062255  0.49550731  1
  O2-  O347  1  0.16441544  0.82063405  0.83556291  1
  O2-  O348  1  0.50255623  0.32679006  0.16193291  1
  O2-  O349  1  0.50772374  0.31657370  0.48981222  1
  O2-  O350  1  0.50673425  0.32612161  0.82647374  1
  O2-  O351  1  0.50412704  0.82879552  0.16595330  1
  O2-  O352  1  0.49336769  0.81474246  0.51058391  1
  O2-  O353  1  0.49700410  0.82434474  0.83812023  1
  O2-  O354  1  0.82372981  0.31143137  0.17523224  1
  O2-  O355  1  0.82661796  0.31517923  0.50787556  1
  O2-  O356  1  0.83794414  0.33178896  0.82741591  1
  O2-  O357  1  0.83571393  0.82322399  0.16475396  1
  O2-  O358  1  0.83434034  0.82224199  0.49886723  1
  O2-  O359  1  0.83457080  0.81487553  0.83066108  1
  O2-  O360  1  0.09502345  0.08402923  0.11877045  1
  O2-  O361  1  0.07670453  0.07766705  0.45191448  1
  O2-  O362  1  0.09489991  0.07111520  0.77955452  1
  O2-  O363  1  0.08589628  0.58769976  0.11861014  1
  O2-  O364  1  0.08412963  0.58175611  0.45112035  1
  O2-  O365  1  0.08496074  0.57462255  0.78239459  1
  O2-  O366  1  0.38899271  0.08262495  0.11178542  1
  O2-  O367  1  0.43477113  0.08408338  0.44056850  1
  O2-  O368  1  0.39195407  0.08259489  0.76877745  1
  O2-  O369  1  0.40688710  0.57643139  0.14177760  1
  O2-  O370  1  0.41392970  0.57592829  0.44075751  1
  O2-  O371  1  0.41632357  0.57921085  0.77274505  1
  O2-  O372  1  0.75276099  0.08342637  0.11937978  1
  O2-  O373  1  0.74437445  0.08238966  0.45319224  1
  O2-  O374  1  0.73039713  0.06652451  0.76290320  1
  O2-  O375  1  0.74927968  0.57926980  0.11131513  1
  O2-  O376  1  0.73186891  0.58852927  0.45838191  1
  O2-  O377  1  0.74059389  0.57668351  0.75678462  1
  O2-  O378  1  0.25244546  0.08223632  0.21709099  1
  O2-  O379  1  0.24080369  0.08252328  0.57965680  1
  O2-  O380  1  0.24485572  0.08033301  0.87528250  1
  O2-  O381  1  0.23437013  0.58131683  0.20862425  1
  O2-  O382  1  0.24993522  0.56877130  0.54667460  1
  O2-  O383  1  0.23739640  0.58166431  0.87197394  1
  O2-  O384  1  0.56994398  0.07814928  0.20896836  1
  O2-  O385  1  0.57802461  0.07940228  0.54627397  1
  O2-  O386  1  0.59289883  0.07620750  0.90176685  1
  O2-  O387  1  0.57447803  0.57997090  0.20751540  1
  O2-  O388  1  0.59568168  0.57997867  0.55388585  1
  O2-  O389  1  0.59442928  0.58305729  0.89098048  1
  O2-  O390  1  0.91115957  0.07602229  0.22879469  1
  O2-  O391  1  0.91745727  0.08520491  0.56753854  1
  O2-  O392  1  0.92133531  0.08129490  0.87689956  1
  O2-  O393  1  0.91692378  0.58433688  0.21317851  1
  O2-  O394  1  0.85941671  0.54353341  0.51867706  1
  O2-  O395  1  0.91578714  0.57964927  0.87965551  1
  O2-  O396  1  0.10279958  0.42166751  0.12069437  1
  O2-  O397  1  0.06476097  0.41315356  0.43222438  1
  O2-  O398  1  0.07692027  0.43069791  0.77923604  1
  O2-  O399  1  0.06383178  0.91872945  0.11182231  1
  O2-  O400  1  0.07800165  0.91907640  0.45099605  1
  O2-  O401  1  0.06823697  0.93237961  0.79445936  1
  O2-  O402  1  0.41194755  0.41850779  0.10992982  1
  O2-  O403  1  0.43408886  0.41647011  0.44935205  1
  O2-  O404  1  0.42075675  0.42009931  0.77460614  1
  O2-  O405  1  0.42927782  0.92460815  0.12591484  1
  O2-  O406  1  0.40391443  0.91723466  0.44279616  1
  O2-  O407  1  0.44572394  0.91974006  0.77160872  1
  O2-  O408  1  0.74761532  0.41894727  0.12475245  1
  O2-  O409  1  0.77019923  0.41781124  0.44215871  1
  O2-  O410  1  0.73500922  0.41724794  0.78168247  1
  O2-  O411  1  0.73671277  0.92116829  0.11406713  1
  O2-  O412  1  0.76036007  0.92264890  0.45810969  1
  O2-  O413  1  0.72538167  0.91896116  0.75621704  1
  O2-  O414  1  0.25778776  0.41380975  0.22458274  1
  O2-  O415  1  0.25527418  0.41295362  0.55842424  1
  O2-  O416  1  0.25064519  0.41376290  0.90353697  1
  O2-  O417  1  0.25822920  0.91856537  0.21629776  1
  O2-  O418  1  0.22409934  0.91901176  0.56197181  1
  O2-  O419  1  0.24111273  0.92023781  0.89479840  1
  O2-  O420  1  0.57921968  0.41893467  0.22894447  1
  O2-  O421  1  0.60727149  0.41709121  0.53994666  1
  O2-  O422  1  0.58303632  0.42026162  0.87983144  1
  O2-  O423  1  0.59046738  0.92423866  0.21091643  1
  O2-  O424  1  0.58264818  0.93093037  0.56929214  1
  O2-  O425  1  0.58014006  0.92248688  0.88254994  1
  O2-  O426  1  0.92343752  0.41420222  0.23560298  1
  O2-  O427  1  0.89620322  0.41329270  0.55797145  1
  O2-  O428  1  0.91052340  0.43052128  0.87368329  1
  O2-  O429  1  0.91050286  0.92112705  0.20827711  1
  O2-  O430  1  0.91739114  0.91927325  0.56431633  1
  O2-  O431  1  0.92962146  0.91171935  0.90835475  1
  O2-  O432  1  -0.00368992  -0.00904093  -0.00066841  1
  O2-  O433  1  0.01834171  -0.00286893  0.30626744  1
  O2-  O434  1  0.01847441  -0.00053994  0.65518866  1
  O2-  O435  1  -0.01197876  0.51646736  0.01805599  1
  O2-  O436  1  0.00674294  0.50515384  0.33357670  1
  O2-  O437  1  -0.01585095  0.50266745  0.69527674  1
  O2-  O438  1  0.34752402  -0.00359415  -0.03735869  1
  O2-  O439  1  0.34076380  -0.00085895  0.33597694  1
  O2-  O440  1  0.35015289  0.00607036  0.65903233  1
  O2-  O441  1  0.34641709  0.50935236  -0.03380708  1
  O2-  O442  1  0.33643903  0.50339238  0.31940820  1
  O2-  O443  1  0.35543311  0.50931552  0.64991695  1
  O2-  O444  1  0.64984008  0.00486800  0.03162382  1
  O2-  O445  1  0.66307165  0.00551781  0.35267777  1
  O2-  O446  1  0.68151306  0.00460308  0.63996839  1
  O2-  O447  1  0.65521465  0.49138290  0.02765300  1
  O2-  O448  1  0.65073362  0.49554870  0.37770608  1
  O2-  O449  1  0.67532925  0.48029203  0.66190772  1
  O2-  O450  1  0.18674555  0.01362546  0.01349655  1
  O2-  O451  1  0.17328140  -0.01446599  0.34766489  1
  O2-  O452  1  0.17403031  -0.00286804  0.68522503  1
  O2-  O453  1  0.19235035  0.50313532  0.02273446  1
  O2-  O454  1  0.17099772  0.51118407  0.34193244  1
  O2-  O455  1  0.15567350  0.51919474  0.65934415  1
  O2-  O456  1  0.50356185  -0.01663907  0.00386004  1
  O2-  O457  1  0.49653460  -0.00734835  0.34035086  1
  O2-  O458  1  0.53178459  0.00531781  0.69267884  1
  O2-  O459  1  0.50330120  0.50500682  0.00627426  1
  O2-  O460  1  0.49324491  0.50217079  0.34503709  1
  O2-  O461  1  0.52657270  0.50085728  0.71342705  1
  O2-  O462  1  0.83516768  -0.00767158  -0.00411007  1
  O2-  O463  1  0.82039149  -0.00531381  0.32343298  1
  O2-  O464  1  0.83542776  0.00596713  0.66424644  1
  O2-  O465  1  0.81901256  0.50254468  -0.03029655  1
  O2-  O466  1  0.81343801  0.50460873  0.30985471  1
  O2-  O467  1  0.83278525  0.49043868  0.67996081  1
  O2-  O468  1  0.58507702  0.25253220  0.26209589  1
  O2-  O469  1  0.41253863  0.75564281  0.40116878  1
  O2-  O470  1  0.27062428  0.74993195  0.94125219  1
  O2-  O471  1  0.41481878  0.74986244  0.73345440  1
  O2-  O472  1  0.92295606  0.25151330  0.60668623  1
  O2-  O473  1  0.24318487  0.24870930  0.59757825  1
  O2-  O474  1  0.25237820  0.74901600  0.28804684  1
  O2-  O475  1  0.58865485  0.74499236  0.28233078  1
  O2-  O476  1  0.75103062  0.25052118  0.04720201  1
  O2-  O477  1  0.23004026  0.24866762  0.27803497  1
  O2-  O478  1  0.74754585  0.25397909  0.73400524  1
  O2-  O479  1  0.42249620  0.75388641  0.04694701  1
  O2-  O480  1  0.07533511  0.75366304  0.39185615  1
  O2-  O481  1  0.42809277  0.24959649  0.72595762  1
  O2-  O482  1  0.24677557  0.75709369  0.59346552  1
  O2-  O483  1  0.57422502  0.75165614  0.93805250  1
  O2-  O484  1  0.91694300  0.75615067  0.59337774  1
  O2-  O485  1  0.58522457  0.25687387  0.94177961  1
  O2-  O486  1  0.75520884  0.75234387  0.38473962  1
  O2-  O487  1  0.74195168  0.75586982  0.73458439  1
  O2-  O488  1  0.10121856  0.24718397  0.39232085  1
  O2-  O489  1  0.41922217  0.24857261  0.05793450  1
  O2-  O490  1  0.58232366  0.25143067  0.61306472  1
  O2-  O491  1  0.90070211  0.24865364  0.93715787  1
  O2-  O492  1  0.91338818  0.75180996  0.28704255  1
