# generated using pymatgen
data_Ca108Mn108O277
_symmetry_space_group_name_H-M   'P 1'
_cell_length_a   16.03577889
_cell_length_b   22.31890151
_cell_length_c   16.39504543
_cell_angle_alpha   89.99257718
_cell_angle_beta   90.00242281
_cell_angle_gamma   89.99900815
_symmetry_Int_Tables_number   1
_chemical_formula_structural   Ca108Mn108O277
_chemical_formula_sum   'Ca108 Mn108 O277'
_cell_volume   5867.80260337
_cell_formula_units_Z   1
loop_
 _symmetry_equiv_pos_site_id
 _symmetry_equiv_pos_as_xyz
  1  'x, y, z'
loop_
 _atom_type_symbol
 _atom_type_oxidation_number
  Ca2+  2.0
  Mn3.34+  3.34
  O2-  -2.0
loop_
 _atom_site_type_symbol
 _atom_site_label
 _atom_site_symmetry_multiplicity
 _atom_site_fract_x
 _atom_site_fract_y
 _atom_site_fract_z
 _atom_site_occupancy
  Ca2+  Ca0  1  0.07901939  0.25253458  0.24870469  1
  Ca2+  Ca1  1  0.09488441  0.25611053  0.58290952  1
  Ca2+  Ca2  1  0.08859225  0.25700628  0.92133690  1
  Ca2+  Ca3  1  0.08709506  0.74328284  0.25129502  1
  Ca2+  Ca4  1  0.08815908  0.74647483  0.56934409  1
  Ca2+  Ca5  1  0.08768309  0.76057849  0.92922403  1
  Ca2+  Ca6  1  0.42142387  0.25497167  0.22864234  1
  Ca2+  Ca7  1  0.40126043  0.25914338  0.59848774  1
  Ca2+  Ca8  1  0.41838131  0.25133547  0.91247202  1
  Ca2+  Ca9  1  0.39879421  0.74796819  0.24673093  1
  Ca2+  Ca10  1  0.40066156  0.75304349  0.57771908  1
  Ca2+  Ca11  1  0.40104431  0.74840139  0.92697286  1
  Ca2+  Ca12  1  0.75209892  0.25386337  0.23359904  1
  Ca2+  Ca13  1  0.76116992  0.25986720  0.58109482  1
  Ca2+  Ca14  1  0.73790655  0.25492410  0.92453969  1
  Ca2+  Ca15  1  0.75350710  0.73128503  0.26145954  1
  Ca2+  Ca16  1  0.75783519  0.74816452  0.57490646  1
  Ca2+  Ca17  1  0.76201648  0.74999500  0.92161554  1
  Ca2+  Ca18  1  0.26863976  0.24954009  0.08561356  1
  Ca2+  Ca19  1  0.24299047  0.25360103  0.42371734  1
  Ca2+  Ca20  1  0.26715728  0.25113991  0.74457063  1
  Ca2+  Ca21  1  0.23809175  0.73608266  0.09440155  1
  Ca2+  Ca22  1  0.22887364  0.74586721  0.39723665  1
  Ca2+  Ca23  1  0.22230868  0.73922810  0.74475058  1
  Ca2+  Ca24  1  0.55750085  0.23762393  0.08328788  1
  Ca2+  Ca25  1  0.58017334  0.25816872  0.40565228  1
  Ca2+  Ca26  1  0.55421097  0.24677311  0.75953792  1
  Ca2+  Ca27  1  0.58122897  0.75210272  0.09734778  1
  Ca2+  Ca28  1  0.60576216  0.74002702  0.40626369  1
  Ca2+  Ca29  1  0.59636713  0.77003947  0.74899628  1
  Ca2+  Ca30  1  0.91585410  0.24840716  0.09355416  1
  Ca2+  Ca31  1  0.93302804  0.24373215  0.40629122  1
  Ca2+  Ca32  1  0.92840257  0.25595751  0.75026613  1
  Ca2+  Ca33  1  0.93904893  0.75065889  0.08547884  1
  Ca2+  Ca34  1  0.92177793  0.75014633  0.41947239  1
  Ca2+  Ca35  1  0.92938789  0.73580409  0.75956972  1
  Ca2+  Ca36  1  0.10367624  0.08866862  0.58210014  1
  Ca2+  Ca37  1  0.75157708  0.09362029  0.25262399  1
  Ca2+  Ca38  1  0.23256007  0.60527203  0.40888308  1
  Ca2+  Ca39  1  0.06915764  0.09028011  0.93135101  1
  Ca2+  Ca40  1  0.66292302  0.58275609  0.40634780  1
  Ca2+  Ca41  1  0.77036661  0.58750237  0.59367980  1
  Ca2+  Ca42  1  0.41896163  0.09364659  0.22846732  1
  Ca2+  Ca43  1  0.73865788  0.08360717  0.92985218  1
  Ca2+  Ca44  1  0.39173472  0.08762822  0.60653393  1
  Ca2+  Ca45  1  0.41755639  0.09389261  0.92735958  1
  Ca2+  Ca46  1  0.61356884  0.57003727  0.73882813  1
  Ca2+  Ca47  1  0.08124992  0.60593415  0.59198673  1
  Ca2+  Ca48  1  0.91962456  0.09379580  0.08880516  1
  Ca2+  Ca49  1  0.75056835  0.08403642  0.93120117  1
  Ca2+  Ca50  1  0.39895674  0.60209113  0.25044153  1
  Ca2+  Ca51  1  0.24077309  0.60178018  0.41259873  1
  Ca2+  Ca52  1  0.76282023  0.09257467  0.25331334  1
  Ca2+  Ca53  1  0.39207538  0.57686094  0.93988550  1
  Ca2+  Ca54  1  0.89366932  0.60506925  0.42773264  1
  Ca2+  Ca55  1  0.22140675  0.09408918  0.42197597  1
  Ca2+  Ca56  1  0.42878045  0.09396050  0.92713617  1
  Ca2+  Ca57  1  0.09223004  0.08985813  0.58196138  1
  Ca2+  Ca58  1  0.78735103  0.60750875  0.91099777  1
  Ca2+  Ca59  1  0.07292061  0.62159354  0.90828752  1
  Ca2+  Ca60  1  0.59871861  0.08149392  0.39967602  1
  Ca2+  Ca61  1  0.58048462  0.60031487  0.09946793  1
  Ca2+  Ca62  1  0.93913768  0.60859421  0.08613812  1
  Ca2+  Ca63  1  0.55334813  0.09433314  0.75520100  1
  Ca2+  Ca64  1  0.06429577  0.08989515  0.27815692  1
  Ca2+  Ca65  1  0.26037668  0.08871520  0.73499060  1
  Ca2+  Ca66  1  0.06586049  0.62645098  0.90531914  1
  Ca2+  Ca67  1  0.40590236  0.57388939  0.58003669  1
  Ca2+  Ca68  1  0.90154675  0.60762569  0.42194309  1
  Ca2+  Ca69  1  0.57192340  0.09035505  0.08535496  1
  Ca2+  Ca70  1  0.93200303  0.61199594  0.08031225  1
  Ca2+  Ca71  1  0.09604820  0.60326824  0.23041378  1
  Ca2+  Ca72  1  0.75389297  0.42106953  0.59547217  1
  Ca2+  Ca73  1  0.41493094  0.89926186  0.91259378  1
  Ca2+  Ca74  1  0.94421855  0.41269171  0.08386792  1
  Ca2+  Ca75  1  0.55653816  0.41529278  0.73172908  1
  Ca2+  Ca76  1  0.57794715  0.90017100  0.08851846  1
  Ca2+  Ca77  1  0.08394507  0.41484212  0.26164286  1
  Ca2+  Ca78  1  0.26079349  0.41491827  0.42159770  1
  Ca2+  Ca79  1  0.24048886  0.91524305  0.71931637  1
  Ca2+  Ca80  1  0.58545843  0.89960789  0.41470780  1
  Ca2+  Ca81  1  0.75196579  0.41834068  0.26574114  1
  Ca2+  Ca82  1  0.74099981  0.41923732  0.26715290  1
  Ca2+  Ca83  1  0.08502791  0.90161089  0.24811638  1
  Ca2+  Ca84  1  0.74310466  0.42183610  0.59794849  1
  Ca2+  Ca85  1  0.92816497  0.90102076  0.42456203  1
  Ca2+  Ca86  1  0.40072882  0.90052553  0.58809155  1
  Ca2+  Ca87  1  0.59696811  0.90050863  0.41565765  1
  Ca2+  Ca88  1  0.56528467  0.42242039  0.42200677  1
  Ca2+  Ca89  1  0.40243447  0.41258525  0.90944979  1
  Ca2+  Ca90  1  0.91904715  0.41086046  0.72830325  1
  Ca2+  Ca91  1  0.91955774  0.41032564  0.41298890  1
  Ca2+  Ca92  1  0.58660661  0.40933518  0.08623563  1
  Ca2+  Ca93  1  0.57383275  0.40847393  0.08744933  1
  Ca2+  Ca94  1  0.75974351  0.89578309  0.91165059  1
  Ca2+  Ca95  1  0.76778060  0.89937511  0.58665357  1
  Ca2+  Ca96  1  0.23459723  0.41917972  0.07894682  1
  Ca2+  Ca97  1  0.28452162  0.42859629  0.73200071  1
  Ca2+  Ca98  1  0.22352055  0.42003920  0.07903872  1
  Ca2+  Ca99  1  0.75381793  0.40655644  0.90147828  1
  Ca2+  Ca100  1  0.57787536  0.42038987  0.42139036  1
  Ca2+  Ca101  1  0.75402280  0.89887871  0.24282610  1
  Ca2+  Ca102  1  0.08774881  0.41122626  0.92026771  1
  Ca2+  Ca103  1  0.24063343  0.89647154  0.42461333  1
  Ca2+  Ca104  1  0.41473431  0.42108086  0.26765560  1
  Ca2+  Ca105  1  0.42620248  0.89987421  0.91168347  1
  Ca2+  Ca106  1  0.92080175  0.89387031  0.08429794  1
  Ca2+  Ca107  1  0.93167466  0.41199805  0.08487836  1
  Mn3.34+  Mn108  1  0.08670423  0.32753407  0.08650900  1
  Mn3.34+  Mn109  1  0.08478462  0.33619317  0.42206550  1
  Mn3.34+  Mn110  1  0.08830582  0.34067196  0.75198773  1
  Mn3.34+  Mn111  1  0.09271300  0.83570837  0.08157149  1
  Mn3.34+  Mn112  1  0.08144608  0.82848347  0.41667535  1
  Mn3.34+  Mn113  1  0.07834895  0.83932975  0.75319648  1
  Mn3.34+  Mn114  1  0.41376090  0.33941730  0.08038928  1
  Mn3.34+  Mn115  1  0.41357091  0.33631332  0.42121840  1
  Mn3.34+  Mn116  1  0.41504306  0.33475543  0.75093240  1
  Mn3.34+  Mn117  1  0.40895171  0.83186000  0.08759526  1
  Mn3.34+  Mn118  1  0.41576764  0.82916540  0.41632656  1
  Mn3.34+  Mn119  1  0.41420425  0.82700733  0.75040482  1
  Mn3.34+  Mn120  1  0.75227881  0.33869872  0.08115444  1
  Mn3.34+  Mn121  1  0.74832580  0.33614581  0.42473020  1
  Mn3.34+  Mn122  1  0.74913339  0.33541195  0.75160675  1
  Mn3.34+  Mn123  1  0.75130283  0.82849657  0.08339057  1
  Mn3.34+  Mn124  1  0.75815241  0.83133420  0.41800327  1
  Mn3.34+  Mn125  1  0.75894214  0.83107584  0.74882790  1
  Mn3.34+  Mn126  1  0.25241562  0.33536155  0.25295212  1
  Mn3.34+  Mn127  1  0.24765676  0.33854398  0.58455728  1
  Mn3.34+  Mn128  1  0.24855521  0.33828143  0.90998773  1
  Mn3.34+  Mn129  1  0.24951677  0.83199817  0.24677516  1
  Mn3.34+  Mn130  1  0.24282787  0.83247846  0.58245639  1
  Mn3.34+  Mn131  1  0.24366916  0.83025611  0.91408950  1
  Mn3.34+  Mn132  1  0.58069150  0.33351815  0.24890667  1
  Mn3.34+  Mn133  1  0.57992977  0.32832372  0.58098057  1
  Mn3.34+  Mn134  1  0.58334543  0.33617642  0.90969867  1
  Mn3.34+  Mn135  1  0.58019155  0.83183301  0.24585390  1
  Mn3.34+  Mn136  1  0.58451173  0.83148553  0.58738737  1
  Mn3.34+  Mn137  1  0.58917626  0.83247249  0.91681357  1
  Mn3.34+  Mn138  1  0.91776376  0.33574217  0.25140515  1
  Mn3.34+  Mn139  1  0.92481683  0.33167198  0.57800228  1
  Mn3.34+  Mn140  1  0.91728180  0.33242439  0.90985165  1
  Mn3.34+  Mn141  1  0.91730416  0.83040012  0.25070291  1
  Mn3.34+  Mn142  1  0.93155287  0.83829371  0.59301962  1
  Mn3.34+  Mn143  1  0.92430638  0.83019049  0.90986070  1
  Mn3.34+  Mn144  1  0.75033154  0.16866617  0.08450139  1
  Mn3.34+  Mn145  1  0.24003333  0.16350123  0.91558680  1
  Mn3.34+  Mn146  1  0.24977446  0.66803156  0.58272351  1
  Mn3.34+  Mn147  1  0.92169018  0.66888672  0.59099720  1
  Mn3.34+  Mn148  1  0.75252595  0.16534184  0.75221667  1
  Mn3.34+  Mn149  1  0.75786456  0.15786223  0.75117732  1
  Mn3.34+  Mn150  1  0.75226006  0.66868762  0.08699428  1
  Mn3.34+  Mn151  1  0.58461369  0.16990296  0.91817651  1
  Mn3.34+  Mn152  1  0.58161935  0.66809854  0.25282757  1
  Mn3.34+  Mn153  1  0.42286571  0.17011981  0.41324931  1
  Mn3.34+  Mn154  1  0.58687816  0.65868444  0.57744616  1
  Mn3.34+  Mn155  1  0.91818297  0.16940717  0.91265164  1
  Mn3.34+  Mn156  1  0.91866276  0.16529108  0.57782432  1
  Mn3.34+  Mn157  1  0.57760461  0.66479252  0.57995670  1
  Mn3.34+  Mn158  1  0.41711872  0.65177390  0.75501012  1
  Mn3.34+  Mn159  1  0.07822614  0.15784371  0.75983798  1
  Mn3.34+  Mn160  1  0.41020321  0.16322677  0.41750729  1
  Mn3.34+  Mn161  1  0.90913915  0.16023518  0.57378921  1
  Mn3.34+  Mn162  1  0.25660620  0.16482467  0.24637051  1
  Mn3.34+  Mn163  1  0.91455155  0.66632981  0.25314150  1
  Mn3.34+  Mn164  1  0.24948149  0.16895900  0.91804905  1
  Mn3.34+  Mn165  1  0.41195428  0.66741026  0.08710089  1
  Mn3.34+  Mn166  1  0.75476515  0.66686480  0.75220093  1
  Mn3.34+  Mn167  1  0.41701732  0.65815652  0.42011547  1
  Mn3.34+  Mn168  1  0.24869856  0.17103259  0.58319261  1
  Mn3.34+  Mn169  1  0.57772566  0.67066810  0.91514275  1
  Mn3.34+  Mn170  1  0.59062052  0.66429773  0.91122861  1
  Mn3.34+  Mn171  1  0.58289794  0.17260600  0.57760714  1
  Mn3.34+  Mn172  1  0.24315293  0.15843695  0.24337954  1
  Mn3.34+  Mn173  1  0.75175291  0.16808734  0.41785208  1
  Mn3.34+  Mn174  1  0.58296134  0.16692814  0.24841252  1
  Mn3.34+  Mn175  1  0.08111654  0.16418078  0.08889775  1
  Mn3.34+  Mn176  1  0.24876950  0.66822202  0.92006123  1
  Mn3.34+  Mn177  1  0.91973568  0.17109326  0.25318162  1
  Mn3.34+  Mn178  1  0.59688304  0.16662495  0.57730519  1
  Mn3.34+  Mn179  1  0.40743255  0.64675061  0.75969574  1
  Mn3.34+  Mn180  1  0.22219207  -0.00706168  0.91424373  1
  Mn3.34+  Mn181  1  0.57119962  0.50166335  0.59095447  1
  Mn3.34+  Mn182  1  0.58844645  0.00011659  0.59612687  1
  Mn3.34+  Mn183  1  0.75519892  0.50655467  0.07710018  1
  Mn3.34+  Mn184  1  0.75168323  -0.00518312  0.08042915  1
  Mn3.34+  Mn185  1  0.23659907  0.50371719  0.91420574  1
  Mn3.34+  Mn186  1  0.91079457  0.00085138  0.59810443  1
  Mn3.34+  Mn187  1  0.40745305  0.50275030  0.08584959  1
  Mn3.34+  Mn188  1  0.08387104  -0.00643500  0.40861411  1
  Mn3.34+  Mn189  1  0.24918489  0.50278859  0.26346818  1
  Mn3.34+  Mn190  1  0.91269039  -0.00372624  0.25410109  1
  Mn3.34+  Mn191  1  0.58795675  -0.00253777  0.90664978  1
  Mn3.34+  Mn192  1  0.92663584  0.50102084  0.89804414  1
  Mn3.34+  Mn193  1  0.59052781  0.50578084  0.91599822  1
  Mn3.34+  Mn194  1  0.92605878  0.49982501  0.58217101  1
  Mn3.34+  Mn195  1  0.41674133  -0.00475782  0.74385060  1
  Mn3.34+  Mn196  1  0.58179941  -0.00245046  0.25343402  1
  Mn3.34+  Mn197  1  0.75958554  -0.00152827  0.41335365  1
  Mn3.34+  Mn198  1  0.60193203  0.00608750  0.59663787  1
  Mn3.34+  Mn199  1  0.93283152  0.00218753  0.90190739  1
  Mn3.34+  Mn200  1  0.07982008  -0.00169251  0.73790805  1
  Mn3.34+  Mn201  1  0.41140159  -0.00401870  0.07177166  1
  Mn3.34+  Mn202  1  0.07881041  0.49873666  0.42097748  1
  Mn3.34+  Mn203  1  0.23269189  -0.01141642  0.91773518  1
  Mn3.34+  Mn204  1  0.92030679  -0.00416398  0.90187162  1
  Mn3.34+  Mn205  1  0.91456412  0.50771225  0.25956334  1
  Mn3.34+  Mn206  1  0.58046283  0.50652522  0.26044207  1
  Mn3.34+  Mn207  1  0.76058230  -0.00494280  0.73900607  1
  Mn3.34+  Mn208  1  0.24872471  0.50197652  0.58917715  1
  Mn3.34+  Mn209  1  0.08350670  0.49877522  0.73930929  1
  Mn3.34+  Mn210  1  0.24596413  -0.00082103  0.24688421  1
  Mn3.34+  Mn211  1  0.40162504  0.00516948  0.41783987  1
  Mn3.34+  Mn212  1  0.91184494  0.49680002  0.89444476  1
  Mn3.34+  Mn213  1  0.41383432  0.00076341  0.41558073  1
  Mn3.34+  Mn214  1  0.57761496  0.49899285  0.91289007  1
  Mn3.34+  Mn215  1  0.07926802  0.00246639  0.08804632  1
  O2-  O216  1  -0.00967684  0.15801647  0.00294908  1
  O2-  O217  1  0.00293173  0.17533125  0.32646760  1
  O2-  O218  1  0.00002519  0.15604966  0.66837565  1
  O2-  O219  1  -0.00121666  0.67346978  0.00333412  1
  O2-  O220  1  -0.01165762  0.63945723  0.33103123  1
  O2-  O221  1  0.00571700  0.68246274  0.65973083  1
  O2-  O222  1  0.32809757  0.14836916  -0.00280514  1
  O2-  O223  1  0.33049708  0.13688230  0.33285578  1
  O2-  O224  1  0.32701076  0.16097704  0.66462526  1
  O2-  O225  1  0.34300344  0.65904856  -0.00622619  1
  O2-  O226  1  0.33610322  0.66660035  0.34191708  1
  O2-  O227  1  0.34527541  0.65714557  0.65695453  1
  O2-  O228  1  0.66867721  0.15071806  0.00220662  1
  O2-  O229  1  0.66806306  0.16172697  0.33358009  1
  O2-  O230  1  0.66794346  0.18760848  0.66835478  1
  O2-  O231  1  0.67051427  0.64045416  -0.00562149  1
  O2-  O232  1  0.66249466  0.65972174  0.32608479  1
  O2-  O233  1  0.66757851  0.64063101  0.66029351  1
  O2-  O234  1  0.15813854  0.15266722  -0.00589369  1
  O2-  O235  1  0.16613329  0.15662876  0.32686242  1
  O2-  O236  1  0.16072351  0.15725638  0.66942367  1
  O2-  O237  1  0.17163513  0.65462498  -0.00378926  1
  O2-  O238  1  0.16337012  0.65528990  0.33298869  1
  O2-  O239  1  0.17002142  0.66349380  0.65948960  1
  O2-  O240  1  0.50750591  0.15397185  -0.00113835  1
  O2-  O241  1  0.50061361  0.14249868  0.33551051  1
  O2-  O242  1  0.50579116  0.15619569  0.65890624  1
  O2-  O243  1  0.50348736  0.64339845  -0.00578516  1
  O2-  O244  1  0.49492656  0.66768016  0.33514976  1
  O2-  O245  1  0.50377944  0.64702508  0.66784323  1
  O2-  O246  1  0.83028162  0.15230531  -0.00751849  1
  O2-  O247  1  0.82667587  0.16318921  0.32780352  1
  O2-  O248  1  0.82873402  0.15148860  0.65546581  1
  O2-  O249  1  0.83577875  0.66882894  0.00875201  1
  O2-  O250  1  0.83107614  0.65764999  0.33021885  1
  O2-  O251  1  0.83262748  0.66519428  0.66779207  1
  O2-  O252  1  -0.00077509  0.34156402  -0.00077786  1
  O2-  O253  1  0.00226959  0.33482556  0.33364421  1
  O2-  O254  1  -0.00079973  0.33311570  0.67268945  1
  O2-  O255  1  -0.00395983  0.82814582  0.00351631  1
  O2-  O256  1  0.00003001  0.84753695  0.33246795  1
  O2-  O257  1  0.00458447  0.80827526  0.66964744  1
  O2-  O258  1  0.32401664  0.36134100  0.00616061  1
  O2-  O259  1  0.33368234  0.35554258  0.33589454  1
  O2-  O260  1  0.33218843  0.34557779  0.66928457  1
  O2-  O261  1  0.33637983  0.84802048  -0.00681644  1
  O2-  O262  1  0.33037793  0.82563052  0.33801579  1
  O2-  O263  1  0.32891830  0.83689103  0.67016938  1
  O2-  O264  1  0.66774385  0.35518769  -0.00378133  1
  O2-  O265  1  0.66475094  0.34736465  0.33963226  1
  O2-  O266  1  0.67306685  0.33647712  0.65829037  1
  O2-  O267  1  0.66740120  0.85501981  0.00032155  1
  O2-  O268  1  0.67071184  0.84654042  0.33232725  1
  O2-  O269  1  0.66748639  0.85215496  0.66690982  1
  O2-  O270  1  0.16480821  0.34855615  -0.00069402  1
  O2-  O271  1  0.16501524  0.33986140  0.33458035  1
  O2-  O272  1  0.16742545  0.32955809  0.67226500  1
  O2-  O273  1  0.16278442  0.84992217  -0.00884049  1
  O2-  O274  1  0.16619916  0.84184951  0.33652196  1
  O2-  O275  1  0.16345743  0.83515619  0.66846007  1
  O2-  O276  1  0.49757834  0.36160536  -0.00587148  1
  O2-  O277  1  0.50430083  0.35169241  0.33589969  1
  O2-  O278  1  0.50572308  0.33010244  0.66999060  1
  O2-  O279  1  0.50095540  0.84189026  -0.00407810  1
  O2-  O280  1  0.50703661  0.83882782  0.33868040  1
  O2-  O281  1  0.48984953  0.82638694  0.66039007  1
  O2-  O282  1  0.84007743  0.35368043  -0.00237702  1
  O2-  O283  1  0.82651398  0.34935791  0.33397245  1
  O2-  O284  1  0.83093136  0.34240309  0.66254834  1
  O2-  O285  1  0.83464579  0.82922278  -0.00309893  1
  O2-  O286  1  0.83781179  0.85286856  0.33760424  1
  O2-  O287  1  0.83636037  0.82855184  0.66142436  1
  O2-  O288  1  -0.00548014  0.18286009  0.16760753  1
  O2-  O289  1  0.00600093  0.18108004  0.50837213  1
  O2-  O290  1  0.00499639  0.19268718  0.84063442  1
  O2-  O291  1  -0.00178128  0.67578650  0.17454727  1
  O2-  O292  1  -0.00845632  0.67741147  0.50108366  1
  O2-  O293  1  0.01178005  0.69493805  0.84609026  1
  O2-  O294  1  0.33847980  0.17829521  0.17273939  1
  O2-  O295  1  0.33366431  0.18424702  0.49724303  1
  O2-  O296  1  0.33567250  0.17263244  0.84299191  1
  O2-  O297  1  0.33831185  0.67741195  0.16398298  1
  O2-  O298  1  0.33565044  0.68519129  0.49359551  1
  O2-  O299  1  0.33114864  0.68707844  0.82840889  1
  O2-  O300  1  0.66840911  0.18250435  0.16875495  1
  O2-  O301  1  0.66919928  0.19224769  0.49461379  1
  O2-  O302  1  0.66854457  0.18445844  0.83564433  1
  O2-  O303  1  0.65895768  0.67260859  0.16090349  1
  O2-  O304  1  0.66669762  0.66720582  0.49712908  1
  O2-  O305  1  0.66100319  0.68605524  0.82762740  1
  O2-  O306  1  0.16896867  0.18995167  0.16607866  1
  O2-  O307  1  0.16568409  0.17981672  0.50482727  1
  O2-  O308  1  0.16934491  0.18830880  0.82969541  1
  O2-  O309  1  0.15986925  0.67927234  0.17173369  1
  O2-  O310  1  0.17597877  0.67423652  0.49837354  1
  O2-  O311  1  0.16784645  0.68184174  0.84431410  1
  O2-  O312  1  0.50244335  0.16910806  0.17258963  1
  O2-  O313  1  0.50260179  0.19239176  0.49724600  1
  O2-  O314  1  0.50020333  0.17210204  0.84466048  1
  O2-  O315  1  0.49925991  0.68059241  0.16566794  1
  O2-  O316  1  0.49797734  0.68940630  0.50121174  1
  O2-  O317  1  0.49839001  0.69280910  0.82846548  1
  O2-  O318  1  0.83232753  0.17469385  0.16668709  1
  O2-  O319  1  0.83490326  0.19469262  0.49012002  1
  O2-  O320  1  0.83549680  0.19484539  0.83469701  1
  O2-  O321  1  0.83904624  0.68617128  0.16063046  1
  O2-  O322  1  0.83918727  0.67891042  0.50954434  1
  O2-  O323  1  0.82490252  0.68468839  0.83339242  1
  O2-  O324  1  -0.00082436  0.31888532  0.16303079  1
  O2-  O325  1  0.00167009  0.30815479  0.49535436  1
  O2-  O326  1  0.00366296  0.31483771  0.83550040  1
  O2-  O327  1  -0.00218465  0.82291328  0.16938112  1
  O2-  O328  1  -0.00243595  0.81845251  0.49919895  1
  O2-  O329  1  0.00502619  0.81314878  0.83301540  1
  O2-  O330  1  0.33644227  0.32926020  0.16709166  1
  O2-  O331  1  0.32900524  0.32050399  0.49501328  1
  O2-  O332  1  0.33746532  0.32285387  0.84030741  1
  O2-  O333  1  0.32840282  0.81660876  0.16270325  1
  O2-  O334  1  0.33580259  0.82305516  0.50166450  1
  O2-  O335  1  0.34197030  0.81666848  0.84129914  1
  O2-  O336  1  0.66885838  0.32835693  0.17101374  1
  O2-  O337  1  0.66438173  0.30677109  0.49945953  1
  O2-  O338  1  0.66711787  0.31179338  0.82635518  1
  O2-  O339  1  0.66369967  0.82814045  0.16300649  1
  O2-  O340  1  0.66472170  0.82606994  0.49429117  1
  O2-  O341  1  0.67714720  0.82235756  0.84248435  1
  O2-  O342  1  0.17379157  0.32094054  0.16224441  1
  O2-  O343  1  0.16749813  0.31811576  0.49817651  1
  O2-  O344  1  0.16618924  0.31662266  0.83462671  1
  O2-  O345  1  0.15919569  0.83100160  0.17477910  1
  O2-  O346  1  0.17076889  0.81799327  0.49377697  1
  O2-  O347  1  0.16989716  0.81308464  0.82895225  1
  O2-  O348  1  0.50744396  0.32304468  0.15201101  1
  O2-  O349  1  0.50077108  0.31290015  0.49658275  1
  O2-  O350  1  0.49745532  0.32160224  0.83610272  1
  O2-  O351  1  0.49910542  0.82102120  0.16576042  1
  O2-  O352  1  0.50547512  0.81799880  0.49484597  1
  O2-  O353  1  0.49895637  0.81789211  0.83826099  1
  O2-  O354  1  0.83843535  0.33427756  0.16207216  1
  O2-  O355  1  0.83646478  0.32066024  0.49529385  1
  O2-  O356  1  0.82931166  0.31160073  0.83335221  1
  O2-  O357  1  0.83217485  0.81652172  0.16923889  1
  O2-  O358  1  0.83682084  0.82262813  0.50123726  1
  O2-  O359  1  0.83682992  0.81091671  0.83451042  1
  O2-  O360  1  0.06723631  0.08111566  0.13101541  1
  O2-  O361  1  0.08736085  0.06941238  0.45255172  1
  O2-  O362  1  0.07637521  0.06864811  0.79899814  1
  O2-  O363  1  0.03852841  0.55639270  0.11777589  1
  O2-  O364  1  0.10722551  0.56793915  0.46591640  1
  O2-  O365  1  0.06894443  0.56151527  0.79950025  1
  O2-  O366  1  0.43112079  0.07175688  0.10188243  1
  O2-  O367  1  0.42678060  0.08235580  0.47071271  1
  O2-  O368  1  0.42051508  0.06931721  0.79468847  1
  O2-  O369  1  0.42742402  0.58344495  0.11262709  1
  O2-  O370  1  0.38611242  0.58181565  0.43908033  1
  O2-  O371  1  0.43117734  0.57276736  0.80938979  1
  O2-  O372  1  0.75723830  0.07871197  0.11808867  1
  O2-  O373  1  0.74403592  0.08084855  0.42664033  1
  O2-  O374  1  0.75750881  0.07600246  0.79747189  1
  O2-  O375  1  0.77103506  0.58681300  0.10490140  1
  O2-  O376  1  0.78275380  0.56284791  0.46278896  1
  O2-  O377  1  0.74614607  0.58557552  0.78319890  1
  O2-  O378  1  0.25616051  0.07905905  0.20530500  1
  O2-  O379  1  0.24289717  0.08636833  0.55952260  1
  O2-  O380  1  0.24058496  0.07547987  0.87133064  1
  O2-  O381  1  0.25116649  0.57539713  0.23174668  1
  O2-  O382  1  0.25754332  0.58084657  0.55133528  1
  O2-  O383  1  0.25311547  0.58284836  0.89141941  1
  O2-  O384  1  0.61298371  0.08060086  0.22702968  1
  O2-  O385  1  0.59310374  0.08157814  0.54014495  1
  O2-  O386  1  0.60104796  0.08284613  0.88352622  1
  O2-  O387  1  0.56284083  0.58360465  0.23507431  1
  O2-  O388  1  0.55918478  0.57667918  0.53585677  1
  O2-  O389  1  0.58257114  0.58295221  0.87099504  1
  O2-  O390  1  0.90713374  0.08151436  0.23185075  1
  O2-  O391  1  0.92567921  0.07953669  0.54779127  1
  O2-  O392  1  0.91544354  0.08265635  0.87574614  1
  O2-  O393  1  0.90392413  0.58289315  0.21750633  1
  O2-  O394  1  0.93252386  0.58141115  0.56319932  1
  O2-  O395  1  0.92855224  0.58327275  0.91201560  1
  O2-  O396  1  0.08149290  0.41264228  0.11620467  1
  O2-  O397  1  0.06838057  0.41947054  0.44135977  1
  O2-  O398  1  0.06832190  0.42680974  0.78772432  1
  O2-  O399  1  0.06475258  0.92178254  0.10863557  1
  O2-  O400  1  0.08396880  0.91571006  0.43808677  1
  O2-  O401  1  0.10159593  0.92767675  0.78479899  1
  O2-  O402  1  0.43827479  0.42377037  0.12553860  1
  O2-  O403  1  0.42835825  0.41560584  0.44690603  1
  O2-  O404  1  0.42208216  0.41773311  0.77501045  1
  O2-  O405  1  0.43126535  0.91665255  0.08773066  1
  O2-  O406  1  0.42983726  0.92096209  0.44964289  1
  O2-  O407  1  0.41036403  0.91702409  0.77485004  1
  O2-  O408  1  0.74157521  0.42913772  0.13100711  1
  O2-  O409  1  0.72071070  0.41946742  0.46289838  1
  O2-  O410  1  0.75687349  0.41573386  0.76222683  1
  O2-  O411  1  0.76868747  0.91323011  0.10455388  1
  O2-  O412  1  0.74178614  0.91944868  0.45120655  1
  O2-  O413  1  0.76830384  0.91447613  0.77695876  1
  O2-  O414  1  0.23629337  0.43000157  0.21336263  1
  O2-  O415  1  0.24170337  0.42221819  0.55815623  1
  O2-  O416  1  0.24774056  0.42493823  0.86951230  1
  O2-  O417  1  0.23948379  0.91980642  0.24541305  1
  O2-  O418  1  0.25872419  0.91388061  0.56610130  1
  O2-  O419  1  0.26409411  0.91504609  0.86973297  1
  O2-  O420  1  0.59180154  0.42715403  0.21879684  1
  O2-  O421  1  0.58770781  0.42033186  0.55746579  1
  O2-  O422  1  0.60279154  0.42483804  0.86284482  1
  O2-  O423  1  0.58762028  0.91606011  0.22669659  1
  O2-  O424  1  0.57592620  0.92541649  0.54842375  1
  O2-  O425  1  0.56477141  0.91623038  0.89159188  1
  O2-  O426  1  0.93214607  0.42542138  0.21878828  1
  O2-  O427  1  0.90649015  0.41861752  0.55278123  1
  O2-  O428  1  0.90505148  0.41733716  0.86258427  1
  O2-  O429  1  0.91289573  0.91725347  0.22089082  1
  O2-  O430  1  0.91428725  0.92297125  0.55895770  1
  O2-  O431  1  0.91251046  0.91562896  0.90057571  1
  O2-  O432  1  -0.00948495  0.01500173  0.00645175  1
  O2-  O433  1  0.00709067  -0.00399324  0.31916860  1
  O2-  O434  1  0.01936213  0.01363845  0.64182880  1
  O2-  O435  1  -0.00882407  0.46870194  -0.01359104  1
  O2-  O436  1  0.00081808  0.49705968  0.33731344  1
  O2-  O437  1  -0.00931039  0.49290935  0.67780441  1
  O2-  O438  1  0.34113786  0.00330526  -0.03063205  1
  O2-  O439  1  0.33002999  0.01247701  0.32850759  1
  O2-  O440  1  0.33122597  0.00336806  0.67991762  1
  O2-  O441  1  0.32663631  0.48814972  -0.00309682  1
  O2-  O442  1  0.33554620  0.49558140  0.32456482  1
  O2-  O443  1  0.33863930  0.50125241  0.64836776  1
  O2-  O444  1  0.66722488  0.01107330  -0.00488249  1
  O2-  O445  1  0.64792403  -0.01064687  0.36195590  1
  O2-  O446  1  0.64543042  0.01637587  0.70133182  1
  O2-  O447  1  0.65300159  0.48725496  0.01243243  1
  O2-  O448  1  0.66522558  0.48719983  0.33541050  1
  O2-  O449  1  0.66803337  0.49735867  0.65138450  1
  O2-  O450  1  0.15553528  0.02008588  0.00070227  1
  O2-  O451  1  0.16721139  0.01751690  0.33258568  1
  O2-  O452  1  0.17026194  0.01746220  0.68292201  1
  O2-  O453  1  0.16291947  0.47927294  -0.00739233  1
  O2-  O454  1  0.17275107  0.49245360  0.34592147  1
  O2-  O455  1  0.17188762  0.50319389  0.67397291  1
  O2-  O456  1  0.49665510  0.01226612  -0.01756726  1
  O2-  O457  1  0.49555167  0.01708749  0.33411793  1
  O2-  O458  1  0.48966943  0.02113734  0.65461770  1
  O2-  O459  1  0.49251507  0.49694752  -0.00643660  1
  O2-  O460  1  0.50443824  0.48831185  0.33402439  1
  O2-  O461  1  0.50865079  0.51003102  0.67526665  1
  O2-  O462  1  0.82832552  0.01277834  -0.01811732  1
  O2-  O463  1  0.79877897  0.00037583  0.29295345  1
  O2-  O464  1  0.79821342  -0.00280773  0.62362119  1
  O2-  O465  1  0.82465094  0.48986330  -0.02105760  1
  O2-  O466  1  0.83666228  0.47570194  0.33139950  1
  O2-  O467  1  0.82600693  0.49853084  0.63381407  1
  O2-  O468  1  0.08074024  0.24746601  0.05829587  1
  O2-  O469  1  0.25214374  0.75176991  0.95039186  1
  O2-  O470  1  0.07779283  0.75190090  0.39443961  1
  O2-  O471  1  0.57188621  0.24836998  0.27050798  1
  O2-  O472  1  0.91789768  0.74995599  0.28039079  1
  O2-  O473  1  0.90699042  0.24595628  0.61227179  1
  O2-  O474  1  0.25425903  0.74923171  0.60512684  1
  O2-  O475  1  0.60400345  0.74440012  0.61003903  1
  O2-  O476  1  0.41132828  0.24942215  0.37545439  1
  O2-  O477  1  0.25422352  0.25318538  0.60433479  1
  O2-  O478  1  0.59506684  0.74929099  0.95193112  1
  O2-  O479  1  0.42493080  0.74964834  0.06087540  1
  O2-  O480  1  0.41201408  0.25360528  0.73691997  1
  O2-  O481  1  0.09601228  0.75607924  0.07515084  1
  O2-  O482  1  0.75923685  0.25169331  0.06280676  1
  O2-  O483  1  0.24015196  0.75192168  0.25642372  1
  O2-  O484  1  0.26204954  0.24493130  0.27954464  1
  O2-  O485  1  0.75346686  0.75441857  0.39845955  1
  O2-  O486  1  0.25282183  0.25329929  0.94819233  1
  O2-  O487  1  0.58414491  0.25066794  0.94742012  1
  O2-  O488  1  0.89783233  0.25336566  0.26430900  1
  O2-  O489  1  0.59380450  0.75107530  0.26682223  1
  O2-  O490  1  0.41201026  0.26062706  0.05457753  1
  O2-  O491  1  0.73513486  0.75034318  0.72051684  1
  O2-  O492  1  0.72690867  0.74907743  0.05989658  1
