# generated using pymatgen
data_Ca108Mn108O277
_symmetry_space_group_name_H-M   'P 1'
_cell_length_a   16.03563905
_cell_length_b   22.31649637
_cell_length_c   16.39680309
_cell_angle_alpha   90.00193445
_cell_angle_beta   89.99131685
_cell_angle_gamma   90.00299281
_symmetry_Int_Tables_number   1
_chemical_formula_structural   Ca108Mn108O277
_chemical_formula_sum   'Ca108 Mn108 O277'
_cell_volume   5867.74807973
_cell_formula_units_Z   1
loop_
 _symmetry_equiv_pos_site_id
 _symmetry_equiv_pos_as_xyz
  1  'x, y, z'
loop_
 _atom_type_symbol
 _atom_type_oxidation_number
  Ca2+  2.0
  Mn3.34+  3.34
  O2-  -2.0
loop_
 _atom_site_type_symbol
 _atom_site_label
 _atom_site_symmetry_multiplicity
 _atom_site_fract_x
 _atom_site_fract_y
 _atom_site_fract_z
 _atom_site_occupancy
  Ca2+  Ca0  1  0.08020301  0.25220045  0.25884499  1
  Ca2+  Ca1  1  0.08145834  0.25937519  0.56821045  1
  Ca2+  Ca2  1  0.08328139  0.25635948  0.91678519  1
  Ca2+  Ca3  1  0.07455227  0.74479553  0.26680807  1
  Ca2+  Ca4  1  0.07700763  0.75020872  0.58449023  1
  Ca2+  Ca5  1  0.05444088  0.73538185  0.87860156  1
  Ca2+  Ca6  1  0.39989176  0.23835896  0.24998311  1
  Ca2+  Ca7  1  0.41266621  0.25945946  0.59376593  1
  Ca2+  Ca8  1  0.42102266  0.25316307  0.90133708  1
  Ca2+  Ca9  1  0.40205386  0.75727607  0.24705386  1
  Ca2+  Ca10  1  0.39834175  0.75203402  0.59732884  1
  Ca2+  Ca11  1  0.42773715  0.75067179  0.90785229  1
  Ca2+  Ca12  1  0.76435308  0.24560706  0.25965862  1
  Ca2+  Ca13  1  0.75758894  0.26001596  0.58005280  1
  Ca2+  Ca14  1  0.74491891  0.25528398  0.90750682  1
  Ca2+  Ca15  1  0.77032484  0.74925189  0.25171828  1
  Ca2+  Ca16  1  0.78268216  0.74283683  0.58113180  1
  Ca2+  Ca17  1  0.78237750  0.74039791  0.91001662  1
  Ca2+  Ca18  1  0.24612958  0.24630652  0.09199509  1
  Ca2+  Ca19  1  0.22951457  0.24318504  0.40335114  1
  Ca2+  Ca20  1  0.27859450  0.24698757  0.75324061  1
  Ca2+  Ca21  1  0.25846243  0.75863693  0.09099498  1
  Ca2+  Ca22  1  0.22131575  0.74630281  0.42529955  1
  Ca2+  Ca23  1  0.22957139  0.75118442  0.73936803  1
  Ca2+  Ca24  1  0.56112433  0.24395229  0.08036700  1
  Ca2+  Ca25  1  0.59132428  0.26108158  0.40816029  1
  Ca2+  Ca26  1  0.57732494  0.26476615  0.75500408  1
  Ca2+  Ca27  1  0.58439115  0.76004722  0.07863501  1
  Ca2+  Ca28  1  0.60034394  0.75448807  0.41339429  1
  Ca2+  Ca29  1  0.58040236  0.74830685  0.75640690  1
  Ca2+  Ca30  1  0.93037281  0.25476219  0.09457476  1
  Ca2+  Ca31  1  0.92842125  0.24851447  0.40529022  1
  Ca2+  Ca32  1  0.91000447  0.26907923  0.74801180  1
  Ca2+  Ca33  1  0.91058882  0.74318249  0.07208391  1
  Ca2+  Ca34  1  0.93777515  0.72688890  0.42957683  1
  Ca2+  Ca35  1  0.93692633  0.73680346  0.73581845  1
  Ca2+  Ca36  1  0.09033182  0.10880884  0.56055507  1
  Ca2+  Ca37  1  0.75705411  0.10055144  0.58152328  1
  Ca2+  Ca38  1  0.39892425  0.09627243  0.58431803  1
  Ca2+  Ca39  1  0.55899178  0.10498634  0.76123641  1
  Ca2+  Ca40  1  0.91673077  0.59256177  0.75086128  1
  Ca2+  Ca41  1  0.80229974  0.58686207  0.57138522  1
  Ca2+  Ca42  1  0.91559740  0.09856188  0.09677457  1
  Ca2+  Ca43  1  0.08161887  0.11755226  0.24918874  1
  Ca2+  Ca44  1  0.92359212  0.10123380  0.09117405  1
  Ca2+  Ca45  1  0.06884233  0.58743597  0.27903777  1
  Ca2+  Ca46  1  0.58217023  0.56875583  0.40674004  1
  Ca2+  Ca47  1  0.42523035  0.57663446  0.26944101  1
  Ca2+  Ca48  1  0.03499771  0.58733963  0.90935458  1
  Ca2+  Ca49  1  0.05198479  0.60134812  0.56694566  1
  Ca2+  Ca50  1  0.25398247  0.59202596  0.74337252  1
  Ca2+  Ca51  1  0.24346653  0.59162921  0.74380221  1
  Ca2+  Ca52  1  0.41815568  0.10839264  0.93614366  1
  Ca2+  Ca53  1  0.41212625  0.58630849  0.59722275  1
  Ca2+  Ca54  1  0.91925250  0.59730390  0.74408855  1
  Ca2+  Ca55  1  0.76285171  0.57502265  0.24857244  1
  Ca2+  Ca56  1  0.93007418  0.11405437  0.40391408  1
  Ca2+  Ca57  1  0.04577391  0.60281029  0.57472936  1
  Ca2+  Ca58  1  0.09026613  0.11463163  0.24500923  1
  Ca2+  Ca59  1  0.90784413  0.10028648  0.76089429  1
  Ca2+  Ca60  1  0.27271422  0.11030516  0.10423745  1
  Ca2+  Ca61  1  0.23417588  0.58950765  0.41972687  1
  Ca2+  Ca62  1  0.24329898  0.58654889  0.41644468  1
  Ca2+  Ca63  1  0.09994074  0.10446727  0.56269622  1
  Ca2+  Ca64  1  0.57312956  0.09679336  0.39397485  1
  Ca2+  Ca65  1  0.28298002  0.10197516  0.76059947  1
  Ca2+  Ca66  1  0.40988068  0.10370414  0.93611186  1
  Ca2+  Ca67  1  0.25476696  0.58284899  0.06821196  1
  Ca2+  Ca68  1  0.57364024  0.57870983  0.75506194  1
  Ca2+  Ca69  1  0.24835252  0.10845545  0.39987768  1
  Ca2+  Ca70  1  0.56101900  0.58055050  0.75634662  1
  Ca2+  Ca71  1  0.77099950  0.57924023  0.25196455  1
  Ca2+  Ca72  1  0.75621251  0.90639980  0.92434055  1
  Ca2+  Ca73  1  0.06138240  0.40984592  0.91232626  1
  Ca2+  Ca74  1  0.42771198  0.40277913  0.26776830  1
  Ca2+  Ca75  1  0.25920818  0.39780876  0.08146632  1
  Ca2+  Ca76  1  0.91809595  0.89872816  0.75067458  1
  Ca2+  Ca77  1  0.91188774  0.40379519  0.42438924  1
  Ca2+  Ca78  1  0.41335915  0.91421497  0.25431238  1
  Ca2+  Ca79  1  0.75019950  0.42156757  0.90668273  1
  Ca2+  Ca80  1  0.25821170  0.39586415  0.42024882  1
  Ca2+  Ca81  1  0.56776061  0.90487351  0.73108646  1
  Ca2+  Ca82  1  0.89361731  0.41952725  0.05857808  1
  Ca2+  Ca83  1  0.91386757  0.89325513  0.41739501  1
  Ca2+  Ca84  1  0.88599379  0.41658548  0.06426759  1
  Ca2+  Ca85  1  0.73400536  0.91366306  0.25030483  1
  Ca2+  Ca86  1  0.42585549  0.91443269  0.25338769  1
  Ca2+  Ca87  1  0.58647180  0.91073534  0.07892660  1
  Ca2+  Ca88  1  0.57961632  0.90165848  0.73076729  1
  Ca2+  Ca89  1  0.74596148  0.91211969  0.25290719  1
  Ca2+  Ca90  1  0.41138355  0.91454359  0.91942984  1
  Ca2+  Ca91  1  0.42929510  0.40582738  0.91731798  1
  Ca2+  Ca92  1  0.91133399  0.91193577  0.07503998  1
  Ca2+  Ca93  1  0.26658260  0.91764973  0.07771773  1
  Ca2+  Ca94  1  0.60140622  0.41783602  0.06873825  1
  Ca2+  Ca95  1  0.25533161  0.91113920  0.73861830  1
  Ca2+  Ca96  1  0.26151677  0.90351539  0.42107551  1
  Ca2+  Ca97  1  0.09302644  0.90632409  0.59149001  1
  Ca2+  Ca98  1  0.60930790  0.41297083  0.06742058  1
  Ca2+  Ca99  1  0.57469051  0.90014054  0.43340612  1
  Ca2+  Ca100  1  0.08824146  0.90580450  0.91563789  1
  Ca2+  Ca101  1  0.24993093  0.40005697  0.75447504  1
  Ca2+  Ca102  1  0.90154970  0.91550647  0.07684002  1
  Ca2+  Ca103  1  0.07738940  0.40138196  0.25131638  1
  Ca2+  Ca104  1  0.75617851  0.41016978  0.58610504  1
  Ca2+  Ca105  1  0.06804124  0.41420487  0.58770738  1
  Ca2+  Ca106  1  0.25384710  0.91683400  0.07766586  1
  Ca2+  Ca107  1  0.08571353  0.90613780  0.25365112  1
  Mn3.34+  Mn108  1  0.08509831  0.33589713  0.08448178  1
  Mn3.34+  Mn109  1  0.08247098  0.33475596  0.41669500  1
  Mn3.34+  Mn110  1  0.08264192  0.33547723  0.74753228  1
  Mn3.34+  Mn111  1  0.08411395  0.83303572  0.08546998  1
  Mn3.34+  Mn112  1  0.08241418  0.83174159  0.41936280  1
  Mn3.34+  Mn113  1  0.08551592  0.83447812  0.74958984  1
  Mn3.34+  Mn114  1  0.41882472  0.33545405  0.09044637  1
  Mn3.34+  Mn115  1  0.42165199  0.33957165  0.42427338  1
  Mn3.34+  Mn116  1  0.42121916  0.33726357  0.74487371  1
  Mn3.34+  Mn117  1  0.42061972  0.83603990  0.08071250  1
  Mn3.34+  Mn118  1  0.41650972  0.82882348  0.42345548  1
  Mn3.34+  Mn119  1  0.41097505  0.82703599  0.75235987  1
  Mn3.34+  Mn120  1  0.74858449  0.32943208  0.08934545  1
  Mn3.34+  Mn121  1  0.74651125  0.33807659  0.41317948  1
  Mn3.34+  Mn122  1  0.74699614  0.33951428  0.74652260  1
  Mn3.34+  Mn123  1  0.75018434  0.82996627  0.08556792  1
  Mn3.34+  Mn124  1  0.75232660  0.82836357  0.42356273  1
  Mn3.34+  Mn125  1  0.75066693  0.83002214  0.74983391  1
  Mn3.34+  Mn126  1  0.25225662  0.32795406  0.24896433  1
  Mn3.34+  Mn127  1  0.24974447  0.33403057  0.58251541  1
  Mn3.34+  Mn128  1  0.24888216  0.33406906  0.91543395  1
  Mn3.34+  Mn129  1  0.24605220  0.83116095  0.25346610  1
  Mn3.34+  Mn130  1  0.25071087  0.83200138  0.58119611  1
  Mn3.34+  Mn131  1  0.24824581  0.83317702  0.91130556  1
  Mn3.34+  Mn132  1  0.58620389  0.33113046  0.24883383  1
  Mn3.34+  Mn133  1  0.58343695  0.33985514  0.58061242  1
  Mn3.34+  Mn134  1  0.58702795  0.33891316  0.91066554  1
  Mn3.34+  Mn135  1  0.58485944  0.83033395  0.25139282  1
  Mn3.34+  Mn136  1  0.58156329  0.82411599  0.58071022  1
  Mn3.34+  Mn137  1  0.58612557  0.83394209  0.91395713  1
  Mn3.34+  Mn138  1  0.91309721  0.33444702  0.24932047  1
  Mn3.34+  Mn139  1  0.91591671  0.33872728  0.58309925  1
  Mn3.34+  Mn140  1  0.91193060  0.33149079  0.91401146  1
  Mn3.34+  Mn141  1  0.91839001  0.82948258  0.24749778  1
  Mn3.34+  Mn142  1  0.91820582  0.82990033  0.58302582  1
  Mn3.34+  Mn143  1  0.91924605  0.83447669  0.91242717  1
  Mn3.34+  Mn144  1  0.58285436  0.66958894  0.58119469  1
  Mn3.34+  Mn145  1  0.42778960  0.65805359  0.08780806  1
  Mn3.34+  Mn146  1  0.58373278  0.66261687  0.92068518  1
  Mn3.34+  Mn147  1  0.09160503  0.16794538  0.75301361  1
  Mn3.34+  Mn148  1  0.24776603  0.17190088  0.92335266  1
  Mn3.34+  Mn149  1  0.25503682  0.17344394  0.58299090  1
  Mn3.34+  Mn150  1  0.41387526  0.67190813  0.42036143  1
  Mn3.34+  Mn151  1  0.24841152  0.66639291  0.24607650  1
  Mn3.34+  Mn152  1  0.91415236  0.17152922  0.58415197  1
  Mn3.34+  Mn153  1  0.75452893  0.66266427  0.41893535  1
  Mn3.34+  Mn154  1  0.24517708  0.67478853  0.91298667  1
  Mn3.34+  Mn155  1  0.58368412  0.17458346  0.91549876  1
  Mn3.34+  Mn156  1  0.24958149  0.66492673  0.58167808  1
  Mn3.34+  Mn157  1  0.57490999  0.17226829  0.24821874  1
  Mn3.34+  Mn158  1  0.91745928  0.66600441  0.25113396  1
  Mn3.34+  Mn159  1  0.08178238  0.66460787  0.08081768  1
  Mn3.34+  Mn160  1  0.58810485  0.16898355  0.58287570  1
  Mn3.34+  Mn161  1  0.75164763  0.17109301  0.41164992  1
  Mn3.34+  Mn162  1  0.57861159  0.16371840  0.57974043  1
  Mn3.34+  Mn163  1  0.25765626  0.66991499  0.91195212  1
  Mn3.34+  Mn164  1  0.41703685  0.66303984  0.08452522  1
  Mn3.34+  Mn165  1  0.08203695  0.67459796  0.08890528  1
  Mn3.34+  Mn166  1  0.75309729  0.65422285  0.08505859  1
  Mn3.34+  Mn167  1  0.08568447  0.16950784  0.07303797  1
  Mn3.34+  Mn168  1  0.74894753  0.17234853  0.75433057  1
  Mn3.34+  Mn169  1  0.74055371  0.15644482  0.08230891  1
  Mn3.34+  Mn170  1  0.42420559  0.66711914  0.42251224  1
  Mn3.34+  Mn171  1  0.74805489  0.66457230  0.75362569  1
  Mn3.34+  Mn172  1  0.41608460  0.16804830  0.41745454  1
  Mn3.34+  Mn173  1  0.59799697  0.65671546  0.92132233  1
  Mn3.34+  Mn174  1  0.07881103  0.16139165  0.75571069  1
  Mn3.34+  Mn175  1  0.59618024  0.66513644  0.24008379  1
  Mn3.34+  Mn176  1  0.73383087  0.14907915  0.08567305  1
  Mn3.34+  Mn177  1  0.58734673  0.67022641  0.24441529  1
  Mn3.34+  Mn178  1  0.91312581  0.16953397  0.91613249  1
  Mn3.34+  Mn179  1  0.59322647  0.66438096  0.58165363  1
  Mn3.34+  Mn180  1  0.58151390  0.49597269  0.24900204  1
  Mn3.34+  Mn181  1  0.60112955  0.00902502  0.93529137  1
  Mn3.34+  Mn182  1  0.25018161  0.00162729  0.91733166  1
  Mn3.34+  Mn183  1  0.25951556  0.49490657  0.58611075  1
  Mn3.34+  Mn184  1  0.92047413  0.49683308  0.24765497  1
  Mn3.34+  Mn185  1  0.25257175  0.49990479  0.92159494  1
  Mn3.34+  Mn186  1  0.41743449  0.49730244  0.07675013  1
  Mn3.34+  Mn187  1  0.41692007  -0.00128845  0.74721828  1
  Mn3.34+  Mn188  1  0.42217431  -0.00218161  0.41631253  1
  Mn3.34+  Mn189  1  0.59007467  0.00217508  0.92880995  1
  Mn3.34+  Mn190  1  0.57855868  0.49657910  0.58170889  1
  Mn3.34+  Mn191  1  0.08750618  0.50214907  0.08138113  1
  Mn3.34+  Mn192  1  0.24626940  0.49623765  0.24808893  1
  Mn3.34+  Mn193  1  0.26032790  0.50294630  0.24662880  1
  Mn3.34+  Mn194  1  0.91219114  -0.00167612  0.25290542  1
  Mn3.34+  Mn195  1  0.25305453  0.00142986  0.25559557  1
  Mn3.34+  Mn196  1  0.08923576  0.00063535  0.74412299  1
  Mn3.34+  Mn197  1  0.25253246  0.00151952  0.58380568  1
  Mn3.34+  Mn198  1  0.74917641  0.49764695  0.41229038  1
  Mn3.34+  Mn199  1  0.08516173  0.49947788  0.74154333  1
  Mn3.34+  Mn200  1  0.74504232  0.50336282  0.74191392  1
  Mn3.34+  Mn201  1  0.90923025  -0.00362615  0.58747501  1
  Mn3.34+  Mn202  1  0.09040060  0.00190561  0.08093150  1
  Mn3.34+  Mn203  1  0.73717237  0.01011120  0.75521992  1
  Mn3.34+  Mn204  1  0.74202403  -0.00393204  0.42672772  1
  Mn3.34+  Mn205  1  0.07262360  0.49547983  0.41212638  1
  Mn3.34+  Mn206  1  0.41655679  0.49468292  0.74710003  1
  Mn3.34+  Mn207  1  0.07358640  0.50756574  0.08470954  1
  Mn3.34+  Mn208  1  0.07408514  -0.00729935  0.41965252  1
  Mn3.34+  Mn209  1  0.08880778  -0.00185274  0.41628391  1
  Mn3.34+  Mn210  1  0.75086066  0.00335433  0.75572859  1
  Mn3.34+  Mn211  1  0.58296778  0.00838084  0.24365919  1
  Mn3.34+  Mn212  1  0.57675900  0.00018859  0.58442245  1
  Mn3.34+  Mn213  1  0.75366055  0.00130541  0.42518343  1
  Mn3.34+  Mn214  1  0.92414673  0.00165639  0.58794102  1
  Mn3.34+  Mn215  1  0.91391079  0.00379313  0.92323697  1
  O2-  O216  1  -0.00892457  0.15021401  0.00108648  1
  O2-  O217  1  0.00457300  0.16644163  0.32537487  1
  O2-  O218  1  0.00289273  0.14177841  0.66506204  1
  O2-  O219  1  0.00544326  0.66544345  -0.00174021  1
  O2-  O220  1  -0.00150136  0.66096658  0.32484404  1
  O2-  O221  1  -0.00358076  0.65110131  0.67284220  1
  O2-  O222  1  0.32950069  0.17379846  0.00120672  1
  O2-  O223  1  0.33429087  0.17555071  0.34567917  1
  O2-  O224  1  0.33155680  0.15975553  0.66391399  1
  O2-  O225  1  0.32472088  0.66159321  0.00344548  1
  O2-  O226  1  0.34096154  0.64938616  0.33214086  1
  O2-  O227  1  0.32875648  0.65903923  0.66667950  1
  O2-  O228  1  0.66772004  0.18413336  0.00078296  1
  O2-  O229  1  0.66334628  0.16045963  0.34240594  1
  O2-  O230  1  0.66355999  0.14250952  0.66854957  1
  O2-  O231  1  0.66441912  0.66864302  0.01083240  1
  O2-  O232  1  0.66868500  0.64575223  0.33107133  1
  O2-  O233  1  0.66118132  0.68341029  0.67451596  1
  O2-  O234  1  0.16912555  0.14802736  0.00098919  1
  O2-  O235  1  0.16598452  0.16338865  0.33275905  1
  O2-  O236  1  0.16906854  0.14370690  0.66793779  1
  O2-  O237  1  0.17125884  0.66052578  0.00218032  1
  O2-  O238  1  0.17276067  0.64724884  0.32621688  1
  O2-  O239  1  0.16820556  0.64129658  0.65449188  1
  O2-  O240  1  0.50182971  0.17136915  -0.00402805  1
  O2-  O241  1  0.50046990  0.17711385  0.33851398  1
  O2-  O242  1  0.49605276  0.14735884  0.65446171  1
  O2-  O243  1  0.50123162  0.64147652  -0.00379627  1
  O2-  O244  1  0.50765992  0.67412773  0.33679436  1
  O2-  O245  1  0.50180829  0.66131664  0.66488837  1
  O2-  O246  1  0.82294586  0.15405221  -0.00000749  1
  O2-  O247  1  0.83212767  0.16576470  0.33994923  1
  O2-  O248  1  0.83346559  0.15278877  0.66876861  1
  O2-  O249  1  0.82230063  0.68155093  0.01163851  1
  O2-  O250  1  0.82787927  0.64840643  0.32798499  1
  O2-  O251  1  0.82168291  0.65902156  0.66756897  1
  O2-  O252  1  -0.00634739  0.35284823  0.01235308  1
  O2-  O253  1  -0.00369122  0.35070870  0.33473865  1
  O2-  O254  1  0.00207754  0.34402713  0.66433242  1
  O2-  O255  1  0.00026583  0.85438570  0.00197832  1
  O2-  O256  1  0.00318134  0.84797674  0.33120508  1
  O2-  O257  1  0.00349649  0.85149082  0.66467858  1
  O2-  O258  1  0.34142571  0.33905614  -0.00359406  1
  O2-  O259  1  0.33649621  0.32937152  0.33245649  1
  O2-  O260  1  0.32961995  0.34125755  0.66925653  1
  O2-  O261  1  0.32966891  0.84723936  -0.00147973  1
  O2-  O262  1  0.34335093  0.84753944  0.32831099  1
  O2-  O263  1  0.32881740  0.82838570  0.67199573  1
  O2-  O264  1  0.67377229  0.33710266  -0.00334974  1
  O2-  O265  1  0.66844639  0.34737133  0.32907936  1
  O2-  O266  1  0.67088189  0.34755217  0.66061634  1
  O2-  O267  1  0.66644684  0.83900262  0.00423088  1
  O2-  O268  1  0.66209239  0.84926619  0.33857211  1
  O2-  O269  1  0.65721202  0.82477596  0.67376387  1
  O2-  O270  1  0.16075718  0.35592760  -0.00531686  1
  O2-  O271  1  0.16751225  0.34947875  0.33158199  1
  O2-  O272  1  0.16365906  0.35402741  0.65977506  1
  O2-  O273  1  0.17359850  0.83663821  0.00592413  1
  O2-  O274  1  0.17017795  0.85021527  0.33984340  1
  O2-  O275  1  0.17162510  0.84767683  0.67136881  1
  O2-  O276  1  0.50804643  0.34317791  0.01232595  1
  O2-  O277  1  0.49951383  0.33058012  0.33686363  1
  O2-  O278  1  0.50046126  0.34446785  0.66334349  1
  O2-  O279  1  0.50324718  0.85579926  -0.00545025  1
  O2-  O280  1  0.50039801  0.82505668  0.33493462  1
  O2-  O281  1  0.49779249  0.81434469  0.66958753  1
  O2-  O282  1  0.83159565  0.32880594  0.00725595  1
  O2-  O283  1  0.83697613  0.34358609  0.33649881  1
  O2-  O284  1  0.83153396  0.34351400  0.66466985  1
  O2-  O285  1  0.83598940  0.84283565  0.00184459  1
  O2-  O286  1  0.82491928  0.85029626  0.32308658  1
  O2-  O287  1  0.83640466  0.83201812  0.67082485  1
  O2-  O288  1  0.00047830  0.17489667  0.15280069  1
  O2-  O289  1  0.00139235  0.17553860  0.51069392  1
  O2-  O290  1  -0.00089792  0.18418731  0.83269323  1
  O2-  O291  1  -0.00418544  0.68891957  0.16312049  1
  O2-  O292  1  0.02055910  0.68220007  0.50891213  1
  O2-  O293  1  -0.00725561  0.66009474  0.82658402  1
  O2-  O294  1  0.34312390  0.18659463  0.15051986  1
  O2-  O295  1  0.33904998  0.18338092  0.50597849  1
  O2-  O296  1  0.33474211  0.17782066  0.84797074  1
  O2-  O297  1  0.33164702  0.68544168  0.16622918  1
  O2-  O298  1  0.33401246  0.68966476  0.50204749  1
  O2-  O299  1  0.33289594  0.69513100  0.83461334  1
  O2-  O300  1  0.66219411  0.17949528  0.16515203  1
  O2-  O301  1  0.67333264  0.18033576  0.50918060  1
  O2-  O302  1  0.65861154  0.18629920  0.82360342  1
  O2-  O303  1  0.67144456  0.69952672  0.16235719  1
  O2-  O304  1  0.67038040  0.68621815  0.50035790  1
  O2-  O305  1  0.67336868  0.68949194  0.84261400  1
  O2-  O306  1  0.15887779  0.17751642  0.15753164  1
  O2-  O307  1  0.16763812  0.18034402  0.50830954  1
  O2-  O308  1  0.17685049  0.17735303  0.82834857  1
  O2-  O309  1  0.16477154  0.69421134  0.16106263  1
  O2-  O310  1  0.17992709  0.66447517  0.49349062  1
  O2-  O311  1  0.17298845  0.67873823  0.82640616  1
  O2-  O312  1  0.49773657  0.18511487  0.17462293  1
  O2-  O313  1  0.50389440  0.18710244  0.49625359  1
  O2-  O314  1  0.49649594  0.17010323  0.84466432  1
  O2-  O315  1  0.50022382  0.69811866  0.17363036  1
  O2-  O316  1  0.50202587  0.69600348  0.50188835  1
  O2-  O317  1  0.51529867  0.67324252  0.82928108  1
  O2-  O318  1  0.82994549  0.18278552  0.14877298  1
  O2-  O319  1  0.83335246  0.18008068  0.50358649  1
  O2-  O320  1  0.83811575  0.18975944  0.82893590  1
  O2-  O321  1  0.82542394  0.67381830  0.17288379  1
  O2-  O322  1  0.83225251  0.67396237  0.49355032  1
  O2-  O323  1  0.83700826  0.68009201  0.81599797  1
  O2-  O324  1  0.00870269  0.32331342  0.17270602  1
  O2-  O325  1  -0.00220171  0.32361855  0.49748532  1
  O2-  O326  1  0.00237280  0.32510612  0.84089108  1
  O2-  O327  1  -0.00113180  0.81674238  0.16028619  1
  O2-  O328  1  0.00133459  0.82424794  0.50042971  1
  O2-  O329  1  -0.00242548  0.82758167  0.82742798  1
  O2-  O330  1  0.32972129  0.31582822  0.16043467  1
  O2-  O331  1  0.33155003  0.31535237  0.49570335  1
  O2-  O332  1  0.33139854  0.31996826  0.83485763  1
  O2-  O333  1  0.33072004  0.82267398  0.16623429  1
  O2-  O334  1  0.32615796  0.81208765  0.49146634  1
  O2-  O335  1  0.33378412  0.81391160  0.83781269  1
  O2-  O336  1  0.65237014  0.31959561  0.14990609  1
  O2-  O337  1  0.66957186  0.32012541  0.50230940  1
  O2-  O338  1  0.66815517  0.32568834  0.83115696  1
  O2-  O339  1  0.67196142  0.81850493  0.17389580  1
  O2-  O340  1  0.66589236  0.81191771  0.50368192  1
  O2-  O341  1  0.66432062  0.81764965  0.83001159  1
  O2-  O342  1  0.16968494  0.32470909  0.16255360  1
  O2-  O343  1  0.16952581  0.32190130  0.49514865  1
  O2-  O344  1  0.16872792  0.32268647  0.82793137  1
  O2-  O345  1  0.16308330  0.81574886  0.17081778  1
  O2-  O346  1  0.16310376  0.82299840  0.50442387  1
  O2-  O347  1  0.16191706  0.81290036  0.83883482  1
  O2-  O348  1  0.49195214  0.31336280  0.17494500  1
  O2-  O349  1  0.49860798  0.31487002  0.50016395  1
  O2-  O350  1  0.49579506  0.33368759  0.83927918  1
  O2-  O351  1  0.49897812  0.82477154  0.17259146  1
  O2-  O352  1  0.50167281  0.80754296  0.49756127  1
  O2-  O353  1  0.50117045  0.81883185  0.82813378  1
  O2-  O354  1  0.83325405  0.31520920  0.16453632  1
  O2-  O355  1  0.83640074  0.32205702  0.49953697  1
  O2-  O356  1  0.82797171  0.32173202  0.83676041  1
  O2-  O357  1  0.83671852  0.80855445  0.15842335  1
  O2-  O358  1  0.84444360  0.81364183  0.49066227  1
  O2-  O359  1  0.82906739  0.82617944  0.83783990  1
  O2-  O360  1  0.07338516  0.08238967  0.10602981  1
  O2-  O361  1  0.08128757  0.08002433  0.43134936  1
  O2-  O362  1  0.07993218  0.08164134  0.78493304  1
  O2-  O363  1  0.08912901  0.58427275  0.13410283  1
  O2-  O364  1  0.10307698  0.57062788  0.45090656  1
  O2-  O365  1  0.12001476  0.56113708  0.79905697  1
  O2-  O366  1  0.39427678  0.07112059  0.06377494  1
  O2-  O367  1  0.42029370  0.07918672  0.44483205  1
  O2-  O368  1  0.42014742  0.06971575  0.80147991  1
  O2-  O369  1  0.40520113  0.57529616  0.12898860  1
  O2-  O370  1  0.42132485  0.58437460  0.45419563  1
  O2-  O371  1  0.42579547  0.56994710  0.78646763  1
  O2-  O372  1  0.78217603  0.07509929  0.11836795  1
  O2-  O373  1  0.74940948  0.08358881  0.44372706  1
  O2-  O374  1  0.75736328  0.08777689  0.78922888  1
  O2-  O375  1  0.73391198  0.57883826  0.12010827  1
  O2-  O376  1  0.73160069  0.57837379  0.45021124  1
  O2-  O377  1  0.71584688  0.57989186  0.77889454  1
  O2-  O378  1  0.21770358  0.07554571  0.22697792  1
  O2-  O379  1  0.24378324  0.08415517  0.54466103  1
  O2-  O380  1  0.27214927  0.08278699  0.90287699  1
  O2-  O381  1  0.24235804  0.57985997  0.20258595  1
  O2-  O382  1  0.27349903  0.57829608  0.54927560  1
  O2-  O383  1  0.26350582  0.58262501  0.88186249  1
  O2-  O384  1  0.57252987  0.08754425  0.25185519  1
  O2-  O385  1  0.58275910  0.08125354  0.53814435  1
  O2-  O386  1  0.58924627  0.08704182  0.89905781  1
  O2-  O387  1  0.57078736  0.58004731  0.21939301  1
  O2-  O388  1  0.56955287  0.58166257  0.54386684  1
  O2-  O389  1  0.59143748  0.57783645  0.88759950  1
  O2-  O390  1  0.95086434  0.07392019  0.22037436  1
  O2-  O391  1  0.91779067  0.08053756  0.54697027  1
  O2-  O392  1  0.91068420  0.08317292  0.89453788  1
  O2-  O393  1  0.91487302  0.58007226  0.22209914  1
  O2-  O394  1  0.92765974  0.56552629  0.55354647  1
  O2-  O395  1  0.93094566  0.54453160  0.85488990  1
  O2-  O396  1  0.10011559  0.42410596  0.12035354  1
  O2-  O397  1  0.07877005  0.41854075  0.44777541  1
  O2-  O398  1  0.09321396  0.42567818  0.77951876  1
  O2-  O399  1  0.10191051  0.92251892  0.12055440  1
  O2-  O400  1  0.08462383  0.91600363  0.45616046  1
  O2-  O401  1  0.10026087  0.91928566  0.78047992  1
  O2-  O402  1  0.40900687  0.42266089  0.12369980  1
  O2-  O403  1  0.40131469  0.41609430  0.41849535  1
  O2-  O404  1  0.39823257  0.41989515  0.78121938  1
  O2-  O405  1  0.40508191  0.92064439  0.11993057  1
  O2-  O406  1  0.42804845  0.91683495  0.44391522  1
  O2-  O407  1  0.42853484  0.91619882  0.77035664  1
  O2-  O408  1  0.75123426  0.41032208  0.10582376  1
  O2-  O409  1  0.76588112  0.41963832  0.44706780  1
  O2-  O410  1  0.75103637  0.42456133  0.76890713  1
  O2-  O411  1  0.76994829  0.91696744  0.12340121  1
  O2-  O412  1  0.74595115  0.91528698  0.45641187  1
  O2-  O413  1  0.73446675  0.92104591  0.77437945  1
  O2-  O414  1  0.26594414  0.41595242  0.22530319  1
  O2-  O415  1  0.24395614  0.41684064  0.55204761  1
  O2-  O416  1  0.25838544  0.41769411  0.89303910  1
  O2-  O417  1  0.25783404  0.92139944  0.21348227  1
  O2-  O418  1  0.25268447  0.91757666  0.55910847  1
  O2-  O419  1  0.25296622  0.92296826  0.87467711  1
  O2-  O420  1  0.57158384  0.41788829  0.21048888  1
  O2-  O421  1  0.60307716  0.42032856  0.55047799  1
  O2-  O422  1  0.58717590  0.41916579  0.91615650  1
  O2-  O423  1  0.59782755  0.92540733  0.21152713  1
  O2-  O424  1  0.57371425  0.91354762  0.57813690  1
  O2-  O425  1  0.58830348  0.93124077  0.86060575  1
  O2-  O426  1  0.92123425  0.42054492  0.20143042  1
  O2-  O427  1  0.91764540  0.41748232  0.56076552  1
  O2-  O428  1  0.90310446  0.41191529  0.91732235  1
  O2-  O429  1  0.91527357  0.91515737  0.21192189  1
  O2-  O430  1  0.91318235  0.91720123  0.55322911  1
  O2-  O431  1  0.91636821  0.92418707  0.88386566  1
  O2-  O432  1  -0.00746769  -0.01230104  0.01686851  1
  O2-  O433  1  -0.00198421  -0.01727520  0.33422917  1
  O2-  O434  1  -0.01655186  -0.01571376  0.68550837  1
  O2-  O435  1  -0.01776848  0.48823079  0.01912066  1
  O2-  O436  1  0.01921265  0.49115981  0.30676710  1
  O2-  O437  1  0.00863525  0.51542958  0.67163968  1
  O2-  O438  1  0.32651333  -0.01911905  -0.00762669  1
  O2-  O439  1  0.33821668  -0.01842534  0.33171639  1
  O2-  O440  1  0.31658505  0.01014420  0.68860900  1
  O2-  O441  1  0.30922736  0.49578817  0.03243634  1
  O2-  O442  1  0.32528120  0.52676045  0.33888707  1
  O2-  O443  1  0.32742785  0.51753484  0.68069508  1
  O2-  O444  1  0.67124783  -0.02992734  0.00477216  1
  O2-  O445  1  0.66738059  -0.00980102  0.33027551  1
  O2-  O446  1  0.67482756  0.00278036  0.65809566  1
  O2-  O447  1  0.68336408  0.48174482  -0.00085088  1
  O2-  O448  1  0.67038669  0.51643312  0.32092780  1
  O2-  O449  1  0.65992358  0.51478912  0.66610960  1
  O2-  O450  1  0.16553128  -0.02281551  -0.00488925  1
  O2-  O451  1  0.16962702  -0.01918254  0.33580800  1
  O2-  O452  1  0.13856099  0.00572502  0.62906453  1
  O2-  O453  1  0.14743278  0.52280325  -0.01576061  1
  O2-  O454  1  0.17321809  0.50569249  0.34236448  1
  O2-  O455  1  0.17065060  0.50635205  0.66750176  1
  O2-  O456  1  0.48779778  -0.00712139  -0.02481426  1
  O2-  O457  1  0.50147049  -0.01905554  0.32542369  1
  O2-  O458  1  0.52338253  0.00040535  0.70063342  1
  O2-  O459  1  0.51710282  0.48897997  0.03121515  1
  O2-  O460  1  0.49987301  0.50169183  0.32010484  1
  O2-  O461  1  0.49677926  0.51646916  0.66595092  1
  O2-  O462  1  0.83694779  -0.01715053  -0.00192498  1
  O2-  O463  1  0.82652664  -0.02010043  0.33238403  1
  O2-  O464  1  0.83378380  0.01819558  0.67238734  1
  O2-  O465  1  0.81358816  0.48662916  -0.00101296  1
  O2-  O466  1  0.83105527  0.50343098  0.32218518  1
  O2-  O467  1  0.83160020  0.52110292  0.68313237  1
  O2-  O468  1  0.56855284  0.74418260  0.94340587  1
  O2-  O469  1  0.91993977  0.24990637  0.61181047  1
  O2-  O470  1  0.08035991  0.75598933  0.72735427  1
  O2-  O471  1  0.07968508  0.24590743  0.71843239  1
  O2-  O472  1  0.92486546  0.75745213  0.93420254  1
  O2-  O473  1  0.92651125  0.24890465  0.94635061  1
  O2-  O474  1  0.23830981  0.25175713  0.26154070  1
  O2-  O475  1  0.25748394  0.74908679  0.28616457  1
  O2-  O476  1  0.74776819  0.25224426  0.72193339  1
  O2-  O477  1  0.42174830  0.75058807  0.05132459  1
  O2-  O478  1  0.23384955  0.74676070  0.60253878  1
  O2-  O479  1  0.74463039  0.74657878  0.38575381  1
  O2-  O480  1  0.07987418  0.25784693  0.39777304  1
  O2-  O481  1  0.24070865  0.25211032  0.61571501  1
  O2-  O482  1  0.42650800  0.25727697  0.73755751  1
  O2-  O483  1  0.57492653  0.25582780  0.92279487  1
  O2-  O484  1  0.08173415  0.25251677  0.05342055  1
  O2-  O485  1  0.08447879  0.75469177  0.39804806  1
  O2-  O486  1  0.92591456  0.75258574  0.60060488  1
  O2-  O487  1  0.60506088  0.25225700  0.27031333  1
  O2-  O488  1  0.22906460  0.25323188  0.94375069  1
  O2-  O489  1  0.74514583  0.25381109  0.39827845  1
  O2-  O490  1  0.91375153  0.74991837  0.28265649  1
  O2-  O491  1  0.92053534  0.25706773  0.26606898  1
  O2-  O492  1  0.58836396  0.24981302  0.61496509  1
