# generated using pymatgen
data_Ca108Mn108O277
_symmetry_space_group_name_H-M   'P 1'
_cell_length_a   16.02909397
_cell_length_b   22.30816536
_cell_length_c   16.39162415
_cell_angle_alpha   90.00426305
_cell_angle_beta   89.99326207
_cell_angle_gamma   89.99630696
_symmetry_Int_Tables_number   1
_chemical_formula_structural   Ca108Mn108O277
_chemical_formula_sum   'Ca108 Mn108 O277'
_cell_volume   5861.31162999
_cell_formula_units_Z   1
loop_
 _symmetry_equiv_pos_site_id
 _symmetry_equiv_pos_as_xyz
  1  'x, y, z'
loop_
 _atom_type_symbol
 _atom_type_oxidation_number
  Ca2+  2.0
  Mn3.34+  3.34
  O2-  -2.0
loop_
 _atom_site_type_symbol
 _atom_site_label
 _atom_site_symmetry_multiplicity
 _atom_site_fract_x
 _atom_site_fract_y
 _atom_site_fract_z
 _atom_site_occupancy
  Ca2+  Ca0  1  0.09417217  0.25267839  0.25978346  1
  Ca2+  Ca1  1  0.07026835  0.24945879  0.56482309  1
  Ca2+  Ca2  1  0.09557226  0.25195707  0.92168702  1
  Ca2+  Ca3  1  0.07249377  0.74746684  0.25471100  1
  Ca2+  Ca4  1  0.09872715  0.74964788  0.59285635  1
  Ca2+  Ca5  1  0.09628753  0.74332825  0.90616437  1
  Ca2+  Ca6  1  0.41210584  0.26023959  0.24870244  1
  Ca2+  Ca7  1  0.40747689  0.25110748  0.59169012  1
  Ca2+  Ca8  1  0.40137443  0.24273500  0.90498640  1
  Ca2+  Ca9  1  0.41208966  0.74887134  0.24195040  1
  Ca2+  Ca10  1  0.39312581  0.75457391  0.58364117  1
  Ca2+  Ca11  1  0.40445243  0.74472287  0.92790039  1
  Ca2+  Ca12  1  0.74582177  0.24550171  0.25921028  1
  Ca2+  Ca13  1  0.76170017  0.24402582  0.56173786  1
  Ca2+  Ca14  1  0.75287463  0.25691923  0.91610331  1
  Ca2+  Ca15  1  0.76170111  0.73387992  0.26331481  1
  Ca2+  Ca16  1  0.75377009  0.75391968  0.55865539  1
  Ca2+  Ca17  1  0.75291195  0.75074677  0.92598470  1
  Ca2+  Ca18  1  0.25047320  0.24445468  0.07502395  1
  Ca2+  Ca19  1  0.23759843  0.25474364  0.41232168  1
  Ca2+  Ca20  1  0.26209829  0.24290724  0.76997647  1
  Ca2+  Ca21  1  0.24733281  0.75391068  0.09067100  1
  Ca2+  Ca22  1  0.23855618  0.74970742  0.42320837  1
  Ca2+  Ca23  1  0.23426704  0.75944936  0.73987143  1
  Ca2+  Ca24  1  0.59837345  0.25186493  0.08833433  1
  Ca2+  Ca25  1  0.59748194  0.26294553  0.40954139  1
  Ca2+  Ca26  1  0.57894635  0.24831233  0.76339231  1
  Ca2+  Ca27  1  0.57346122  0.74791674  0.09311072  1
  Ca2+  Ca28  1  0.60632958  0.74539230  0.40648401  1
  Ca2+  Ca29  1  0.58528281  0.75940300  0.75184321  1
  Ca2+  Ca30  1  0.91192957  0.25439912  0.08319517  1
  Ca2+  Ca31  1  0.90502659  0.23021742  0.41524325  1
  Ca2+  Ca32  1  0.90851306  0.25028666  0.74431851  1
  Ca2+  Ca33  1  0.92248718  0.73915834  0.11556798  1
  Ca2+  Ca34  1  0.91970081  0.74922183  0.40113795  1
  Ca2+  Ca35  1  0.94235169  0.75706290  0.74710462  1
  Ca2+  Ca36  1  0.76553644  0.08918547  0.26725398  1
  Ca2+  Ca37  1  0.07765709  0.09529088  0.58055933  1
  Ca2+  Ca38  1  0.40953288  0.08454457  0.24938975  1
  Ca2+  Ca39  1  0.40640821  0.08651601  0.58905198  1
  Ca2+  Ca40  1  0.41760983  0.60329501  0.59989372  1
  Ca2+  Ca41  1  0.40488847  0.60364865  0.59906897  1
  Ca2+  Ca42  1  0.60938750  0.57825336  0.36824590  1
  Ca2+  Ca43  1  0.59635563  0.08393830  0.41315718  1
  Ca2+  Ca44  1  0.55028051  0.08053031  0.75061465  1
  Ca2+  Ca45  1  0.28681388  0.09051058  0.74173708  1
  Ca2+  Ca46  1  0.73479920  0.60374681  0.55706400  1
  Ca2+  Ca47  1  0.28038627  0.08466776  0.74235912  1
  Ca2+  Ca48  1  0.92200347  0.07624615  0.07428360  1
  Ca2+  Ca49  1  0.06794601  0.60060435  0.24863158  1
  Ca2+  Ca50  1  0.58822361  0.08616566  0.07612163  1
  Ca2+  Ca51  1  0.42082640  0.08125755  0.25330237  1
  Ca2+  Ca52  1  0.54078295  0.08240376  0.75427980  1
  Ca2+  Ca53  1  0.10351388  0.61663264  0.58270097  1
  Ca2+  Ca54  1  0.74650765  0.58254755  0.92386521  1
  Ca2+  Ca55  1  0.25052280  0.59882816  0.08491750  1
  Ca2+  Ca56  1  0.37859238  0.09805323  0.91385081  1
  Ca2+  Ca57  1  0.24057350  0.61870566  0.75172924  1
  Ca2+  Ca58  1  0.77539285  0.08960243  0.27082910  1
  Ca2+  Ca59  1  0.37759949  0.10304321  0.92154572  1
  Ca2+  Ca60  1  0.93147733  0.07342440  0.07760039  1
  Ca2+  Ca61  1  0.73395927  0.58480436  0.92326339  1
  Ca2+  Ca62  1  0.57375111  0.59935683  0.09430106  1
  Ca2+  Ca63  1  0.74593257  0.60493733  0.55716753  1
  Ca2+  Ca64  1  0.13077090  0.08283865  0.91949448  1
  Ca2+  Ca65  1  0.90335059  0.08345114  0.73021418  1
  Ca2+  Ca66  1  0.75204154  0.08903213  0.91990715  1
  Ca2+  Ca67  1  0.24870796  0.61519246  0.75588320  1
  Ca2+  Ca68  1  0.95195285  0.60753581  0.74379896  1
  Ca2+  Ca69  1  0.57557992  0.08586286  0.07559800  1
  Ca2+  Ca70  1  0.60813585  0.08576155  0.41576373  1
  Ca2+  Ca71  1  0.90450854  0.60411331  0.39313973  1
  Ca2+  Ca72  1  0.75175581  0.90319615  0.58573857  1
  Ca2+  Ca73  1  0.57263845  0.90242106  0.08592610  1
  Ca2+  Ca74  1  0.39997775  0.91483644  0.58505154  1
  Ca2+  Ca75  1  0.57949574  0.90602948  0.41994125  1
  Ca2+  Ca76  1  0.92537539  0.90619833  0.08635247  1
  Ca2+  Ca77  1  0.93189012  0.40634540  0.41649560  1
  Ca2+  Ca78  1  0.74234849  0.90186730  0.91070092  1
  Ca2+  Ca79  1  0.10340264  0.91641028  0.92239048  1
  Ca2+  Ca80  1  0.74423629  0.41213620  0.25796938  1
  Ca2+  Ca81  1  0.07929737  0.40873168  0.92606955  1
  Ca2+  Ca82  1  0.08803056  0.39229505  0.58292498  1
  Ca2+  Ca83  1  0.89715798  0.40495060  0.75037620  1
  Ca2+  Ca84  1  0.25367797  0.39361254  0.74365887  1
  Ca2+  Ca85  1  0.92886164  0.40684722  0.07722827  1
  Ca2+  Ca86  1  0.74115048  0.40841701  0.60268393  1
  Ca2+  Ca87  1  0.57885363  0.40967584  0.08153664  1
  Ca2+  Ca88  1  0.40923058  0.91804025  0.58816649  1
  Ca2+  Ca89  1  0.11149279  0.91234349  0.92596184  1
  Ca2+  Ca90  1  0.09332889  0.41018306  0.25340959  1
  Ca2+  Ca91  1  0.07290074  0.90388867  0.24586984  1
  Ca2+  Ca92  1  0.58333129  0.90217570  0.08556501  1
  Ca2+  Ca93  1  0.73243672  0.41045792  0.59765585  1
  Ca2+  Ca94  1  0.38411697  0.91564029  0.89723220  1
  Ca2+  Ca95  1  0.40557692  0.41045525  0.91263356  1
  Ca2+  Ca96  1  0.24500655  0.40914462  0.08215412  1
  Ca2+  Ca97  1  0.39368700  0.91790354  0.89440790  1
  Ca2+  Ca98  1  0.41702368  0.41318216  0.26124290  1
  Ca2+  Ca99  1  0.76203165  0.90119538  0.58246776  1
  Ca2+  Ca100  1  0.73174118  0.41299962  0.25615950  1
  Ca2+  Ca101  1  0.56771648  0.41388930  0.08509668  1
  Ca2+  Ca102  1  0.75454437  0.90224367  0.91101949  1
  Ca2+  Ca103  1  0.91901551  0.40698974  0.41656401  1
  Ca2+  Ca104  1  0.58640601  0.40235925  0.74745710  1
  Ca2+  Ca105  1  0.93450978  0.90788823  0.09096261  1
  Ca2+  Ca106  1  0.41827439  0.40918765  0.91355932  1
  Ca2+  Ca107  1  0.41118536  0.90327387  0.25086235  1
  Mn3.34+  Mn108  1  0.08416435  0.33414417  0.08758294  1
  Mn3.34+  Mn109  1  0.09056137  0.33583503  0.41635305  1
  Mn3.34+  Mn110  1  0.08165787  0.32725788  0.75297238  1
  Mn3.34+  Mn111  1  0.08980329  0.83161181  0.08750337  1
  Mn3.34+  Mn112  1  0.08090015  0.83233671  0.41942732  1
  Mn3.34+  Mn113  1  0.08453086  0.83796638  0.74676354  1
  Mn3.34+  Mn114  1  0.41320147  0.33330999  0.08598902  1
  Mn3.34+  Mn115  1  0.41432067  0.33187651  0.42202720  1
  Mn3.34+  Mn116  1  0.41898680  0.32990451  0.74733771  1
  Mn3.34+  Mn117  1  0.40856078  0.83443683  0.08664368  1
  Mn3.34+  Mn118  1  0.41411723  0.83938002  0.41817189  1
  Mn3.34+  Mn119  1  0.41753768  0.83537829  0.74945713  1
  Mn3.34+  Mn120  1  0.75430608  0.33183219  0.08205706  1
  Mn3.34+  Mn121  1  0.74801558  0.33359498  0.42115801  1
  Mn3.34+  Mn122  1  0.74496583  0.33282625  0.75337941  1
  Mn3.34+  Mn123  1  0.75063737  0.83076319  0.09010998  1
  Mn3.34+  Mn124  1  0.75375676  0.83514554  0.40960044  1
  Mn3.34+  Mn125  1  0.75417613  0.83024034  0.74839518  1
  Mn3.34+  Mn126  1  0.25303272  0.33606975  0.25015774  1
  Mn3.34+  Mn127  1  0.25127241  0.32496569  0.58185197  1
  Mn3.34+  Mn128  1  0.24731965  0.33287696  0.91575069  1
  Mn3.34+  Mn129  1  0.24508070  0.83181665  0.25678117  1
  Mn3.34+  Mn130  1  0.23908836  0.83729478  0.58006655  1
  Mn3.34+  Mn131  1  0.25087367  0.82912390  0.91651974  1
  Mn3.34+  Mn132  1  0.57992157  0.33396582  0.25124688  1
  Mn3.34+  Mn133  1  0.57470264  0.32947050  0.58175699  1
  Mn3.34+  Mn134  1  0.58512130  0.33137609  0.91588038  1
  Mn3.34+  Mn135  1  0.58347885  0.83190358  0.25471183  1
  Mn3.34+  Mn136  1  0.57881276  0.83033750  0.58292837  1
  Mn3.34+  Mn137  1  0.57789223  0.83014556  0.91163747  1
  Mn3.34+  Mn138  1  0.91601152  0.33520820  0.24496367  1
  Mn3.34+  Mn139  1  0.91789332  0.32968628  0.58311004  1
  Mn3.34+  Mn140  1  0.91738741  0.33079308  0.91470231  1
  Mn3.34+  Mn141  1  0.91312459  0.83879836  0.25591967  1
  Mn3.34+  Mn142  1  0.93120906  0.84164789  0.57575210  1
  Mn3.34+  Mn143  1  0.92068196  0.83500136  0.91310468  1
  Mn3.34+  Mn144  1  0.07647950  0.16486241  0.75444545  1
  Mn3.34+  Mn145  1  0.41379044  0.66716696  0.08637686  1
  Mn3.34+  Mn146  1  0.58374580  0.16826342  0.24498349  1
  Mn3.34+  Mn147  1  0.09347573  0.15796537  0.08781837  1
  Mn3.34+  Mn148  1  0.75538773  0.16718917  0.08635131  1
  Mn3.34+  Mn149  1  0.90893123  0.16346504  0.57490464  1
  Mn3.34+  Mn150  1  0.75068278  0.16508567  0.75213708  1
  Mn3.34+  Mn151  1  0.73996010  0.66565677  0.75177177  1
  Mn3.34+  Mn152  1  0.41555722  0.16614530  0.42034248  1
  Mn3.34+  Mn153  1  0.58607940  0.66370398  0.24637788  1
  Mn3.34+  Mn154  1  0.58087595  0.17733772  0.58529531  1
  Mn3.34+  Mn155  1  0.57838960  0.67206243  0.58149308  1
  Mn3.34+  Mn156  1  0.08412206  0.16362742  0.08625017  1
  Mn3.34+  Mn157  1  0.24808516  0.16798532  0.25075475  1
  Mn3.34+  Mn158  1  0.42443948  0.67433639  0.76195826  1
  Mn3.34+  Mn159  1  0.40517289  0.16123436  0.42222199  1
  Mn3.34+  Mn160  1  0.59240560  0.17220701  0.58406444  1
  Mn3.34+  Mn161  1  0.91356495  0.16674379  0.91235707  1
  Mn3.34+  Mn162  1  0.91951563  0.67298080  0.57687106  1
  Mn3.34+  Mn163  1  0.75071571  0.67103878  0.09171127  1
  Mn3.34+  Mn164  1  0.91841748  0.66656009  0.92427150  1
  Mn3.34+  Mn165  1  0.41009357  0.66293642  0.41290492  1
  Mn3.34+  Mn166  1  0.57644335  0.66624321  0.91645651  1
  Mn3.34+  Mn167  1  0.08587173  0.66685266  0.41832725  1
  Mn3.34+  Mn168  1  0.58553900  0.16911225  0.91390541  1
  Mn3.34+  Mn169  1  0.24441641  0.16706889  0.57801746  1
  Mn3.34+  Mn170  1  0.92899283  0.15868946  0.24832128  1
  Mn3.34+  Mn171  1  0.08588935  0.17043834  0.75277754  1
  Mn3.34+  Mn172  1  0.41772091  0.16945983  0.08831396  1
  Mn3.34+  Mn173  1  0.75313795  0.65923502  0.75262867  1
  Mn3.34+  Mn174  1  0.92808392  0.66100621  0.92235869  1
  Mn3.34+  Mn175  1  0.24720903  0.66451905  0.25114738  1
  Mn3.34+  Mn176  1  0.08409235  0.16550966  0.41267499  1
  Mn3.34+  Mn177  1  0.25183584  0.66712434  0.92261586  1
  Mn3.34+  Mn178  1  0.08743046  0.66717881  0.08584789  1
  Mn3.34+  Mn179  1  0.41910148  0.66875667  0.41121810  1
  Mn3.34+  Mn180  1  0.41192552  0.50249008  0.08345447  1
  Mn3.34+  Mn181  1  0.74605871  0.49624675  0.41163433  1
  Mn3.34+  Mn182  1  0.06592778  0.00073446  0.40669395  1
  Mn3.34+  Mn183  1  0.76719282  0.50259159  0.09020438  1
  Mn3.34+  Mn184  1  0.08270534  -0.00003879  0.74367832  1
  Mn3.34+  Mn185  1  0.25773084  0.49150352  0.57630281  1
  Mn3.34+  Mn186  1  0.07909354  0.50397646  0.07692834  1
  Mn3.34+  Mn187  1  0.39512898  -0.00277530  0.07443062  1
  Mn3.34+  Mn188  1  0.09225023  0.50471662  0.40611979  1
  Mn3.34+  Mn189  1  0.08385917  0.50408098  0.76274614  1
  Mn3.34+  Mn190  1  0.92135994  0.00283954  0.90921993  1
  Mn3.34+  Mn191  1  0.58527647  0.00336685  0.59075773  1
  Mn3.34+  Mn192  1  0.91481429  0.50486819  0.58637724  1
  Mn3.34+  Mn193  1  0.24603050  0.49909668  0.57414522  1
  Mn3.34+  Mn194  1  0.24263472  -0.00254163  0.24651901  1
  Mn3.34+  Mn195  1  0.07778174  -0.00520402  0.41080493  1
  Mn3.34+  Mn196  1  0.09799085  0.49846680  0.75836771  1
  Mn3.34+  Mn197  1  0.23751257  0.00021077  0.58886104  1
  Mn3.34+  Mn198  1  0.57840685  0.49795930  0.91381428  1
  Mn3.34+  Mn199  1  0.93048309  0.50073607  0.58464539  1
  Mn3.34+  Mn200  1  0.41718449  0.50288083  0.74494459  1
  Mn3.34+  Mn201  1  0.91719315  0.49994335  0.25484215  1
  Mn3.34+  Mn202  1  0.58054179  -0.00240346  0.25636165  1
  Mn3.34+  Mn203  1  0.74916372  -0.00045715  0.09246473  1
  Mn3.34+  Mn204  1  0.58295552  0.50466376  0.58696938  1
  Mn3.34+  Mn205  1  0.74592301  0.00022124  0.74451437  1
  Mn3.34+  Mn206  1  0.75491059  0.50597488  0.09254051  1
  Mn3.34+  Mn207  1  0.23355374  0.00313143  0.24675491  1
  Mn3.34+  Mn208  1  0.24989109  0.50369916  0.25829186  1
  Mn3.34+  Mn209  1  0.91740872  0.00166647  0.58526774  1
  Mn3.34+  Mn210  1  0.58065228  0.00105534  0.92085275  1
  Mn3.34+  Mn211  1  0.24798492  0.50272909  0.92380888  1
  Mn3.34+  Mn212  1  0.92146930  0.49692216  0.91372936  1
  Mn3.34+  Mn213  1  0.76519876  -0.00584601  0.40433893  1
  Mn3.34+  Mn214  1  0.41338712  0.49639724  0.41555366  1
  Mn3.34+  Mn215  1  0.42869487  0.49569950  0.41535676  1
  O2-  O216  1  0.00169503  0.14695428  -0.00285059  1
  O2-  O217  1  0.00118260  0.18198805  0.32789490  1
  O2-  O218  1  -0.00047256  0.16188386  0.66896911  1
  O2-  O219  1  0.00299203  0.65106538  0.00594921  1
  O2-  O220  1  0.00214526  0.66263249  0.34065556  1
  O2-  O221  1  -0.00276909  0.67561185  0.65830148  1
  O2-  O222  1  0.34312038  0.17424332  0.00356060  1
  O2-  O223  1  0.33455187  0.14485481  0.32894502  1
  O2-  O224  1  0.32787474  0.16602246  0.66103771  1
  O2-  O225  1  0.33777440  0.65475991  0.00102365  1
  O2-  O226  1  0.33245803  0.65103631  0.33187984  1
  O2-  O227  1  0.34282798  0.67298133  0.67567205  1
  O2-  O228  1  0.66757259  0.14876619  0.00220572  1
  O2-  O229  1  0.66393893  0.14558861  0.32336970  1
  O2-  O230  1  0.67130338  0.18600826  0.66634476  1
  O2-  O231  1  0.66894841  0.66350417  -0.00798728  1
  O2-  O232  1  0.66300353  0.66693275  0.32504730  1
  O2-  O233  1  0.66504971  0.65530714  0.66087705  1
  O2-  O234  1  0.17150696  0.15501462  0.00783722  1
  O2-  O235  1  0.17056713  0.16419758  0.33445453  1
  O2-  O236  1  0.16200600  0.16706282  0.66524239  1
  O2-  O237  1  0.17156876  0.65552921  0.00133951  1
  O2-  O238  1  0.16092194  0.65553488  0.32584557  1
  O2-  O239  1  0.17422240  0.66606834  0.67105313  1
  O2-  O240  1  0.49897718  0.14913530  -0.00243403  1
  O2-  O241  1  0.50018302  0.15034062  0.33685818  1
  O2-  O242  1  0.50595736  0.15965141  0.66997694  1
  O2-  O243  1  0.50662005  0.67244847  0.00678949  1
  O2-  O244  1  0.50266117  0.65050214  0.33845456  1
  O2-  O245  1  0.49756886  0.67807573  0.66579830  1
  O2-  O246  1  0.83802896  0.14156377  0.00934977  1
  O2-  O247  1  0.83916628  0.16869730  0.31890188  1
  O2-  O248  1  0.83734033  0.16641711  0.67378925  1
  O2-  O249  1  0.83006887  0.64822079  -0.00610477  1
  O2-  O250  1  0.83628971  0.67733236  0.34340349  1
  O2-  O251  1  0.83288870  0.64868009  0.66622929  1
  O2-  O252  1  0.00425858  0.34164757  -0.00079208  1
  O2-  O253  1  -0.00030033  0.34781747  0.32824459  1
  O2-  O254  1  -0.00425538  0.33934815  0.67151411  1
  O2-  O255  1  0.00372188  0.85379373  -0.00610617  1
  O2-  O256  1  0.00111856  0.83963068  0.33059004  1
  O2-  O257  1  0.00207811  0.82775931  0.66313458  1
  O2-  O258  1  0.33578117  0.34711336  -0.00322515  1
  O2-  O259  1  0.33860599  0.34394237  0.32744341  1
  O2-  O260  1  0.32846150  0.31572102  0.67330903  1
  O2-  O261  1  0.34232155  0.84822864  -0.00904300  1
  O2-  O262  1  0.33314720  0.84763286  0.33387554  1
  O2-  O263  1  0.34236967  0.84166436  0.66316862  1
  O2-  O264  1  0.66155835  0.35237281  0.00756145  1
  O2-  O265  1  0.66888783  0.34658661  0.33517055  1
  O2-  O266  1  0.66412669  0.31894100  0.66854644  1
  O2-  O267  1  0.66557363  0.83162942  -0.00314387  1
  O2-  O268  1  0.65859194  0.84281119  0.34086576  1
  O2-  O269  1  0.67082762  0.83571739  0.66144999  1
  O2-  O270  1  0.16728685  0.34858703  -0.00208108  1
  O2-  O271  1  0.16773174  0.34426476  0.33030093  1
  O2-  O272  1  0.16317156  0.31823606  0.66706997  1
  O2-  O273  1  0.17126764  0.84378132  0.00260639  1
  O2-  O274  1  0.16000248  0.84581322  0.33201919  1
  O2-  O275  1  0.16981950  0.84355813  0.67096573  1
  O2-  O276  1  0.49541896  0.34933296  0.00148106  1
  O2-  O277  1  0.49613652  0.34135387  0.32867617  1
  O2-  O278  1  0.50121028  0.30702141  0.67045377  1
  O2-  O279  1  0.50211183  0.84266918  0.00035064  1
  O2-  O280  1  0.49803104  0.85073417  0.33306668  1
  O2-  O281  1  0.49824120  0.81326017  0.66765337  1
  O2-  O282  1  0.83985426  0.34566956  0.00569964  1
  O2-  O283  1  0.83319645  0.35185879  0.33377700  1
  O2-  O284  1  0.82509340  0.33978034  0.66230720  1
  O2-  O285  1  0.83467514  0.85411777  0.00283281  1
  O2-  O286  1  0.82931310  0.84300544  0.32981868  1
  O2-  O287  1  0.83599845  0.83572310  0.65886875  1
  O2-  O288  1  0.00082732  0.18103953  0.16050353  1
  O2-  O289  1  0.00024626  0.17584193  0.50101058  1
  O2-  O290  1  -0.00161397  0.19113458  0.83028456  1
  O2-  O291  1  0.01588179  0.67621138  0.16781758  1
  O2-  O292  1  -0.00020729  0.68398021  0.49770929  1
  O2-  O293  1  -0.00382738  0.67976585  0.83627407  1
  O2-  O294  1  0.34271475  0.18532492  0.17358524  1
  O2-  O295  1  0.33052053  0.18618933  0.50374301  1
  O2-  O296  1  0.33761701  0.16974064  0.82383715  1
  O2-  O297  1  0.32880987  0.67761562  0.16254812  1
  O2-  O298  1  0.34173982  0.67469986  0.50218047  1
  O2-  O299  1  0.33359876  0.68399722  0.83269710  1
  O2-  O300  1  0.66887631  0.17940890  0.16174118  1
  O2-  O301  1  0.65429369  0.18476747  0.49110000  1
  O2-  O302  1  0.66825042  0.18453619  0.83428234  1
  O2-  O303  1  0.65973686  0.68473541  0.15870916  1
  O2-  O304  1  0.66269773  0.68409467  0.50924352  1
  O2-  O305  1  0.66791847  0.68599410  0.83914564  1
  O2-  O306  1  0.17005635  0.18596159  0.16878107  1
  O2-  O307  1  0.16228373  0.18504981  0.50373245  1
  O2-  O308  1  0.16420953  0.18029659  0.83307257  1
  O2-  O309  1  0.17338560  0.68251350  0.16336681  1
  O2-  O310  1  0.16249688  0.68022308  0.49699449  1
  O2-  O311  1  0.18147574  0.68242826  0.83694702  1
  O2-  O312  1  0.50469851  0.18651611  0.16310426  1
  O2-  O313  1  0.49456324  0.18447071  0.50847469  1
  O2-  O314  1  0.50345595  0.17644920  0.83690460  1
  O2-  O315  1  0.49680585  0.67927080  0.16585761  1
  O2-  O316  1  0.49392330  0.68289985  0.50141985  1
  O2-  O317  1  0.50343913  0.69799188  0.83882981  1
  O2-  O318  1  0.83589493  0.18581561  0.16359155  1
  O2-  O319  1  0.83259787  0.17268267  0.50211387  1
  O2-  O320  1  0.82746212  0.18764066  0.83505697  1
  O2-  O321  1  0.82685747  0.67491340  0.16587651  1
  O2-  O322  1  0.82900128  0.67842462  0.50876761  1
  O2-  O323  1  0.83302281  0.68039593  0.84028944  1
  O2-  O324  1  -0.00364676  0.31412174  0.16748467  1
  O2-  O325  1  -0.00326936  0.32507905  0.49339092  1
  O2-  O326  1  0.00265495  0.30995491  0.83414513  1
  O2-  O327  1  -0.00243620  0.82372093  0.15886505  1
  O2-  O328  1  -0.00025230  0.80837793  0.49859735  1
  O2-  O329  1  0.00162049  0.82403654  0.83725775  1
  O2-  O330  1  0.32947640  0.31657570  0.15993544  1
  O2-  O331  1  0.33008813  0.30689001  0.50148127  1
  O2-  O332  1  0.33664020  0.32311767  0.83379154  1
  O2-  O333  1  0.33463727  0.82468088  0.17182134  1
  O2-  O334  1  0.34116494  0.83308068  0.50802968  1
  O2-  O335  1  0.33442411  0.81859953  0.83184911  1
  O2-  O336  1  0.66903136  0.32462768  0.16750860  1
  O2-  O337  1  0.67166499  0.32447646  0.51049019  1
  O2-  O338  1  0.66422016  0.31613572  0.83117153  1
  O2-  O339  1  0.65743566  0.82384236  0.15846256  1
  O2-  O340  1  0.66732224  0.82756655  0.50496863  1
  O2-  O341  1  0.66919312  0.81588491  0.84012821  1
  O2-  O342  1  0.16750581  0.32459518  0.16736491  1
  O2-  O343  1  0.16213622  0.31777037  0.50689822  1
  O2-  O344  1  0.16967743  0.31815580  0.83021700  1
  O2-  O345  1  0.16082629  0.81465191  0.17323625  1
  O2-  O346  1  0.16418303  0.82119535  0.49845607  1
  O2-  O347  1  0.16242871  0.82462699  0.84428740  1
  O2-  O348  1  0.50450944  0.31749121  0.15810392  1
  O2-  O349  1  0.50140696  0.30383776  0.50073081  1
  O2-  O350  1  0.49282810  0.31320681  0.83723256  1
  O2-  O351  1  0.50157191  0.82469288  0.16093972  1
  O2-  O352  1  0.49980205  0.81666598  0.50118083  1
  O2-  O353  1  0.49273356  0.81723148  0.83620820  1
  O2-  O354  1  0.82758079  0.31257447  0.17679414  1
  O2-  O355  1  0.83663235  0.33054032  0.49816228  1
  O2-  O356  1  0.83507837  0.31911711  0.82426754  1
  O2-  O357  1  0.84141851  0.83434646  0.15673394  1
  O2-  O358  1  0.82910622  0.82884323  0.50386071  1
  O2-  O359  1  0.82674526  0.82081767  0.84358560  1
  O2-  O360  1  0.06723897  0.07856383  0.11113125  1
  O2-  O361  1  0.08187696  0.07643773  0.44642977  1
  O2-  O362  1  0.06962444  0.08078149  0.78646530  1
  O2-  O363  1  0.10033629  0.58065616  0.11087945  1
  O2-  O364  1  0.07359701  0.58150304  0.45167132  1
  O2-  O365  1  0.09368729  0.58499084  0.77208523  1
  O2-  O366  1  0.43384265  0.07845325  0.11677737  1
  O2-  O367  1  0.42170393  0.08262865  0.45574676  1
  O2-  O368  1  0.41637348  0.06662253  0.79225724  1
  O2-  O369  1  0.42417514  0.58304728  0.09986076  1
  O2-  O370  1  0.42118514  0.57590497  0.46345205  1
  O2-  O371  1  0.39132030  0.58411752  0.75465088  1
  O2-  O372  1  0.74484762  0.08183372  0.13067257  1
  O2-  O373  1  0.74274946  0.06995246  0.43474234  1
  O2-  O374  1  0.75496117  0.07871124  0.78174717  1
  O2-  O375  1  0.73047786  0.58697984  0.08977750  1
  O2-  O376  1  0.74886993  0.57624757  0.42883468  1
  O2-  O377  1  0.74633805  0.58006254  0.78791846  1
  O2-  O378  1  0.26599753  0.08296334  0.21468323  1
  O2-  O379  1  0.24321587  0.08040201  0.55991829  1
  O2-  O380  1  0.25760645  0.07050352  0.86733893  1
  O2-  O381  1  0.24364783  0.58080989  0.22014002  1
  O2-  O382  1  0.27460004  0.57823091  0.56913535  1
  O2-  O383  1  0.25136141  0.58307530  0.88688396  1
  O2-  O384  1  0.57402665  0.08026661  0.20905559  1
  O2-  O385  1  0.58206530  0.08393712  0.54833914  1
  O2-  O386  1  0.58948478  0.08327478  0.88197213  1
  O2-  O387  1  0.59336372  0.58481411  0.22672849  1
  O2-  O388  1  0.58599809  0.58209497  0.54390940  1
  O2-  O389  1  0.60182964  0.57994783  0.89434518  1
  O2-  O390  1  0.89784488  0.07934294  0.20748581  1
  O2-  O391  1  0.92906407  0.08249450  0.56686583  1
  O2-  O392  1  0.90887991  0.08403084  0.87442142  1
  O2-  O393  1  0.92522499  0.57661300  0.25440078  1
  O2-  O394  1  0.90358194  0.58280587  0.55141429  1
  O2-  O395  1  0.90623886  0.58003555  0.87444872  1
  O2-  O396  1  0.07493725  0.42370191  0.11937850  1
  O2-  O397  1  0.07208849  0.42154951  0.45143277  1
  O2-  O398  1  0.09262159  0.41660768  0.77655862  1
  O2-  O399  1  0.07148734  0.91490067  0.10536256  1
  O2-  O400  1  0.07444673  0.92076148  0.44378382  1
  O2-  O401  1  0.08066671  0.92286217  0.78490471  1
  O2-  O402  1  0.43160155  0.42379540  0.12737121  1
  O2-  O403  1  0.41400949  0.41582916  0.45450950  1
  O2-  O404  1  0.42461230  0.42076262  0.77673152  1
  O2-  O405  1  0.43333743  0.91768077  0.11005191  1
  O2-  O406  1  0.43490439  0.92113868  0.45239748  1
  O2-  O407  1  0.42467819  0.91827082  0.76350827  1
  O2-  O408  1  0.75846676  0.42016097  0.12203540  1
  O2-  O409  1  0.75648625  0.42170445  0.46123415  1
  O2-  O410  1  0.72748761  0.41610506  0.74167475  1
  O2-  O411  1  0.72168058  0.91635690  0.08399641  1
  O2-  O412  1  0.73535151  0.92343898  0.45143509  1
  O2-  O413  1  0.74618361  0.91746487  0.77470548  1
  O2-  O414  1  0.25694019  0.42194377  0.21943857  1
  O2-  O415  1  0.23146075  0.41207963  0.57742986  1
  O2-  O416  1  0.26358762  0.42141476  0.87588858  1
  O2-  O417  1  0.23427896  0.91647435  0.22211597  1
  O2-  O418  1  0.26266918  0.92249766  0.56185271  1
  O2-  O419  1  0.25199270  0.91248029  0.89250454  1
  O2-  O420  1  0.59797821  0.41866141  0.21588265  1
  O2-  O421  1  0.59314744  0.41966964  0.60157571  1
  O2-  O422  1  0.56046090  0.41528953  0.88064775  1
  O2-  O423  1  0.57681472  0.91764403  0.22065281  1
  O2-  O424  1  0.58059752  0.92149771  0.56691178  1
  O2-  O425  1  0.60565688  0.91880813  0.90693215  1
  O2-  O426  1  0.89631213  0.42430180  0.20948644  1
  O2-  O427  1  0.93300005  0.41862998  0.55757639  1
  O2-  O428  1  0.93193213  0.41462387  0.87951278  1
  O2-  O429  1  0.92972432  0.92010286  0.21951865  1
  O2-  O430  1  0.89523302  0.92500798  0.55332830  1
  O2-  O431  1  0.89330240  0.92101388  0.89285728  1
  O2-  O432  1  -0.01572320  -0.00348331  0.00920497  1
  O2-  O433  1  0.00845631  -0.00653830  0.31891955  1
  O2-  O434  1  0.00119861  0.01356382  0.66544931  1
  O2-  O435  1  -0.00406633  0.48206647  0.00290895  1
  O2-  O436  1  -0.00893849  0.48065850  0.34166751  1
  O2-  O437  1  -0.00414731  0.50684252  0.68227638  1
  O2-  O438  1  0.36968265  0.00391507  -0.04468557  1
  O2-  O439  1  0.35931613  -0.00477989  0.28031276  1
  O2-  O440  1  0.33936707  0.00634273  0.64310818  1
  O2-  O441  1  0.33793442  0.47676157  -0.00155521  1
  O2-  O442  1  0.34574317  0.49512231  0.32332807  1
  O2-  O443  1  0.31918099  0.48905841  0.67788739  1
  O2-  O444  1  0.66955249  0.02100320  0.00500672  1
  O2-  O445  1  0.66575951  0.00419054  0.34106751  1
  O2-  O446  1  0.64211595  0.01809561  0.69526373  1
  O2-  O447  1  0.65942396  0.49086902  0.01685002  1
  O2-  O448  1  0.67865172  0.48942041  0.32831558  1
  O2-  O449  1  0.70283601  0.50847386  0.59183759  1
  O2-  O450  1  0.14613896  -0.00274713  -0.03618213  1
  O2-  O451  1  0.17154912  0.00194331  0.34733516  1
  O2-  O452  1  0.18293439  0.02503455  0.69178863  1
  O2-  O453  1  0.17017486  0.48488001  0.00915491  1
  O2-  O454  1  0.14247632  0.50051375  0.29634216  1
  O2-  O455  1  0.15582898  0.50474868  0.65416861  1
  O2-  O456  1  0.52166672  -0.00117042  0.03208210  1
  O2-  O457  1  0.50735261  0.03232062  0.33765103  1
  O2-  O458  1  0.49102556  0.02065924  0.65204016  1
  O2-  O459  1  0.49906835  0.48083856  0.00423312  1
  O2-  O460  1  0.50973353  0.50148741  0.34286555  1
  O2-  O461  1  0.48476244  0.51885437  0.64755189  1
  O2-  O462  1  0.83447048  0.01154908  0.00758355  1
  O2-  O463  1  0.83048130  0.00790703  0.32347163  1
  O2-  O464  1  0.82076083  -0.00081373  0.65457571  1
  O2-  O465  1  0.81892070  0.50877866  -0.01697699  1
  O2-  O466  1  0.83471624  0.47697113  0.34081454  1
  O2-  O467  1  0.83920621  0.48028760  0.66573098  1
  O2-  O468  1  0.25382931  0.25124982  0.27511703  1
  O2-  O469  1  0.75529986  0.74508089  0.72513462  1
  O2-  O470  1  0.09136751  0.75101708  0.39140422  1
  O2-  O471  1  0.91472127  0.75593701  0.25806883  1
  O2-  O472  1  0.40872271  0.75260253  0.06713389  1
  O2-  O473  1  0.41042819  0.24428757  0.38492503  1
  O2-  O474  1  0.91515548  0.24838230  0.59637012  1
  O2-  O475  1  0.75117191  0.75636165  0.40501014  1
  O2-  O476  1  0.56954673  0.75163139  0.26989556  1
  O2-  O477  1  0.25442909  0.74942966  0.94918709  1
  O2-  O478  1  0.74687139  0.24678881  0.05248048  1
  O2-  O479  1  0.08812604  0.75815861  0.74399310  1
  O2-  O480  1  0.40899654  0.75252217  0.39193620  1
  O2-  O481  1  0.91324018  0.75104005  0.94689001  1
  O2-  O482  1  0.75401789  0.25580435  0.40084075  1
  O2-  O483  1  0.24950866  0.25528229  0.93527934  1
  O2-  O484  1  0.08714227  0.24523601  0.05857899  1
  O2-  O485  1  0.76405193  0.75104881  0.06282947  1
  O2-  O486  1  0.58765092  0.24933530  0.94852879  1
  O2-  O487  1  0.25855925  0.74889240  0.27683877  1
  O2-  O488  1  0.08248495  0.74972554  0.05371572  1
  O2-  O489  1  0.25008825  0.75923959  0.59511496  1
  O2-  O490  1  0.90846687  0.24768961  0.94657097  1
  O2-  O491  1  0.08578432  0.25488954  0.39998008  1
  O2-  O492  1  0.59213774  0.24972930  0.27432894  1
