# generated using pymatgen
data_Ca108Mn108O277
_symmetry_space_group_name_H-M   'P 1'
_cell_length_a   16.03177547
_cell_length_b   22.31482969
_cell_length_c   16.39352597
_cell_angle_alpha   90.00640191
_cell_angle_beta   89.99696654
_cell_angle_gamma   90.00593686
_symmetry_Int_Tables_number   1
_chemical_formula_structural   Ca108Mn108O277
_chemical_formula_sum   'Ca108 Mn108 O277'
_cell_volume   5864.72382552
_cell_formula_units_Z   1
loop_
 _symmetry_equiv_pos_site_id
 _symmetry_equiv_pos_as_xyz
  1  'x, y, z'
loop_
 _atom_type_symbol
 _atom_type_oxidation_number
  Ca2+  2.0
  Mn3.34+  3.34
  O2-  -2.0
loop_
 _atom_site_type_symbol
 _atom_site_label
 _atom_site_symmetry_multiplicity
 _atom_site_fract_x
 _atom_site_fract_y
 _atom_site_fract_z
 _atom_site_occupancy
  Ca2+  Ca0  1  0.08614767  0.22597593  0.25723083  1
  Ca2+  Ca1  1  0.07445385  0.25591757  0.56192743  1
  Ca2+  Ca2  1  0.08098132  0.24909216  0.93337340  1
  Ca2+  Ca3  1  0.08013333  0.74311602  0.23079360  1
  Ca2+  Ca4  1  0.11165472  0.74479516  0.58182375  1
  Ca2+  Ca5  1  0.07498606  0.74708216  0.93049346  1
  Ca2+  Ca6  1  0.39946442  0.25859382  0.24918592  1
  Ca2+  Ca7  1  0.43405037  0.25053598  0.57839587  1
  Ca2+  Ca8  1  0.41346990  0.25683670  0.92128158  1
  Ca2+  Ca9  1  0.41833364  0.75575174  0.24975385  1
  Ca2+  Ca10  1  0.39524348  0.74655218  0.55447388  1
  Ca2+  Ca11  1  0.41106655  0.75019103  0.93428393  1
  Ca2+  Ca12  1  0.76211207  0.25395366  0.24027373  1
  Ca2+  Ca13  1  0.74295834  0.25464758  0.57823297  1
  Ca2+  Ca14  1  0.75418975  0.25768384  0.92538878  1
  Ca2+  Ca15  1  0.74916581  0.75028251  0.24407654  1
  Ca2+  Ca16  1  0.74566997  0.75167051  0.57691210  1
  Ca2+  Ca17  1  0.77982770  0.74649857  0.92916466  1
  Ca2+  Ca18  1  0.22454494  0.24925208  0.09682207  1
  Ca2+  Ca19  1  0.22669136  0.24782547  0.40016984  1
  Ca2+  Ca20  1  0.25335386  0.27442459  0.75042931  1
  Ca2+  Ca21  1  0.24628863  0.74943481  0.08433673  1
  Ca2+  Ca22  1  0.26118948  0.74338458  0.42075483  1
  Ca2+  Ca23  1  0.24768285  0.74016687  0.73419127  1
  Ca2+  Ca24  1  0.59271499  0.25289843  0.08148796  1
  Ca2+  Ca25  1  0.58128676  0.25223697  0.42438412  1
  Ca2+  Ca26  1  0.58604144  0.25542652  0.74040674  1
  Ca2+  Ca27  1  0.57502978  0.74844385  0.10010696  1
  Ca2+  Ca28  1  0.56045812  0.74652279  0.40680047  1
  Ca2+  Ca29  1  0.59059503  0.75306846  0.75322004  1
  Ca2+  Ca30  1  0.93232647  0.24593746  0.09404043  1
  Ca2+  Ca31  1  0.93531533  0.24248332  0.41201973  1
  Ca2+  Ca32  1  0.91850567  0.25379520  0.73793640  1
  Ca2+  Ca33  1  0.92677709  0.73555822  0.07946730  1
  Ca2+  Ca34  1  0.91251621  0.75439067  0.40317698  1
  Ca2+  Ca35  1  0.92547759  0.74767587  0.78335184  1
  Ca2+  Ca36  1  0.76321026  0.09687449  0.24696411  1
  Ca2+  Ca37  1  0.74292459  0.10560419  0.57486624  1
  Ca2+  Ca38  1  0.57832987  0.10269468  0.43369140  1
  Ca2+  Ca39  1  0.58923230  0.08346133  0.73275214  1
  Ca2+  Ca40  1  0.23720266  0.60250326  0.09242419  1
  Ca2+  Ca41  1  0.37911231  0.61105383  0.57704053  1
  Ca2+  Ca42  1  0.58938250  0.59735719  0.09172068  1
  Ca2+  Ca43  1  0.22775004  0.07752891  0.73351236  1
  Ca2+  Ca44  1  0.56926965  0.09805427  0.43385683  1
  Ca2+  Ca45  1  0.97883194  0.09230153  0.42209781  1
  Ca2+  Ca46  1  0.41443239  0.60725080  0.22698770  1
  Ca2+  Ca47  1  0.92588003  0.59491373  0.76817915  1
  Ca2+  Ca48  1  0.73748070  0.08427959  0.93288054  1
  Ca2+  Ca49  1  0.91349235  0.57769223  0.39251010  1
  Ca2+  Ca50  1  0.78281685  0.59495421  0.93733468  1
  Ca2+  Ca51  1  0.20017938  0.08849138  0.41079812  1
  Ca2+  Ca52  1  0.40454761  0.60538429  0.22475169  1
  Ca2+  Ca53  1  0.22724130  0.60188506  0.09017063  1
  Ca2+  Ca54  1  0.93563290  0.59819427  0.77078759  1
  Ca2+  Ca55  1  0.74855687  0.58884667  0.57484529  1
  Ca2+  Ca56  1  0.75679206  0.58335012  0.57689232  1
  Ca2+  Ca57  1  0.19729306  0.09306533  0.09705348  1
  Ca2+  Ca58  1  0.06570856  0.09219904  0.59213738  1
  Ca2+  Ca59  1  0.12705037  0.59702912  0.57631635  1
  Ca2+  Ca60  1  0.95674163  0.09749973  0.09087916  1
  Ca2+  Ca61  1  0.56718363  0.58178138  0.75067160  1
  Ca2+  Ca62  1  0.57830767  0.58516979  0.74666436  1
  Ca2+  Ca63  1  0.24583507  0.59891808  0.40924586  1
  Ca2+  Ca64  1  0.44012125  0.08987676  0.94314552  1
  Ca2+  Ca65  1  0.92469109  0.57795873  0.39250696  1
  Ca2+  Ca66  1  0.43062347  0.08912146  0.58209239  1
  Ca2+  Ca67  1  0.39547040  0.58484814  0.94921650  1
  Ca2+  Ca68  1  0.40153182  0.57887436  0.94705429  1
  Ca2+  Ca69  1  0.06543054  0.59440705  0.95510756  1
  Ca2+  Ca70  1  0.57397360  0.59881218  0.40860064  1
  Ca2+  Ca71  1  0.38371983  0.60593570  0.57098638  1
  Ca2+  Ca72  1  0.09760737  0.41607503  0.92375397  1
  Ca2+  Ca73  1  0.22835835  0.90001104  0.08619871  1
  Ca2+  Ca74  1  0.91755427  0.40792526  0.73793099  1
  Ca2+  Ca75  1  0.09713234  0.91056754  0.58624984  1
  Ca2+  Ca76  1  0.41113265  0.90480070  0.56570193  1
  Ca2+  Ca77  1  0.92925492  0.90346497  0.75159240  1
  Ca2+  Ca78  1  0.93899635  0.90779882  0.75351609  1
  Ca2+  Ca79  1  0.08947724  0.41349796  0.92931563  1
  Ca2+  Ca80  1  0.93583236  0.41819675  0.08295901  1
  Ca2+  Ca81  1  0.25692432  0.41553946  0.09878753  1
  Ca2+  Ca82  1  0.23435819  0.41534701  0.40776226  1
  Ca2+  Ca83  1  0.76459797  0.90324141  0.58137114  1
  Ca2+  Ca84  1  0.22450492  0.41890589  0.41035363  1
  Ca2+  Ca85  1  0.58124734  0.90361295  0.74837799  1
  Ca2+  Ca86  1  0.42603374  0.41590956  0.92480281  1
  Ca2+  Ca87  1  0.40123897  0.90199636  0.56387278  1
  Ca2+  Ca88  1  0.94119555  0.90709417  0.40935028  1
  Ca2+  Ca89  1  0.92600046  0.41413936  0.08135892  1
  Ca2+  Ca90  1  0.75675919  0.42094440  0.27647482  1
  Ca2+  Ca91  1  0.59399988  0.90369841  0.74960927  1
  Ca2+  Ca92  1  0.58250025  0.89821724  0.09138543  1
  Ca2+  Ca93  1  0.74849759  0.41847835  0.27084870  1
  Ca2+  Ca94  1  0.75208207  0.90311418  0.58171741  1
  Ca2+  Ca95  1  0.93145734  0.41341911  0.42210304  1
  Ca2+  Ca96  1  0.56367262  0.91208537  0.40750960  1
  Ca2+  Ca97  1  0.40740047  0.40542936  0.58828740  1
  Ca2+  Ca98  1  0.94400646  0.90410181  0.08553345  1
  Ca2+  Ca99  1  0.74663324  0.40938075  0.92298832  1
  Ca2+  Ca100  1  0.09483493  0.43091835  0.25888820  1
  Ca2+  Ca101  1  0.92789027  0.41329804  0.74107043  1
  Ca2+  Ca102  1  0.58902929  0.40166373  0.40918467  1
  Ca2+  Ca103  1  0.75884448  0.90923379  0.91978261  1
  Ca2+  Ca104  1  0.57904037  0.40639972  0.08480310  1
  Ca2+  Ca105  1  0.41472692  0.41517986  0.92329663  1
  Ca2+  Ca106  1  0.57300056  0.40634420  0.75453932  1
  Ca2+  Ca107  1  0.41069552  0.89809216  0.91944297  1
  Mn3.34+  Mn108  1  0.08565559  0.33758003  0.09242502  1
  Mn3.34+  Mn109  1  0.08011720  0.33634315  0.41412289  1
  Mn3.34+  Mn110  1  0.08643434  0.33651705  0.74967509  1
  Mn3.34+  Mn111  1  0.08390297  0.82989860  0.08488438  1
  Mn3.34+  Mn112  1  0.09365274  0.83932324  0.41273746  1
  Mn3.34+  Mn113  1  0.09378610  0.82957670  0.75218685  1
  Mn3.34+  Mn114  1  0.41615197  0.33921140  0.08812787  1
  Mn3.34+  Mn115  1  0.41370708  0.33139239  0.41992325  1
  Mn3.34+  Mn116  1  0.41380234  0.34066798  0.75061254  1
  Mn3.34+  Mn117  1  0.41146279  0.82856690  0.08946304  1
  Mn3.34+  Mn118  1  0.40855987  0.83337435  0.40294956  1
  Mn3.34+  Mn119  1  0.41242502  0.82418544  0.75418305  1
  Mn3.34+  Mn120  1  0.75143583  0.33646612  0.08856664  1
  Mn3.34+  Mn121  1  0.75389950  0.33957767  0.42383979  1
  Mn3.34+  Mn122  1  0.74809701  0.33650149  0.74873065  1
  Mn3.34+  Mn123  1  0.75258592  0.83252887  0.08909498  1
  Mn3.34+  Mn124  1  0.74882037  0.83139094  0.40800635  1
  Mn3.34+  Mn125  1  0.75474796  0.82842184  0.75530639  1
  Mn3.34+  Mn126  1  0.24870913  0.33901722  0.24873013  1
  Mn3.34+  Mn127  1  0.24721486  0.33616796  0.58357360  1
  Mn3.34+  Mn128  1  0.24888210  0.33479076  0.91754905  1
  Mn3.34+  Mn129  1  0.24206308  0.83494888  0.25167297  1
  Mn3.34+  Mn130  1  0.24712365  0.83153381  0.58114112  1
  Mn3.34+  Mn131  1  0.24431604  0.83295991  0.90943347  1
  Mn3.34+  Mn132  1  0.57907849  0.33056522  0.24862653  1
  Mn3.34+  Mn133  1  0.58452795  0.33144028  0.58261062  1
  Mn3.34+  Mn134  1  0.58400600  0.32866282  0.91437045  1
  Mn3.34+  Mn135  1  0.58305275  0.83649353  0.25072374  1
  Mn3.34+  Mn136  1  0.58054148  0.82510804  0.57988913  1
  Mn3.34+  Mn137  1  0.58367573  0.83470276  0.92246932  1
  Mn3.34+  Mn138  1  0.92171246  0.33492468  0.25132029  1
  Mn3.34+  Mn139  1  0.91331933  0.33545271  0.57611106  1
  Mn3.34+  Mn140  1  0.91541626  0.33146749  0.91303865  1
  Mn3.34+  Mn141  1  0.91904931  0.83256011  0.24687791  1
  Mn3.34+  Mn142  1  0.92695294  0.83180227  0.57534589  1
  Mn3.34+  Mn143  1  0.92364238  0.83704046  0.92270178  1
  Mn3.34+  Mn144  1  0.40745682  0.15702471  0.41205495  1
  Mn3.34+  Mn145  1  0.24351752  0.66337807  0.25280113  1
  Mn3.34+  Mn146  1  0.41344974  0.66316773  0.76139300  1
  Mn3.34+  Mn147  1  0.08212363  0.66183649  0.41340066  1
  Mn3.34+  Mn148  1  0.91755259  0.16266609  0.91384383  1
  Mn3.34+  Mn149  1  0.91832012  0.66754048  0.24334931  1
  Mn3.34+  Mn150  1  0.74941533  0.66705627  0.41177213  1
  Mn3.34+  Mn151  1  0.58393307  0.66798045  0.58444632  1
  Mn3.34+  Mn152  1  0.24532612  0.16430427  0.57864686  1
  Mn3.34+  Mn153  1  0.92173056  0.16750822  0.24829329  1
  Mn3.34+  Mn154  1  0.24617198  0.66813111  0.90646678  1
  Mn3.34+  Mn155  1  0.57970322  0.67229978  0.92058036  1
  Mn3.34+  Mn156  1  0.42332808  0.16586935  0.75691096  1
  Mn3.34+  Mn157  1  0.07816738  0.16258609  0.75244059  1
  Mn3.34+  Mn158  1  0.93168674  0.67228286  0.57915400  1
  Mn3.34+  Mn159  1  0.40838172  0.16953132  0.75100385  1
  Mn3.34+  Mn160  1  0.25687730  0.17019760  0.58164536  1
  Mn3.34+  Mn161  1  0.59287909  0.66571937  0.91724429  1
  Mn3.34+  Mn162  1  0.25234153  0.16751258  0.24667445  1
  Mn3.34+  Mn163  1  0.41345903  0.17038684  0.08522320  1
  Mn3.34+  Mn164  1  0.92264192  0.66660590  0.57628395  1
  Mn3.34+  Mn165  1  0.58416294  0.16447731  0.24211665  1
  Mn3.34+  Mn166  1  0.25097644  0.16698009  0.91411861  1
  Mn3.34+  Mn167  1  0.92843764  0.15821470  0.91175936  1
  Mn3.34+  Mn168  1  0.23745258  0.16110848  0.91081189  1
  Mn3.34+  Mn169  1  0.75336483  0.16735949  0.41417579  1
  Mn3.34+  Mn170  1  0.58607803  0.66622070  0.24854381  1
  Mn3.34+  Mn171  1  0.75526814  0.16865220  0.08186444  1
  Mn3.34+  Mn172  1  0.57045495  0.15902628  0.23883553  1
  Mn3.34+  Mn173  1  0.74673477  0.16836663  0.75339161  1
  Mn3.34+  Mn174  1  0.09229011  0.66698018  0.75389452  1
  Mn3.34+  Mn175  1  0.75171417  0.66454523  0.75412505  1
  Mn3.34+  Mn176  1  0.75623719  0.66825888  0.09010460  1
  Mn3.34+  Mn177  1  0.91599188  0.16961632  0.58031033  1
  Mn3.34+  Mn178  1  0.58379958  0.17004952  0.91940250  1
  Mn3.34+  Mn179  1  0.75670803  0.16271638  0.75530540  1
  Mn3.34+  Mn180  1  0.58920096  0.50032202  0.25412890  1
  Mn3.34+  Mn181  1  0.24055689  0.50148551  0.89904781  1
  Mn3.34+  Mn182  1  0.92158107  0.50266250  0.25058735  1
  Mn3.34+  Mn183  1  0.74714206  0.00024983  0.39405710  1
  Mn3.34+  Mn184  1  0.58365242  0.49206670  0.58255549  1
  Mn3.34+  Mn185  1  0.41469644  0.49824629  0.40545758  1
  Mn3.34+  Mn186  1  0.23744909  0.00164126  0.56543525  1
  Mn3.34+  Mn187  1  0.91561636  0.49539422  0.91917993  1
  Mn3.34+  Mn188  1  0.76130987  -0.00554960  0.39563214  1
  Mn3.34+  Mn189  1  0.40504421  0.00175076  0.75454985  1
  Mn3.34+  Mn190  1  0.25843272  0.49570392  0.60397555  1
  Mn3.34+  Mn191  1  0.75542289  0.50260220  0.74888937  1
  Mn3.34+  Mn192  1  0.25925925  -0.00370772  0.27133502  1
  Mn3.34+  Mn193  1  0.24768417  0.00331128  0.26871222  1
  Mn3.34+  Mn194  1  0.40625801  0.00353185  0.09130829  1
  Mn3.34+  Mn195  1  0.41871341  -0.00323596  0.09244949  1
  Mn3.34+  Mn196  1  0.39532892  -0.00516180  0.75181912  1
  Mn3.34+  Mn197  1  0.41781686  0.49832244  0.41882701  1
  Mn3.34+  Mn198  1  0.59186351  0.50019266  0.91980954  1
  Mn3.34+  Mn199  1  0.91703336  0.00129541  0.57904664  1
  Mn3.34+  Mn200  1  0.95536142  0.00001346  0.24683571  1
  Mn3.34+  Mn201  1  0.56728062  -0.00041659  0.26307770  1
  Mn3.34+  Mn202  1  0.74432063  0.00065173  0.08703052  1
  Mn3.34+  Mn203  1  0.08391717  -0.00098811  0.74695085  1
  Mn3.34+  Mn204  1  0.58499503  -0.00177396  0.58705556  1
  Mn3.34+  Mn205  1  0.93747571  0.50418771  0.59006171  1
  Mn3.34+  Mn206  1  0.94869074  0.00436921  0.25462785  1
  Mn3.34+  Mn207  1  0.23476069  -0.00516072  0.92492473  1
  Mn3.34+  Mn208  1  0.76221451  0.00184611  0.74828834  1
  Mn3.34+  Mn209  1  0.75582504  -0.00478286  0.08669398  1
  Mn3.34+  Mn210  1  0.74980771  0.50242570  0.08633656  1
  Mn3.34+  Mn211  1  0.57893132  0.00111004  0.91656961  1
  Mn3.34+  Mn212  1  0.57002083  0.49894884  0.58271274  1
  Mn3.34+  Mn213  1  0.10090387  0.50323438  0.74245549  1
  Mn3.34+  Mn214  1  0.93448742  0.00140289  0.94126103  1
  Mn3.34+  Mn215  1  0.22141027  -0.00354497  0.92712409  1
  O2-  O216  1  0.00646363  0.15884404  -0.00823931  1
  O2-  O217  1  -0.00502526  0.16204962  0.32964037  1
  O2-  O218  1  0.00220073  0.17222478  0.66672904  1
  O2-  O219  1  0.00299409  0.67477095  0.00092314  1
  O2-  O220  1  -0.00746563  0.66355690  0.33978597  1
  O2-  O221  1  0.00451862  0.64442104  0.66384418  1
  O2-  O222  1  0.33554608  0.14932574  -0.00824324  1
  O2-  O223  1  0.33738131  0.18267519  0.33329673  1
  O2-  O224  1  0.32973342  0.13786351  0.66756640  1
  O2-  O225  1  0.32823242  0.66320019  -0.00803362  1
  O2-  O226  1  0.32940812  0.65808505  0.32584266  1
  O2-  O227  1  0.34683970  0.67348462  0.67149971  1
  O2-  O228  1  0.67325178  0.16975781  -0.00610696  1
  O2-  O229  1  0.66311128  0.14219697  0.33139464  1
  O2-  O230  1  0.66703709  0.15482899  0.67303286  1
  O2-  O231  1  0.67046205  0.65160928  -0.00110884  1
  O2-  O232  1  0.66196466  0.65635575  0.33926489  1
  O2-  O233  1  0.66673084  0.64395250  0.66925498  1
  O2-  O234  1  0.16476944  0.15821757  -0.00462196  1
  O2-  O235  1  0.17617863  0.16090626  0.32751536  1
  O2-  O236  1  0.16506935  0.15324604  0.66400933  1
  O2-  O237  1  0.17269441  0.66730802  -0.00874559  1
  O2-  O238  1  0.16489012  0.67984145  0.33305173  1
  O2-  O239  1  0.16707780  0.66272617  0.67241185  1
  O2-  O240  1  0.49669811  0.18560106  -0.00024476  1
  O2-  O241  1  0.49892999  0.15479273  0.33154695  1
  O2-  O242  1  0.49794301  0.15145019  0.67277626  1
  O2-  O243  1  0.50239573  0.64258137  -0.00559160  1
  O2-  O244  1  0.49822365  0.65278140  0.32036442  1
  O2-  O245  1  0.50557509  0.65527867  0.67686709  1
  O2-  O246  1  0.83990966  0.14074967  -0.00321941  1
  O2-  O247  1  0.82702427  0.16690876  0.32685242  1
  O2-  O248  1  0.83313606  0.14965792  0.66872093  1
  O2-  O249  1  0.83257455  0.66777014  0.00936814  1
  O2-  O250  1  0.83964496  0.65635023  0.34518496  1
  O2-  O251  1  0.84003924  0.64908803  0.66175393  1
  O2-  O252  1  0.00548999  0.35255573  -0.00707914  1
  O2-  O253  1  0.00196168  0.35575590  0.32776896  1
  O2-  O254  1  -0.00448937  0.34065536  0.67250450  1
  O2-  O255  1  0.00790439  0.84316473  -0.00418920  1
  O2-  O256  1  0.00311737  0.83200652  0.33622341  1
  O2-  O257  1  0.00439851  0.84920289  0.66039492  1
  O2-  O258  1  0.33761776  0.34774820  -0.00223929  1
  O2-  O259  1  0.32169675  0.34074845  0.34457506  1
  O2-  O260  1  0.32481642  0.35313337  0.67591467  1
  O2-  O261  1  0.33054124  0.83450831  -0.00322722  1
  O2-  O262  1  0.32792798  0.82389229  0.32620124  1
  O2-  O263  1  0.34586328  0.83836199  0.65766832  1
  O2-  O264  1  0.66600072  0.34121298  0.00158721  1
  O2-  O265  1  0.67427230  0.34002523  0.33076435  1
  O2-  O266  1  0.65921571  0.34826063  0.67319997  1
  O2-  O267  1  0.66929776  0.85447935  -0.00301277  1
  O2-  O268  1  0.65963753  0.84846927  0.33984769  1
  O2-  O269  1  0.66988152  0.84253878  0.66380784  1
  O2-  O270  1  0.17097591  0.35395818  0.00914249  1
  O2-  O271  1  0.16416347  0.34833688  0.33040322  1
  O2-  O272  1  0.15769965  0.31890449  0.66422227  1
  O2-  O273  1  0.17226036  0.82527611  0.00106076  1
  O2-  O274  1  0.16591910  0.80598024  0.33318972  1
  O2-  O275  1  0.16838592  0.84087423  0.66455730  1
  O2-  O276  1  0.49764272  0.32195498  -0.00226923  1
  O2-  O277  1  0.49934359  0.32630828  0.33773959  1
  O2-  O278  1  0.49665440  0.34829090  0.66465156  1
  O2-  O279  1  0.49882256  0.84950566  0.00075112  1
  O2-  O280  1  0.50064659  0.83864684  0.33423578  1
  O2-  O281  1  0.50908778  0.82523627  0.67679610  1
  O2-  O282  1  0.83775873  0.35740527  0.00539318  1
  O2-  O283  1  0.83529188  0.34660939  0.33419369  1
  O2-  O284  1  0.83530475  0.34764769  0.67075973  1
  O2-  O285  1  0.83761703  0.85008077  0.00195984  1
  O2-  O286  1  0.84051887  0.84805852  0.34151423  1
  O2-  O287  1  0.84231868  0.84940431  0.66895938  1
  O2-  O288  1  -0.00344143  0.17710402  0.16874689  1
  O2-  O289  1  -0.00347605  0.17746663  0.50561016  1
  O2-  O290  1  -0.00059023  0.19251622  0.83105267  1
  O2-  O291  1  -0.00526543  0.67425771  0.17068418  1
  O2-  O292  1  0.00397396  0.69779881  0.49700007  1
  O2-  O293  1  0.00161653  0.67329133  0.82732332  1
  O2-  O294  1  0.33019823  0.19039202  0.15673235  1
  O2-  O295  1  0.33731057  0.18452484  0.49970436  1
  O2-  O296  1  0.32871842  0.18325097  0.83308777  1
  O2-  O297  1  0.32803160  0.68310720  0.17694099  1
  O2-  O298  1  0.32550477  0.67091229  0.49571078  1
  O2-  O299  1  0.33681066  0.69013084  0.83574712  1
  O2-  O300  1  0.66739082  0.17970312  0.16628429  1
  O2-  O301  1  0.66531503  0.17872953  0.48505805  1
  O2-  O302  1  0.66731656  0.19150730  0.83497668  1
  O2-  O303  1  0.66295717  0.67805683  0.16280788  1
  O2-  O304  1  0.67224470  0.68099188  0.50758405  1
  O2-  O305  1  0.66405861  0.68988902  0.83505519  1
  O2-  O306  1  0.17192736  0.17287026  0.16988275  1
  O2-  O307  1  0.16776254  0.18454794  0.50127776  1
  O2-  O308  1  0.16851482  0.18979692  0.82494436  1
  O2-  O309  1  0.17419070  0.67802946  0.16716412  1
  O2-  O310  1  0.16174076  0.67378472  0.48780532  1
  O2-  O311  1  0.16495118  0.69098104  0.83315448  1
  O2-  O312  1  0.49526027  0.19594159  0.16481819  1
  O2-  O313  1  0.49433735  0.18089224  0.48341004  1
  O2-  O314  1  0.49961729  0.19144000  0.84002042  1
  O2-  O315  1  0.50449053  0.66960003  0.16612273  1
  O2-  O316  1  0.50183698  0.68215801  0.51369129  1
  O2-  O317  1  0.50571659  0.69075539  0.83395406  1
  O2-  O318  1  0.83334479  0.17951103  0.16560879  1
  O2-  O319  1  0.82594917  0.18300074  0.50356577  1
  O2-  O320  1  0.83181917  0.18200288  0.84017679  1
  O2-  O321  1  0.82924854  0.68165075  0.17264776  1
  O2-  O322  1  0.83293901  0.69102653  0.50805947  1
  O2-  O323  1  0.83642938  0.67088472  0.82699432  1
  O2-  O324  1  -0.01334714  0.33016019  0.15403473  1
  O2-  O325  1  -0.00643472  0.32457190  0.49219408  1
  O2-  O326  1  -0.00345240  0.31648977  0.82848153  1
  O2-  O327  1  -0.00571350  0.81674045  0.16098618  1
  O2-  O328  1  0.00198231  0.81121887  0.49638184  1
  O2-  O329  1  -0.00477982  0.82928565  0.82504920  1
  O2-  O330  1  0.32864669  0.32524495  0.16022377  1
  O2-  O331  1  0.34133153  0.31741439  0.50835499  1
  O2-  O332  1  0.34091762  0.32607154  0.84285735  1
  O2-  O333  1  0.32652683  0.81448907  0.16517993  1
  O2-  O334  1  0.33328598  0.82822248  0.49735348  1
  O2-  O335  1  0.33514689  0.80945333  0.83643327  1
  O2-  O336  1  0.66601610  0.31946031  0.16456181  1
  O2-  O337  1  0.66611687  0.31857243  0.49411219  1
  O2-  O338  1  0.66908426  0.32033637  0.83623941  1
  O2-  O339  1  0.66148646  0.82057541  0.16451038  1
  O2-  O340  1  0.66972879  0.82179541  0.50520321  1
  O2-  O341  1  0.65893048  0.82321168  0.82915161  1
  O2-  O342  1  0.16687854  0.32940379  0.16823141  1
  O2-  O343  1  0.17363082  0.32445727  0.49018894  1
  O2-  O344  1  0.15776450  0.31844062  0.84329931  1
  O2-  O345  1  0.16810592  0.81505892  0.16555089  1
  O2-  O346  1  0.16566742  0.81947737  0.50062492  1
  O2-  O347  1  0.16623301  0.80681608  0.83210440  1
  O2-  O348  1  0.50048617  0.31846449  0.16082758  1
  O2-  O349  1  0.50167114  0.31484877  0.49756981  1
  O2-  O350  1  0.50374835  0.31465352  0.82987699  1
  O2-  O351  1  0.50196245  0.82387366  0.16591026  1
  O2-  O352  1  0.49200140  0.82161826  0.50778003  1
  O2-  O353  1  0.50030806  0.81568347  0.83608798  1
  O2-  O354  1  0.83157709  0.32785306  0.17184199  1
  O2-  O355  1  0.83363116  0.31370383  0.49428234  1
  O2-  O356  1  0.83181069  0.31874088  0.83433830  1
  O2-  O357  1  0.83435643  0.81729659  0.16470047  1
  O2-  O358  1  0.82838040  0.81844066  0.51061743  1
  O2-  O359  1  0.83643807  0.82596512  0.83669113  1
  O2-  O360  1  0.07308487  0.06330931  0.14022716  1
  O2-  O361  1  0.09489186  0.06171238  0.47673752  1
  O2-  O362  1  0.09479502  0.07751903  0.78272297  1
  O2-  O363  1  0.11207812  0.56774348  0.07885798  1
  O2-  O364  1  0.05096795  0.58557778  0.45264814  1
  O2-  O365  1  0.07732796  0.58289316  0.78959009  1
  O2-  O366  1  0.42316649  0.08428847  0.10052906  1
  O2-  O367  1  0.43237489  0.08116380  0.45155019  1
  O2-  O368  1  0.41586904  0.08138781  0.80010611  1
  O2-  O369  1  0.37344048  0.57220405  0.09770566  1
  O2-  O370  1  0.44194873  0.57518112  0.45965557  1
  O2-  O371  1  0.44322879  0.58106476  0.80892311  1
  O2-  O372  1  0.75064719  0.08214477  0.11136853  1
  O2-  O373  1  0.74078289  0.07491209  0.44700629  1
  O2-  O374  1  0.73532828  0.08119992  0.79399563  1
  O2-  O375  1  0.73911404  0.58269238  0.09559356  1
  O2-  O376  1  0.76509161  0.58458465  0.44365070  1
  O2-  O377  1  0.73516802  0.58194939  0.79349617  1
  O2-  O378  1  0.26364527  0.07565645  0.22185989  1
  O2-  O379  1  0.26146877  0.08549130  0.54159790  1
  O2-  O380  1  0.25158765  0.07613678  0.87297077  1
  O2-  O381  1  0.26525792  0.58305745  0.22714441  1
  O2-  O382  1  0.25665407  0.56665873  0.54130314  1
  O2-  O383  1  0.26146284  0.58192148  0.89152078  1
  O2-  O384  1  0.57930136  0.07822438  0.21408266  1
  O2-  O385  1  0.59287279  0.07858421  0.56458555  1
  O2-  O386  1  0.57656891  0.08307016  0.88242881  1
  O2-  O387  1  0.56974942  0.57797897  0.22243467  1
  O2-  O388  1  0.60476968  0.57626462  0.54030991  1
  O2-  O389  1  0.59971477  0.58204612  0.88301975  1
  O2-  O390  1  0.90987094  0.08140712  0.22141767  1
  O2-  O391  1  0.91484081  0.08367953  0.55577079  1
  O2-  O392  1  0.91716548  0.07656909  0.87962766  1
  O2-  O393  1  0.91939027  0.58210962  0.24628133  1
  O2-  O394  1  0.90253232  0.58160962  0.53298571  1
  O2-  O395  1  0.91805229  0.57567962  0.90134725  1
  O2-  O396  1  0.07072102  0.42263778  0.11566676  1
  O2-  O397  1  0.08858025  0.41908113  0.43534934  1
  O2-  O398  1  0.06405681  0.42307571  0.79073620  1
  O2-  O399  1  0.08889897  0.90796777  0.10252649  1
  O2-  O400  1  0.07511658  0.91279018  0.45198770  1
  O2-  O401  1  0.07962532  0.91703489  0.77355890  1
  O2-  O402  1  0.43269422  0.41823286  0.07698595  1
  O2-  O403  1  0.42813595  0.41714498  0.44908022  1
  O2-  O404  1  0.43025178  0.41826479  0.78724524  1
  O2-  O405  1  0.40179217  0.91604283  0.10405065  1
  O2-  O406  1  0.42737591  0.91705264  0.43855056  1
  O2-  O407  1  0.43865281  0.91693523  0.77723929  1
  O2-  O408  1  0.75033582  0.42433798  0.13045935  1
  O2-  O409  1  0.74634547  0.41749807  0.42607004  1
  O2-  O410  1  0.75949035  0.41979538  0.78222390  1
  O2-  O411  1  0.74478642  0.91575424  0.11742973  1
  O2-  O412  1  0.74639151  0.92012182  0.44980150  1
  O2-  O413  1  0.73999459  0.91630383  0.77949716  1
  O2-  O414  1  0.24518499  0.42103287  0.23600674  1
  O2-  O415  1  0.26173048  0.42127693  0.54567552  1
  O2-  O416  1  0.23014450  0.41860772  0.88100496  1
  O2-  O417  1  0.25095723  0.92510089  0.21942254  1
  O2-  O418  1  0.26204056  0.91823619  0.56253990  1
  O2-  O419  1  0.26606275  0.92137887  0.87880019  1
  O2-  O420  1  0.59845922  0.42070846  0.22171736  1
  O2-  O421  1  0.57119225  0.41481319  0.54402703  1
  O2-  O422  1  0.56856526  0.41835150  0.89637828  1
  O2-  O423  1  0.57209658  0.92123264  0.22588513  1
  O2-  O424  1  0.56826641  0.91626636  0.56978606  1
  O2-  O425  1  0.57595252  0.91915890  0.88153795  1
  O2-  O426  1  0.90622734  0.42348709  0.21653612  1
  O2-  O427  1  0.91528390  0.42042654  0.56418494  1
  O2-  O428  1  0.91154738  0.41929814  0.87428092  1
  O2-  O429  1  0.92755061  0.91886875  0.22253700  1
  O2-  O430  1  0.90016801  0.92111902  0.54084182  1
  O2-  O431  1  0.91114298  0.92676142  0.88344814  1
  O2-  O432  1  -0.02442129  0.00132697  0.04360202  1
  O2-  O433  1  -0.02042279  -0.00096991  0.36421590  1
  O2-  O434  1  -0.01339322  -0.01523967  0.67515324  1
  O2-  O435  1  0.00153829  0.47817569  -0.01216581  1
  O2-  O436  1  -0.00670055  0.49424359  0.33320127  1
  O2-  O437  1  -0.02836440  0.50382024  0.71374645  1
  O2-  O438  1  0.34186823  0.00287014  -0.01509884  1
  O2-  O439  1  0.33518953  0.01036770  0.34356144  1
  O2-  O440  1  0.33392733  0.00749750  0.65237920  1
  O2-  O441  1  0.33687180  0.48978586  -0.04103626  1
  O2-  O442  1  0.30335147  0.50364974  0.37571748  1
  O2-  O443  1  0.37808436  0.50545960  0.60402663  1
  O2-  O444  1  0.66964604  -0.00182278  -0.00846183  1
  O2-  O445  1  0.68027373  0.00079086  0.30265233  1
  O2-  O446  1  0.65085868  -0.01141909  0.68774843  1
  O2-  O447  1  0.66668261  0.48333113  0.00593491  1
  O2-  O448  1  0.66667179  0.49123532  0.32903523  1
  O2-  O449  1  0.67294351  0.51260067  0.65861493  1
  O2-  O450  1  0.18232075  0.00221824  0.03124373  1
  O2-  O451  1  0.15574841  0.00846268  0.32288988  1
  O2-  O452  1  0.15416943  0.01023333  0.65098695  1
  O2-  O453  1  0.16214047  0.49721884  -0.02441675  1
  O2-  O454  1  0.16108539  0.49513930  0.35154479  1
  O2-  O455  1  0.14776324  0.50408128  0.63393779  1
  O2-  O456  1  0.49997651  -0.00148781  0.00488131  1
  O2-  O457  1  0.54175873  0.01118688  0.37529469  1
  O2-  O458  1  0.49584329  0.01233415  0.67592481  1
  O2-  O459  1  0.48570592  0.50706646  -0.03300799  1
  O2-  O460  1  0.50520342  0.49945935  0.33353705  1
  O2-  O461  1  0.52023793  0.50241668  0.68997987  1
  O2-  O462  1  0.82210665  0.00047608  -0.01611607  1
  O2-  O463  1  0.83438146  0.00287410  0.30699763  1
  O2-  O464  1  0.81545955  -0.01380731  0.64218712  1
  O2-  O465  1  0.83589216  0.48666775  0.00591111  1
  O2-  O466  1  0.83756872  0.49315555  0.32704080  1
  O2-  O467  1  0.83186323  0.52840569  0.65997695  1
  O2-  O468  1  0.58758579  0.75198248  0.95532502  1
  O2-  O469  1  0.75095783  0.74734682  0.71859322  1
  O2-  O470  1  0.41783736  0.75337431  0.40360210  1
  O2-  O471  1  0.07878424  0.74733650  0.07198497  1
  O2-  O472  1  0.26566377  0.24697932  0.61619813  1
  O2-  O473  1  0.73952909  0.75220066  0.06171275  1
  O2-  O474  1  0.91083741  0.25249215  0.60296257  1
  O2-  O475  1  0.58200853  0.74943003  0.26849588  1
  O2-  O476  1  0.92057616  0.75727248  0.93034025  1
  O2-  O477  1  0.75776430  0.25075320  0.72071117  1
  O2-  O478  1  0.75183116  0.75039040  0.38644498  1
  O2-  O479  1  0.25277153  0.75356212  0.59477422  1
  O2-  O480  1  0.42785041  0.75241580  0.06871951  1
  O2-  O481  1  0.24258272  0.25379215  0.26029498  1
  O2-  O482  1  0.90819603  0.24582157  0.94953615  1
  O2-  O483  1  0.07894449  0.25653442  0.39560593  1
  O2-  O484  1  0.58538990  0.25424050  0.60511629  1
  O2-  O485  1  0.91671683  0.25352434  0.26717839  1
  O2-  O486  1  0.90827939  0.75063035  0.26869950  1
  O2-  O487  1  0.08196110  0.25846404  0.06818010  1
  O2-  O488  1  0.25417150  0.25080036  0.94665809  1
  O2-  O489  1  0.59656836  0.24278432  0.27701682  1
  O2-  O490  1  0.76246064  0.25423217  0.06302106  1
  O2-  O491  1  0.40679948  0.25227127  0.72078392  1
  O2-  O492  1  0.06780661  0.74905234  0.72156036  1
