# generated using pymatgen
data_Ca108Mn108O277
_symmetry_space_group_name_H-M   'P 1'
_cell_length_a   16.02443179
_cell_length_b   22.30129512
_cell_length_c   16.38761929
_cell_angle_alpha   89.99810204
_cell_angle_beta   89.99682792
_cell_angle_gamma   90.00368185
_symmetry_Int_Tables_number   1
_chemical_formula_structural   Ca108Mn108O277
_chemical_formula_sum   'Ca108 Mn108 O277'
_cell_volume   5856.37108785
_cell_formula_units_Z   1
loop_
 _symmetry_equiv_pos_site_id
 _symmetry_equiv_pos_as_xyz
  1  'x, y, z'
loop_
 _atom_type_symbol
 _atom_type_oxidation_number
  Ca2+  2.0
  Mn3.34+  3.34
  O2-  -2.0
loop_
 _atom_site_type_symbol
 _atom_site_label
 _atom_site_symmetry_multiplicity
 _atom_site_fract_x
 _atom_site_fract_y
 _atom_site_fract_z
 _atom_site_occupancy
  Ca2+  Ca0  1  0.08065460  0.26012274  0.23613362  1
  Ca2+  Ca1  1  0.07668257  0.26206916  0.57796665  1
  Ca2+  Ca2  1  0.07257275  0.25779683  0.93252600  1
  Ca2+  Ca3  1  0.07588865  0.75097548  0.23641654  1
  Ca2+  Ca4  1  0.08357402  0.74499042  0.57618753  1
  Ca2+  Ca5  1  0.09466387  0.73242417  0.91993016  1
  Ca2+  Ca6  1  0.42113824  0.26226535  0.25335494  1
  Ca2+  Ca7  1  0.43308400  0.25476774  0.57240628  1
  Ca2+  Ca8  1  0.41968495  0.25793658  0.91893934  1
  Ca2+  Ca9  1  0.42408294  0.74936945  0.25442098  1
  Ca2+  Ca10  1  0.42758245  0.73915114  0.59915427  1
  Ca2+  Ca11  1  0.40104032  0.74685692  0.90076216  1
  Ca2+  Ca12  1  0.73444637  0.24941692  0.25847327  1
  Ca2+  Ca13  1  0.73624871  0.24942488  0.56761448  1
  Ca2+  Ca14  1  0.76528588  0.25790001  0.92151769  1
  Ca2+  Ca15  1  0.74875301  0.74430392  0.26576761  1
  Ca2+  Ca16  1  0.73817620  0.74647120  0.58317375  1
  Ca2+  Ca17  1  0.76715183  0.75361833  0.91310528  1
  Ca2+  Ca18  1  0.24311772  0.25438340  0.08727871  1
  Ca2+  Ca19  1  0.26358948  0.26471230  0.41915836  1
  Ca2+  Ca20  1  0.26877387  0.24912505  0.74939507  1
  Ca2+  Ca21  1  0.24208721  0.74379825  0.06620145  1
  Ca2+  Ca22  1  0.25245434  0.74859561  0.43532229  1
  Ca2+  Ca23  1  0.27101759  0.74921952  0.75317367  1
  Ca2+  Ca24  1  0.57377764  0.25060027  0.09474675  1
  Ca2+  Ca25  1  0.58156442  0.25613772  0.42813277  1
  Ca2+  Ca26  1  0.56586896  0.23994021  0.72183840  1
  Ca2+  Ca27  1  0.57305352  0.75017351  0.08085762  1
  Ca2+  Ca28  1  0.60135803  0.73535551  0.44532644  1
  Ca2+  Ca29  1  0.57228790  0.74090028  0.73778028  1
  Ca2+  Ca30  1  0.92138902  0.26744368  0.07769985  1
  Ca2+  Ca31  1  0.90514318  0.25895464  0.42127120  1
  Ca2+  Ca32  1  0.91026443  0.26431725  0.74818909  1
  Ca2+  Ca33  1  0.93030927  0.73619040  0.06465932  1
  Ca2+  Ca34  1  0.90127287  0.73370070  0.42672281  1
  Ca2+  Ca35  1  0.90649272  0.73479192  0.75689135  1
  Ca2+  Ca36  1  0.40855483  0.09800883  0.89732221  1
  Ca2+  Ca37  1  0.41204526  0.09684565  0.88775223  1
  Ca2+  Ca38  1  0.79403201  0.60520605  0.91742457  1
  Ca2+  Ca39  1  0.55954728  0.59799650  0.73785664  1
  Ca2+  Ca40  1  0.59473742  0.10503501  0.41819535  1
  Ca2+  Ca41  1  0.07995178  0.07919189  0.95289144  1
  Ca2+  Ca42  1  0.73642420  0.10032767  0.57977589  1
  Ca2+  Ca43  1  0.44086813  0.09853465  0.63269796  1
  Ca2+  Ca44  1  0.76121981  0.60312916  0.57100351  1
  Ca2+  Ca45  1  0.09470539  0.08364640  0.23950200  1
  Ca2+  Ca46  1  0.25670465  0.08683791  0.40723365  1
  Ca2+  Ca47  1  0.26642421  0.08641544  0.74911963  1
  Ca2+  Ca48  1  0.74128189  0.59019578  0.26304831  1
  Ca2+  Ca49  1  0.26884974  0.60949588  0.75904289  1
  Ca2+  Ca50  1  0.43300556  0.10483274  0.24901528  1
  Ca2+  Ca51  1  0.42564927  0.60100080  0.59557303  1
  Ca2+  Ca52  1  0.75257383  0.60622831  0.56725452  1
  Ca2+  Ca53  1  0.59320796  0.60724593  0.42242376  1
  Ca2+  Ca54  1  0.90997472  0.08359085  0.74567328  1
  Ca2+  Ca55  1  0.39623687  0.60638293  0.90541024  1
  Ca2+  Ca56  1  0.42054205  0.10406831  0.25019996  1
  Ca2+  Ca57  1  0.22469541  0.59868137  0.07047667  1
  Ca2+  Ca58  1  0.90859562  0.09059393  0.42071758  1
  Ca2+  Ca59  1  0.07062998  0.08954250  0.57892294  1
  Ca2+  Ca60  1  0.24382912  0.08659496  0.40660854  1
  Ca2+  Ca61  1  0.89796976  0.08038276  0.74824734  1
  Ca2+  Ca62  1  0.06339277  0.58811662  0.59432890  1
  Ca2+  Ca63  1  0.43196031  0.09565906  0.63799279  1
  Ca2+  Ca64  1  0.07754468  0.58693949  0.24066312  1
  Ca2+  Ca65  1  0.25891719  0.58809907  0.41820608  1
  Ca2+  Ca66  1  0.08229296  0.08160717  0.23809836  1
  Ca2+  Ca67  1  0.26096833  0.60487626  0.75641815  1
  Ca2+  Ca68  1  0.58522856  0.10716998  0.42165248  1
  Ca2+  Ca69  1  0.42401186  0.58730234  0.25607446  1
  Ca2+  Ca70  1  0.24012105  0.08861919  0.07457456  1
  Ca2+  Ca71  1  0.58366140  0.09526454  0.09097725  1
  Ca2+  Ca72  1  0.55717897  0.41306933  0.73895178  1
  Ca2+  Ca73  1  0.58465185  0.41176880  0.08199260  1
  Ca2+  Ca74  1  0.57199352  0.41271300  0.08297391  1
  Ca2+  Ca75  1  0.59752697  0.89991987  0.07645423  1
  Ca2+  Ca76  1  0.75253504  0.90748320  0.59697311  1
  Ca2+  Ca77  1  0.41624279  0.41366917  0.92199468  1
  Ca2+  Ca78  1  0.26156246  0.41641095  0.73230440  1
  Ca2+  Ca79  1  0.91273309  0.90407549  0.41922462  1
  Ca2+  Ca80  1  0.58716202  0.89617458  0.41811615  1
  Ca2+  Ca81  1  0.92423636  0.90344466  0.41846394  1
  Ca2+  Ca82  1  0.58007622  0.90134116  0.76477788  1
  Ca2+  Ca83  1  0.75245071  0.41414438  0.91664468  1
  Ca2+  Ca84  1  0.28045833  0.90817591  0.75646173  1
  Ca2+  Ca85  1  0.07639377  0.41117232  0.24444126  1
  Ca2+  Ca86  1  0.24581976  0.40729631  0.09487643  1
  Ca2+  Ca87  1  0.08311980  0.91236960  0.93289353  1
  Ca2+  Ca88  1  0.89260540  0.90384377  0.75936286  1
  Ca2+  Ca89  1  0.91845080  0.42013864  0.72557046  1
  Ca2+  Ca90  1  0.91650974  0.41381076  0.41584200  1
  Ca2+  Ca91  1  0.23115784  0.90593016  0.08354698  1
  Ca2+  Ca92  1  0.07418843  0.41370618  0.59111914  1
  Ca2+  Ca93  1  0.57496368  0.89581340  0.41813611  1
  Ca2+  Ca94  1  0.08830565  0.89818479  0.57940059  1
  Ca2+  Ca95  1  0.24895322  0.41596445  0.73359894  1
  Ca2+  Ca96  1  0.77190397  0.41662532  0.25355958  1
  Ca2+  Ca97  1  0.90232009  0.90050607  0.75656289  1
  Ca2+  Ca98  1  0.76614710  0.40900761  0.58321513  1
  Ca2+  Ca99  1  0.76180100  0.41286298  0.25553814  1
  Ca2+  Ca100  1  0.92502265  0.90807027  0.08020458  1
  Ca2+  Ca101  1  0.56984894  0.41171970  0.73907658  1
  Ca2+  Ca102  1  0.08349953  0.90415440  0.24001008  1
  Ca2+  Ca103  1  0.76357975  0.41273684  0.91573972  1
  Ca2+  Ca104  1  0.75336818  0.89647510  0.24305610  1
  Ca2+  Ca105  1  0.41062680  0.89249932  0.25119188  1
  Ca2+  Ca106  1  0.25044771  0.89622922  0.41863557  1
  Ca2+  Ca107  1  0.26909481  0.90583340  0.75179657  1
  Mn3.34+  Mn108  1  0.08231343  0.33898651  0.08137824  1
  Mn3.34+  Mn109  1  0.08892275  0.33552064  0.41506961  1
  Mn3.34+  Mn110  1  0.08627243  0.33462997  0.75653125  1
  Mn3.34+  Mn111  1  0.08200177  0.83079599  0.08129928  1
  Mn3.34+  Mn112  1  0.08340138  0.82899949  0.41333748  1
  Mn3.34+  Mn113  1  0.08422950  0.82812756  0.75331678  1
  Mn3.34+  Mn114  1  0.41138119  0.33467181  0.08797413  1
  Mn3.34+  Mn115  1  0.41941214  0.34176972  0.41640180  1
  Mn3.34+  Mn116  1  0.41547138  0.33132392  0.75394808  1
  Mn3.34+  Mn117  1  0.41378499  0.82822650  0.07877129  1
  Mn3.34+  Mn118  1  0.41522316  0.82610120  0.41981095  1
  Mn3.34+  Mn119  1  0.42483934  0.83397505  0.75230231  1
  Mn3.34+  Mn120  1  0.75157528  0.33592761  0.08806491  1
  Mn3.34+  Mn121  1  0.74751667  0.33770025  0.41971197  1
  Mn3.34+  Mn122  1  0.74846054  0.33726022  0.75109022  1
  Mn3.34+  Mn123  1  0.75372157  0.83115204  0.08225528  1
  Mn3.34+  Mn124  1  0.75115795  0.82951404  0.41910884  1
  Mn3.34+  Mn125  1  0.74116192  0.83034575  0.75458905  1
  Mn3.34+  Mn126  1  0.25021169  0.34330258  0.25363800  1
  Mn3.34+  Mn127  1  0.25264957  0.33572284  0.57692948  1
  Mn3.34+  Mn128  1  0.24729655  0.33176710  0.91364481  1
  Mn3.34+  Mn129  1  0.24921433  0.82819522  0.24643033  1
  Mn3.34+  Mn130  1  0.25316113  0.83071258  0.58410171  1
  Mn3.34+  Mn131  1  0.25003728  0.83050596  0.91849575  1
  Mn3.34+  Mn132  1  0.57997936  0.34036979  0.25269486  1
  Mn3.34+  Mn133  1  0.58113032  0.33048970  0.57818815  1
  Mn3.34+  Mn134  1  0.58335999  0.33271663  0.91290897  1
  Mn3.34+  Mn135  1  0.58643638  0.82527424  0.24406980  1
  Mn3.34+  Mn136  1  0.58025861  0.82977135  0.58821773  1
  Mn3.34+  Mn137  1  0.58220096  0.83456315  0.91851510  1
  Mn3.34+  Mn138  1  0.91891505  0.33713962  0.24885116  1
  Mn3.34+  Mn139  1  0.91821994  0.33425011  0.58009283  1
  Mn3.34+  Mn140  1  0.92509180  0.33952332  0.91437564  1
  Mn3.34+  Mn141  1  0.91540415  0.83127613  0.24404068  1
  Mn3.34+  Mn142  1  0.91778580  0.82990691  0.58471756  1
  Mn3.34+  Mn143  1  0.91939980  0.82846461  0.91889000  1
  Mn3.34+  Mn144  1  0.25456139  0.66560338  0.24959987  1
  Mn3.34+  Mn145  1  0.74466508  0.16545503  0.08281716  1
  Mn3.34+  Mn146  1  0.24190297  0.16456219  0.57952098  1
  Mn3.34+  Mn147  1  0.58262321  0.66551534  0.24301268  1
  Mn3.34+  Mn148  1  0.24796314  0.17769832  0.24847806  1
  Mn3.34+  Mn149  1  0.57990404  0.16790819  0.91205900  1
  Mn3.34+  Mn150  1  0.24805730  0.66417032  0.57913181  1
  Mn3.34+  Mn151  1  0.07644469  0.17706879  0.75349346  1
  Mn3.34+  Mn152  1  0.91542416  0.16633234  0.92214468  1
  Mn3.34+  Mn153  1  0.75416775  0.15980477  0.08442947  1
  Mn3.34+  Mn154  1  0.74604009  0.66333425  0.09024103  1
  Mn3.34+  Mn155  1  0.91636570  0.17046002  0.57805145  1
  Mn3.34+  Mn156  1  0.41425753  0.66462321  0.08549534  1
  Mn3.34+  Mn157  1  0.42056458  0.66403891  0.42227092  1
  Mn3.34+  Mn158  1  0.07988583  0.66422077  0.42115035  1
  Mn3.34+  Mn159  1  0.08320311  0.17340995  0.41475522  1
  Mn3.34+  Mn160  1  0.92181203  0.66256880  0.24614181  1
  Mn3.34+  Mn161  1  0.08633757  0.17851579  0.75871183  1
  Mn3.34+  Mn162  1  0.73753586  0.16136455  0.75318376  1
  Mn3.34+  Mn163  1  0.58932563  0.66669965  0.91988661  1
  Mn3.34+  Mn164  1  0.90902046  0.65795397  0.24882279  1
  Mn3.34+  Mn165  1  0.24591399  0.65964024  0.24818743  1
  Mn3.34+  Mn166  1  0.25024703  0.17215970  0.91866628  1
  Mn3.34+  Mn167  1  0.41545091  0.17099723  0.08430511  1
  Mn3.34+  Mn168  1  0.25305102  0.16906795  0.58106622  1
  Mn3.34+  Mn169  1  0.58991761  0.16292972  0.90894096  1
  Mn3.34+  Mn170  1  0.90846021  0.16175886  0.24808656  1
  Mn3.34+  Mn171  1  0.74695644  0.16738528  0.75261487  1
  Mn3.34+  Mn172  1  0.74860802  0.17045064  0.41463670  1
  Mn3.34+  Mn173  1  0.57927865  0.66224279  0.91750569  1
  Mn3.34+  Mn174  1  0.92074338  0.16879129  0.25004353  1
  Mn3.34+  Mn175  1  0.41815550  0.16919372  0.42124222  1
  Mn3.34+  Mn176  1  0.91792988  0.66463087  0.58630588  1
  Mn3.34+  Mn177  1  0.08328891  0.16967332  0.08261987  1
  Mn3.34+  Mn178  1  0.07895702  0.66101508  0.75469376  1
  Mn3.34+  Mn179  1  0.74974208  0.66431679  0.75237596  1
  Mn3.34+  Mn180  1  0.74705832  -0.00120996  0.07205803  1
  Mn3.34+  Mn181  1  0.41159291  0.50034435  0.40281447  1
  Mn3.34+  Mn182  1  0.59187805  -0.00147776  0.59556290  1
  Mn3.34+  Mn183  1  0.07367371  0.49890639  0.07628369  1
  Mn3.34+  Mn184  1  0.75231575  0.49856303  0.40406438  1
  Mn3.34+  Mn185  1  0.41316276  0.50270671  0.08352467  1
  Mn3.34+  Mn186  1  0.09209428  0.49992763  0.40303025  1
  Mn3.34+  Mn187  1  0.08139038  0.50259791  0.74502072  1
  Mn3.34+  Mn188  1  0.59647275  0.00076307  0.92346672  1
  Mn3.34+  Mn189  1  0.76093837  0.50565944  0.07546315  1
  Mn3.34+  Mn190  1  0.08193524  0.00051883  0.41206410  1
  Mn3.34+  Mn191  1  0.56770991  0.49422988  0.57468495  1
  Mn3.34+  Mn192  1  0.58219439  0.50170457  0.92310786  1
  Mn3.34+  Mn193  1  0.42627833  -0.00748886  0.07347180  1
  Mn3.34+  Mn194  1  0.58189824  -0.00298534  0.24554533  1
  Mn3.34+  Mn195  1  0.25937088  0.50090739  0.58759248  1
  Mn3.34+  Mn196  1  0.59600111  0.00365242  0.24522869  1
  Mn3.34+  Mn197  1  0.75981587  0.50810179  0.73556005  1
  Mn3.34+  Mn198  1  0.07752278  0.50347576  0.40306140  1
  Mn3.34+  Mn199  1  0.41676589  -0.00128489  0.42283921  1
  Mn3.34+  Mn200  1  0.57828452  0.49890626  0.57288160  1
  Mn3.34+  Mn201  1  0.75060032  -0.00022363  0.42242115  1
  Mn3.34+  Mn202  1  0.41322910  -0.00126332  0.07747589  1
  Mn3.34+  Mn203  1  0.57739179  0.50266609  0.25621169  1
  Mn3.34+  Mn204  1  0.91235145  0.00160226  0.93354947  1
  Mn3.34+  Mn205  1  0.92541527  0.50140031  0.91953261  1
  Mn3.34+  Mn206  1  0.23110895  0.49468393  0.92149800  1
  Mn3.34+  Mn207  1  0.25975398  -0.00262456  0.58265715  1
  Mn3.34+  Mn208  1  0.58309106  -0.00852337  0.60213079  1
  Mn3.34+  Mn209  1  0.24444672  0.00049268  0.91859900  1
  Mn3.34+  Mn210  1  0.25761176  -0.00009396  0.24515155  1
  Mn3.34+  Mn211  1  0.90351380  0.00037802  0.25150588  1
  Mn3.34+  Mn212  1  0.09471553  0.00569981  0.75698533  1
  Mn3.34+  Mn213  1  0.08331844  0.00036671  0.75598967  1
  Mn3.34+  Mn214  1  0.90738133  0.00153843  0.58783718  1
  Mn3.34+  Mn215  1  0.24001213  0.50069068  0.92010237  1
  O2-  O216  1  0.01038642  0.15967803  -0.00434402  1
  O2-  O217  1  0.00257924  0.14958399  0.33449548  1
  O2-  O218  1  -0.00558541  0.14979594  0.67318520  1
  O2-  O219  1  0.01481520  0.66533213  -0.00201389  1
  O2-  O220  1  0.00338512  0.65029400  0.33015109  1
  O2-  O221  1  0.00873914  0.67131176  0.66503687  1
  O2-  O222  1  0.33785948  0.14963626  -0.00270653  1
  O2-  O223  1  0.33176546  0.15661775  0.33189013  1
  O2-  O224  1  0.32309378  0.15686873  0.67373461  1
  O2-  O225  1  0.33011858  0.65498748  0.01436824  1
  O2-  O226  1  0.33296262  0.65380311  0.33225832  1
  O2-  O227  1  0.32924345  0.66048681  0.65737348  1
  O2-  O228  1  0.66373298  0.14740402  -0.00524806  1
  O2-  O229  1  0.66221749  0.17080155  0.33940818  1
  O2-  O230  1  0.66795906  0.16756755  0.66417830  1
  O2-  O231  1  0.66575455  0.66317762  0.00039402  1
  O2-  O232  1  0.65881618  0.67018961  0.32438313  1
  O2-  O233  1  0.67372186  0.64546957  0.67107348  1
  O2-  O234  1  0.17408765  0.16741033  0.00645604  1
  O2-  O235  1  0.16568181  0.15741140  0.33058431  1
  O2-  O236  1  0.15855817  0.15356148  0.66655180  1
  O2-  O237  1  0.16125596  0.66960475  0.00255050  1
  O2-  O238  1  0.16940622  0.65685114  0.33469186  1
  O2-  O239  1  0.16541103  0.64993623  0.65902481  1
  O2-  O240  1  0.49883261  0.14547650  0.00061339  1
  O2-  O241  1  0.49751382  0.15661980  0.33817391  1
  O2-  O242  1  0.47758646  0.18444753  0.66237855  1
  O2-  O243  1  0.49918878  0.65075002  -0.00099934  1
  O2-  O244  1  0.49768132  0.65996043  0.33195916  1
  O2-  O245  1  0.49728516  0.66645499  0.66780234  1
  O2-  O246  1  0.82748040  0.15420163  -0.00082428  1
  O2-  O247  1  0.83673974  0.15443813  0.33862455  1
  O2-  O248  1  0.83119960  0.15535201  0.67103148  1
  O2-  O249  1  0.82008912  0.67994765  0.01078895  1
  O2-  O250  1  0.83067143  0.65719824  0.32552891  1
  O2-  O251  1  0.83162205  0.66148523  0.66848601  1
  O2-  O252  1  0.00244150  0.33965055  -0.00114141  1
  O2-  O253  1  0.00459763  0.33932543  0.33316327  1
  O2-  O254  1  0.00334461  0.33798304  0.66744025  1
  O2-  O255  1  0.00060721  0.84755371  -0.00098176  1
  O2-  O256  1  -0.00154376  0.85074302  0.32974213  1
  O2-  O257  1  -0.00163919  0.84731100  0.66864137  1
  O2-  O258  1  0.33270282  0.34266021  -0.00266248  1
  O2-  O259  1  0.33348308  0.32736925  0.32891762  1
  O2-  O260  1  0.32801432  0.33848809  0.67765739  1
  O2-  O261  1  0.32390590  0.84631651  0.00928773  1
  O2-  O262  1  0.33071502  0.83464289  0.33439083  1
  O2-  O263  1  0.33001190  0.83885255  0.67198281  1
  O2-  O264  1  0.66768575  0.35243066  0.00036311  1
  O2-  O265  1  0.67775172  0.34267235  0.32037604  1
  O2-  O266  1  0.66035051  0.34039900  0.67489206  1
  O2-  O267  1  0.66762930  0.82589629  0.00448073  1
  O2-  O268  1  0.66662191  0.84090196  0.33314115  1
  O2-  O269  1  0.66527248  0.84694747  0.66516160  1
  O2-  O270  1  0.17342517  0.32846292  0.00257664  1
  O2-  O271  1  0.16746760  0.30931686  0.33081216  1
  O2-  O272  1  0.16564380  0.33643508  0.66993028  1
  O2-  O273  1  0.16398012  0.84304797  -0.00258504  1
  O2-  O274  1  0.16591360  0.83913115  0.33090067  1
  O2-  O275  1  0.16697738  0.83998601  0.66791880  1
  O2-  O276  1  0.50147718  0.34863171  -0.00146268  1
  O2-  O277  1  0.50865155  0.31902870  0.33416457  1
  O2-  O278  1  0.49806695  0.33129339  0.66994401  1
  O2-  O279  1  0.50454173  0.84445043  0.00784871  1
  O2-  O280  1  0.50449630  0.83343410  0.32929607  1
  O2-  O281  1  0.50425234  0.84436082  0.67015359  1
  O2-  O282  1  0.83076522  0.34844187  -0.00354974  1
  O2-  O283  1  0.83703679  0.34659861  0.33895440  1
  O2-  O284  1  0.83291533  0.34011204  0.66877518  1
  O2-  O285  1  0.84093978  0.83170698  0.00637470  1
  O2-  O286  1  0.83491244  0.84742338  0.33630532  1
  O2-  O287  1  0.83413928  0.84127989  0.66507086  1
  O2-  O288  1  0.00481342  0.17616267  0.17167303  1
  O2-  O289  1  0.00566361  0.18434215  0.49793042  1
  O2-  O290  1  -0.01405846  0.18518204  0.82668195  1
  O2-  O291  1  0.00089488  0.67574708  0.17392415  1
  O2-  O292  1  0.00297460  0.67408634  0.50609515  1
  O2-  O293  1  0.00979075  0.68774088  0.82478543  1
  O2-  O294  1  0.33240493  0.18156603  0.17050268  1
  O2-  O295  1  0.32746817  0.17576142  0.49020004  1
  O2-  O296  1  0.33431583  0.18510730  0.84564903  1
  O2-  O297  1  0.33256188  0.69051294  0.17404428  1
  O2-  O298  1  0.33022622  0.67335559  0.49612153  1
  O2-  O299  1  0.33087043  0.67555339  0.82869322  1
  O2-  O300  1  0.66250489  0.18230798  0.15793125  1
  O2-  O301  1  0.66842155  0.17329368  0.49378268  1
  O2-  O302  1  0.66376641  0.19970553  0.82721437  1
  O2-  O303  1  0.66419873  0.69288558  0.16606529  1
  O2-  O304  1  0.67614241  0.66821837  0.50810831  1
  O2-  O305  1  0.66192150  0.68046566  0.83196736  1
  O2-  O306  1  0.16282058  0.18636958  0.17189148  1
  O2-  O307  1  0.16957271  0.18900459  0.49144859  1
  O2-  O308  1  0.16863399  0.19198712  0.83823989  1
  O2-  O309  1  0.16707832  0.68268683  0.17410296  1
  O2-  O310  1  0.16715611  0.67876352  0.49639787  1
  O2-  O311  1  0.16990103  0.68655037  0.80582363  1
  O2-  O312  1  0.49055684  0.17976461  0.16964916  1
  O2-  O313  1  0.50161730  0.16933146  0.49310823  1
  O2-  O314  1  0.49244947  0.18161827  0.83996175  1
  O2-  O315  1  0.49555998  0.68529898  0.17123621  1
  O2-  O316  1  0.49650505  0.67428618  0.49710467  1
  O2-  O317  1  0.50177111  0.67170368  0.83842926  1
  O2-  O318  1  0.83216648  0.18374762  0.16670955  1
  O2-  O319  1  0.82974787  0.17631503  0.49924913  1
  O2-  O320  1  0.82857643  0.18758300  0.82801010  1
  O2-  O321  1  0.82820284  0.68465501  0.17144851  1
  O2-  O322  1  0.83386779  0.67772663  0.51287135  1
  O2-  O323  1  0.82367024  0.67949098  0.83481875  1
  O2-  O324  1  0.00143502  0.32796693  0.17004442  1
  O2-  O325  1  -0.00087072  0.31788574  0.49430631  1
  O2-  O326  1  0.00148481  0.31413697  0.82923190  1
  O2-  O327  1  0.00051281  0.82351988  0.16712994  1
  O2-  O328  1  -0.00211236  0.82787933  0.49687868  1
  O2-  O329  1  -0.00619635  0.82842535  0.82646301  1
  O2-  O330  1  0.32765450  0.31806216  0.16639350  1
  O2-  O331  1  0.33711369  0.32511832  0.50288078  1
  O2-  O332  1  0.33531174  0.31198521  0.83606392  1
  O2-  O333  1  0.33724636  0.81567904  0.17218282  1
  O2-  O334  1  0.32929452  0.82738881  0.49591300  1
  O2-  O335  1  0.33136702  0.82850448  0.83122918  1
  O2-  O336  1  0.65880660  0.31852403  0.16329787  1
  O2-  O337  1  0.67058880  0.32769808  0.50321508  1
  O2-  O338  1  0.67513538  0.32444131  0.84222541  1
  O2-  O339  1  0.66918514  0.81431923  0.16652173  1
  O2-  O340  1  0.66538740  0.82522746  0.49829445  1
  O2-  O341  1  0.66038637  0.81852228  0.83065488  1
  O2-  O342  1  0.16982626  0.32123617  0.16866846  1
  O2-  O343  1  0.16508068  0.31806585  0.49997158  1
  O2-  O344  1  0.16968510  0.30681922  0.83134269  1
  O2-  O345  1  0.16706083  0.81755164  0.16457085  1
  O2-  O346  1  0.16490695  0.82465696  0.49886517  1
  O2-  O347  1  0.17390516  0.82071156  0.82647550  1
  O2-  O348  1  0.50187774  0.32153411  0.16625809  1
  O2-  O349  1  0.50243986  0.32540093  0.49694234  1
  O2-  O350  1  0.50364672  0.31103561  0.82686113  1
  O2-  O351  1  0.49910926  0.81701142  0.16938810  1
  O2-  O352  1  0.50858457  0.82188676  0.49170549  1
  O2-  O353  1  0.50403579  0.82307411  0.83327884  1
  O2-  O354  1  0.82444462  0.32210358  0.17739883  1
  O2-  O355  1  0.83164418  0.32376189  0.50372244  1
  O2-  O356  1  0.83066083  0.32450805  0.83301892  1
  O2-  O357  1  0.82763453  0.81621729  0.17309935  1
  O2-  O358  1  0.83768390  0.83070395  0.49659786  1
  O2-  O359  1  0.83603524  0.82250195  0.82905961  1
  O2-  O360  1  0.09777728  0.08510364  0.10469927  1
  O2-  O361  1  0.10255676  0.08214147  0.44782958  1
  O2-  O362  1  0.08726032  0.08551515  0.79429126  1
  O2-  O363  1  0.09222587  0.57023453  0.11447701  1
  O2-  O364  1  0.09268290  0.57627556  0.45691977  1
  O2-  O365  1  0.10082839  0.57968401  0.77437497  1
  O2-  O366  1  0.41690478  0.07774111  0.12053457  1
  O2-  O367  1  0.40318422  0.08233942  0.44960515  1
  O2-  O368  1  0.40544696  0.07909490  0.76921015  1
  O2-  O369  1  0.40769605  0.58219271  0.12021159  1
  O2-  O370  1  0.41383407  0.57436073  0.45370978  1
  O2-  O371  1  0.39585893  0.57244926  0.77739546  1
  O2-  O372  1  0.73747879  0.07902257  0.11589518  1
  O2-  O373  1  0.73941601  0.08331118  0.44016094  1
  O2-  O374  1  0.76461125  0.08030897  0.77448351  1
  O2-  O375  1  0.74589654  0.58270609  0.12222006  1
  O2-  O376  1  0.72825590  0.57085016  0.44060533  1
  O2-  O377  1  0.74555301  0.57937157  0.78586988  1
  O2-  O378  1  0.23947202  0.08202181  0.21692358  1
  O2-  O379  1  0.24268902  0.07798053  0.54167619  1
  O2-  O380  1  0.25729674  0.08112927  0.88648351  1
  O2-  O381  1  0.25043183  0.58183501  0.21238478  1
  O2-  O382  1  0.25392115  0.57896817  0.55477913  1
  O2-  O383  1  0.24760659  0.57993322  0.89039400  1
  O2-  O384  1  0.56692144  0.08289279  0.22203064  1
  O2-  O385  1  0.57822299  0.07736343  0.55322231  1
  O2-  O386  1  0.57185925  0.08300166  0.87450605  1
  O2-  O387  1  0.58584610  0.58113436  0.22668935  1
  O2-  O388  1  0.57390541  0.57921541  0.55655554  1
  O2-  O389  1  0.58772125  0.58157489  0.88575948  1
  O2-  O390  1  0.93723730  0.08190840  0.22020035  1
  O2-  O391  1  0.91707837  0.08484160  0.55536453  1
  O2-  O392  1  0.92555228  0.07868233  0.88140993  1
  O2-  O393  1  0.91358792  0.57842428  0.22608605  1
  O2-  O394  1  0.90251394  0.58472595  0.57317931  1
  O2-  O395  1  0.92167192  0.57027699  0.88030867  1
  O2-  O396  1  0.09502223  0.42045082  0.11110034  1
  O2-  O397  1  0.07618919  0.42490781  0.45259394  1
  O2-  O398  1  0.10921051  0.42357913  0.77228818  1
  O2-  O399  1  0.08715178  0.91561990  0.10572713  1
  O2-  O400  1  0.07426465  0.91755965  0.43900910  1
  O2-  O401  1  0.08807380  0.91896228  0.77258855  1
  O2-  O402  1  0.42296256  0.41866004  0.11278052  1
  O2-  O403  1  0.41859017  0.42668650  0.43632341  1
  O2-  O404  1  0.42363296  0.41464318  0.78126701  1
  O2-  O405  1  0.42021241  0.91534528  0.11641281  1
  O2-  O406  1  0.43450358  0.91388476  0.41674581  1
  O2-  O407  1  0.40983629  0.91841078  0.76907225  1
  O2-  O408  1  0.73883639  0.42349242  0.12386899  1
  O2-  O409  1  0.75922540  0.42252717  0.44578596  1
  O2-  O410  1  0.74161655  0.43019197  0.78236203  1
  O2-  O411  1  0.74185177  0.92081877  0.11236141  1
  O2-  O412  1  0.74039700  0.91789357  0.44587748  1
  O2-  O413  1  0.75529445  0.91252952  0.76064498  1
  O2-  O414  1  0.22914247  0.41926831  0.23098586  1
  O2-  O415  1  0.23595960  0.41891254  0.58212198  1
  O2-  O416  1  0.25918137  0.41980481  0.86914528  1
  O2-  O417  1  0.25408312  0.91797388  0.22690985  1
  O2-  O418  1  0.24049300  0.91687546  0.56257773  1
  O2-  O419  1  0.23513949  0.92112709  0.88505766  1
  O2-  O420  1  0.59106400  0.42466171  0.21503848  1
  O2-  O421  1  0.58207718  0.41348932  0.58313699  1
  O2-  O422  1  0.57636396  0.42230032  0.87235100  1
  O2-  O423  1  0.59325856  0.91615026  0.22259942  1
  O2-  O424  1  0.58772380  0.91680167  0.54949508  1
  O2-  O425  1  0.59022903  0.91722231  0.89917134  1
  O2-  O426  1  0.90922111  0.41608076  0.23375727  1
  O2-  O427  1  0.92288673  0.41380760  0.56050541  1
  O2-  O428  1  0.90462157  0.42849215  0.86969898  1
  O2-  O429  1  0.90818659  0.91667761  0.21938215  1
  O2-  O430  1  0.91743888  0.91929744  0.55588365  1
  O2-  O431  1  0.92018003  0.92279808  0.88983753  1
  O2-  O432  1  0.01027162  -0.00426474  -0.02381797  1
  O2-  O433  1  0.01461435  0.00524880  0.31069659  1
  O2-  O434  1  0.00860386  0.01993347  0.66332542  1
  O2-  O435  1  -0.00459946  0.48976269  -0.00226152  1
  O2-  O436  1  0.00465298  0.48726159  0.32760276  1
  O2-  O437  1  0.00517572  0.49110214  0.67081448  1
  O2-  O438  1  0.32735357  0.00797946  0.00095315  1
  O2-  O439  1  0.33305863  0.01829412  0.33462166  1
  O2-  O440  1  0.32842930  0.01639196  0.66574014  1
  O2-  O441  1  0.34085442  0.49291571  -0.01327610  1
  O2-  O442  1  0.33422907  0.51889846  0.33751385  1
  O2-  O443  1  0.31896437  0.49871057  0.68176939  1
  O2-  O444  1  0.63382682  0.00104496  0.04324657  1
  O2-  O445  1  0.65963282  -0.00281152  0.34535683  1
  O2-  O446  1  0.70096155  0.00270130  0.63399292  1
  O2-  O447  1  0.66931263  0.47264537  -0.00308455  1
  O2-  O448  1  0.68303873  0.49492969  0.31031838  1
  O2-  O449  1  0.66688463  0.49725764  0.65911914  1
  O2-  O450  1  0.16986158  0.00366558  -0.00423135  1
  O2-  O451  1  0.17225818  0.01284119  0.32941930  1
  O2-  O452  1  0.16611533  0.00868399  0.66101373  1
  O2-  O453  1  0.18118670  0.49545026  0.02718368  1
  O2-  O454  1  0.16512690  0.51763831  0.32869546  1
  O2-  O455  1  0.16145055  0.50258589  0.66232109  1
  O2-  O456  1  0.48526694  0.01794026  -0.02018228  1
  O2-  O457  1  0.49903022  0.01508389  0.33121585  1
  O2-  O458  1  0.49527084  0.00927511  0.66645590  1
  O2-  O459  1  0.50602719  0.48387505  0.01126157  1
  O2-  O460  1  0.50084611  0.51825601  0.34076141  1
  O2-  O461  1  0.50934405  0.49977223  0.67515595  1
  O2-  O462  1  0.85418217  -0.00914793  0.03032656  1
  O2-  O463  1  0.85793372  -0.00639845  0.36876083  1
  O2-  O464  1  0.86495392  -0.00599160  0.70331201  1
  O2-  O465  1  0.82137385  0.49963252  -0.03268574  1
  O2-  O466  1  0.83427152  0.48994950  0.33485862  1
  O2-  O467  1  0.82843317  0.48495554  0.65914003  1
  O2-  O468  1  0.92264137  0.74788895  0.27777441  1
  O2-  O469  1  0.42058736  0.25237203  0.05657046  1
  O2-  O470  1  0.75596822  0.25313020  0.40116485  1
  O2-  O471  1  0.07580605  0.74866160  0.39614970  1
  O2-  O472  1  0.42035557  0.75413833  0.73847996  1
  O2-  O473  1  0.58586138  0.24622007  0.95266610  1
  O2-  O474  1  0.91453680  0.25011548  0.27265875  1
  O2-  O475  1  0.75473994  0.75193617  0.40570078  1
  O2-  O476  1  0.57343657  0.74847119  0.93664771  1
  O2-  O477  1  0.07289253  0.25221784  0.07336573  1
  O2-  O478  1  0.25398087  0.75253395  0.93071502  1
  O2-  O479  1  0.92230761  0.75109169  0.59819372  1
  O2-  O480  1  0.75199237  0.24917255  0.05786767  1
  O2-  O481  1  0.07792545  0.75158553  0.06343171  1
  O2-  O482  1  0.91149060  0.24961330  0.94155348  1
  O2-  O483  1  0.92538811  0.75061747  0.92746785  1
  O2-  O484  1  0.41917103  0.74841355  0.05142371  1
  O2-  O485  1  0.74406237  0.74778590  0.72561842  1
  O2-  O486  1  0.91775358  0.24969651  0.60685933  1
  O2-  O487  1  0.24642653  0.74818879  0.59554329  1
  O2-  O488  1  0.25367108  0.25254179  0.60456366  1
  O2-  O489  1  0.41594129  0.24925923  0.40851417  1
  O2-  O490  1  0.58560417  0.75174104  0.59763685  1
  O2-  O491  1  0.40699769  0.74582622  0.39786254  1
  O2-  O492  1  0.58717788  0.25279128  0.58289085  1
