# generated using pymatgen
data_Ca108Mn108O277
_symmetry_space_group_name_H-M   'P 1'
_cell_length_a   16.02707471
_cell_length_b   22.30731940
_cell_length_c   16.39051454
_cell_angle_alpha   89.99652585
_cell_angle_beta   90.00421273
_cell_angle_gamma   90.00010921
_symmetry_Int_Tables_number   1
_chemical_formula_structural   Ca108Mn108O277
_chemical_formula_sum   'Ca108 Mn108 O277'
_cell_volume   5859.95434490
_cell_formula_units_Z   1
loop_
 _symmetry_equiv_pos_site_id
 _symmetry_equiv_pos_as_xyz
  1  'x, y, z'
loop_
 _atom_type_symbol
 _atom_type_oxidation_number
  Ca2+  2.0
  Mn3.34+  3.34
  O2-  -2.0
loop_
 _atom_site_type_symbol
 _atom_site_label
 _atom_site_symmetry_multiplicity
 _atom_site_fract_x
 _atom_site_fract_y
 _atom_site_fract_z
 _atom_site_occupancy
  Ca2+  Ca0  1  0.11492886  0.24507744  0.26495926  1
  Ca2+  Ca1  1  0.09618406  0.25427209  0.59905171  1
  Ca2+  Ca2  1  0.10203826  0.25512301  0.89582562  1
  Ca2+  Ca3  1  0.09976377  0.75535714  0.24485957  1
  Ca2+  Ca4  1  0.08823058  0.72801478  0.58538068  1
  Ca2+  Ca5  1  0.08471823  0.74428203  0.92371428  1
  Ca2+  Ca6  1  0.39695009  0.23383873  0.25937874  1
  Ca2+  Ca7  1  0.41730004  0.25799265  0.58484492  1
  Ca2+  Ca8  1  0.40242058  0.25257075  0.90739871  1
  Ca2+  Ca9  1  0.40255137  0.75515865  0.24205292  1
  Ca2+  Ca10  1  0.40948012  0.75264775  0.58109206  1
  Ca2+  Ca11  1  0.40911306  0.74141679  0.93006382  1
  Ca2+  Ca12  1  0.73611927  0.25774283  0.24870572  1
  Ca2+  Ca13  1  0.73075872  0.25998478  0.58311470  1
  Ca2+  Ca14  1  0.75114227  0.26108844  0.90730472  1
  Ca2+  Ca15  1  0.75397707  0.75829622  0.27067502  1
  Ca2+  Ca16  1  0.74769053  0.73207931  0.58650857  1
  Ca2+  Ca17  1  0.76461396  0.75150565  0.89544840  1
  Ca2+  Ca18  1  0.25942177  0.25495424  0.08692291  1
  Ca2+  Ca19  1  0.26125017  0.23831514  0.40199148  1
  Ca2+  Ca20  1  0.25505191  0.25843400  0.75848200  1
  Ca2+  Ca21  1  0.26114406  0.74342368  0.08759773  1
  Ca2+  Ca22  1  0.25638639  0.74896172  0.42461984  1
  Ca2+  Ca23  1  0.25256478  0.74400655  0.73558118  1
  Ca2+  Ca24  1  0.56763884  0.25054810  0.09149348  1
  Ca2+  Ca25  1  0.54381788  0.23239162  0.41015068  1
  Ca2+  Ca26  1  0.54671141  0.24531975  0.73853803  1
  Ca2+  Ca27  1  0.56308687  0.75754234  0.07573130  1
  Ca2+  Ca28  1  0.59216439  0.75951483  0.44014989  1
  Ca2+  Ca29  1  0.59988015  0.74430991  0.74196805  1
  Ca2+  Ca30  1  0.92784882  0.26743656  0.08516460  1
  Ca2+  Ca31  1  0.91811162  0.26919211  0.41012103  1
  Ca2+  Ca32  1  0.95016376  0.25669666  0.75387053  1
  Ca2+  Ca33  1  0.93283567  0.74589247  0.07228594  1
  Ca2+  Ca34  1  0.89914896  0.73553355  0.44085162  1
  Ca2+  Ca35  1  0.90238202  0.73937379  0.74002489  1
  Ca2+  Ca36  1  0.40769983  0.60983187  0.58782223  1
  Ca2+  Ca37  1  0.91395157  0.60045043  0.72454269  1
  Ca2+  Ca38  1  0.09737665  0.08560352  0.91475037  1
  Ca2+  Ca39  1  0.40194746  0.09540960  0.26396295  1
  Ca2+  Ca40  1  0.08727072  0.08133142  0.59763390  1
  Ca2+  Ca41  1  0.54963363  0.59861158  0.06827143  1
  Ca2+  Ca42  1  0.42044951  0.09689964  0.56668674  1
  Ca2+  Ca43  1  0.11121206  0.10231357  0.27179707  1
  Ca2+  Ca44  1  0.55970967  0.07071575  0.07971027  1
  Ca2+  Ca45  1  0.08645069  0.59208193  0.26080421  1
  Ca2+  Ca46  1  0.40581966  0.60411781  0.24702838  1
  Ca2+  Ca47  1  0.91358501  0.07352788  0.07494907  1
  Ca2+  Ca48  1  0.53774440  0.59810745  0.07232072  1
  Ca2+  Ca49  1  0.75972535  0.60983054  0.89586545  1
  Ca2+  Ca50  1  0.24045210  0.60921461  0.43258490  1
  Ca2+  Ca51  1  0.41260156  0.07814345  0.93124718  1
  Ca2+  Ca52  1  0.59254238  0.60723789  0.43496010  1
  Ca2+  Ca53  1  0.25111942  0.10106568  0.75996373  1
  Ca2+  Ca54  1  0.24528807  0.60103076  0.74481036  1
  Ca2+  Ca55  1  0.92667592  0.07341728  0.07575520  1
  Ca2+  Ca56  1  0.28404818  0.59854288  0.07594952  1
  Ca2+  Ca57  1  0.27510408  0.08542978  0.08193923  1
  Ca2+  Ca58  1  0.95451013  0.08330009  0.41882146  1
  Ca2+  Ca59  1  0.75947919  0.59544694  0.27093912  1
  Ca2+  Ca60  1  0.74318394  0.07793437  0.59330054  1
  Ca2+  Ca61  1  0.56454456  0.08884544  0.74365484  1
  Ca2+  Ca62  1  0.60489488  0.60606520  0.43667208  1
  Ca2+  Ca63  1  0.23948121  0.10075460  0.40792348  1
  Ca2+  Ca64  1  0.24107367  0.10338069  0.76298602  1
  Ca2+  Ca65  1  0.43199940  0.09969046  0.57118095  1
  Ca2+  Ca66  1  0.95378303  0.09021822  0.74381834  1
  Ca2+  Ca67  1  0.74998574  0.60702061  0.89808919  1
  Ca2+  Ca68  1  0.73354704  0.08964467  0.24288280  1
  Ca2+  Ca69  1  0.96585605  0.08469436  0.42286525  1
  Ca2+  Ca70  1  0.54945135  0.07125899  0.07821701  1
  Ca2+  Ca71  1  0.73435351  0.07215530  0.93141337  1
  Ca2+  Ca72  1  0.06620874  0.42150719  0.59743216  1
  Ca2+  Ca73  1  0.57328074  0.40721616  0.41972885  1
  Ca2+  Ca74  1  0.26777678  0.41754865  0.06498114  1
  Ca2+  Ca75  1  0.76850042  0.41048598  0.58297945  1
  Ca2+  Ca76  1  0.08886378  0.91346447  0.94107826  1
  Ca2+  Ca77  1  0.07359267  0.41855487  0.60358736  1
  Ca2+  Ca78  1  0.08785373  0.89800924  0.57675805  1
  Ca2+  Ca79  1  0.57566759  0.40552844  0.74347894  1
  Ca2+  Ca80  1  0.92339303  0.41184153  0.08457137  1
  Ca2+  Ca81  1  0.42359885  0.92316440  0.95052583  1
  Ca2+  Ca82  1  0.57695317  0.41143249  0.07793231  1
  Ca2+  Ca83  1  0.91411838  0.90536912  0.75216278  1
  Ca2+  Ca84  1  0.93460857  0.90074167  0.08052913  1
  Ca2+  Ca85  1  0.75313333  0.41414103  0.91830375  1
  Ca2+  Ca86  1  0.74051465  0.89974003  0.57911305  1
  Ca2+  Ca87  1  0.75828561  0.41316388  0.58607005  1
  Ca2+  Ca88  1  0.92559247  0.90527582  0.75225101  1
  Ca2+  Ca89  1  0.25067194  0.90072022  0.08061797  1
  Ca2+  Ca90  1  0.58608168  0.40788368  0.41959820  1
  Ca2+  Ca91  1  0.07254274  0.40861644  0.25701683  1
  Ca2+  Ca92  1  0.25384607  0.89616268  0.42561569  1
  Ca2+  Ca93  1  0.92557463  0.89496144  0.42254807  1
  Ca2+  Ca94  1  0.25125707  0.89184141  0.75107518  1
  Ca2+  Ca95  1  0.75984226  0.41008359  0.24944952  1
  Ca2+  Ca96  1  0.73113275  0.90417915  0.92612501  1
  Ca2+  Ca97  1  0.56596062  0.91917972  0.07038913  1
  Ca2+  Ca98  1  0.08366343  0.40717842  0.25696214  1
  Ca2+  Ca99  1  0.91362014  0.89434674  0.42392638  1
  Ca2+  Ca100  1  0.92880586  0.41456527  0.75176408  1
  Ca2+  Ca101  1  0.74210341  0.89989028  0.92803837  1
  Ca2+  Ca102  1  0.41912181  0.41183613  0.59383766  1
  Ca2+  Ca103  1  0.41330129  0.40227740  0.24368477  1
  Ca2+  Ca104  1  0.76574928  0.41378917  0.91877548  1
  Ca2+  Ca105  1  0.56434598  0.41187733  0.07702068  1
  Ca2+  Ca106  1  0.23837637  0.40641018  0.41578279  1
  Ca2+  Ca107  1  0.42598034  0.90432359  0.24035768  1
  Mn3.34+  Mn108  1  0.09035037  0.34021135  0.08011790  1
  Mn3.34+  Mn109  1  0.08545112  0.33802335  0.42839888  1
  Mn3.34+  Mn110  1  0.09468010  0.34067653  0.75479570  1
  Mn3.34+  Mn111  1  0.08834908  0.83210942  0.08644974  1
  Mn3.34+  Mn112  1  0.08488939  0.83263388  0.41693173  1
  Mn3.34+  Mn113  1  0.08468213  0.82540235  0.75312066  1
  Mn3.34+  Mn114  1  0.41447816  0.33312529  0.08155822  1
  Mn3.34+  Mn115  1  0.41147481  0.33453784  0.41740399  1
  Mn3.34+  Mn116  1  0.40863523  0.33696604  0.75220176  1
  Mn3.34+  Mn117  1  0.41526747  0.83291218  0.08455659  1
  Mn3.34+  Mn118  1  0.42220908  0.83287352  0.41641672  1
  Mn3.34+  Mn119  1  0.42037191  0.82827103  0.75604437  1
  Mn3.34+  Mn120  1  0.74844007  0.33672516  0.08557194  1
  Mn3.34+  Mn121  1  0.75224216  0.33468158  0.41446614  1
  Mn3.34+  Mn122  1  0.75280413  0.33633792  0.75089599  1
  Mn3.34+  Mn123  1  0.74715171  0.82589853  0.09195774  1
  Mn3.34+  Mn124  1  0.74492663  0.83006394  0.41935892  1
  Mn3.34+  Mn125  1  0.74426895  0.83297097  0.74735858  1
  Mn3.34+  Mn126  1  0.25321194  0.33369972  0.24731804  1
  Mn3.34+  Mn127  1  0.25184534  0.33605449  0.58226793  1
  Mn3.34+  Mn128  1  0.25303435  0.34334710  0.91557893  1
  Mn3.34+  Mn129  1  0.24968679  0.83318647  0.25068934  1
  Mn3.34+  Mn130  1  0.25263184  0.82770456  0.58356107  1
  Mn3.34+  Mn131  1  0.25258901  0.82971936  0.91264441  1
  Mn3.34+  Mn132  1  0.58091595  0.33041466  0.24906631  1
  Mn3.34+  Mn133  1  0.58076515  0.33426437  0.58271669  1
  Mn3.34+  Mn134  1  0.57633152  0.33189250  0.91044842  1
  Mn3.34+  Mn135  1  0.58793359  0.83990366  0.25007840  1
  Mn3.34+  Mn136  1  0.57462356  0.83643618  0.58863993  1
  Mn3.34+  Mn137  1  0.57576484  0.83487326  0.90902897  1
  Mn3.34+  Mn138  1  0.91515342  0.33717138  0.25018776  1
  Mn3.34+  Mn139  1  0.91944376  0.33201106  0.57802658  1
  Mn3.34+  Mn140  1  0.92743997  0.33910256  0.91557626  1
  Mn3.34+  Mn141  1  0.91841492  0.82640278  0.24609005  1
  Mn3.34+  Mn142  1  0.91717279  0.82601016  0.58480327  1
  Mn3.34+  Mn143  1  0.92075417  0.82932304  0.91528075  1
  Mn3.34+  Mn144  1  0.57995600  0.68400972  0.24879355  1
  Mn3.34+  Mn145  1  0.58491646  0.66984238  0.59611137  1
  Mn3.34+  Mn146  1  0.24847760  0.65924846  0.91115092  1
  Mn3.34+  Mn147  1  0.92398868  0.67419464  0.24581490  1
  Mn3.34+  Mn148  1  0.08951629  0.66374074  0.07877323  1
  Mn3.34+  Mn149  1  0.91183297  0.16401725  0.91225565  1
  Mn3.34+  Mn150  1  0.57546602  0.16689686  0.91540624  1
  Mn3.34+  Mn151  1  0.59312519  0.67783330  0.24720499  1
  Mn3.34+  Mn152  1  0.09359545  0.15882482  0.08758040  1
  Mn3.34+  Mn153  1  0.75498323  0.16101174  0.74920278  1
  Mn3.34+  Mn154  1  0.24189156  0.16412530  0.57864193  1
  Mn3.34+  Mn155  1  0.74417338  0.16594784  0.74727022  1
  Mn3.34+  Mn156  1  0.90581410  0.16647601  0.24946941  1
  Mn3.34+  Mn157  1  0.08438523  0.16474249  0.08467062  1
  Mn3.34+  Mn158  1  0.08322411  0.65780556  0.75801252  1
  Mn3.34+  Mn159  1  0.57710721  0.16518139  0.24753369  1
  Mn3.34+  Mn160  1  0.92603284  0.17057088  0.91463861  1
  Mn3.34+  Mn161  1  0.74959734  0.16393999  0.41926960  1
  Mn3.34+  Mn162  1  0.91582319  0.66784439  0.24553994  1
  Mn3.34+  Mn163  1  0.92475719  0.17300535  0.57774852  1
  Mn3.34+  Mn164  1  0.73516564  0.15770953  0.41950581  1
  Mn3.34+  Mn165  1  0.58024032  0.67702703  0.91074584  1
  Mn3.34+  Mn166  1  0.75007818  0.66470821  0.08581550  1
  Mn3.34+  Mn167  1  0.91297915  0.17874979  0.58008065  1
  Mn3.34+  Mn168  1  0.41130536  0.16751647  0.08814130  1
  Mn3.34+  Mn169  1  0.92701820  0.66602181  0.91463483  1
  Mn3.34+  Mn170  1  0.58563616  0.16181742  0.91349267  1
  Mn3.34+  Mn171  1  0.41930476  0.66195680  0.76065917  1
  Mn3.34+  Mn172  1  0.25169688  0.16940767  0.58068979  1
  Mn3.34+  Mn173  1  0.58107792  0.16672894  0.58180350  1
  Mn3.34+  Mn174  1  0.41461588  0.66927289  0.41887187  1
  Mn3.34+  Mn175  1  0.74637981  0.16671553  0.08470729  1
  Mn3.34+  Mn176  1  0.91724146  0.17083901  0.24962203  1
  Mn3.34+  Mn177  1  0.07811275  0.65881462  0.42106933  1
  Mn3.34+  Mn178  1  0.24749201  0.66976420  0.24888700  1
  Mn3.34+  Mn179  1  0.25478313  0.16964807  0.91833888  1
  Mn3.34+  Mn180  1  0.41486956  -0.00676038  0.74716763  1
  Mn3.34+  Mn181  1  0.93211783  0.50727242  0.92509437  1
  Mn3.34+  Mn182  1  0.58323570  -0.00125183  0.26694523  1
  Mn3.34+  Mn183  1  0.25093354  -0.00356556  0.57892093  1
  Mn3.34+  Mn184  1  0.58117264  -0.00145507  0.57556875  1
  Mn3.34+  Mn185  1  0.55813313  0.50071639  0.90823041  1
  Mn3.34+  Mn186  1  0.08250235  0.50778534  0.07269008  1
  Mn3.34+  Mn187  1  0.74851263  -0.00490883  0.09048344  1
  Mn3.34+  Mn188  1  0.73675876  -0.00325533  0.74588873  1
  Mn3.34+  Mn189  1  0.24816134  -0.00322346  0.92553410  1
  Mn3.34+  Mn190  1  0.42429885  -0.00696830  0.40526572  1
  Mn3.34+  Mn191  1  0.41658123  0.49965509  0.75442167  1
  Mn3.34+  Mn192  1  0.76412070  0.50346833  0.41066410  1
  Mn3.34+  Mn193  1  0.91742169  0.50244315  0.26935590  1
  Mn3.34+  Mn194  1  0.92067487  -0.00100718  0.91477466  1
  Mn3.34+  Mn195  1  0.76084214  0.50881954  0.07808302  1
  Mn3.34+  Mn196  1  0.09473723  -0.00621451  0.74951059  1
  Mn3.34+  Mn197  1  0.42370150  -0.01249936  0.74437058  1
  Mn3.34+  Mn198  1  0.74229638  0.50536192  0.73563771  1
  Mn3.34+  Mn199  1  0.22892852  -0.00830011  0.26250531  1
  Mn3.34+  Mn200  1  0.73541982  -0.00365854  0.41128371  1
  Mn3.34+  Mn201  1  0.57011865  0.50434595  0.90533733  1
  Mn3.34+  Mn202  1  0.92524663  -0.00425565  0.25455989  1
  Mn3.34+  Mn203  1  0.57307653  0.50255659  0.24717122  1
  Mn3.34+  Mn204  1  0.91516521  -0.00951754  0.25812172  1
  Mn3.34+  Mn205  1  0.24015214  0.50818541  0.58756080  1
  Mn3.34+  Mn206  1  0.25911901  0.50390834  0.93349003  1
  Mn3.34+  Mn207  1  0.25267947  0.50182083  0.58918730  1
  Mn3.34+  Mn208  1  0.24254884  -0.00380511  0.25908977  1
  Mn3.34+  Mn209  1  0.24536305  0.50277514  0.24933526  1
  Mn3.34+  Mn210  1  0.41258302  0.50259232  0.42170027  1
  Mn3.34+  Mn211  1  0.91452125  0.50710836  0.58761475  1
  Mn3.34+  Mn212  1  0.91665977  -0.00122421  0.58822313  1
  Mn3.34+  Mn213  1  0.25628663  0.49850839  0.24718770  1
  Mn3.34+  Mn214  1  0.58088764  0.50457116  0.59399074  1
  Mn3.34+  Mn215  1  0.58836479  0.50746336  0.25002074  1
  O2-  O216  1  0.00593326  0.13992907  0.00008339  1
  O2-  O217  1  0.00103349  0.15189763  0.32909342  1
  O2-  O218  1  0.00307611  0.16673395  0.65989047  1
  O2-  O219  1  0.00045395  0.66158316  0.00351203  1
  O2-  O220  1  0.00265254  0.67923153  0.32896695  1
  O2-  O221  1  0.00495214  0.67706837  0.68598583  1
  O2-  O222  1  0.33928400  0.15278478  -0.00231441  1
  O2-  O223  1  0.32474141  0.15794436  0.33455908  1
  O2-  O224  1  0.33128830  0.14045623  0.65851673  1
  O2-  O225  1  0.32333529  0.67227886  -0.00774170  1
  O2-  O226  1  0.32736066  0.65331460  0.33829231  1
  O2-  O227  1  0.34022219  0.66922397  0.68161013  1
  O2-  O228  1  0.66213117  0.14691907  -0.00057558  1
  O2-  O229  1  0.66606344  0.15267608  0.32602026  1
  O2-  O230  1  0.66368387  0.14418670  0.66498045  1
  O2-  O231  1  0.66320720  0.66368247  0.00539572  1
  O2-  O232  1  0.66592439  0.67194671  0.33151149  1
  O2-  O233  1  0.66170501  0.66433617  0.66833191  1
  O2-  O234  1  0.17503972  0.14466986  0.00409162  1
  O2-  O235  1  0.16633119  0.17274755  0.34375649  1
  O2-  O236  1  0.16822151  0.15083204  0.66458569  1
  O2-  O237  1  0.17245551  0.66331299  0.00157831  1
  O2-  O238  1  0.15951969  0.66730063  0.32805615  1
  O2-  O239  1  0.16100560  0.67301668  0.68383917  1
  O2-  O240  1  0.49963467  0.14785196  0.00378737  1
  O2-  O241  1  0.49406307  0.15987831  0.32000344  1
  O2-  O242  1  0.50152547  0.15390452  0.66199679  1
  O2-  O243  1  0.50415706  0.67553107  -0.00359956  1
  O2-  O244  1  0.50538731  0.65500977  0.33213853  1
  O2-  O245  1  0.49223729  0.67127403  0.66819915  1
  O2-  O246  1  0.83715650  0.15215741  0.00199429  1
  O2-  O247  1  0.83263469  0.13731762  0.34027716  1
  O2-  O248  1  0.83803347  0.14914564  0.66115386  1
  O2-  O249  1  0.82612781  0.66135898  -0.00502262  1
  O2-  O250  1  0.83553062  0.67585325  0.32454497  1
  O2-  O251  1  0.83210114  0.66738448  0.65702900  1
  O2-  O252  1  -0.00390550  0.34609689  0.00789742  1
  O2-  O253  1  0.00652609  0.33981848  0.33954216  1
  O2-  O254  1  -0.00182459  0.33442053  0.66229541  1
  O2-  O255  1  0.00244225  0.83811171  -0.00390749  1
  O2-  O256  1  -0.00305415  0.82133349  0.33768349  1
  O2-  O257  1  -0.00081665  0.84065047  0.66885369  1
  O2-  O258  1  0.33505902  0.34148214  0.00122226  1
  O2-  O259  1  0.32973891  0.35443749  0.33467048  1
  O2-  O260  1  0.33267426  0.35212759  0.66524217  1
  O2-  O261  1  0.33461508  0.84329166  -0.00350433  1
  O2-  O262  1  0.33420628  0.84826436  0.32755543  1
  O2-  O263  1  0.33188543  0.83218227  0.67261604  1
  O2-  O264  1  0.66671895  0.35095378  -0.00183382  1
  O2-  O265  1  0.66613879  0.35373536  0.32927799  1
  O2-  O266  1  0.67299144  0.35178984  0.66176848  1
  O2-  O267  1  0.66792825  0.81532243  -0.00345641  1
  O2-  O268  1  0.66301237  0.82128565  0.33620182  1
  O2-  O269  1  0.66509667  0.84300431  0.66873775  1
  O2-  O270  1  0.17714162  0.34303264  0.00625619  1
  O2-  O271  1  0.16322063  0.34292140  0.33254962  1
  O2-  O272  1  0.15799757  0.34869468  0.65059071  1
  O2-  O273  1  0.17023932  0.83528042  -0.00277191  1
  O2-  O274  1  0.17029261  0.83143992  0.33843054  1
  O2-  O275  1  0.16507314  0.83607142  0.66893905  1
  O2-  O276  1  0.50552636  0.34214774  0.00467315  1
  O2-  O277  1  0.49892792  0.35060913  0.33326113  1
  O2-  O278  1  0.49828908  0.34243902  0.66414306  1
  O2-  O279  1  0.50169671  0.83779836  -0.00031704  1
  O2-  O280  1  0.49841311  0.83190799  0.32519428  1
  O2-  O281  1  0.49631256  0.81888630  0.67192932  1
  O2-  O282  1  0.82999671  0.34418371  -0.00135063  1
  O2-  O283  1  0.83045460  0.34233679  0.33093598  1
  O2-  O284  1  0.83776758  0.34651682  0.66483738  1
  O2-  O285  1  0.83278071  0.84328136  -0.00212202  1
  O2-  O286  1  0.83850915  0.83429950  0.33533758  1
  O2-  O287  1  0.83434391  0.85300615  0.66883078  1
  O2-  O288  1  -0.01613041  0.17922583  0.14857151  1
  O2-  O289  1  -0.00945539  0.18857652  0.48879877  1
  O2-  O290  1  0.00194912  0.17593364  0.83087770  1
  O2-  O291  1  0.00536310  0.67879985  0.16844484  1
  O2-  O292  1  0.00440064  0.68139040  0.48973922  1
  O2-  O293  1  0.00538120  0.68579596  0.83732754  1
  O2-  O294  1  0.33135217  0.17630428  0.15950648  1
  O2-  O295  1  0.33452673  0.17521811  0.50446694  1
  O2-  O296  1  0.32478837  0.17467832  0.83127386  1
  O2-  O297  1  0.33095290  0.67293867  0.17323098  1
  O2-  O298  1  0.33893561  0.67598700  0.49621700  1
  O2-  O299  1  0.33136401  0.68320893  0.83254064  1
  O2-  O300  1  0.66384189  0.18237758  0.16399746  1
  O2-  O301  1  0.66818168  0.18331283  0.50720419  1
  O2-  O302  1  0.67239189  0.18739088  0.84010346  1
  O2-  O303  1  0.66924417  0.69557361  0.16680702  1
  O2-  O304  1  0.65773185  0.67361010  0.50515839  1
  O2-  O305  1  0.67325285  0.68330614  0.84665082  1
  O2-  O306  1  0.16511185  0.17467487  0.17251967  1
  O2-  O307  1  0.16386805  0.18582934  0.50448714  1
  O2-  O308  1  0.17131316  0.17089704  0.84138585  1
  O2-  O309  1  0.16801087  0.68241715  0.16675756  1
  O2-  O310  1  0.16157385  0.68419220  0.48225858  1
  O2-  O311  1  0.16714391  0.68526498  0.83456412  1
  O2-  O312  1  0.50190339  0.17725623  0.16017625  1
  O2-  O313  1  0.49314422  0.17910932  0.51371431  1
  O2-  O314  1  0.50036644  0.17815697  0.83250725  1
  O2-  O315  1  0.50298554  0.68261548  0.16623648  1
  O2-  O316  1  0.50155378  0.68039838  0.49525094  1
  O2-  O317  1  0.50131418  0.69442180  0.83029608  1
  O2-  O318  1  0.82546987  0.19139753  0.16886147  1
  O2-  O319  1  0.83173452  0.19003979  0.50084792  1
  O2-  O320  1  0.83587058  0.19112453  0.82799519  1
  O2-  O321  1  0.83588492  0.68479084  0.16428624  1
  O2-  O322  1  0.82970878  0.66525641  0.51390397  1
  O2-  O323  1  0.84172541  0.67623233  0.83650100  1
  O2-  O324  1  0.00250850  0.33301991  0.16906737  1
  O2-  O325  1  0.00590822  0.30841197  0.50515428  1
  O2-  O326  1  0.00555878  0.32668718  0.83350335  1
  O2-  O327  1  0.00007408  0.81407248  0.16409481  1
  O2-  O328  1  -0.00161352  0.81428158  0.49826950  1
  O2-  O329  1  -0.00856637  0.81707456  0.82343310  1
  O2-  O330  1  0.33573670  0.32330049  0.16554238  1
  O2-  O331  1  0.33810828  0.32759200  0.50500231  1
  O2-  O332  1  0.33342375  0.32311776  0.83617836  1
  O2-  O333  1  0.33188902  0.82742293  0.16649925  1
  O2-  O334  1  0.32922344  0.82323424  0.49377882  1
  O2-  O335  1  0.32983132  0.80735040  0.83164800  1
  O2-  O336  1  0.66087073  0.31843519  0.15888511  1
  O2-  O337  1  0.66823089  0.33357202  0.50008137  1
  O2-  O338  1  0.67225971  0.32929153  0.83933381  1
  O2-  O339  1  0.66359041  0.80832968  0.17008041  1
  O2-  O340  1  0.67196030  0.82858380  0.50612873  1
  O2-  O341  1  0.67165657  0.82284069  0.84039476  1
  O2-  O342  1  0.16150838  0.32400895  0.17515464  1
  O2-  O343  1  0.17440703  0.31223372  0.49327392  1
  O2-  O344  1  0.17498543  0.32933003  0.83366978  1
  O2-  O345  1  0.17462219  0.82119580  0.16185199  1
  O2-  O346  1  0.16389399  0.82170205  0.49951099  1
  O2-  O347  1  0.16659027  0.81176531  0.83297782  1
  O2-  O348  1  0.49880623  0.32230562  0.16669300  1
  O2-  O349  1  0.50507519  0.32088321  0.49199626  1
  O2-  O350  1  0.50149478  0.31546956  0.82752321  1
  O2-  O351  1  0.49925294  0.82095184  0.16829834  1
  O2-  O352  1  0.49615409  0.81999884  0.50224222  1
  O2-  O353  1  0.49950070  0.80743534  0.83781567  1
  O2-  O354  1  0.83037827  0.32002549  0.16360991  1
  O2-  O355  1  0.82924482  0.31724953  0.50670139  1
  O2-  O356  1  0.83602181  0.32499080  0.83500052  1
  O2-  O357  1  0.83699740  0.80489120  0.16334357  1
  O2-  O358  1  0.83896210  0.82895523  0.49937322  1
  O2-  O359  1  0.83594286  0.82930823  0.83289001  1
  O2-  O360  1  0.06433485  0.08105252  0.12612684  1
  O2-  O361  1  0.07753401  0.06939896  0.47109511  1
  O2-  O362  1  0.10224335  0.07356651  0.78028362  1
  O2-  O363  1  0.09599738  0.58246524  0.11649882  1
  O2-  O364  1  0.09408041  0.58292271  0.41853524  1
  O2-  O365  1  0.08429426  0.58422861  0.76724961  1
  O2-  O366  1  0.41843879  0.08303760  0.11426103  1
  O2-  O367  1  0.40296561  0.06677470  0.44530170  1
  O2-  O368  1  0.41378780  0.06958451  0.79621226  1
  O2-  O369  1  0.43578741  0.56443701  0.13461487  1
  O2-  O370  1  0.43557019  0.58458433  0.44437548  1
  O2-  O371  1  0.40508136  0.58081365  0.77411951  1
  O2-  O372  1  0.77707137  0.07633701  0.11477173  1
  O2-  O373  1  0.75048128  0.07848200  0.46056180  1
  O2-  O374  1  0.74499205  0.07940088  0.79238372  1
  O2-  O375  1  0.72336566  0.58204597  0.12752616  1
  O2-  O376  1  0.73117229  0.58126835  0.41258220  1
  O2-  O377  1  0.77543518  0.57608768  0.77298674  1
  O2-  O378  1  0.24927193  0.06805283  0.21441780  1
  O2-  O379  1  0.24514496  0.07945580  0.54395161  1
  O2-  O380  1  0.25442089  0.07677302  0.89329913  1
  O2-  O381  1  0.24327647  0.58434351  0.22413406  1
  O2-  O382  1  0.26314143  0.58583354  0.56484399  1
  O2-  O383  1  0.24937271  0.57174570  0.87999794  1
  O2-  O384  1  0.58842575  0.07775632  0.21334058  1
  O2-  O385  1  0.57530161  0.08159199  0.54794062  1
  O2-  O386  1  0.58484530  0.08006786  0.88299214  1
  O2-  O387  1  0.58852013  0.58928330  0.22071050  1
  O2-  O388  1  0.56949118  0.58512453  0.56556524  1
  O2-  O389  1  0.58824906  0.58647102  0.90659423  1
  O2-  O390  1  0.90590182  0.07604078  0.21048097  1
  O2-  O391  1  0.91293199  0.08338478  0.55099341  1
  O2-  O392  1  0.91662527  0.08097767  0.87763300  1
  O2-  O393  1  0.91138547  0.58342607  0.23416302  1
  O2-  O394  1  0.91164051  0.58034080  0.57224908  1
  O2-  O395  1  0.90525291  0.58371052  0.88445737  1
  O2-  O396  1  0.08847060  0.43105722  0.12363049  1
  O2-  O397  1  0.09179087  0.41874116  0.46432644  1
  O2-  O398  1  0.06749050  0.41857991  0.74470422  1
  O2-  O399  1  0.08297825  0.91231562  0.08899592  1
  O2-  O400  1  0.06140801  0.91426849  0.43876031  1
  O2-  O401  1  0.06781250  0.91708629  0.78415960  1
  O2-  O402  1  0.42963846  0.41478834  0.10833556  1
  O2-  O403  1  0.43379946  0.42048472  0.45202434  1
  O2-  O404  1  0.43368418  0.42032728  0.77683069  1
  O2-  O405  1  0.41844857  0.91542467  0.09921066  1
  O2-  O406  1  0.40846400  0.91635719  0.43118792  1
  O2-  O407  1  0.40655185  0.91378719  0.79801532  1
  O2-  O408  1  0.73775380  0.42567345  0.11450867  1
  O2-  O409  1  0.74388724  0.42592328  0.45331717  1
  O2-  O410  1  0.75044187  0.42882711  0.78647002  1
  O2-  O411  1  0.72924012  0.91414832  0.07485287  1
  O2-  O412  1  0.77606851  0.91867722  0.44212721  1
  O2-  O413  1  0.76353872  0.92102449  0.79505383  1
  O2-  O414  1  0.25642660  0.41908433  0.20756974  1
  O2-  O415  1  0.24932568  0.42510467  0.54808535  1
  O2-  O416  1  0.25570889  0.42806237  0.90398066  1
  O2-  O417  1  0.25223843  0.91793559  0.21887313  1
  O2-  O418  1  0.23533821  0.91515581  0.56260110  1
  O2-  O419  1  0.24064337  0.92087222  0.88617705  1
  O2-  O420  1  0.58228501  0.42131909  0.21238294  1
  O2-  O421  1  0.57529858  0.42453803  0.55223879  1
  O2-  O422  1  0.57491343  0.41847385  0.88373627  1
  O2-  O423  1  0.57538603  0.92508659  0.21366103  1
  O2-  O424  1  0.59181174  0.91878323  0.56578669  1
  O2-  O425  1  0.59923437  0.91735298  0.91658074  1
  O2-  O426  1  0.91559261  0.42264822  0.22455477  1
  O2-  O427  1  0.91513879  0.42680106  0.54828971  1
  O2-  O428  1  0.90587104  0.42442972  0.88678675  1
  O2-  O429  1  0.90916621  0.91370152  0.21538496  1
  O2-  O430  1  0.93069355  0.91560618  0.55735550  1
  O2-  O431  1  0.92276210  0.91565151  0.89111936  1
  O2-  O432  1  -0.00844407  0.00689436  0.00752351  1
  O2-  O433  1  0.00740297  0.01809082  0.32816641  1
  O2-  O434  1  0.00022117  0.00614413  0.67873547  1
  O2-  O435  1  -0.02114842  0.49381062  0.02959205  1
  O2-  O436  1  0.03046400  0.50062024  0.27741279  1
  O2-  O437  1  -0.01017698  0.49528440  0.66117517  1
  O2-  O438  1  0.33183114  0.00194400  -0.00601446  1
  O2-  O439  1  0.32380986  0.00059450  0.33300515  1
  O2-  O440  1  0.33036070  0.00950521  0.66733254  1
  O2-  O441  1  0.33353246  0.50832777  0.00741310  1
  O2-  O442  1  0.33915874  0.49873753  0.32782597  1
  O2-  O443  1  0.33619988  0.50056895  0.66542787  1
  O2-  O444  1  0.66039532  0.01769427  0.02270010  1
  O2-  O445  1  0.68885262  0.00805877  0.30403731  1
  O2-  O446  1  0.66545330  0.01072422  0.65422733  1
  O2-  O447  1  0.66921707  0.48642506  -0.02270339  1
  O2-  O448  1  0.65325638  0.48540602  0.34607246  1
  O2-  O449  1  0.67423989  0.47524796  0.65399703  1
  O2-  O450  1  0.15786521  0.00367753  -0.01713240  1
  O2-  O451  1  0.16608680  0.01947180  0.34065581  1
  O2-  O452  1  0.16761622  0.00775193  0.66150714  1
  O2-  O453  1  0.18190155  0.50262872  0.01611697  1
  O2-  O454  1  0.17099893  0.47319422  0.32910549  1
  O2-  O455  1  0.14657635  0.49704707  0.64613025  1
  O2-  O456  1  0.49849947  0.00321277  0.00618348  1
  O2-  O457  1  0.47408908  0.00261916  0.29897744  1
  O2-  O458  1  0.49714737  0.01597689  0.66009877  1
  O2-  O459  1  0.52108818  0.50190261  0.02045495  1
  O2-  O460  1  0.50024769  0.49235491  0.33670965  1
  O2-  O461  1  0.49660135  0.49131568  0.66757541  1
  O2-  O462  1  0.82606205  0.00450473  -0.00648528  1
  O2-  O463  1  0.85147045  0.01247568  0.35463221  1
  O2-  O464  1  0.83697130  -0.00264828  0.67959748  1
  O2-  O465  1  0.82089482  0.49871930  -0.02724855  1
  O2-  O466  1  0.80433790  0.50016691  0.29684258  1
  O2-  O467  1  0.83247165  0.48452829  0.66064261  1
  O2-  O468  1  0.59058969  0.75241871  0.59329815  1
  O2-  O469  1  0.59063914  0.24780613  0.94706504  1
  O2-  O470  1  0.91785552  0.25215254  0.94326106  1
  O2-  O471  1  0.09554437  0.25877625  0.73993466  1
  O2-  O472  1  0.74706662  0.24541586  0.38815589  1
  O2-  O473  1  0.25613439  0.24938079  0.61770544  1
  O2-  O474  1  0.75454530  0.75146320  0.42061867  1
  O2-  O475  1  0.58765668  0.24911612  0.27547032  1
  O2-  O476  1  0.92118170  0.25390923  0.27376808  1
  O2-  O477  1  0.08396810  0.74755125  0.06434221  1
  O2-  O478  1  0.58951302  0.24923076  0.60816169  1
  O2-  O479  1  0.25187459  0.75006466  0.59124722  1
  O2-  O480  1  0.41783935  0.24909922  0.05619465  1
  O2-  O481  1  0.75475874  0.75518720  0.73405299  1
  O2-  O482  1  0.40511749  0.25710914  0.72695419  1
  O2-  O483  1  0.40723004  0.25665075  0.39508329  1
  O2-  O484  1  0.25756117  0.75135206  0.26896030  1
  O2-  O485  1  0.41030567  0.74992888  0.38965975  1
  O2-  O486  1  0.24911693  0.25075519  0.93838357  1
  O2-  O487  1  0.40960778  0.75425965  0.07251778  1
  O2-  O488  1  0.91226911  0.74951908  0.93733733  1
  O2-  O489  1  0.74581688  0.24909678  0.72083318  1
  O2-  O490  1  0.25600521  0.25651162  0.26531958  1
  O2-  O491  1  0.08366034  0.24546404  0.05739762  1
  O2-  O492  1  0.90115093  0.74859823  0.59765524  1
