# generated using pymatgen
data_Ca108Mn108O277
_symmetry_space_group_name_H-M   'P 1'
_cell_length_a   16.00215121
_cell_length_b   22.27088271
_cell_length_c   16.36937651
_cell_angle_alpha   90.00051969
_cell_angle_beta   90.00105389
_cell_angle_gamma   90.00047795
_symmetry_Int_Tables_number   1
_chemical_formula_structural   Ca108Mn108O277
_chemical_formula_sum   'Ca108 Mn108 O277'
_cell_volume   5833.75167416
_cell_formula_units_Z   1
loop_
 _symmetry_equiv_pos_site_id
 _symmetry_equiv_pos_as_xyz
  1  'x, y, z'
loop_
 _atom_type_symbol
 _atom_type_oxidation_number
  Ca2+  2.0
  Mn3.34+  3.34
  O2-  -2.0
loop_
 _atom_site_type_symbol
 _atom_site_label
 _atom_site_symmetry_multiplicity
 _atom_site_fract_x
 _atom_site_fract_y
 _atom_site_fract_z
 _atom_site_occupancy
  Ca2+  Ca0  1  0.07421614  0.25871942  0.25644021  1
  Ca2+  Ca1  1  0.09571234  0.25144925  0.59182326  1
  Ca2+  Ca2  1  0.07235197  0.25368676  0.90291774  1
  Ca2+  Ca3  1  0.08369346  0.74781304  0.26889421  1
  Ca2+  Ca4  1  0.08652039  0.73876921  0.58137377  1
  Ca2+  Ca5  1  0.07501604  0.75109616  0.89933710  1
  Ca2+  Ca6  1  0.41237602  0.25482107  0.26341023  1
  Ca2+  Ca7  1  0.40163532  0.25200622  0.57437378  1
  Ca2+  Ca8  1  0.41691857  0.25755413  0.91067126  1
  Ca2+  Ca9  1  0.41319327  0.74630441  0.26600616  1
  Ca2+  Ca10  1  0.40604423  0.75036878  0.56342800  1
  Ca2+  Ca11  1  0.42106657  0.75476904  0.91790865  1
  Ca2+  Ca12  1  0.76137541  0.25120578  0.23171037  1
  Ca2+  Ca13  1  0.75578015  0.25690335  0.58913035  1
  Ca2+  Ca14  1  0.76039418  0.25100379  0.92814346  1
  Ca2+  Ca15  1  0.75315879  0.75170969  0.24970374  1
  Ca2+  Ca16  1  0.76128269  0.75238327  0.58166019  1
  Ca2+  Ca17  1  0.75253498  0.74186090  0.91790077  1
  Ca2+  Ca18  1  0.24870240  0.26106159  0.08339828  1
  Ca2+  Ca19  1  0.25748337  0.25092211  0.42520227  1
  Ca2+  Ca20  1  0.24042191  0.25026611  0.74159353  1
  Ca2+  Ca21  1  0.25480656  0.75587824  0.08839123  1
  Ca2+  Ca22  1  0.24938770  0.74908139  0.41679795  1
  Ca2+  Ca23  1  0.23124596  0.75105334  0.74560965  1
  Ca2+  Ca24  1  0.59904879  0.25680996  0.07977555  1
  Ca2+  Ca25  1  0.56477003  0.24877142  0.41391936  1
  Ca2+  Ca26  1  0.58045966  0.25227167  0.75715488  1
  Ca2+  Ca27  1  0.58491395  0.75136498  0.07959953  1
  Ca2+  Ca28  1  0.56722314  0.74939450  0.40935153  1
  Ca2+  Ca29  1  0.58446121  0.75269591  0.76415451  1
  Ca2+  Ca30  1  0.89943986  0.25380047  0.08055784  1
  Ca2+  Ca31  1  0.92601149  0.25241223  0.40407753  1
  Ca2+  Ca32  1  0.92748423  0.24739962  0.76441692  1
  Ca2+  Ca33  1  0.91133425  0.75617223  0.08027587  1
  Ca2+  Ca34  1  0.93215794  0.74656900  0.41583274  1
  Ca2+  Ca35  1  0.93310428  0.73652444  0.75654651  1
  Ca2+  Ca36  1  0.91950207  0.09575522  0.40362392  1
  Ca2+  Ca37  1  0.07547462  0.09216226  0.25461523  1
  Ca2+  Ca38  1  0.59464406  0.59493645  0.77762079  1
  Ca2+  Ca39  1  0.76361002  0.60055124  0.57534561  1
  Ca2+  Ca40  1  0.40364015  0.59833941  0.25824052  1
  Ca2+  Ca41  1  0.07186194  0.59948358  0.89775370  1
  Ca2+  Ca42  1  0.59906496  0.59569180  0.07283898  1
  Ca2+  Ca43  1  0.73225122  0.08523465  0.59480530  1
  Ca2+  Ca44  1  0.60086175  0.59774438  0.76753928  1
  Ca2+  Ca45  1  0.23618886  0.09442871  0.74391567  1
  Ca2+  Ca46  1  0.26859385  0.09503986  0.42538286  1
  Ca2+  Ca47  1  0.75081563  0.59971046  0.57547772  1
  Ca2+  Ca48  1  0.89961851  0.59050797  0.08394953  1
  Ca2+  Ca49  1  0.25206352  0.59186740  0.10069901  1
  Ca2+  Ca50  1  0.76501796  0.09585493  0.90602683  1
  Ca2+  Ca51  1  0.42282379  0.59334947  0.92463565  1
  Ca2+  Ca52  1  0.09623969  0.09545735  0.59592001  1
  Ca2+  Ca53  1  0.22831112  0.59655581  0.74531967  1
  Ca2+  Ca54  1  0.59286020  0.08879635  0.09188531  1
  Ca2+  Ca55  1  0.57321886  0.60248697  0.41720183  1
  Ca2+  Ca56  1  0.75899298  0.59601991  0.91884571  1
  Ca2+  Ca57  1  0.91359220  0.09550221  0.76681776  1
  Ca2+  Ca58  1  0.91094399  0.59015664  0.08469844  1
  Ca2+  Ca59  1  0.43555901  0.59358334  0.92493622  1
  Ca2+  Ca60  1  0.41099100  0.60062159  0.56070863  1
  Ca2+  Ca61  1  0.41228509  0.09425840  0.56009152  1
  Ca2+  Ca62  1  0.75825915  0.59501647  0.24744003  1
  Ca2+  Ca63  1  0.42034354  0.08310835  0.25281340  1
  Ca2+  Ca64  1  0.24733046  0.59683871  0.41472410  1
  Ca2+  Ca65  1  0.60242783  0.08945726  0.74548819  1
  Ca2+  Ca66  1  0.23788952  0.59921374  0.41795289  1
  Ca2+  Ca67  1  0.89030068  0.09656666  0.08379014  1
  Ca2+  Ca68  1  0.06037225  0.59936957  0.89614736  1
  Ca2+  Ca69  1  0.74421429  0.08535508  0.59276871  1
  Ca2+  Ca70  1  0.06892760  0.09124204  0.89179397  1
  Ca2+  Ca71  1  0.58848408  0.59468647  0.07576533  1
  Ca2+  Ca72  1  0.24311021  0.40427392  0.75260917  1
  Ca2+  Ca73  1  0.58435008  0.40407661  0.41955862  1
  Ca2+  Ca74  1  0.23971641  0.90779685  0.75372836  1
  Ca2+  Ca75  1  0.07723571  0.40569745  0.91230858  1
  Ca2+  Ca76  1  0.74019082  0.90825513  0.58231549  1
  Ca2+  Ca77  1  0.76925663  0.91331811  0.91723262  1
  Ca2+  Ca78  1  0.40680849  0.90830199  0.92530156  1
  Ca2+  Ca79  1  0.24400247  0.41142815  0.41669164  1
  Ca2+  Ca80  1  0.57153478  0.40288488  0.42073730  1
  Ca2+  Ca81  1  0.09487438  0.40865481  0.57640775  1
  Ca2+  Ca82  1  0.08525489  0.90482424  0.58177530  1
  Ca2+  Ca83  1  0.59900485  0.91247880  0.74049865  1
  Ca2+  Ca84  1  0.75225762  0.40384815  0.58145403  1
  Ca2+  Ca85  1  0.75881617  0.91283248  0.91305678  1
  Ca2+  Ca86  1  0.41930350  0.91166779  0.56134121  1
  Ca2+  Ca87  1  0.40429623  0.40539695  0.24861018  1
  Ca2+  Ca88  1  0.93005890  0.91236763  0.76048152  1
  Ca2+  Ca89  1  0.58541299  0.40519893  0.76684753  1
  Ca2+  Ca90  1  0.42828115  0.91551593  0.25137276  1
  Ca2+  Ca91  1  0.07974469  0.91070676  0.90706358  1
  Ca2+  Ca92  1  0.93252561  0.40979126  0.40828174  1
  Ca2+  Ca93  1  0.09651375  0.90445217  0.58206246  1
  Ca2+  Ca94  1  0.07587989  0.90045645  0.24521853  1
  Ca2+  Ca95  1  0.24295667  0.40680495  0.09447295  1
  Ca2+  Ca96  1  0.41854667  0.40361625  0.91758243  1
  Ca2+  Ca97  1  0.58703480  0.91240673  0.74098959  1
  Ca2+  Ca98  1  0.57292248  0.91485218  0.41897089  1
  Ca2+  Ca99  1  0.92069818  0.40495113  0.76356867  1
  Ca2+  Ca100  1  0.75344601  0.90838033  0.23969201  1
  Ca2+  Ca101  1  0.08722703  0.41433208  0.24974790  1
  Ca2+  Ca102  1  0.59791585  0.40564453  0.76918591  1
  Ca2+  Ca103  1  0.41714699  0.91527125  0.25032957  1
  Ca2+  Ca104  1  0.91789730  0.91377042  0.75751071  1
  Ca2+  Ca105  1  0.92097024  0.41029532  0.40974779  1
  Ca2+  Ca106  1  0.25496215  0.90831346  0.08647458  1
  Ca2+  Ca107  1  0.58359766  0.91169840  0.09668915  1
  Mn3.34+  Mn108  1  0.07724158  0.33625032  0.08252926  1
  Mn3.34+  Mn109  1  0.08627016  0.33495836  0.41802780  1
  Mn3.34+  Mn110  1  0.08300639  0.33055949  0.75052399  1
  Mn3.34+  Mn111  1  0.08170074  0.82975932  0.08436186  1
  Mn3.34+  Mn112  1  0.08268741  0.82863149  0.41466602  1
  Mn3.34+  Mn113  1  0.08307023  0.83070472  0.75026783  1
  Mn3.34+  Mn114  1  0.41972528  0.32853210  0.08462046  1
  Mn3.34+  Mn115  1  0.41338308  0.33051759  0.41855623  1
  Mn3.34+  Mn116  1  0.41418173  0.32947301  0.74796354  1
  Mn3.34+  Mn117  1  0.41667623  0.83838631  0.08528506  1
  Mn3.34+  Mn118  1  0.41386326  0.83369107  0.41582170  1
  Mn3.34+  Mn119  1  0.41308096  0.83520100  0.74892574  1
  Mn3.34+  Mn120  1  0.74973649  0.33984374  0.08412573  1
  Mn3.34+  Mn121  1  0.75045318  0.32872673  0.41358715  1
  Mn3.34+  Mn122  1  0.75353285  0.33073665  0.75407429  1
  Mn3.34+  Mn123  1  0.75221304  0.83554506  0.08509230  1
  Mn3.34+  Mn124  1  0.75281750  0.83043174  0.41518724  1
  Mn3.34+  Mn125  1  0.75263749  0.82960208  0.74911608  1
  Mn3.34+  Mn126  1  0.24812317  0.33813463  0.24856398  1
  Mn3.34+  Mn127  1  0.25291925  0.33461427  0.58331592  1
  Mn3.34+  Mn128  1  0.24845674  0.33459691  0.91791691  1
  Mn3.34+  Mn129  1  0.24751433  0.83050987  0.25200057  1
  Mn3.34+  Mn130  1  0.25313685  0.83224012  0.57938664  1
  Mn3.34+  Mn131  1  0.24779426  0.83173616  0.91719762  1
  Mn3.34+  Mn132  1  0.58634257  0.33013880  0.24428168  1
  Mn3.34+  Mn133  1  0.58155705  0.32603592  0.58548478  1
  Mn3.34+  Mn134  1  0.58816827  0.34013891  0.92646506  1
  Mn3.34+  Mn135  1  0.58564274  0.83387949  0.25024553  1
  Mn3.34+  Mn136  1  0.58279297  0.83531799  0.57912127  1
  Mn3.34+  Mn137  1  0.58305373  0.82677229  0.91814123  1
  Mn3.34+  Mn138  1  0.91246317  0.33489953  0.24080834  1
  Mn3.34+  Mn139  1  0.91876832  0.33441845  0.58577487  1
  Mn3.34+  Mn140  1  0.91136945  0.33436105  0.92247120  1
  Mn3.34+  Mn141  1  0.91700054  0.83220515  0.25002253  1
  Mn3.34+  Mn142  1  0.91594834  0.82894412  0.57830518  1
  Mn3.34+  Mn143  1  0.91873331  0.82809673  0.91972183  1
  Mn3.34+  Mn144  1  0.25840590  0.16897854  0.24924557  1
  Mn3.34+  Mn145  1  0.07835335  0.67469611  0.08725467  1
  Mn3.34+  Mn146  1  0.75085225  0.66523164  0.08428308  1
  Mn3.34+  Mn147  1  0.41548307  0.67338918  0.08636141  1
  Mn3.34+  Mn148  1  0.07377554  0.17090138  0.08282786  1
  Mn3.34+  Mn149  1  0.92432958  0.16398355  0.58681111  1
  Mn3.34+  Mn150  1  0.90904863  0.16616548  0.24759111  1
  Mn3.34+  Mn151  1  0.58191108  0.66993743  0.25306751  1
  Mn3.34+  Mn152  1  0.57755385  0.16651808  0.91627110  1
  Mn3.34+  Mn153  1  0.91204528  0.17178102  0.58695373  1
  Mn3.34+  Mn154  1  0.41582443  0.15480386  0.08169722  1
  Mn3.34+  Mn155  1  0.57675555  0.16388272  0.57951553  1
  Mn3.34+  Mn156  1  0.24718245  0.66301928  0.25498941  1
  Mn3.34+  Mn157  1  0.08908616  0.66800153  0.08807990  1
  Mn3.34+  Mn158  1  0.58820051  0.17053104  0.91791262  1
  Mn3.34+  Mn159  1  0.24777308  0.66783306  0.91593516  1
  Mn3.34+  Mn160  1  0.75016520  0.17150751  0.41267793  1
  Mn3.34+  Mn161  1  0.92332702  0.66672784  0.26037906  1
  Mn3.34+  Mn162  1  0.58521722  0.17040705  0.57968223  1
  Mn3.34+  Mn163  1  0.91157537  0.16440475  0.91298580  1
  Mn3.34+  Mn164  1  0.75391198  0.66913816  0.41410361  1
  Mn3.34+  Mn165  1  0.08584576  0.16528721  0.08230459  1
  Mn3.34+  Mn166  1  0.75843761  0.66751381  0.75092086  1
  Mn3.34+  Mn167  1  0.24934019  0.16658097  0.91621905  1
  Mn3.34+  Mn168  1  0.25017612  0.16633069  0.58213686  1
  Mn3.34+  Mn169  1  0.41449679  0.16783510  0.74845410  1
  Mn3.34+  Mn170  1  0.93458801  0.66763400  0.58238924  1
  Mn3.34+  Mn171  1  0.59076677  0.16421762  0.25000402  1
  Mn3.34+  Mn172  1  0.41980966  0.67189437  0.74585458  1
  Mn3.34+  Mn173  1  0.58425562  0.67462679  0.58012949  1
  Mn3.34+  Mn174  1  0.08451738  0.16927135  0.41776952  1
  Mn3.34+  Mn175  1  0.24171009  0.66573074  0.58128007  1
  Mn3.34+  Mn176  1  0.57956478  0.15766969  0.25170093  1
  Mn3.34+  Mn177  1  0.40778107  0.66601002  0.74545329  1
  Mn3.34+  Mn178  1  0.24943713  0.16282184  0.24845783  1
  Mn3.34+  Mn179  1  0.25916040  0.16140226  0.91769308  1
  Mn3.34+  Mn180  1  0.74051334  0.00405014  0.40740742  1
  Mn3.34+  Mn181  1  0.08243121  0.49863836  0.07954743  1
  Mn3.34+  Mn182  1  0.24703378  0.50011521  0.58606308  1
  Mn3.34+  Mn183  1  0.40644397  0.49977407  0.75238118  1
  Mn3.34+  Mn184  1  0.09073397  0.00190361  0.41686723  1
  Mn3.34+  Mn185  1  0.75937650  0.00415489  0.07430108  1
  Mn3.34+  Mn186  1  0.07329413  -0.00325547  0.07672280  1
  Mn3.34+  Mn187  1  0.42420163  0.00563082  0.75099340  1
  Mn3.34+  Mn188  1  0.25455193  -0.00129134  0.25697475  1
  Mn3.34+  Mn189  1  0.41337954  0.00099547  0.74992662  1
  Mn3.34+  Mn190  1  0.41443610  0.49543336  0.08382485  1
  Mn3.34+  Mn191  1  0.59392697  0.49579128  0.24711193  1
  Mn3.34+  Mn192  1  0.26106953  0.00008786  0.93000805  1
  Mn3.34+  Mn193  1  0.91065617  -0.00510919  0.58387273  1
  Mn3.34+  Mn194  1  0.91731194  0.50222947  0.58230657  1
  Mn3.34+  Mn195  1  0.57944168  0.50174994  0.24642289  1
  Mn3.34+  Mn196  1  0.90797629  0.49849588  0.93269400  1
  Mn3.34+  Mn197  1  0.40841504  0.50006975  0.40964832  1
  Mn3.34+  Mn198  1  0.75433681  0.50101424  0.41477877  1
  Mn3.34+  Mn199  1  0.92133267  -0.00054022  0.58520733  1
  Mn3.34+  Mn200  1  0.07618802  -0.00352160  0.41450604  1
  Mn3.34+  Mn201  1  0.41790617  0.49522744  0.75439901  1
  Mn3.34+  Mn202  1  0.56800988  0.00126775  0.92212581  1
  Mn3.34+  Mn203  1  0.92805965  0.50641841  0.58176996  1
  Mn3.34+  Mn204  1  0.75399576  -0.00211012  0.40874696  1
  Mn3.34+  Mn205  1  0.08382467  0.00164522  0.07754653  1
  Mn3.34+  Mn206  1  0.24446735  0.50079632  0.91586480  1
  Mn3.34+  Mn207  1  0.58304667  0.50044705  0.57952335  1
  Mn3.34+  Mn208  1  0.91511129  -0.00086179  0.24704442  1
  Mn3.34+  Mn209  1  0.92181829  0.50051073  0.26261899  1
  Mn3.34+  Mn210  1  0.75815749  0.49987403  0.75770570  1
  Mn3.34+  Mn211  1  0.24525395  0.00028757  0.58717080  1
  Mn3.34+  Mn212  1  0.58318155  0.50047334  0.57972272  1
  Mn3.34+  Mn213  1  0.42687192  0.50033756  0.08309937  1
  Mn3.34+  Mn214  1  0.57941054  -0.00213403  0.91858473  1
  Mn3.34+  Mn215  1  0.08606170  0.50027436  0.74378758  1
  O2-  O216  1  -0.00103684  0.16300322  -0.00342280  1
  O2-  O217  1  0.00097363  0.16322141  0.33492796  1
  O2-  O218  1  0.00094683  0.16369927  0.66768742  1
  O2-  O219  1  0.00039984  0.66397462  0.00402394  1
  O2-  O220  1  0.00004819  0.67079587  0.33240220  1
  O2-  O221  1  -0.00255769  0.67111557  0.66461255  1
  O2-  O222  1  0.33351100  0.17481643  0.00089685  1
  O2-  O223  1  0.33496062  0.16355086  0.33230102  1
  O2-  O224  1  0.33415816  0.16337323  0.66509406  1
  O2-  O225  1  0.33668953  0.66431766  -0.00342101  1
  O2-  O226  1  0.32888402  0.66196996  0.33257921  1
  O2-  O227  1  0.33251419  0.66315664  0.66164974  1
  O2-  O228  1  0.66370604  0.16299135  -0.00103338  1
  O2-  O229  1  0.66426257  0.17869622  0.33399865  1
  O2-  O230  1  0.66733164  0.17362652  0.66094789  1
  O2-  O231  1  0.66599095  0.66757125  0.00727024  1
  O2-  O232  1  0.66808938  0.66751138  0.33444521  1
  O2-  O233  1  0.66676945  0.66923224  0.66611081  1
  O2-  O234  1  0.16601350  0.16496553  -0.00101394  1
  O2-  O235  1  0.16603101  0.16233418  0.33246204  1
  O2-  O236  1  0.17136359  0.16409151  0.66228169  1
  O2-  O237  1  0.16604058  0.66545245  0.00105935  1
  O2-  O238  1  0.17284511  0.66506544  0.33640262  1
  O2-  O239  1  0.17513588  0.66852909  0.66961900  1
  O2-  O240  1  0.50076593  0.17118795  0.00281198  1
  O2-  O241  1  0.49964886  0.17421194  0.32527718  1
  O2-  O242  1  0.50261621  0.16793201  0.66842986  1
  O2-  O243  1  0.49587736  0.66267871  0.00369965  1
  O2-  O244  1  0.50272545  0.66373437  0.33004123  1
  O2-  O245  1  0.50608445  0.66465670  0.66707672  1
  O2-  O246  1  0.83561503  0.16494088  -0.00354386  1
  O2-  O247  1  0.83892127  0.17092442  0.34004368  1
  O2-  O248  1  0.82592002  0.16539548  0.66187541  1
  O2-  O249  1  0.83339217  0.66591212  0.00773110  1
  O2-  O250  1  0.82912532  0.67069122  0.32779402  1
  O2-  O251  1  0.82460892  0.66795080  0.65822619  1
  O2-  O252  1  0.00438013  0.33191374  -0.00578289  1
  O2-  O253  1  -0.00191049  0.33621270  0.33747190  1
  O2-  O254  1  0.00108919  0.33590980  0.66739621  1
  O2-  O255  1  0.00445580  0.82656704  -0.00302373  1
  O2-  O256  1  0.00269794  0.83241780  0.32894223  1
  O2-  O257  1  -0.00030728  0.84113500  0.66645619  1
  O2-  O258  1  0.33418564  0.32895441  0.00066929  1
  O2-  O259  1  0.33392537  0.33529379  0.33174828  1
  O2-  O260  1  0.32953738  0.33114093  0.67027204  1
  O2-  O261  1  0.33492486  0.82910880  0.00079525  1
  O2-  O262  1  0.34039870  0.83590120  0.32440735  1
  O2-  O263  1  0.33100093  0.83533150  0.66656402  1
  O2-  O264  1  0.66838598  0.32681642  0.00136876  1
  O2-  O265  1  0.65851858  0.32558670  0.34059562  1
  O2-  O266  1  0.66777000  0.32512096  0.66781375  1
  O2-  O267  1  0.67056401  0.83348057  -0.00134094  1
  O2-  O268  1  0.66657746  0.82933176  0.33504123  1
  O2-  O269  1  0.66356953  0.82595333  0.66830422  1
  O2-  O270  1  0.16765528  0.33416703  0.00149638  1
  O2-  O271  1  0.16642037  0.33418353  0.33320545  1
  O2-  O272  1  0.16705844  0.33548026  0.66570651  1
  O2-  O273  1  0.16748160  0.82950884  0.00201243  1
  O2-  O274  1  0.16306383  0.83295507  0.32951362  1
  O2-  O275  1  0.16479275  0.83864200  0.66481852  1
  O2-  O276  1  0.49474669  0.32586998  -0.00386981  1
  O2-  O277  1  0.50388176  0.33333762  0.33554917  1
  O2-  O278  1  0.50665016  0.33038389  0.67345017  1
  O2-  O279  1  0.49759612  0.82983339  0.00148240  1
  O2-  O280  1  0.49857977  0.83616123  0.32984686  1
  O2-  O281  1  0.50655538  0.83258545  0.66890991  1
  O2-  O282  1  0.83222523  0.32751766  0.00025789  1
  O2-  O283  1  0.84079589  0.33066089  0.33989559  1
  O2-  O284  1  0.82945422  0.32981802  0.66551894  1
  O2-  O285  1  0.82650552  0.83030894  -0.00631302  1
  O2-  O286  1  0.82980736  0.82611871  0.32888584  1
  O2-  O287  1  0.83576540  0.83381259  0.66846273  1
  O2-  O288  1  0.00174023  0.16628044  0.17250623  1
  O2-  O289  1  -0.00235203  0.16648994  0.49910143  1
  O2-  O290  1  -0.00291005  0.16696376  0.83694437  1
  O2-  O291  1  -0.00690769  0.66948756  0.16344503  1
  O2-  O292  1  -0.00181966  0.67220601  0.50128209  1
  O2-  O293  1  0.00588410  0.67068070  0.83964389  1
  O2-  O294  1  0.33739348  0.17445904  0.16325421  1
  O2-  O295  1  0.33140395  0.16650762  0.50445047  1
  O2-  O296  1  0.33361449  0.16948453  0.82990885  1
  O2-  O297  1  0.33258379  0.67327788  0.16431293  1
  O2-  O298  1  0.32715467  0.66536932  0.50244632  1
  O2-  O299  1  0.33624081  0.66502018  0.83822569  1
  O2-  O300  1  0.65989698  0.17402990  0.16699388  1
  O2-  O301  1  0.67132842  0.17698687  0.50156366  1
  O2-  O302  1  0.66378289  0.17087609  0.83158981  1
  O2-  O303  1  0.66605334  0.66866426  0.16473553  1
  O2-  O304  1  0.67093912  0.67449858  0.50106962  1
  O2-  O305  1  0.66866256  0.67306596  0.82332142  1
  O2-  O306  1  0.16505481  0.16810481  0.16936424  1
  O2-  O307  1  0.16599379  0.16717962  0.49944297  1
  O2-  O308  1  0.17037371  0.16654219  0.83661822  1
  O2-  O309  1  0.17156292  0.67344961  0.16462607  1
  O2-  O310  1  0.17180494  0.66647044  0.49754565  1
  O2-  O311  1  0.16798504  0.66570654  0.84027209  1
  O2-  O312  1  0.49991587  0.17546374  0.16629070  1
  O2-  O313  1  0.49755295  0.17386099  0.50261466  1
  O2-  O314  1  0.50367945  0.16961423  0.83144256  1
  O2-  O315  1  0.50487518  0.66813651  0.16249926  1
  O2-  O316  1  0.50479809  0.67308555  0.50465930  1
  O2-  O317  1  0.49805149  0.66441034  0.83288936  1
  O2-  O318  1  0.83796159  0.17118098  0.16757139  1
  O2-  O319  1  0.83182030  0.16915164  0.50225708  1
  O2-  O320  1  0.83377653  0.17062878  0.83312136  1
  O2-  O321  1  0.83421245  0.66820155  0.16321553  1
  O2-  O322  1  0.82521330  0.67271219  0.50294592  1
  O2-  O323  1  0.82706111  0.67640678  0.83108050  1
  O2-  O324  1  0.00482864  0.32857666  0.17190816  1
  O2-  O325  1  -0.00330180  0.33477907  0.49614666  1
  O2-  O326  1  0.00023971  0.33289330  0.83258162  1
  O2-  O327  1  0.00342048  0.82268480  0.16867676  1
  O2-  O328  1  0.00718814  0.83338058  0.50722699  1
  O2-  O329  1  -0.00342586  0.83486128  0.83102243  1
  O2-  O330  1  0.33350704  0.32606735  0.16578053  1
  O2-  O331  1  0.32965122  0.32927006  0.49740370  1
  O2-  O332  1  0.33463471  0.33242748  0.83494733  1
  O2-  O333  1  0.33538070  0.82831535  0.16555442  1
  O2-  O334  1  0.33802057  0.83011712  0.50402272  1
  O2-  O335  1  0.33362135  0.83265900  0.83597237  1
  O2-  O336  1  0.66728347  0.31918003  0.16799682  1
  O2-  O337  1  0.66608783  0.32433827  0.50004201  1
  O2-  O338  1  0.66076081  0.32689771  0.82576957  1
  O2-  O339  1  0.66633011  0.82657963  0.16395696  1
  O2-  O340  1  0.66677984  0.82073909  0.50151551  1
  O2-  O341  1  0.66703693  0.83196643  0.83065809  1
  O2-  O342  1  0.16747159  0.33066825  0.16637144  1
  O2-  O343  1  0.16636226  0.33169258  0.50063887  1
  O2-  O344  1  0.16730271  0.33277308  0.83360721  1
  O2-  O345  1  0.16823464  0.82728877  0.16425965  1
  O2-  O346  1  0.16093853  0.83250352  0.50719245  1
  O2-  O347  1  0.16612005  0.83324694  0.83350737  1
  O2-  O348  1  0.49588844  0.31639878  0.17179078  1
  O2-  O349  1  0.50719343  0.32855600  0.49518201  1
  O2-  O350  1  0.50161803  0.33354318  0.82962665  1
  O2-  O351  1  0.49797282  0.82738702  0.16599990  1
  O2-  O352  1  0.50056365  0.82663873  0.50169430  1
  O2-  O353  1  0.50430490  0.83647879  0.82942372  1
  O2-  O354  1  0.83183997  0.32521013  0.16632859  1
  O2-  O355  1  0.83231319  0.32977627  0.49800911  1
  O2-  O356  1  0.83819446  0.32400805  0.82946643  1
  O2-  O357  1  0.82984485  0.82260617  0.16785919  1
  O2-  O358  1  0.82767212  0.82390273  0.50361619  1
  O2-  O359  1  0.83207593  0.83143936  0.83333863  1
  O2-  O360  1  0.08407775  0.08222194  0.09997640  1
  O2-  O361  1  0.08173616  0.08356916  0.43032016  1
  O2-  O362  1  0.08653372  0.07888203  0.75963465  1
  O2-  O363  1  0.07911429  0.58018489  0.09542365  1
  O2-  O364  1  0.09680249  0.57889540  0.41887743  1
  O2-  O365  1  0.09202480  0.57660880  0.77137879  1
  O2-  O366  1  0.42546216  0.08101411  0.10230657  1
  O2-  O367  1  0.40963853  0.07600908  0.42370035  1
  O2-  O368  1  0.41790097  0.08666233  0.75963744  1
  O2-  O369  1  0.41720410  0.58288846  0.09586903  1
  O2-  O370  1  0.41187206  0.57766563  0.43227447  1
  O2-  O371  1  0.41838116  0.58172605  0.76307355  1
  O2-  O372  1  0.74684734  0.07831283  0.09594560  1
  O2-  O373  1  0.75420626  0.08216507  0.44040248  1
  O2-  O374  1  0.74460648  0.07672653  0.75577134  1
  O2-  O375  1  0.74797466  0.58025154  0.09942965  1
  O2-  O376  1  0.74382141  0.58105012  0.43921941  1
  O2-  O377  1  0.73892886  0.58213015  0.76309329  1
  O2-  O378  1  0.24750646  0.08033573  0.23757762  1
  O2-  O379  1  0.25170045  0.08105439  0.56815781  1
  O2-  O380  1  0.24540871  0.07873028  0.89921127  1
  O2-  O381  1  0.25755126  0.58201866  0.23651750  1
  O2-  O382  1  0.25715742  0.58025556  0.56664028  1
  O2-  O383  1  0.25424034  0.58274477  0.90264491  1
  O2-  O384  1  0.57336912  0.07807557  0.23239794  1
  O2-  O385  1  0.59661679  0.08001095  0.57421319  1
  O2-  O386  1  0.58559077  0.08276484  0.90310531  1
  O2-  O387  1  0.58705167  0.58352189  0.23316290  1
  O2-  O388  1  0.58986554  0.58598527  0.57195305  1
  O2-  O389  1  0.56837048  0.57558426  0.89545795  1
  O2-  O390  1  0.92435601  0.08138003  0.23561541  1
  O2-  O391  1  0.91360769  0.08081693  0.56665868  1
  O2-  O392  1  0.91466920  0.08177481  0.90277822  1
  O2-  O393  1  0.90840561  0.57915793  0.22421492  1
  O2-  O394  1  0.90202552  0.58734577  0.57161429  1
  O2-  O395  1  0.92378543  0.57640796  0.90766997  1
  O2-  O396  1  0.09170060  0.41825815  0.09579710  1
  O2-  O397  1  0.07403832  0.41807871  0.42985172  1
  O2-  O398  1  0.08301250  0.41939685  0.76432470  1
  O2-  O399  1  0.08932809  0.91640927  0.09569579  1
  O2-  O400  1  0.08392537  0.91584862  0.43218124  1
  O2-  O401  1  0.07169568  0.91834305  0.76198853  1
  O2-  O402  1  0.41139068  0.41471951  0.09477248  1
  O2-  O403  1  0.43110879  0.41772538  0.42241680  1
  O2-  O404  1  0.42174926  0.41369502  0.75879413  1
  O2-  O405  1  0.41569178  0.92023678  0.10419786  1
  O2-  O406  1  0.42850946  0.91731548  0.42456012  1
  O2-  O407  1  0.42031773  0.91832354  0.76128260  1
  O2-  O408  1  0.74733639  0.41671540  0.08787406  1
  O2-  O409  1  0.74603248  0.41895169  0.43297981  1
  O2-  O410  1  0.73741388  0.41820582  0.75481726  1
  O2-  O411  1  0.74048636  0.92370825  0.09653569  1
  O2-  O412  1  0.74488707  0.91801287  0.43042608  1
  O2-  O413  1  0.74523168  0.92197015  0.77363098  1
  O2-  O414  1  0.25084791  0.41902894  0.23716886  1
  O2-  O415  1  0.24284123  0.41839363  0.57019913  1
  O2-  O416  1  0.25253545  0.41869792  0.90488125  1
  O2-  O417  1  0.25524384  0.91772981  0.23248178  1
  O2-  O418  1  0.24228199  0.91774190  0.57712620  1
  O2-  O419  1  0.25000408  0.91864121  0.90448419  1
  O2-  O420  1  0.57756514  0.41531735  0.24923586  1
  O2-  O421  1  0.58908557  0.41459593  0.56962358  1
  O2-  O422  1  0.57426403  0.42171399  0.89694046  1
  O2-  O423  1  0.57348452  0.91705897  0.23561444  1
  O2-  O424  1  0.58650483  0.91725220  0.57688852  1
  O2-  O425  1  0.58786524  0.91510804  0.90433632  1
  O2-  O426  1  0.92312364  0.41802434  0.25194565  1
  O2-  O427  1  0.91380058  0.41857464  0.56882546  1
  O2-  O428  1  0.92389953  0.42103727  0.89879268  1
  O2-  O429  1  0.91544159  0.91701018  0.23864765  1
  O2-  O430  1  0.91702485  0.91298506  0.57779066  1
  O2-  O431  1  0.90452230  0.92058217  0.89209894  1
  O2-  O432  1  -0.00088506  0.00482156  -0.00538576  1
  O2-  O433  1  0.00009504  0.00598164  0.32925299  1
  O2-  O434  1  0.00144584  0.00036003  0.66743243  1
  O2-  O435  1  0.00046447  0.50601534  -0.00322821  1
  O2-  O436  1  -0.00087793  0.49342636  0.33559482  1
  O2-  O437  1  0.00133490  0.49743489  0.66907211  1
  O2-  O438  1  0.33800301  -0.00633146  -0.00289196  1
  O2-  O439  1  0.34426328  0.00302021  0.31832034  1
  O2-  O440  1  0.33263042  0.00207363  0.66495364  1
  O2-  O441  1  0.33408210  0.50561524  -0.00425609  1
  O2-  O442  1  0.32915121  0.50251574  0.33822009  1
  O2-  O443  1  0.33115249  0.50546977  0.66716366  1
  O2-  O444  1  0.66799988  0.00052588  0.00053163  1
  O2-  O445  1  0.66130486  -0.00430449  0.33316497  1
  O2-  O446  1  0.66958043  0.00474977  0.67000316  1
  O2-  O447  1  0.66377697  0.51540384  0.00506565  1
  O2-  O448  1  0.66440122  0.50391671  0.33904781  1
  O2-  O449  1  0.66523255  0.50371918  0.67331357  1
  O2-  O450  1  0.16670285  -0.00057228  -0.00505729  1
  O2-  O451  1  0.16515416  0.00453580  0.32813410  1
  O2-  O452  1  0.16296867  -0.00001226  0.65774919  1
  O2-  O453  1  0.16618017  0.50464836  0.00051459  1
  O2-  O454  1  0.17096209  0.50666486  0.34559199  1
  O2-  O455  1  0.17129920  0.49930855  0.67170361  1
  O2-  O456  1  0.49868477  -0.00124652  0.00723523  1
  O2-  O457  1  0.48887853  -0.00092297  0.32630009  1
  O2-  O458  1  0.50618508  -0.00268497  0.67099915  1
  O2-  O459  1  0.50168896  0.51103191  -0.00325409  1
  O2-  O460  1  0.50130192  0.50276618  0.33688481  1
  O2-  O461  1  0.50083018  0.50570175  0.67097526  1
  O2-  O462  1  0.82492523  -0.00075481  -0.00934920  1
  O2-  O463  1  0.83464611  0.00362496  0.33099028  1
  O2-  O464  1  0.82986304  0.00351840  0.66439804  1
  O2-  O465  1  0.83166077  0.51373023  0.00367050  1
  O2-  O466  1  0.83452130  0.50141981  0.33315668  1
  O2-  O467  1  0.82743612  0.50177490  0.66121281  1
  O2-  O468  1  0.25240584  0.75048055  0.58756327  1
  O2-  O469  1  0.24913119  0.25037039  0.91840774  1
  O2-  O470  1  0.08364494  0.75173651  0.74963664  1
  O2-  O471  1  0.58146273  0.25369589  0.91578977  1
  O2-  O472  1  0.08755029  0.25296093  0.08269110  1
  O2-  O473  1  0.92033658  0.25139831  0.91809230  1
  O2-  O474  1  0.91480895  0.74929309  0.58621053  1
  O2-  O475  1  0.41634099  0.75356329  0.41360801  1
  O2-  O476  1  0.41988900  0.24878408  0.75120204  1
  O2-  O477  1  0.41938785  0.75389429  0.75201296  1
  O2-  O478  1  0.58101526  0.74927911  0.91552583  1
  O2-  O479  1  0.41595338  0.25267440  0.41460340  1
  O2-  O480  1  0.25072434  0.74913126  0.25027334  1
  O2-  O481  1  0.08136956  0.25086355  0.41491486  1
  O2-  O482  1  0.25218521  0.74960600  0.91727846  1
  O2-  O483  1  0.75036770  0.25476458  0.08142702  1
  O2-  O484  1  0.08379659  0.25213720  0.74811112  1
  O2-  O485  1  0.91681612  0.74908617  0.24994433  1
  O2-  O486  1  0.91972286  0.25017654  0.25465616  1
  O2-  O487  1  0.08289615  0.75071629  0.41533460  1
  O2-  O488  1  0.25005171  0.25046746  0.58502990  1
  O2-  O489  1  0.24896724  0.25133904  0.25151383  1
  O2-  O490  1  0.91529700  0.25313964  0.58203616  1
  O2-  O491  1  0.91783043  0.75068692  0.91783104  1
  O2-  O492  1  0.58354414  0.75065038  0.25143994  1
