# generated using pymatgen
data_Ca108Mn108O277
_symmetry_space_group_name_H-M   'P 1'
_cell_length_a   16.02759550
_cell_length_b   22.30959667
_cell_length_c   16.38873636
_cell_angle_alpha   90.00071356
_cell_angle_beta   89.99717947
_cell_angle_gamma   89.99847161
_symmetry_Int_Tables_number   1
_chemical_formula_structural   Ca108Mn108O277
_chemical_formula_sum   'Ca108 Mn108 O277'
_cell_volume   5860.10719767
_cell_formula_units_Z   1
loop_
 _symmetry_equiv_pos_site_id
 _symmetry_equiv_pos_as_xyz
  1  'x, y, z'
loop_
 _atom_type_symbol
 _atom_type_oxidation_number
  Ca2+  2.0
  Mn3.34+  3.34
  O2-  -2.0
loop_
 _atom_site_type_symbol
 _atom_site_label
 _atom_site_symmetry_multiplicity
 _atom_site_fract_x
 _atom_site_fract_y
 _atom_site_fract_z
 _atom_site_occupancy
  Ca2+  Ca0  1  0.09805164  0.24934524  0.23034247  1
  Ca2+  Ca1  1  0.07947283  0.24362930  0.58836998  1
  Ca2+  Ca2  1  0.08071768  0.23974292  0.93516233  1
  Ca2+  Ca3  1  0.07186818  0.74399433  0.26151718  1
  Ca2+  Ca4  1  0.09287683  0.75326303  0.57360622  1
  Ca2+  Ca5  1  0.09229737  0.74462346  0.91151369  1
  Ca2+  Ca6  1  0.42402688  0.24998880  0.24997084  1
  Ca2+  Ca7  1  0.41323660  0.24813026  0.58647131  1
  Ca2+  Ca8  1  0.41237600  0.24899081  0.90822872  1
  Ca2+  Ca9  1  0.42559298  0.75940020  0.25678192  1
  Ca2+  Ca10  1  0.39777050  0.75013295  0.57421816  1
  Ca2+  Ca11  1  0.42374530  0.75017261  0.91555216  1
  Ca2+  Ca12  1  0.73528947  0.25526130  0.24876486  1
  Ca2+  Ca13  1  0.75443411  0.25083097  0.59385427  1
  Ca2+  Ca14  1  0.75739660  0.24988181  0.91046492  1
  Ca2+  Ca15  1  0.75105081  0.75734131  0.25158605  1
  Ca2+  Ca16  1  0.75702406  0.75337576  0.58330909  1
  Ca2+  Ca17  1  0.73163294  0.75094485  0.91720484  1
  Ca2+  Ca18  1  0.23600265  0.24990332  0.08729793  1
  Ca2+  Ca19  1  0.25810091  0.25253476  0.40871200  1
  Ca2+  Ca20  1  0.25255732  0.24906754  0.74778037  1
  Ca2+  Ca21  1  0.24931509  0.75233921  0.07355753  1
  Ca2+  Ca22  1  0.25113398  0.74498487  0.43056837  1
  Ca2+  Ca23  1  0.24922781  0.75025070  0.74982793  1
  Ca2+  Ca24  1  0.58551896  0.23631897  0.10634355  1
  Ca2+  Ca25  1  0.57864088  0.24238911  0.40118590  1
  Ca2+  Ca26  1  0.59498027  0.24450835  0.74995567  1
  Ca2+  Ca27  1  0.56940556  0.74949490  0.06946388  1
  Ca2+  Ca28  1  0.56620734  0.75454118  0.41097736  1
  Ca2+  Ca29  1  0.57227502  0.75117743  0.77241663  1
  Ca2+  Ca30  1  0.93251525  0.25185167  0.07665192  1
  Ca2+  Ca31  1  0.90972165  0.25552033  0.41947787  1
  Ca2+  Ca32  1  0.90499915  0.25102817  0.76281846  1
  Ca2+  Ca33  1  0.92949730  0.75713566  0.08979078  1
  Ca2+  Ca34  1  0.92677738  0.75812094  0.41122063  1
  Ca2+  Ca35  1  0.93068721  0.76326810  0.74826006  1
  Ca2+  Ca36  1  0.22703606  0.09093754  0.09133360  1
  Ca2+  Ca37  1  0.93155341  0.59153195  0.07673977  1
  Ca2+  Ca38  1  0.98878202  0.08802083  0.07470736  1
  Ca2+  Ca39  1  0.72119145  0.09725951  0.25060159  1
  Ca2+  Ca40  1  0.57216325  0.09116423  0.41136654  1
  Ca2+  Ca41  1  0.73814951  0.56813997  0.62047635  1
  Ca2+  Ca42  1  0.10643086  0.58504572  0.58875801  1
  Ca2+  Ca43  1  0.40393008  0.59772694  0.90819734  1
  Ca2+  Ca44  1  0.24826705  0.57188078  0.05462931  1
  Ca2+  Ca45  1  0.38138463  0.07174583  0.61629999  1
  Ca2+  Ca46  1  0.71007992  0.09919922  0.24886399  1
  Ca2+  Ca47  1  0.10433264  0.09625123  0.24329295  1
  Ca2+  Ca48  1  0.74374456  0.59941818  0.90024347  1
  Ca2+  Ca49  1  0.92007849  0.59245599  0.75777533  1
  Ca2+  Ca50  1  0.74406677  0.10717618  0.58547173  1
  Ca2+  Ca51  1  0.26068880  0.59550099  0.42907178  1
  Ca2+  Ca52  1  0.90975824  0.11340865  0.74341867  1
  Ca2+  Ca53  1  0.75296089  0.10972409  0.58980469  1
  Ca2+  Ca54  1  0.40324670  0.59686052  0.58360089  1
  Ca2+  Ca55  1  0.24665724  0.58558758  0.74859768  1
  Ca2+  Ca56  1  0.93806820  0.59145063  0.40347834  1
  Ca2+  Ca57  1  0.25145843  0.59109815  0.42731698  1
  Ca2+  Ca58  1  0.73989262  0.11569720  0.90249045  1
  Ca2+  Ca59  1  0.92053873  0.11623697  0.44101703  1
  Ca2+  Ca60  1  0.26267060  0.09361693  0.41657196  1
  Ca2+  Ca61  1  0.09646665  0.58092998  0.25798784  1
  Ca2+  Ca62  1  0.58615928  0.60199911  0.75802227  1
  Ca2+  Ca63  1  0.94311884  0.59174166  0.07526403  1
  Ca2+  Ca64  1  0.41482786  0.59624152  0.90981257  1
  Ca2+  Ca65  1  0.92647954  0.59244484  0.40234919  1
  Ca2+  Ca66  1  0.91880191  0.11075236  0.74726315  1
  Ca2+  Ca67  1  0.44065427  0.10163021  0.24258564  1
  Ca2+  Ca68  1  0.09160084  0.09647072  0.59698960  1
  Ca2+  Ca69  1  0.57798010  0.10656009  0.74947892  1
  Ca2+  Ca70  1  0.42331325  0.57105234  0.26692444  1
  Ca2+  Ca71  1  0.56740153  0.59223701  0.08080527  1
  Ca2+  Ca72  1  0.54946154  0.90893759  0.09096910  1
  Ca2+  Ca73  1  0.57553053  0.39576856  0.09727790  1
  Ca2+  Ca74  1  0.10977007  0.41316638  0.58138101  1
  Ca2+  Ca75  1  0.57553293  0.41770774  0.39082456  1
  Ca2+  Ca76  1  0.25108343  0.90514221  0.42530681  1
  Ca2+  Ca77  1  0.74004407  0.89354543  0.58149585  1
  Ca2+  Ca78  1  0.56065816  0.90541522  0.08773598  1
  Ca2+  Ca79  1  0.74372650  0.40637573  0.58567424  1
  Ca2+  Ca80  1  0.26906904  0.92947985  0.73529452  1
  Ca2+  Ca81  1  0.39730981  0.41127806  0.92779454  1
  Ca2+  Ca82  1  0.26296761  0.91750296  0.08182159  1
  Ca2+  Ca83  1  0.74436343  0.90543898  0.26356579  1
  Ca2+  Ca84  1  0.90223162  0.40772165  0.75488154  1
  Ca2+  Ca85  1  0.26226341  0.90522851  0.42543623  1
  Ca2+  Ca86  1  0.41196485  0.91056750  0.91842259  1
  Ca2+  Ca87  1  0.25984356  0.92710731  0.73155662  1
  Ca2+  Ca88  1  0.38624118  0.40986564  0.92712626  1
  Ca2+  Ca89  1  0.07693082  0.91272027  0.24069090  1
  Ca2+  Ca90  1  0.07982148  0.90891665  0.92741933  1
  Ca2+  Ca91  1  0.43294360  0.91581338  0.59508034  1
  Ca2+  Ca92  1  0.09093277  0.90785515  0.92753195  1
  Ca2+  Ca93  1  0.08931095  0.91115159  0.23998166  1
  Ca2+  Ca94  1  0.09137718  0.39958184  0.24542256  1
  Ca2+  Ca95  1  0.25610500  0.41034690  0.74716030  1
  Ca2+  Ca96  1  0.60008561  0.40972923  0.74300931  1
  Ca2+  Ca97  1  0.92510770  0.90228396  0.08212457  1
  Ca2+  Ca98  1  0.56601445  0.42085733  0.39210172  1
  Ca2+  Ca99  1  0.09866102  0.40957219  0.58453772  1
  Ca2+  Ca100  1  0.91700863  0.40879203  0.39950382  1
  Ca2+  Ca101  1  0.25608810  0.42076169  0.38943628  1
  Ca2+  Ca102  1  0.73944417  0.40236041  0.25318460  1
  Ca2+  Ca103  1  0.42247451  0.91553592  0.59383398  1
  Ca2+  Ca104  1  0.10885796  0.41743927  0.92777333  1
  Ca2+  Ca105  1  0.58944624  0.41001585  0.74311649  1
  Ca2+  Ca106  1  0.91392089  0.40801111  0.75501462  1
  Ca2+  Ca107  1  0.74945812  0.39848827  0.91461615  1
  Mn3.34+  Mn108  1  0.08545788  0.33640402  0.08336627  1
  Mn3.34+  Mn109  1  0.08466233  0.32717157  0.41952913  1
  Mn3.34+  Mn110  1  0.08338725  0.33527059  0.75527725  1
  Mn3.34+  Mn111  1  0.08873815  0.83063334  0.08629908  1
  Mn3.34+  Mn112  1  0.08138516  0.83234220  0.41952125  1
  Mn3.34+  Mn113  1  0.08164985  0.83772921  0.74793153  1
  Mn3.34+  Mn114  1  0.41064522  0.33101067  0.08760905  1
  Mn3.34+  Mn115  1  0.41438134  0.33016945  0.41789275  1
  Mn3.34+  Mn116  1  0.41725436  0.33198742  0.74883585  1
  Mn3.34+  Mn117  1  0.40861174  0.83087363  0.08644189  1
  Mn3.34+  Mn118  1  0.42043417  0.83108436  0.41607015  1
  Mn3.34+  Mn119  1  0.41835871  0.83499163  0.75418111  1
  Mn3.34+  Mn120  1  0.75332593  0.32966273  0.08383068  1
  Mn3.34+  Mn121  1  0.74940460  0.33189020  0.42223111  1
  Mn3.34+  Mn122  1  0.74747792  0.32967892  0.75122168  1
  Mn3.34+  Mn123  1  0.74873808  0.83545903  0.08345741  1
  Mn3.34+  Mn124  1  0.74869084  0.83457396  0.42195373  1
  Mn3.34+  Mn125  1  0.74834639  0.82592230  0.75336024  1
  Mn3.34+  Mn126  1  0.25632803  0.33765738  0.24725702  1
  Mn3.34+  Mn127  1  0.26006996  0.34098298  0.57461288  1
  Mn3.34+  Mn128  1  0.24471632  0.33278362  0.91580746  1
  Mn3.34+  Mn129  1  0.25416575  0.83630794  0.24658620  1
  Mn3.34+  Mn130  1  0.24604234  0.83634629  0.58574774  1
  Mn3.34+  Mn131  1  0.25266853  0.83188184  0.91340976  1
  Mn3.34+  Mn132  1  0.57803186  0.33205259  0.24716973  1
  Mn3.34+  Mn133  1  0.57868807  0.33448473  0.57316684  1
  Mn3.34+  Mn134  1  0.58109037  0.32541365  0.91838636  1
  Mn3.34+  Mn135  1  0.58261222  0.83476489  0.25422120  1
  Mn3.34+  Mn136  1  0.58348879  0.82841239  0.58549421  1
  Mn3.34+  Mn137  1  0.58446681  0.83526419  0.91299994  1
  Mn3.34+  Mn138  1  0.91627149  0.33314572  0.24747661  1
  Mn3.34+  Mn139  1  0.91843679  0.33126994  0.57926012  1
  Mn3.34+  Mn140  1  0.92008832  0.33686491  0.92443024  1
  Mn3.34+  Mn141  1  0.91483806  0.83383242  0.25250173  1
  Mn3.34+  Mn142  1  0.91958161  0.83399813  0.58363177  1
  Mn3.34+  Mn143  1  0.91054128  0.82980967  0.91167462  1
  Mn3.34+  Mn144  1  0.59166902  0.66858634  0.57785577  1
  Mn3.34+  Mn145  1  0.25638900  0.66611674  0.24661355  1
  Mn3.34+  Mn146  1  0.91088383  0.66497058  0.58023819  1
  Mn3.34+  Mn147  1  0.41795327  0.16534254  0.74852238  1
  Mn3.34+  Mn148  1  0.91779647  0.66589758  0.24590401  1
  Mn3.34+  Mn149  1  0.25648834  0.15738571  0.91279116  1
  Mn3.34+  Mn150  1  0.25262123  0.65536457  0.23970168  1
  Mn3.34+  Mn151  1  0.41691803  0.15778570  0.08371181  1
  Mn3.34+  Mn152  1  0.57344139  0.16986603  0.92302203  1
  Mn3.34+  Mn153  1  0.91083545  0.16702735  0.24861361  1
  Mn3.34+  Mn154  1  0.41157774  0.66572359  0.08588990  1
  Mn3.34+  Mn155  1  0.57508997  0.16642272  0.57859728  1
  Mn3.34+  Mn156  1  0.25042405  0.16158176  0.58030941  1
  Mn3.34+  Mn157  1  0.58909847  0.65385756  0.25694671  1
  Mn3.34+  Mn158  1  0.75347568  0.66893171  0.08417174  1
  Mn3.34+  Mn159  1  0.74827551  0.65740043  0.42033687  1
  Mn3.34+  Mn160  1  0.74862606  0.17037847  0.42142778  1
  Mn3.34+  Mn161  1  0.91948666  0.66922557  0.90761145  1
  Mn3.34+  Mn162  1  0.41642390  0.16697738  0.42042260  1
  Mn3.34+  Mn163  1  0.08914419  0.17110108  0.42035032  1
  Mn3.34+  Mn164  1  0.25800195  0.16836421  0.24758862  1
  Mn3.34+  Mn165  1  0.08473054  0.17126307  0.75042845  1
  Mn3.34+  Mn166  1  0.57971501  0.67402299  0.57948924  1
  Mn3.34+  Mn167  1  0.92506339  0.16114759  0.24703723  1
  Mn3.34+  Mn168  1  0.09172612  0.66805916  0.08131471  1
  Mn3.34+  Mn169  1  0.57588167  0.66064909  0.25352868  1
  Mn3.34+  Mn170  1  0.75225141  0.66727835  0.75168947  1
  Mn3.34+  Mn171  1  0.24599025  0.16175401  0.91222431  1
  Mn3.34+  Mn172  1  0.92385492  0.66969274  0.58131019  1
  Mn3.34+  Mn173  1  0.91791940  0.16880183  0.92051970  1
  Mn3.34+  Mn174  1  0.24436300  0.66389898  0.91412345  1
  Mn3.34+  Mn175  1  0.74473308  0.66260000  0.08621385  1
  Mn3.34+  Mn176  1  0.24679286  0.66596836  0.58647376  1
  Mn3.34+  Mn177  1  0.08596637  0.66753386  0.75154660  1
  Mn3.34+  Mn178  1  0.75080831  0.16960922  0.07919767  1
  Mn3.34+  Mn179  1  0.41431558  0.67015156  0.74954558  1
  Mn3.34+  Mn180  1  0.74704005  0.50187480  0.09645768  1
  Mn3.34+  Mn181  1  0.75409217  -0.00866615  0.75613420  1
  Mn3.34+  Mn182  1  0.41806126  0.00333864  0.41859396  1
  Mn3.34+  Mn183  1  0.90532501  0.50018257  0.58023331  1
  Mn3.34+  Mn184  1  0.08707092  0.00587803  0.41870283  1
  Mn3.34+  Mn185  1  0.92429103  0.00258917  0.91029249  1
  Mn3.34+  Mn186  1  0.57835886  -0.00134857  0.91213631  1
  Mn3.34+  Mn187  1  0.41516604  0.49868853  0.73448991  1
  Mn3.34+  Mn188  1  0.57064592  -0.00059827  0.25777686  1
  Mn3.34+  Mn189  1  0.92074310  0.49505786  0.57990113  1
  Mn3.34+  Mn190  1  0.91292515  0.49884514  0.25013711  1
  Mn3.34+  Mn191  1  0.75754841  0.00018396  0.08042308  1
  Mn3.34+  Mn192  1  0.08683018  0.50363702  0.75166505  1
  Mn3.34+  Mn193  1  0.74294522  0.00493204  0.07840197  1
  Mn3.34+  Mn194  1  0.91306043  0.00096324  0.24918433  1
  Mn3.34+  Mn195  1  0.75089706  0.00057815  0.41194203  1
  Mn3.34+  Mn196  1  0.91415942  -0.00306808  0.58026032  1
  Mn3.34+  Mn197  1  0.56723668  0.00324234  0.91477499  1
  Mn3.34+  Mn198  1  0.07369201  -0.00115615  0.41932845  1
  Mn3.34+  Mn199  1  0.91002798  -0.00342875  0.90956687  1
  Mn3.34+  Mn200  1  0.25498202  -0.00111084  0.93116660  1
  Mn3.34+  Mn201  1  0.74092400  -0.00234033  0.75674658  1
  Mn3.34+  Mn202  1  0.59221431  0.00044356  0.57875518  1
  Mn3.34+  Mn203  1  0.41145098  0.50075950  0.08459874  1
  Mn3.34+  Mn204  1  0.09227091  0.49783136  0.07718427  1
  Mn3.34+  Mn205  1  0.57818151  0.49760405  0.58327215  1
  Mn3.34+  Mn206  1  0.75986379  0.49467462  0.09452926  1
  Mn3.34+  Mn207  1  0.92550133  -0.01095835  0.58132296  1
  Mn3.34+  Mn208  1  0.59239597  0.49743159  0.92187727  1
  Mn3.34+  Mn209  1  0.92006930  0.50188654  0.92310063  1
  Mn3.34+  Mn210  1  0.26780982  0.00141965  0.25650675  1
  Mn3.34+  Mn211  1  0.41157979  0.49591782  0.41260889  1
  Mn3.34+  Mn212  1  0.57731429  0.50300662  0.92266200  1
  Mn3.34+  Mn213  1  0.75096174  0.50167620  0.41362036  1
  Mn3.34+  Mn214  1  0.08485128  0.00537399  0.74788346  1
  Mn3.34+  Mn215  1  0.08574923  0.49635429  0.41264830  1
  O2-  O216  1  -0.00217254  0.16790241  -0.00301569  1
  O2-  O217  1  0.00351760  0.15786222  0.33269563  1
  O2-  O218  1  0.00418143  0.16617248  0.66733766  1
  O2-  O219  1  -0.00749707  0.66365526  -0.00323409  1
  O2-  O220  1  0.00382701  0.64953687  0.31720007  1
  O2-  O221  1  0.00181386  0.64472141  0.66584920  1
  O2-  O222  1  0.33439631  0.16785920  -0.00238474  1
  O2-  O223  1  0.34127349  0.15070913  0.33305640  1
  O2-  O224  1  0.33398067  0.16890455  0.66040817  1
  O2-  O225  1  0.32871867  0.65071289  0.00311504  1
  O2-  O226  1  0.33233711  0.64849226  0.32951243  1
  O2-  O227  1  0.33068620  0.65404381  0.67080723  1
  O2-  O228  1  0.66428108  0.17247422  0.00285865  1
  O2-  O229  1  0.66424493  0.15356934  0.34653915  1
  O2-  O230  1  0.65810171  0.16349361  0.66056793  1
  O2-  O231  1  0.66599772  0.64764881  0.00587447  1
  O2-  O232  1  0.66758305  0.67316580  0.33749183  1
  O2-  O233  1  0.67326256  0.67120895  0.65992361  1
  O2-  O234  1  0.17333699  0.15959817  -0.00214087  1
  O2-  O235  1  0.17394279  0.15764916  0.34055831  1
  O2-  O236  1  0.16835476  0.17070154  0.66414490  1
  O2-  O237  1  0.17208578  0.65154834  0.00350561  1
  O2-  O238  1  0.17626392  0.65496886  0.33311247  1
  O2-  O239  1  0.16740380  0.65082210  0.67182142  1
  O2-  O240  1  0.49365114  0.19332439  0.00299303  1
  O2-  O241  1  0.49827659  0.15789646  0.34494310  1
  O2-  O242  1  0.50237753  0.17950240  0.66592375  1
  O2-  O243  1  0.48595467  0.64739303  0.00339110  1
  O2-  O244  1  0.49536230  0.65117874  0.32896036  1
  O2-  O245  1  0.50543306  0.65716762  0.66747248  1
  O2-  O246  1  0.83223852  0.14884965  -0.00243166  1
  O2-  O247  1  0.83139613  0.14424479  0.33029589  1
  O2-  O248  1  0.83405500  0.15690162  0.66140983  1
  O2-  O249  1  0.83279485  0.65700375  -0.00513557  1
  O2-  O250  1  0.84072261  0.65776698  0.33865617  1
  O2-  O251  1  0.83572983  0.65807505  0.66603332  1
  O2-  O252  1  0.00895574  0.34665879  -0.00794018  1
  O2-  O253  1  -0.00207211  0.33403641  0.33929392  1
  O2-  O254  1  0.00189257  0.35759251  0.66033867  1
  O2-  O255  1  0.00188907  0.84174286  -0.00105674  1
  O2-  O256  1  0.00811476  0.84920972  0.32740517  1
  O2-  O257  1  0.00020804  0.84361957  0.66657696  1
  O2-  O258  1  0.33224046  0.33169868  -0.00283619  1
  O2-  O259  1  0.32976638  0.34362702  0.34151546  1
  O2-  O260  1  0.32852897  0.33505953  0.66987935  1
  O2-  O261  1  0.33202815  0.84559067  -0.00143464  1
  O2-  O262  1  0.32981846  0.84516331  0.33691056  1
  O2-  O263  1  0.33798879  0.84892244  0.66240221  1
  O2-  O264  1  0.66438051  0.33570592  -0.00109558  1
  O2-  O265  1  0.66113512  0.34644008  0.34184598  1
  O2-  O266  1  0.66467575  0.34042716  0.66435659  1
  O2-  O267  1  0.65532482  0.85561796  0.01024655  1
  O2-  O268  1  0.67297369  0.82701379  0.33361393  1
  O2-  O269  1  0.66407725  0.80572849  0.66659237  1
  O2-  O270  1  0.16552387  0.34046892  -0.00456813  1
  O2-  O271  1  0.16373554  0.33266254  0.33718930  1
  O2-  O272  1  0.16903940  0.34697844  0.66438809  1
  O2-  O273  1  0.17314819  0.84967066  0.00467716  1
  O2-  O274  1  0.17022011  0.85091428  0.33243296  1
  O2-  O275  1  0.17886075  0.85519878  0.67851654  1
  O2-  O276  1  0.49061005  0.33024586  -0.00838137  1
  O2-  O277  1  0.49834759  0.34352814  0.33465674  1
  O2-  O278  1  0.50860591  0.34231516  0.67136743  1
  O2-  O279  1  0.49473679  0.84628552  -0.00120453  1
  O2-  O280  1  0.50083165  0.83802905  0.33495734  1
  O2-  O281  1  0.49889608  0.84253661  0.66783971  1
  O2-  O282  1  0.83159647  0.34700202  -0.00102007  1
  O2-  O283  1  0.82894154  0.34704338  0.33682304  1
  O2-  O284  1  0.83744372  0.34481792  0.66802510  1
  O2-  O285  1  0.83961181  0.82507723  0.00505723  1
  O2-  O286  1  0.82975942  0.83170107  0.33303863  1
  O2-  O287  1  0.82527020  0.82534863  0.66390890  1
  O2-  O288  1  0.00201489  0.18002267  0.16934649  1
  O2-  O289  1  0.00306701  0.19357348  0.48676185  1
  O2-  O290  1  -0.00592281  0.18179544  0.82696442  1
  O2-  O291  1  -0.00503389  0.67490602  0.15475030  1
  O2-  O292  1  -0.00976748  0.67291857  0.48962600  1
  O2-  O293  1  -0.00085455  0.68745520  0.82647396  1
  O2-  O294  1  0.33243277  0.18525091  0.15893212  1
  O2-  O295  1  0.32738801  0.18291816  0.49880499  1
  O2-  O296  1  0.33200113  0.17283214  0.83131301  1
  O2-  O297  1  0.33712262  0.69398187  0.17170483  1
  O2-  O298  1  0.32597445  0.67236302  0.50455418  1
  O2-  O299  1  0.33675675  0.67904375  0.83951551  1
  O2-  O300  1  0.68173151  0.17986241  0.17108066  1
  O2-  O301  1  0.66992927  0.18517969  0.50665614  1
  O2-  O302  1  0.65708601  0.18962909  0.84859389  1
  O2-  O303  1  0.67069553  0.67338425  0.17778566  1
  O2-  O304  1  0.66583843  0.69154075  0.49711986  1
  O2-  O305  1  0.67184996  0.68262960  0.82281153  1
  O2-  O306  1  0.17347219  0.17428754  0.17416129  1
  O2-  O307  1  0.16745274  0.18770160  0.50481735  1
  O2-  O308  1  0.16567425  0.17861129  0.83279978  1
  O2-  O309  1  0.16635465  0.69064689  0.17635414  1
  O2-  O310  1  0.16953047  0.67043402  0.50469892  1
  O2-  O311  1  0.17087828  0.68123348  0.82875139  1
  O2-  O312  1  0.48701824  0.17932369  0.16238161  1
  O2-  O313  1  0.49855362  0.18622786  0.49934267  1
  O2-  O314  1  0.50097436  0.18378954  0.83078050  1
  O2-  O315  1  0.50626705  0.67679753  0.15934292  1
  O2-  O316  1  0.49543196  0.68442320  0.50938424  1
  O2-  O317  1  0.49105559  0.67291878  0.83196646  1
  O2-  O318  1  0.83524282  0.17388644  0.16514665  1
  O2-  O319  1  0.82809762  0.18007839  0.50229074  1
  O2-  O320  1  0.83850280  0.17568493  0.83415051  1
  O2-  O321  1  0.83665054  0.68551394  0.16017091  1
  O2-  O322  1  0.83223719  0.68941747  0.49584067  1
  O2-  O323  1  0.83438616  0.68348156  0.83050092  1
  O2-  O324  1  0.00257239  0.32132800  0.17147297  1
  O2-  O325  1  0.00271401  0.31191321  0.50486836  1
  O2-  O326  1  -0.01490823  0.32829545  0.82032623  1
  O2-  O327  1  0.00284292  0.82232521  0.16725960  1
  O2-  O328  1  0.00080820  0.82041740  0.50020601  1
  O2-  O329  1  0.00371262  0.81667282  0.84205087  1
  O2-  O330  1  0.33383280  0.31370852  0.16672813  1
  O2-  O331  1  0.33585250  0.31225503  0.50087189  1
  O2-  O332  1  0.33911712  0.33051675  0.83941907  1
  O2-  O333  1  0.32991854  0.81123838  0.16646554  1
  O2-  O334  1  0.32757739  0.82389264  0.49787309  1
  O2-  O335  1  0.32773518  0.81911167  0.82691872  1
  O2-  O336  1  0.66497993  0.31960256  0.16513928  1
  O2-  O337  1  0.67090486  0.31394472  0.50691560  1
  O2-  O338  1  0.66425631  0.31936390  0.83247906  1
  O2-  O339  1  0.66864666  0.82939594  0.17085367  1
  O2-  O340  1  0.66612297  0.81131500  0.50356688  1
  O2-  O341  1  0.66566919  0.81471830  0.83379726  1
  O2-  O342  1  0.16710727  0.32500735  0.16918891  1
  O2-  O343  1  0.16403611  0.31301886  0.50709261  1
  O2-  O344  1  0.17057508  0.32905892  0.82850367  1
  O2-  O345  1  0.16233116  0.81506492  0.17650992  1
  O2-  O346  1  0.17327791  0.82149910  0.49456505  1
  O2-  O347  1  0.15778668  0.82835092  0.84557838  1
  O2-  O348  1  0.50139938  0.31780602  0.15962644  1
  O2-  O349  1  0.50209595  0.31139274  0.49489547  1
  O2-  O350  1  0.50503062  0.32199854  0.82959323  1
  O2-  O351  1  0.50449249  0.82136316  0.15663890  1
  O2-  O352  1  0.49224076  0.81834545  0.50909072  1
  O2-  O353  1  0.49149692  0.82037889  0.83950808  1
  O2-  O354  1  0.82489029  0.32587671  0.17644373  1
  O2-  O355  1  0.83253706  0.31219855  0.50654284  1
  O2-  O356  1  0.83164529  0.32965691  0.83187443  1
  O2-  O357  1  0.83457203  0.82056147  0.16767853  1
  O2-  O358  1  0.83138688  0.81296396  0.49939915  1
  O2-  O359  1  0.83080842  0.80327346  0.83475335  1
  O2-  O360  1  0.10252980  0.05812170  0.12636981  1
  O2-  O361  1  0.06747236  0.08314360  0.45916704  1
  O2-  O362  1  0.05582593  0.08543847  0.76553855  1
  O2-  O363  1  0.07924526  0.57842462  0.11627718  1
  O2-  O364  1  0.06117951  0.56860991  0.45947032  1
  O2-  O365  1  0.08364243  0.58331790  0.77982418  1
  O2-  O366  1  0.39919124  0.08320960  0.10700765  1
  O2-  O367  1  0.41550758  0.08233752  0.45995278  1
  O2-  O368  1  0.43886943  0.08700856  0.74732147  1
  O2-  O369  1  0.40232370  0.58098760  0.12299333  1
  O2-  O370  1  0.39571401  0.56647690  0.45924813  1
  O2-  O371  1  0.42094428  0.58012696  0.77080579  1
  O2-  O372  1  0.74046796  0.08431014  0.11343482  1
  O2-  O373  1  0.75900548  0.08198389  0.45439954  1
  O2-  O374  1  0.75455889  0.07832221  0.77807521  1
  O2-  O375  1  0.76937326  0.58145036  0.12428268  1
  O2-  O376  1  0.76874475  0.57325256  0.47018405  1
  O2-  O377  1  0.74436204  0.58361763  0.76280098  1
  O2-  O378  1  0.26076930  0.08405051  0.22762867  1
  O2-  O379  1  0.23847459  0.08298682  0.55545855  1
  O2-  O380  1  0.25008128  0.07404931  0.89328656  1
  O2-  O381  1  0.23662024  0.57912906  0.20001616  1
  O2-  O382  1  0.24983675  0.58062079  0.56384149  1
  O2-  O383  1  0.26735332  0.58422255  0.88793776  1
  O2-  O384  1  0.58269094  0.07312431  0.21317074  1
  O2-  O385  1  0.60925424  0.08067398  0.54735916  1
  O2-  O386  1  0.59452429  0.08334716  0.88297789  1
  O2-  O387  1  0.57130101  0.57650052  0.21868304  1
  O2-  O388  1  0.59198167  0.58131811  0.56997118  1
  O2-  O389  1  0.58573482  0.58119469  0.88742907  1
  O2-  O390  1  0.92596581  0.08114551  0.20966799  1
  O2-  O391  1  0.92318397  0.07702383  0.56123496  1
  O2-  O392  1  0.91380315  0.08271734  0.88125931  1
  O2-  O393  1  0.91605226  0.57958357  0.21115981  1
  O2-  O394  1  0.90977686  0.58093971  0.54715505  1
  O2-  O395  1  0.90392380  0.58069609  0.88946438  1
  O2-  O396  1  0.08361611  0.42164294  0.10971425  1
  O2-  O397  1  0.06992816  0.41845810  0.44798738  1
  O2-  O398  1  0.06633572  0.42334682  0.78495677  1
  O2-  O399  1  0.07909223  0.91284003  0.10704830  1
  O2-  O400  1  0.10634689  0.91991042  0.44434345  1
  O2-  O401  1  0.08689672  0.92828645  0.79213628  1
  O2-  O402  1  0.42674854  0.41880893  0.07141969  1
  O2-  O403  1  0.42761976  0.41814811  0.44332543  1
  O2-  O404  1  0.42171027  0.42151452  0.78480817  1
  O2-  O405  1  0.41291401  0.91097143  0.11238917  1
  O2-  O406  1  0.40888819  0.92070024  0.45397564  1
  O2-  O407  1  0.40321661  0.91689200  0.77564281  1
  O2-  O408  1  0.73116979  0.41474678  0.10532097  1
  O2-  O409  1  0.75905780  0.41961096  0.44991093  1
  O2-  O410  1  0.73567647  0.41571422  0.77751741  1
  O2-  O411  1  0.76799071  0.92160877  0.11620411  1
  O2-  O412  1  0.74457800  0.92029562  0.44369916  1
  O2-  O413  1  0.74447133  0.91105757  0.75315687  1
  O2-  O414  1  0.23463037  0.41637706  0.24853702  1
  O2-  O415  1  0.23435612  0.42080605  0.53307761  1
  O2-  O416  1  0.25511866  0.41751719  0.89264853  1
  O2-  O417  1  0.22681731  0.92411847  0.21383612  1
  O2-  O418  1  0.25613010  0.91721610  0.55781675  1
  O2-  O419  1  0.25508677  0.92626959  0.87568559  1
  O2-  O420  1  0.59055113  0.41549086  0.23173502  1
  O2-  O421  1  0.58777069  0.42187112  0.53228016  1
  O2-  O422  1  0.58816347  0.41797638  0.88558711  1
  O2-  O423  1  0.59653718  0.92378226  0.21926702  1
  O2-  O424  1  0.58755001  0.91801195  0.56879062  1
  O2-  O425  1  0.57553179  0.91878778  0.87776407  1
  O2-  O426  1  0.92275917  0.41709659  0.24312335  1
  O2-  O427  1  0.91752965  0.41709948  0.53835165  1
  O2-  O428  1  0.90528855  0.42228492  0.88836313  1
  O2-  O429  1  0.93018848  0.91931237  0.21828224  1
  O2-  O430  1  0.88607149  0.91324660  0.56319387  1
  O2-  O431  1  0.92605736  0.91633085  0.88706305  1
  O2-  O432  1  -0.00011359  -0.01227882  -0.00473398  1
  O2-  O433  1  0.00329368  -0.00475544  0.32501052  1
  O2-  O434  1  0.01115790  0.00377813  0.65671853  1
  O2-  O435  1  -0.00383908  0.51128166  0.01370054  1
  O2-  O436  1  0.00986583  0.51279332  0.32256208  1
  O2-  O437  1  -0.00862255  0.50733891  0.67442929  1
  O2-  O438  1  0.33172252  -0.01317184  -0.00048652  1
  O2-  O439  1  0.30713788  -0.00495694  0.37598515  1
  O2-  O440  1  0.34173482  -0.01901777  0.65234697  1
  O2-  O441  1  0.36503205  0.50768596  -0.02850068  1
  O2-  O442  1  0.32954153  0.50900738  0.34473433  1
  O2-  O443  1  0.30878256  0.49978290  0.70457725  1
  O2-  O444  1  0.66951589  0.00014236  -0.00977378  1
  O2-  O445  1  0.66164121  0.01537233  0.33016694  1
  O2-  O446  1  0.67839602  0.01156935  0.65701620  1
  O2-  O447  1  0.67233376  0.51135193  0.00564561  1
  O2-  O448  1  0.66658225  0.48562357  0.34578143  1
  O2-  O449  1  0.67140165  0.48159274  0.64611970  1
  O2-  O450  1  0.16703858  -0.02005179  -0.01147195  1
  O2-  O451  1  0.15766244  0.00694228  0.32335902  1
  O2-  O452  1  0.17845557  0.00366995  0.69421068  1
  O2-  O453  1  0.16792262  0.49738506  0.00206307  1
  O2-  O454  1  0.17710292  0.52215075  0.35917665  1
  O2-  O455  1  0.14978317  0.48738883  0.65730604  1
  O2-  O456  1  0.50436416  -0.02039225  0.00697840  1
  O2-  O457  1  0.48962617  0.02215475  0.33108366  1
  O2-  O458  1  0.48841816  0.00569177  0.61689043  1
  O2-  O459  1  0.51770762  0.50960359  0.02382981  1
  O2-  O460  1  0.49701059  0.50216203  0.34636073  1
  O2-  O461  1  0.52625914  0.49510145  0.69918782  1
  O2-  O462  1  0.83628375  0.00874316  -0.00228710  1
  O2-  O463  1  0.81417498  0.00845664  0.30887159  1
  O2-  O464  1  0.84064360  0.01046718  0.67460005  1
  O2-  O465  1  0.83380830  0.51058170  0.00535836  1
  O2-  O466  1  0.85504182  0.50687666  0.35839448  1
  O2-  O467  1  0.83737020  0.48276586  0.67251157  1
  O2-  O468  1  0.40954638  0.75359945  0.39683342  1
  O2-  O469  1  0.92438912  0.74840488  0.26864462  1
  O2-  O470  1  0.24595982  0.75163230  0.60701172  1
  O2-  O471  1  0.41173396  0.24927375  0.38887809  1
  O2-  O472  1  0.57497883  0.74412316  0.26468324  1
  O2-  O473  1  0.58225077  0.75583493  0.93559463  1
  O2-  O474  1  0.09171985  0.74961567  0.72044339  1
  O2-  O475  1  0.72597164  0.75026165  0.06418830  1
  O2-  O476  1  0.08359317  0.25487254  0.73037825  1
  O2-  O477  1  0.24585196  0.74875178  0.93703801  1
  O2-  O478  1  0.08289151  0.75480621  0.39775263  1
  O2-  O479  1  0.75608920  0.25250015  0.73227674  1
  O2-  O480  1  0.91193256  0.25349385  0.93336449  1
  O2-  O481  1  0.58315981  0.25284863  0.26522378  1
  O2-  O482  1  0.24879906  0.24781653  0.92294255  1
  O2-  O483  1  0.41740361  0.74697568  0.05397631  1
  O2-  O484  1  0.77310868  0.24979640  0.05952853  1
  O2-  O485  1  0.90616847  0.24751713  0.27564423  1
  O2-  O486  1  0.08573629  0.25661140  0.07141007  1
  O2-  O487  1  0.08732620  0.75076979  0.05337476  1
  O2-  O488  1  0.75472991  0.24924305  0.38630890  1
  O2-  O489  1  0.41396190  0.75085474  0.72283914  1
  O2-  O490  1  0.25238763  0.24976355  0.27076916  1
  O2-  O491  1  0.40463990  0.25154212  0.74060830  1
  O2-  O492  1  0.93045141  0.75093234  0.60800122  1
