# generated using pymatgen
data_Ca108Mn108O277
_symmetry_space_group_name_H-M   'P 1'
_cell_length_a   16.03015168
_cell_length_b   22.30918005
_cell_length_c   16.39230046
_cell_angle_alpha   90.00075635
_cell_angle_beta   90.00084270
_cell_angle_gamma   90.00069413
_symmetry_Int_Tables_number   1
_chemical_formula_structural   Ca108Mn108O277
_chemical_formula_sum   'Ca108 Mn108 O277'
_cell_volume   5862.20695155
_cell_formula_units_Z   1
loop_
 _symmetry_equiv_pos_site_id
 _symmetry_equiv_pos_as_xyz
  1  'x, y, z'
loop_
 _atom_type_symbol
 _atom_type_oxidation_number
  Ca2+  2.0
  Mn3.34+  3.34
  O2-  -2.0
loop_
 _atom_site_type_symbol
 _atom_site_label
 _atom_site_symmetry_multiplicity
 _atom_site_fract_x
 _atom_site_fract_y
 _atom_site_fract_z
 _atom_site_occupancy
  Ca2+  Ca0  1  0.05714626  0.25041113  0.26089913  1
  Ca2+  Ca1  1  0.08272819  0.25086455  0.57605514  1
  Ca2+  Ca2  1  0.08890436  0.27016961  0.90546598  1
  Ca2+  Ca3  1  0.07741508  0.75277956  0.23351646  1
  Ca2+  Ca4  1  0.09537669  0.76911568  0.58564553  1
  Ca2+  Ca5  1  0.06449323  0.75096191  0.92634695  1
  Ca2+  Ca6  1  0.42058783  0.26921312  0.23915230  1
  Ca2+  Ca7  1  0.43265334  0.24637260  0.59615385  1
  Ca2+  Ca8  1  0.42165258  0.25389692  0.92086080  1
  Ca2+  Ca9  1  0.42452109  0.73877624  0.25839741  1
  Ca2+  Ca10  1  0.42701349  0.75137923  0.58567177  1
  Ca2+  Ca11  1  0.40273686  0.74883158  0.90311965  1
  Ca2+  Ca12  1  0.77102579  0.24290048  0.24877231  1
  Ca2+  Ca13  1  0.73124472  0.23523611  0.57791623  1
  Ca2+  Ca14  1  0.73361599  0.23846799  0.91746829  1
  Ca2+  Ca15  1  0.75358010  0.75006996  0.24817819  1
  Ca2+  Ca16  1  0.72535248  0.75122707  0.59262769  1
  Ca2+  Ca17  1  0.77396331  0.75334518  0.91579876  1
  Ca2+  Ca18  1  0.27397673  0.25764394  0.07599477  1
  Ca2+  Ca19  1  0.24685462  0.25819289  0.42758146  1
  Ca2+  Ca20  1  0.27139218  0.25885552  0.75085902  1
  Ca2+  Ca21  1  0.24007942  0.74881630  0.08541145  1
  Ca2+  Ca22  1  0.27132085  0.74134170  0.41493351  1
  Ca2+  Ca23  1  0.27792066  0.74365852  0.74689554  1
  Ca2+  Ca24  1  0.55844339  0.24550544  0.07937129  1
  Ca2+  Ca25  1  0.58891807  0.26379959  0.42668595  1
  Ca2+  Ca26  1  0.55198692  0.23200613  0.74696467  1
  Ca2+  Ca27  1  0.58522839  0.75483021  0.09654154  1
  Ca2+  Ca28  1  0.57218722  0.74255728  0.42840903  1
  Ca2+  Ca29  1  0.56533222  0.72968791  0.72845601  1
  Ca2+  Ca30  1  0.90257197  0.24393348  0.10099738  1
  Ca2+  Ca31  1  0.91395473  0.24245181  0.41248074  1
  Ca2+  Ca32  1  0.91036966  0.25667988  0.73713550  1
  Ca2+  Ca33  1  0.91957551  0.73295088  0.07919362  1
  Ca2+  Ca34  1  0.91086217  0.74545890  0.39184686  1
  Ca2+  Ca35  1  0.90780019  0.76075901  0.76849321  1
  Ca2+  Ca36  1  0.41512731  0.09514202  0.21578199  1
  Ca2+  Ca37  1  0.43799908  0.09342007  0.59825751  1
  Ca2+  Ca38  1  0.57543582  0.09924239  0.76417006  1
  Ca2+  Ca39  1  0.78371822  0.60295174  0.92715005  1
  Ca2+  Ca40  1  0.08744512  0.60284582  0.24201505  1
  Ca2+  Ca41  1  0.62184153  0.10400908  0.01979444  1
  Ca2+  Ca42  1  0.07811049  0.06753851  0.91644730  1
  Ca2+  Ca43  1  0.42806042  0.09479095  0.21625045  1
  Ca2+  Ca44  1  0.27160718  0.08437977  0.73716438  1
  Ca2+  Ca45  1  0.27221434  0.57412988  0.72952172  1
  Ca2+  Ca46  1  0.87150555  0.09841537  0.08225457  1
  Ca2+  Ca47  1  0.21632540  0.07718123  0.43331037  1
  Ca2+  Ca48  1  0.45351190  0.10372367  0.91819044  1
  Ca2+  Ca49  1  0.41593672  0.60273988  0.58567464  1
  Ca2+  Ca50  1  0.44420530  0.10452709  0.92253989  1
  Ca2+  Ca51  1  0.89953165  0.59366309  0.77029223  1
  Ca2+  Ca52  1  0.91418453  0.10622849  0.42244175  1
  Ca2+  Ca53  1  0.40722736  0.60004856  0.58972479  1
  Ca2+  Ca54  1  0.13199238  0.56758039  0.58515573  1
  Ca2+  Ca55  1  0.91144350  0.59127620  0.76811398  1
  Ca2+  Ca56  1  0.88140412  0.09497100  0.08378293  1
  Ca2+  Ca57  1  0.07450662  0.59663869  0.92395530  1
  Ca2+  Ca58  1  0.55787094  0.60763003  0.42080419  1
  Ca2+  Ca59  1  0.56513863  0.59256098  0.09214318  1
  Ca2+  Ca60  1  0.06177591  0.08427130  0.28539995  1
  Ca2+  Ca61  1  0.06293609  0.10001988  0.57017187  1
  Ca2+  Ca62  1  0.07691292  0.60364324  0.24238967  1
  Ca2+  Ca63  1  0.43207657  0.09812730  0.60393409  1
  Ca2+  Ca64  1  0.71488689  0.60884767  0.58562224  1
  Ca2+  Ca65  1  0.27240793  0.58972707  0.07762382  1
  Ca2+  Ca66  1  0.26614884  0.07799101  0.73865900  1
  Ca2+  Ca67  1  0.40506639  0.59852471  0.88959780  1
  Ca2+  Ca68  1  0.61022211  0.10252591  0.43662163  1
  Ca2+  Ca69  1  0.90519293  0.59537077  0.39149645  1
  Ca2+  Ca70  1  0.75217439  0.60481587  0.24372683  1
  Ca2+  Ca71  1  0.77879438  0.10530336  0.25422773  1
  Ca2+  Ca72  1  0.91211199  0.40819123  0.41959396  1
  Ca2+  Ca73  1  0.24070686  0.91389337  0.73255380  1
  Ca2+  Ca74  1  0.73622304  0.40634411  0.24768301  1
  Ca2+  Ca75  1  0.92386585  0.40011237  0.07680632  1
  Ca2+  Ca76  1  0.58422488  0.89067602  0.41617488  1
  Ca2+  Ca77  1  0.42750633  0.90811010  0.91682177  1
  Ca2+  Ca78  1  0.40211421  0.41824869  0.93570117  1
  Ca2+  Ca79  1  0.74327779  0.90645060  0.58719795  1
  Ca2+  Ca80  1  0.59032711  0.90243095  0.75739360  1
  Ca2+  Ca81  1  0.24880754  0.42529729  0.74720789  1
  Ca2+  Ca82  1  0.91608352  0.89872489  0.41498773  1
  Ca2+  Ca83  1  0.92687689  0.40705840  0.75079890  1
  Ca2+  Ca84  1  0.41603722  0.90821016  0.91623824  1
  Ca2+  Ca85  1  0.74728625  0.40584514  0.91645064  1
  Ca2+  Ca86  1  0.77909813  0.91884899  0.91961226  1
  Ca2+  Ca87  1  0.10139904  0.42321948  0.60078416  1
  Ca2+  Ca88  1  0.55912660  0.41058552  0.08375081  1
  Ca2+  Ca89  1  0.07925298  0.89889278  0.25996928  1
  Ca2+  Ca90  1  0.39001972  0.42277628  0.59627590  1
  Ca2+  Ca91  1  0.25074503  0.91308789  0.73536047  1
  Ca2+  Ca92  1  0.41936167  0.88697207  0.24708315  1
  Ca2+  Ca93  1  0.25461838  0.90662261  0.07221335  1
  Ca2+  Ca94  1  0.23687599  0.90384234  0.43452574  1
  Ca2+  Ca95  1  0.92487778  0.40937478  0.41889887  1
  Ca2+  Ca96  1  0.91105001  0.40086470  0.07610367  1
  Ca2+  Ca97  1  0.06555874  0.90999107  0.91709919  1
  Ca2+  Ca98  1  0.23985084  0.42139564  0.41779652  1
  Ca2+  Ca99  1  0.57462250  0.41177188  0.74854353  1
  Ca2+  Ca100  1  0.10463062  0.42755449  0.60848479  1
  Ca2+  Ca101  1  0.09163743  0.41143881  0.25987551  1
  Ca2+  Ca102  1  0.75952653  0.40659019  0.91369838  1
  Ca2+  Ca103  1  0.58720034  0.41320528  0.74788137  1
  Ca2+  Ca104  1  0.40045348  0.42268624  0.59501353  1
  Ca2+  Ca105  1  0.74891392  0.39900579  0.58645474  1
  Ca2+  Ca106  1  0.92865172  0.89744630  0.41585228  1
  Ca2+  Ca107  1  0.25096630  0.42146555  0.41702857  1
  Mn3.34+  Mn108  1  0.09028907  0.32804180  0.08966995  1
  Mn3.34+  Mn109  1  0.08423061  0.33400228  0.42226551  1
  Mn3.34+  Mn110  1  0.08710945  0.33701016  0.75027350  1
  Mn3.34+  Mn111  1  0.08208685  0.83678355  0.08246015  1
  Mn3.34+  Mn112  1  0.08713383  0.83386047  0.42056051  1
  Mn3.34+  Mn113  1  0.07930420  0.83680081  0.75349072  1
  Mn3.34+  Mn114  1  0.41230710  0.33849105  0.08398729  1
  Mn3.34+  Mn115  1  0.42018291  0.34273709  0.41369357  1
  Mn3.34+  Mn116  1  0.41752178  0.33737227  0.75802840  1
  Mn3.34+  Mn117  1  0.41972943  0.83177609  0.08446824  1
  Mn3.34+  Mn118  1  0.41534963  0.82928925  0.41988690  1
  Mn3.34+  Mn119  1  0.42338039  0.83025477  0.74631389  1
  Mn3.34+  Mn120  1  0.74021800  0.32947308  0.08851653  1
  Mn3.34+  Mn121  1  0.74643748  0.33505562  0.41723838  1
  Mn3.34+  Mn122  1  0.74660345  0.33440160  0.75101708  1
  Mn3.34+  Mn123  1  0.74881461  0.83928021  0.08453950  1
  Mn3.34+  Mn124  1  0.75027948  0.83370684  0.41835896  1
  Mn3.34+  Mn125  1  0.75074221  0.83409844  0.75408421  1
  Mn3.34+  Mn126  1  0.25160716  0.33914334  0.24692700  1
  Mn3.34+  Mn127  1  0.25192710  0.32934599  0.58546363  1
  Mn3.34+  Mn128  1  0.24775115  0.34095506  0.91925822  1
  Mn3.34+  Mn129  1  0.24958796  0.82689714  0.24789428  1
  Mn3.34+  Mn130  1  0.25451514  0.83423239  0.58208683  1
  Mn3.34+  Mn131  1  0.24628583  0.83381520  0.90912321  1
  Mn3.34+  Mn132  1  0.58045802  0.33930135  0.25277238  1
  Mn3.34+  Mn133  1  0.58057555  0.33211952  0.58041001  1
  Mn3.34+  Mn134  1  0.58165488  0.32634132  0.91569675  1
  Mn3.34+  Mn135  1  0.58898276  0.82651931  0.24860442  1
  Mn3.34+  Mn136  1  0.58078399  0.83518949  0.58424445  1
  Mn3.34+  Mn137  1  0.59208959  0.83558777  0.91957080  1
  Mn3.34+  Mn138  1  0.91464087  0.33281724  0.24910139  1
  Mn3.34+  Mn139  1  0.91499615  0.32795129  0.58016788  1
  Mn3.34+  Mn140  1  0.92097469  0.32945291  0.91182231  1
  Mn3.34+  Mn141  1  0.91111903  0.82291097  0.23717545  1
  Mn3.34+  Mn142  1  0.91663016  0.83256788  0.59167858  1
  Mn3.34+  Mn143  1  0.91698306  0.83850728  0.92075387  1
  Mn3.34+  Mn144  1  0.24977116  0.16325079  0.58081022  1
  Mn3.34+  Mn145  1  0.90781758  0.67083616  0.57715044  1
  Mn3.34+  Mn146  1  0.42253687  0.17101955  0.41357309  1
  Mn3.34+  Mn147  1  0.91920268  0.66675021  0.57453761  1
  Mn3.34+  Mn148  1  0.74904429  0.66557472  0.08789575  1
  Mn3.34+  Mn149  1  0.75583029  0.17275237  0.42300540  1
  Mn3.34+  Mn150  1  0.24085194  0.15618570  0.91404107  1
  Mn3.34+  Mn151  1  0.08542813  0.16796024  0.74630554  1
  Mn3.34+  Mn152  1  0.24996414  0.66906612  0.91598422  1
  Mn3.34+  Mn153  1  0.57821327  0.66551582  0.25118713  1
  Mn3.34+  Mn154  1  0.08918298  0.16703376  0.08763884  1
  Mn3.34+  Mn155  1  0.58959148  0.67654303  0.91778805  1
  Mn3.34+  Mn156  1  0.57868215  0.68343912  0.91850176  1
  Mn3.34+  Mn157  1  0.59660389  0.16571279  0.24550622  1
  Mn3.34+  Mn158  1  0.26083701  0.66699860  0.24904058  1
  Mn3.34+  Mn159  1  0.08646671  0.65857978  0.42631729  1
  Mn3.34+  Mn160  1  0.91553600  0.16415797  0.91062602  1
  Mn3.34+  Mn161  1  0.74753733  0.66655629  0.75499860  1
  Mn3.34+  Mn162  1  0.08035290  0.17299122  0.08563969  1
  Mn3.34+  Mn163  1  0.74285577  0.66040567  0.41668267  1
  Mn3.34+  Mn164  1  0.90575970  0.15879562  0.90922860  1
  Mn3.34+  Mn165  1  0.25593751  0.67116683  0.58364778  1
  Mn3.34+  Mn166  1  0.25486634  0.16239956  0.91233685  1
  Mn3.34+  Mn167  1  0.08238217  0.66127534  0.75135352  1
  Mn3.34+  Mn168  1  0.24241028  0.16614917  0.25037194  1
  Mn3.34+  Mn169  1  0.41198085  0.16601718  0.41571249  1
  Mn3.34+  Mn170  1  0.41558289  0.66387560  0.08681244  1
  Mn3.34+  Mn171  1  0.09687988  0.66316410  0.42488495  1
  Mn3.34+  Mn172  1  0.25524586  0.17296025  0.25347276  1
  Mn3.34+  Mn173  1  0.08027566  0.17004829  0.42008784  1
  Mn3.34+  Mn174  1  0.58699331  0.17072532  0.24837624  1
  Mn3.34+  Mn175  1  0.07121980  0.16278576  0.74675467  1
  Mn3.34+  Mn176  1  0.08610241  0.66814770  0.07877485  1
  Mn3.34+  Mn177  1  0.75435287  0.16150922  0.73947860  1
  Mn3.34+  Mn178  1  0.74414838  0.16585342  0.74125463  1
  Mn3.34+  Mn179  1  0.09184792  0.66669682  0.74958860  1
  Mn3.34+  Mn180  1  0.09909254  0.49221854  0.07981183  1
  Mn3.34+  Mn181  1  0.75294368  0.00579815  0.42171055  1
  Mn3.34+  Mn182  1  0.58491429  0.50162886  0.25836592  1
  Mn3.34+  Mn183  1  0.60673116  -0.00457857  0.24346268  1
  Mn3.34+  Mn184  1  0.59120381  0.49529118  0.56135373  1
  Mn3.34+  Mn185  1  0.91865912  -0.00248801  0.59977428  1
  Mn3.34+  Mn186  1  0.59372602  -0.00729524  0.24263044  1
  Mn3.34+  Mn187  1  0.75266483  0.50067376  0.08023113  1
  Mn3.34+  Mn188  1  0.91411866  -0.00645467  0.23999605  1
  Mn3.34+  Mn189  1  0.73241299  0.49831067  0.40774640  1
  Mn3.34+  Mn190  1  0.43248229  -0.00236020  0.41850933  1
  Mn3.34+  Mn191  1  0.58303354  0.50772025  0.91542593  1
  Mn3.34+  Mn192  1  0.41852744  0.00326467  0.42200420  1
  Mn3.34+  Mn193  1  0.74741325  -0.00268218  0.75479572  1
  Mn3.34+  Mn194  1  0.89858920  0.50504664  0.58860778  1
  Mn3.34+  Mn195  1  0.42709462  -0.00454229  0.75397759  1
  Mn3.34+  Mn196  1  0.09238052  0.00513679  0.08153579  1
  Mn3.34+  Mn197  1  0.58591580  -0.00503259  0.59866781  1
  Mn3.34+  Mn198  1  0.25373727  -0.00443844  0.25211363  1
  Mn3.34+  Mn199  1  0.90723045  0.49759042  0.24849473  1
  Mn3.34+  Mn200  1  0.91017541  0.51020304  0.58743664  1
  Mn3.34+  Mn201  1  0.59046763  0.50136825  0.57554079  1
  Mn3.34+  Mn202  1  0.07311242  -0.00147940  0.75014316  1
  Mn3.34+  Mn203  1  0.41782405  -0.00623619  0.06214024  1
  Mn3.34+  Mn204  1  0.08762239  0.49729948  0.08198491  1
  Mn3.34+  Mn205  1  0.90754647  0.00390272  0.59713888  1
  Mn3.34+  Mn206  1  0.92386897  0.49627996  0.91765771  1
  Mn3.34+  Mn207  1  0.92377555  0.50100411  0.24894699  1
  Mn3.34+  Mn208  1  0.74247339  -0.00538837  0.06828112  1
  Mn3.34+  Mn209  1  0.24803608  0.50150342  0.25073356  1
  Mn3.34+  Mn210  1  0.42099038  0.50264862  0.39250563  1
  Mn3.34+  Mn211  1  0.23970965  0.00117854  0.24807644  1
  Mn3.34+  Mn212  1  0.07848775  -0.00114079  0.08265011  1
  Mn3.34+  Mn213  1  0.57235546  0.50254590  0.91601104  1
  Mn3.34+  Mn214  1  0.25389054  0.50680899  0.91595768  1
  Mn3.34+  Mn215  1  0.89994171  -0.01227596  0.24178913  1
  O2-  O216  1  -0.00937288  0.15265536  0.00955196  1
  O2-  O217  1  0.00395362  0.16462929  0.33918366  1
  O2-  O218  1  0.00129734  0.17667625  0.66028574  1
  O2-  O219  1  0.01040794  0.66497164  0.00035888  1
  O2-  O220  1  0.00965453  0.66292650  0.33891530  1
  O2-  O221  1  0.00022932  0.65466015  0.66405970  1
  O2-  O222  1  0.33788060  0.15087293  -0.01148421  1
  O2-  O223  1  0.33778625  0.13599424  0.33229211  1
  O2-  O224  1  0.33320416  0.15030070  0.66017577  1
  O2-  O225  1  0.33964470  0.65977397  -0.00375360  1
  O2-  O226  1  0.33636201  0.67602003  0.32674376  1
  O2-  O227  1  0.32768881  0.66049264  0.66833853  1
  O2-  O228  1  0.65380608  0.19998797  0.00393405  1
  O2-  O229  1  0.67477100  0.14963614  0.32599755  1
  O2-  O230  1  0.66531130  0.15522426  0.66388920  1
  O2-  O231  1  0.66033400  0.67025709  0.00621052  1
  O2-  O232  1  0.66413409  0.65324133  0.33116866  1
  O2-  O233  1  0.66723480  0.66740457  0.67734930  1
  O2-  O234  1  0.16164069  0.15532385  -0.00242884  1
  O2-  O235  1  0.17011556  0.14816641  0.33445391  1
  O2-  O236  1  0.16664743  0.14008153  0.66540578  1
  O2-  O237  1  0.17468836  0.64846720  0.00368892  1
  O2-  O238  1  0.16903361  0.65115854  0.33482137  1
  O2-  O239  1  0.16639275  0.64925752  0.66567036  1
  O2-  O240  1  0.51112507  0.16812180  0.00270065  1
  O2-  O241  1  0.50806129  0.13763708  0.32759355  1
  O2-  O242  1  0.49962182  0.15610031  0.67194068  1
  O2-  O243  1  0.49997198  0.68101616  0.00470329  1
  O2-  O244  1  0.50276574  0.67105698  0.33326834  1
  O2-  O245  1  0.49243999  0.66393913  0.65362389  1
  O2-  O246  1  0.82151337  0.15999021  -0.00978614  1
  O2-  O247  1  0.83555588  0.16373648  0.34128201  1
  O2-  O248  1  0.83410691  0.17047599  0.66509823  1
  O2-  O249  1  0.81929564  0.67871959  0.00538185  1
  O2-  O250  1  0.82418545  0.66686285  0.33734121  1
  O2-  O251  1  0.83188374  0.63973461  0.66381345  1
  O2-  O252  1  0.00105756  0.33316143  0.00363255  1
  O2-  O253  1  0.00171969  0.34913210  0.33271626  1
  O2-  O254  1  0.00486274  0.33236086  0.65552970  1
  O2-  O255  1  0.00397452  0.84187757  0.00030090  1
  O2-  O256  1  0.00268903  0.82730257  0.33779564  1
  O2-  O257  1  0.00254672  0.81628624  0.67338289  1
  O2-  O258  1  0.33360351  0.33809989  -0.00399775  1
  O2-  O259  1  0.32603645  0.35817408  0.33959661  1
  O2-  O260  1  0.32959627  0.35452032  0.67495651  1
  O2-  O261  1  0.33912267  0.84679757  -0.00484184  1
  O2-  O262  1  0.33507942  0.82593986  0.33100087  1
  O2-  O263  1  0.33113642  0.84534207  0.67175945  1
  O2-  O264  1  0.66825637  0.34226170  -0.00388497  1
  O2-  O265  1  0.66481649  0.34940331  0.33688800  1
  O2-  O266  1  0.65834426  0.35104605  0.67233619  1
  O2-  O267  1  0.66755545  0.80651412  -0.00013361  1
  O2-  O268  1  0.66531181  0.82953409  0.33986335  1
  O2-  O269  1  0.66807953  0.84433812  0.66653468  1
  O2-  O270  1  0.16676287  0.31546275  0.00717310  1
  O2-  O271  1  0.16946486  0.35436734  0.34498522  1
  O2-  O272  1  0.17047826  0.34853013  0.66690332  1
  O2-  O273  1  0.16616102  0.85312731  -0.00618330  1
  O2-  O274  1  0.16879167  0.84399960  0.33476093  1
  O2-  O275  1  0.16478841  0.84140283  0.66900711  1
  O2-  O276  1  0.49997558  0.33308422  -0.00482817  1
  O2-  O277  1  0.49774728  0.34385991  0.33094907  1
  O2-  O278  1  0.49407776  0.35767684  0.66161386  1
  O2-  O279  1  0.49730950  0.82274563  -0.00331083  1
  O2-  O280  1  0.49803228  0.82681665  0.33560803  1
  O2-  O281  1  0.50436180  0.85022506  0.66843347  1
  O2-  O282  1  0.83020000  0.33857449  0.00276710  1
  O2-  O283  1  0.83422522  0.35675153  0.33042923  1
  O2-  O284  1  0.83830387  0.34345207  0.66936433  1
  O2-  O285  1  0.82365789  0.84150565  -0.00405435  1
  O2-  O286  1  0.83612901  0.82929058  0.33595307  1
  O2-  O287  1  0.83067682  0.85152623  0.66589668  1
  O2-  O288  1  0.00123813  0.18576507  0.16580187  1
  O2-  O289  1  0.00377737  0.18522674  0.49676536  1
  O2-  O290  1  0.00114822  0.18444403  0.83928447  1
  O2-  O291  1  0.01478414  0.67511302  0.16548766  1
  O2-  O292  1  0.00339844  0.69678601  0.49327865  1
  O2-  O293  1  -0.00118710  0.68662398  0.82108302  1
  O2-  O294  1  0.34038617  0.17876334  0.17847886  1
  O2-  O295  1  0.33284775  0.18570013  0.50382334  1
  O2-  O296  1  0.31528088  0.16729278  0.81694471  1
  O2-  O297  1  0.33093576  0.68452552  0.15785331  1
  O2-  O298  1  0.33823019  0.68390543  0.51089501  1
  O2-  O299  1  0.32813896  0.67639320  0.83803361  1
  O2-  O300  1  0.66963928  0.18308057  0.16475917  1
  O2-  O301  1  0.66147014  0.18502583  0.48344442  1
  O2-  O302  1  0.66712649  0.17751279  0.82047500  1
  O2-  O303  1  0.66309915  0.67864947  0.16554426  1
  O2-  O304  1  0.66770104  0.68348007  0.49200285  1
  O2-  O305  1  0.67219522  0.68887560  0.84215163  1
  O2-  O306  1  0.17275198  0.19268289  0.16214594  1
  O2-  O307  1  0.16857103  0.17691331  0.50151067  1
  O2-  O308  1  0.15589840  0.17660132  0.83826030  1
  O2-  O309  1  0.16588222  0.67132752  0.17043742  1
  O2-  O310  1  0.16845722  0.68745739  0.50555124  1
  O2-  O311  1  0.15988289  0.68626399  0.83885170  1
  O2-  O312  1  0.49586186  0.17710694  0.17837419  1
  O2-  O313  1  0.49966362  0.17949455  0.49881188  1
  O2-  O314  1  0.49072403  0.17945762  0.84797882  1
  O2-  O315  1  0.49993119  0.68111297  0.16242562  1
  O2-  O316  1  0.48511945  0.67429125  0.50850354  1
  O2-  O317  1  0.49849894  0.68414305  0.84040339  1
  O2-  O318  1  0.83117718  0.17051926  0.15640238  1
  O2-  O319  1  0.83143892  0.18759423  0.49674362  1
  O2-  O320  1  0.83027986  0.18316521  0.82192947  1
  O2-  O321  1  0.82092994  0.67953252  0.16417985  1
  O2-  O322  1  0.82969211  0.68767247  0.49168718  1
  O2-  O323  1  0.83872115  0.67494505  0.82652771  1
  O2-  O324  1  -0.00860842  0.31766701  0.16027765  1
  O2-  O325  1  -0.00646904  0.31600244  0.49210935  1
  O2-  O326  1  -0.00335884  0.32184281  0.82130490  1
  O2-  O327  1  0.00619870  0.82648788  0.17056232  1
  O2-  O328  1  0.00055786  0.81865074  0.49693198  1
  O2-  O329  1  0.00547860  0.82246058  0.83927891  1
  O2-  O330  1  0.33034800  0.32501416  0.16675605  1
  O2-  O331  1  0.33069959  0.32530004  0.50126656  1
  O2-  O332  1  0.34037880  0.32598278  0.83847124  1
  O2-  O333  1  0.33096754  0.81611765  0.16005164  1
  O2-  O334  1  0.33306271  0.81471300  0.49921509  1
  O2-  O335  1  0.33578897  0.82037038  0.83126477  1
  O2-  O336  1  0.66645578  0.31630785  0.17320574  1
  O2-  O337  1  0.67586360  0.32074055  0.51013285  1
  O2-  O338  1  0.67015744  0.31724826  0.84169345  1
  O2-  O339  1  0.67212963  0.81618539  0.16785149  1
  O2-  O340  1  0.67018565  0.82251357  0.50178877  1
  O2-  O341  1  0.66315743  0.81638052  0.83288317  1
  O2-  O342  1  0.15873219  0.31228229  0.18126440  1
  O2-  O343  1  0.16439888  0.32117923  0.50664174  1
  O2-  O344  1  0.17163001  0.32988010  0.82915194  1
  O2-  O345  1  0.16751292  0.82649932  0.16562716  1
  O2-  O346  1  0.17463013  0.81779641  0.49248088  1
  O2-  O347  1  0.17065437  0.81469226  0.82693926  1
  O2-  O348  1  0.50451226  0.32836822  0.16151658  1
  O2-  O349  1  0.49285360  0.32331194  0.50495710  1
  O2-  O350  1  0.51013043  0.31585730  0.82500516  1
  O2-  O351  1  0.49491916  0.81434210  0.17090019  1
  O2-  O352  1  0.50352079  0.82001288  0.49527878  1
  O2-  O353  1  0.49511313  0.81859041  0.83851745  1
  O2-  O354  1  0.83128412  0.31772094  0.16368722  1
  O2-  O355  1  0.83832692  0.31906660  0.49343136  1
  O2-  O356  1  0.82991472  0.32649084  0.83356657  1
  O2-  O357  1  0.83444622  0.81031208  0.15621280  1
  O2-  O358  1  0.84188665  0.82265023  0.49134088  1
  O2-  O359  1  0.82994508  0.82811630  0.83814411  1
  O2-  O360  1  0.08688476  0.08104859  0.13298318  1
  O2-  O361  1  0.07646730  0.08662821  0.43737112  1
  O2-  O362  1  0.07300111  0.08258597  0.78284322  1
  O2-  O363  1  0.08817338  0.57896336  0.10959067  1
  O2-  O364  1  0.06893567  0.57778769  0.45606532  1
  O2-  O365  1  0.05309151  0.57908118  0.78387066  1
  O2-  O366  1  0.42863939  0.07007407  0.08958958  1
  O2-  O367  1  0.41622127  0.08286704  0.45606054  1
  O2-  O368  1  0.40925083  0.07323980  0.78652344  1
  O2-  O369  1  0.41880471  0.58640125  0.09950807  1
  O2-  O370  1  0.43426485  0.56293215  0.46358467  1
  O2-  O371  1  0.40822481  0.56836944  0.76045476  1
  O2-  O372  1  0.74563298  0.05934308  0.13260711  1
  O2-  O373  1  0.75363221  0.08689088  0.44652112  1
  O2-  O374  1  0.74560296  0.08191867  0.77074556  1
  O2-  O375  1  0.73486130  0.58187881  0.09977520  1
  O2-  O376  1  0.74870701  0.57913057  0.45346047  1
  O2-  O377  1  0.76103338  0.58483295  0.79068275  1
  O2-  O378  1  0.26982244  0.07961716  0.20746548  1
  O2-  O379  1  0.26199033  0.08063039  0.56105120  1
  O2-  O380  1  0.23521209  0.07584932  0.87918169  1
  O2-  O381  1  0.24230812  0.58098852  0.21737971  1
  O2-  O382  1  0.26705373  0.58810681  0.56721447  1
  O2-  O383  1  0.24232609  0.58364822  0.87578018  1
  O2-  O384  1  0.57489437  0.07698089  0.20005014  1
  O2-  O385  1  0.54740277  0.05729213  0.53337402  1
  O2-  O386  1  0.56930464  0.07153586  0.89331950  1
  O2-  O387  1  0.58333031  0.58101426  0.22517125  1
  O2-  O388  1  0.58239606  0.58091169  0.55815935  1
  O2-  O389  1  0.56928781  0.59016319  0.90866470  1
  O2-  O390  1  0.91705796  0.07348905  0.21129114  1
  O2-  O391  1  0.92660319  0.07475146  0.54567095  1
  O2-  O392  1  0.92590226  0.07945470  0.89815412  1
  O2-  O393  1  0.93716715  0.58356944  0.24495785  1
  O2-  O394  1  0.91243802  0.58392627  0.53027948  1
  O2-  O395  1  0.92348780  0.57755702  0.90109995  1
  O2-  O396  1  0.06458552  0.41546087  0.12273169  1
  O2-  O397  1  0.08269463  0.41803801  0.46339295  1
  O2-  O398  1  0.07104864  0.41718786  0.74710884  1
  O2-  O399  1  0.09263668  0.92312084  0.12446122  1
  O2-  O400  1  0.06831842  0.91374292  0.42570785  1
  O2-  O401  1  0.10231333  0.92015033  0.78444254  1
  O2-  O402  1  0.42132087  0.41754430  0.08043953  1
  O2-  O403  1  0.39657309  0.43048837  0.45669363  1
  O2-  O404  1  0.44155213  0.41962465  0.78783991  1
  O2-  O405  1  0.40957491  0.92544159  0.11791105  1
  O2-  O406  1  0.41868426  0.91647995  0.42306086  1
  O2-  O407  1  0.42349440  0.91578704  0.78035440  1
  O2-  O408  1  0.77371742  0.42048966  0.11181337  1
  O2-  O409  1  0.77306747  0.41985628  0.45198059  1
  O2-  O410  1  0.72693163  0.41925937  0.78539134  1
  O2-  O411  1  0.74300927  0.92710831  0.11612781  1
  O2-  O412  1  0.77027655  0.92389179  0.44418623  1
  O2-  O413  1  0.73533600  0.91858349  0.79018350  1
  O2-  O414  1  0.23510523  0.42111608  0.22175023  1
  O2-  O415  1  0.24910382  0.41737329  0.55308864  1
  O2-  O416  1  0.26024522  0.42719659  0.88801199  1
  O2-  O417  1  0.26036527  0.91524121  0.22358653  1
  O2-  O418  1  0.24683745  0.91483846  0.56908329  1
  O2-  O419  1  0.26809097  0.91492363  0.87396153  1
  O2-  O420  1  0.59320167  0.42315613  0.21719299  1
  O2-  O421  1  0.59425955  0.41568837  0.54635161  1
  O2-  O422  1  0.58757655  0.42012779  0.88415105  1
  O2-  O423  1  0.56990353  0.91126514  0.24014104  1
  O2-  O424  1  0.59746506  0.92200120  0.54637627  1
  O2-  O425  1  0.56339298  0.91420471  0.89217067  1
  O2-  O426  1  0.90981930  0.41739691  0.20902492  1
  O2-  O427  1  0.91301326  0.42223377  0.55397175  1
  O2-  O428  1  0.90144144  0.41570863  0.89166647  1
  O2-  O429  1  0.91753655  0.90750592  0.25072549  1
  O2-  O430  1  0.91732583  0.92162945  0.54752939  1
  O2-  O431  1  0.91999427  0.91836105  0.90163445  1
  O2-  O432  1  -0.00173929  0.01293806  0.00615402  1
  O2-  O433  1  -0.00020312  -0.00371299  0.31601208  1
  O2-  O434  1  0.02213770  0.01333006  0.64692841  1
  O2-  O435  1  -0.00979043  0.48418924  0.01477191  1
  O2-  O436  1  -0.00552742  0.47253509  0.33461323  1
  O2-  O437  1  0.01937215  0.50526408  0.63024646  1
  O2-  O438  1  0.33902990  -0.01717628  -0.00872742  1
  O2-  O439  1  0.33311029  0.00773600  0.33853915  1
  O2-  O440  1  0.33404897  -0.00191258  0.68773584  1
  O2-  O441  1  0.34912173  0.51604329  -0.03445847  1
  O2-  O442  1  0.31038480  0.49805710  0.35409481  1
  O2-  O443  1  0.33964403  0.49755253  0.65799618  1
  O2-  O444  1  0.67243907  0.00263482  -0.00482329  1
  O2-  O445  1  0.65407215  0.00492550  0.34981058  1
  O2-  O446  1  0.65167119  -0.01500539  0.68764696  1
  O2-  O447  1  0.67531267  0.48206302  -0.01195254  1
  O2-  O448  1  0.69610259  0.50267251  0.28977718  1
  O2-  O449  1  0.67226869  0.48852748  0.65297678  1
  O2-  O450  1  0.15763871  -0.00918216  -0.00997018  1
  O2-  O451  1  0.16670632  0.00853849  0.33622241  1
  O2-  O452  1  0.18704242  0.00503658  0.71796511  1
  O2-  O453  1  0.16191581  0.51291962  -0.01351276  1
  O2-  O454  1  0.14616036  0.50439178  0.29906875  1
  O2-  O455  1  0.17550687  0.49309174  0.66469931  1
  O2-  O456  1  0.49288008  -0.01071070  -0.01047614  1
  O2-  O457  1  0.48980306  0.01301508  0.31039656  1
  O2-  O458  1  0.49829722  0.01811296  0.66901039  1
  O2-  O459  1  0.51559177  0.50013007  0.01533452  1
  O2-  O460  1  0.52936167  0.50939767  0.35866474  1
  O2-  O461  1  0.50049765  0.48515748  0.64445808  1
  O2-  O462  1  0.83383593  0.01082080  0.01748546  1
  O2-  O463  1  0.82974534  0.01149970  0.33068158  1
  O2-  O464  1  0.81579773  -0.01348534  0.66052024  1
  O2-  O465  1  0.82827938  0.48948510  -0.01362665  1
  O2-  O466  1  0.84600906  0.50387258  0.35058718  1
  O2-  O467  1  0.85912002  0.49852582  0.69823283  1
  O2-  O468  1  0.41038890  0.25929081  0.72705819  1
  O2-  O469  1  0.76399004  0.75231145  0.72922932  1
  O2-  O470  1  0.41308302  0.25588291  0.07360570  1
  O2-  O471  1  0.25394148  0.24454647  0.92529961  1
  O2-  O472  1  0.59185401  0.74690489  0.26724782  1
  O2-  O473  1  0.25993179  0.25393737  0.28697827  1
  O2-  O474  1  0.91121814  0.24515441  0.93380069  1
  O2-  O475  1  0.92209548  0.74734849  0.25515717  1
  O2-  O476  1  0.74498001  0.25486963  0.38562719  1
  O2-  O477  1  0.40851924  0.25198396  0.38359059  1
  O2-  O478  1  0.09945669  0.25376776  0.39219028  1
  O2-  O479  1  0.91290162  0.25682916  0.27490608  1
  O2-  O480  1  0.91789870  0.75709156  0.93340175  1
  O2-  O481  1  0.57880962  0.25659101  0.60680679  1
  O2-  O482  1  0.42009452  0.75356810  0.72609284  1
  O2-  O483  1  0.24473323  0.24777013  0.61207748  1
  O2-  O484  1  0.09569870  0.25030032  0.73686672  1
  O2-  O485  1  0.58024489  0.75699821  0.59793932  1
  O2-  O486  1  0.22799953  0.74787486  0.26603850  1
  O2-  O487  1  0.89762175  0.74891748  0.61527721  1
  O2-  O488  1  0.57393341  0.25160797  0.28154718  1
  O2-  O489  1  0.24187198  0.75226186  0.61316553  1
  O2-  O490  1  0.74986353  0.24974270  0.72570846  1
  O2-  O491  1  0.09615525  0.75189186  0.06591533  1
  O2-  O492  1  0.25276625  0.75172732  0.94493626  1
