# generated using pymatgen
data_Ca108Mn108O277
_symmetry_space_group_name_H-M   'P 1'
_cell_length_a   16.02631059
_cell_length_b   22.30671438
_cell_length_c   16.38965328
_cell_angle_alpha   89.99651554
_cell_angle_beta   90.00511207
_cell_angle_gamma   90.00589304
_symmetry_Int_Tables_number   1
_chemical_formula_structural   Ca108Mn108O277
_chemical_formula_sum   'Ca108 Mn108 O277'
_cell_volume   5859.20810186
_cell_formula_units_Z   1
loop_
 _symmetry_equiv_pos_site_id
 _symmetry_equiv_pos_as_xyz
  1  'x, y, z'
loop_
 _atom_type_symbol
 _atom_type_oxidation_number
  Ca2+  2.0
  Mn3.34+  3.34
  O2-  -2.0
loop_
 _atom_site_type_symbol
 _atom_site_label
 _atom_site_symmetry_multiplicity
 _atom_site_fract_x
 _atom_site_fract_y
 _atom_site_fract_z
 _atom_site_occupancy
  Ca2+  Ca0  1  0.07740695  0.23128285  0.27290309  1
  Ca2+  Ca1  1  0.09012664  0.24597041  0.55888088  1
  Ca2+  Ca2  1  0.08494256  0.26212022  0.89986532  1
  Ca2+  Ca3  1  0.09476663  0.74588815  0.24598185  1
  Ca2+  Ca4  1  0.07463336  0.75296754  0.58857370  1
  Ca2+  Ca5  1  0.07615972  0.75589630  0.91319474  1
  Ca2+  Ca6  1  0.42175576  0.25005732  0.25455155  1
  Ca2+  Ca7  1  0.42529928  0.25447148  0.57889124  1
  Ca2+  Ca8  1  0.43355431  0.24460943  0.91304576  1
  Ca2+  Ca9  1  0.40455284  0.75057275  0.24672588  1
  Ca2+  Ca10  1  0.44509226  0.74032075  0.57870973  1
  Ca2+  Ca11  1  0.41662355  0.75683437  0.92055091  1
  Ca2+  Ca12  1  0.74673981  0.25356317  0.26513151  1
  Ca2+  Ca13  1  0.73614586  0.25359867  0.58241215  1
  Ca2+  Ca14  1  0.72775370  0.23988137  0.89691691  1
  Ca2+  Ca15  1  0.75345673  0.76112270  0.26527108  1
  Ca2+  Ca16  1  0.72306886  0.73946852  0.58192422  1
  Ca2+  Ca17  1  0.75260460  0.76598854  0.90745921  1
  Ca2+  Ca18  1  0.26355384  0.25060484  0.08838537  1
  Ca2+  Ca19  1  0.24045926  0.23861319  0.41698385  1
  Ca2+  Ca20  1  0.25830667  0.24143916  0.74663694  1
  Ca2+  Ca21  1  0.26656161  0.74599562  0.09355928  1
  Ca2+  Ca22  1  0.26472553  0.74845276  0.39753801  1
  Ca2+  Ca23  1  0.26118533  0.75135110  0.76077393  1
  Ca2+  Ca24  1  0.58094383  0.25282810  0.07704637  1
  Ca2+  Ca25  1  0.58556515  0.25416069  0.41551134  1
  Ca2+  Ca26  1  0.59832526  0.24197198  0.74718802  1
  Ca2+  Ca27  1  0.55606092  0.75504290  0.07943899  1
  Ca2+  Ca28  1  0.58500973  0.75191030  0.43398161  1
  Ca2+  Ca29  1  0.58471017  0.74833050  0.72722594  1
  Ca2+  Ca30  1  0.90426750  0.25146386  0.11217002  1
  Ca2+  Ca31  1  0.91266384  0.24104011  0.40200512  1
  Ca2+  Ca32  1  0.89796940  0.25015651  0.74997174  1
  Ca2+  Ca33  1  0.93092149  0.75454543  0.07621199  1
  Ca2+  Ca34  1  0.90492458  0.75523552  0.41453144  1
  Ca2+  Ca35  1  0.91053050  0.76747057  0.75587479  1
  Ca2+  Ca36  1  0.73699823  0.09947720  0.59194254  1
  Ca2+  Ca37  1  0.10411185  0.59331246  0.25786687  1
  Ca2+  Ca38  1  0.56867698  0.08581919  0.07032925  1
  Ca2+  Ca39  1  0.75454607  0.58421993  0.92868153  1
  Ca2+  Ca40  1  0.09196273  0.10457374  0.91029534  1
  Ca2+  Ca41  1  0.87896299  0.09020135  0.75758666  1
  Ca2+  Ca42  1  0.76676054  0.08432525  0.26475394  1
  Ca2+  Ca43  1  0.25548354  0.58851761  0.74246115  1
  Ca2+  Ca44  1  0.74245403  0.58212232  0.92532193  1
  Ca2+  Ca45  1  0.90881762  0.59100487  0.39448509  1
  Ca2+  Ca46  1  0.93492196  0.58238427  0.08985443  1
  Ca2+  Ca47  1  0.68603836  0.08509115  0.90769592  1
  Ca2+  Ca48  1  0.26104790  0.60876424  0.11134656  1
  Ca2+  Ca49  1  0.10482964  0.10567413  0.90925984  1
  Ca2+  Ca50  1  0.92349215  0.59786955  0.76250667  1
  Ca2+  Ca51  1  0.92349993  0.57870829  0.08654333  1
  Ca2+  Ca52  1  0.91549110  0.09028203  0.11905122  1
  Ca2+  Ca53  1  0.41618716  0.08706194  0.25359175  1
  Ca2+  Ca54  1  0.38888853  0.11958690  0.58611793  1
  Ca2+  Ca55  1  0.27953557  0.12400307  0.76195619  1
  Ca2+  Ca56  1  0.25099612  0.59171537  0.39106393  1
  Ca2+  Ca57  1  0.21935921  0.08615178  0.40004705  1
  Ca2+  Ca58  1  0.57868581  0.10951805  0.75668560  1
  Ca2+  Ca59  1  0.27264838  0.10066374  0.08967293  1
  Ca2+  Ca60  1  0.11956401  0.10675144  0.56492772  1
  Ca2+  Ca61  1  0.58244328  0.08641630  0.39520455  1
  Ca2+  Ca62  1  0.44286352  0.11621293  0.90331843  1
  Ca2+  Ca63  1  0.73852024  0.56288696  0.28321639  1
  Ca2+  Ca64  1  0.59056578  0.59417912  0.42803537  1
  Ca2+  Ca65  1  0.08823373  0.56433595  0.96403205  1
  Ca2+  Ca66  1  0.95871055  0.07840323  0.36305208  1
  Ca2+  Ca67  1  0.42192324  0.58757395  0.92916630  1
  Ca2+  Ca68  1  0.38971717  0.61286454  0.24618678  1
  Ca2+  Ca69  1  0.39439163  0.11572680  0.57920608  1
  Ca2+  Ca70  1  0.08975013  0.58420844  0.56605448  1
  Ca2+  Ca71  1  0.91062833  0.59727237  0.76256731  1
  Ca2+  Ca72  1  0.25008109  0.39471494  0.75404130  1
  Ca2+  Ca73  1  0.91233182  0.39641693  0.75813666  1
  Ca2+  Ca74  1  0.24997449  0.91894872  0.40072811  1
  Ca2+  Ca75  1  0.73848999  0.40418784  0.92353653  1
  Ca2+  Ca76  1  0.41973009  0.91700566  0.26068286  1
  Ca2+  Ca77  1  0.91677794  0.92021734  0.38782687  1
  Ca2+  Ca78  1  0.43039013  0.91760333  0.26132330  1
  Ca2+  Ca79  1  0.22784417  0.41380160  0.07767772  1
  Ca2+  Ca80  1  0.72712104  0.40724037  0.92024162  1
  Ca2+  Ca81  1  0.59464777  0.92095686  0.06206949  1
  Ca2+  Ca82  1  0.08522908  0.41846413  0.26838811  1
  Ca2+  Ca83  1  0.09007924  0.93323724  0.28079431  1
  Ca2+  Ca84  1  0.91377287  0.40796635  0.08217483  1
  Ca2+  Ca85  1  0.26306792  0.39464090  0.75390120  1
  Ca2+  Ca86  1  0.90222995  0.91070731  0.07203419  1
  Ca2+  Ca87  1  0.42337802  0.40212562  0.57438071  1
  Ca2+  Ca88  1  0.43538209  0.40529214  0.91981943  1
  Ca2+  Ca89  1  0.89785466  0.40814279  0.41211157  1
  Ca2+  Ca90  1  0.09506736  0.90341670  0.56659458  1
  Ca2+  Ca91  1  0.07733137  0.42077679  0.26232338  1
  Ca2+  Ca92  1  0.74058347  0.89654212  0.58805720  1
  Ca2+  Ca93  1  0.91115548  0.91391401  0.38822695  1
  Ca2+  Ca94  1  0.24028153  0.41126945  0.07711529  1
  Ca2+  Ca95  1  0.08262660  0.90506805  0.56811802  1
  Ca2+  Ca96  1  0.58104398  0.39604789  0.75022684  1
  Ca2+  Ca97  1  0.06130396  0.90929811  0.92155102  1
  Ca2+  Ca98  1  0.24858541  0.40752939  0.41792319  1
  Ca2+  Ca99  1  0.43943970  0.91002905  0.92547233  1
  Ca2+  Ca100  1  0.60933562  0.42339469  0.38973053  1
  Ca2+  Ca101  1  0.43579090  0.41261437  0.25977128  1
  Ca2+  Ca102  1  0.09119854  0.39967683  0.56779382  1
  Ca2+  Ca103  1  0.26188146  0.89926588  0.74752077  1
  Ca2+  Ca104  1  0.92455159  0.41049591  0.08144718  1
  Ca2+  Ca105  1  0.89401674  0.91353783  0.07704146  1
  Ca2+  Ca106  1  0.25540693  0.90509273  0.09265974  1
  Ca2+  Ca107  1  0.24899775  0.89919234  0.74720483  1
  Mn3.34+  Mn108  1  0.08339129  0.32982297  0.08682285  1
  Mn3.34+  Mn109  1  0.08180055  0.33422110  0.41703676  1
  Mn3.34+  Mn110  1  0.07910028  0.32905783  0.74400227  1
  Mn3.34+  Mn111  1  0.08723187  0.83030422  0.08883185  1
  Mn3.34+  Mn112  1  0.08397317  0.82429170  0.41458320  1
  Mn3.34+  Mn113  1  0.07840649  0.83291897  0.75220066  1
  Mn3.34+  Mn114  1  0.42103117  0.33637913  0.08951375  1
  Mn3.34+  Mn115  1  0.41783611  0.33431259  0.41453163  1
  Mn3.34+  Mn116  1  0.42266614  0.32077984  0.74958722  1
  Mn3.34+  Mn117  1  0.41752665  0.83268026  0.08616746  1
  Mn3.34+  Mn118  1  0.42182399  0.83271565  0.42039674  1
  Mn3.34+  Mn119  1  0.42718939  0.83072554  0.75105166  1
  Mn3.34+  Mn120  1  0.74309574  0.33690571  0.09169921  1
  Mn3.34+  Mn121  1  0.74933699  0.33734256  0.42033073  1
  Mn3.34+  Mn122  1  0.74866145  0.32960394  0.74432212  1
  Mn3.34+  Mn123  1  0.74181798  0.83157198  0.08996182  1
  Mn3.34+  Mn124  1  0.74281944  0.83665510  0.41645878  1
  Mn3.34+  Mn125  1  0.74590687  0.83585081  0.74946497  1
  Mn3.34+  Mn126  1  0.25370445  0.32950400  0.25009457  1
  Mn3.34+  Mn127  1  0.25350425  0.32880422  0.57666890  1
  Mn3.34+  Mn128  1  0.25357129  0.32403074  0.91659768  1
  Mn3.34+  Mn129  1  0.24736885  0.83942441  0.24622583  1
  Mn3.34+  Mn130  1  0.25910000  0.82978809  0.57388688  1
  Mn3.34+  Mn131  1  0.24908106  0.83642875  0.92267246  1
  Mn3.34+  Mn132  1  0.58740462  0.33488033  0.24824631  1
  Mn3.34+  Mn133  1  0.58611506  0.33679259  0.57536148  1
  Mn3.34+  Mn134  1  0.58144219  0.32902245  0.91673223  1
  Mn3.34+  Mn135  1  0.58862526  0.84478921  0.24792384  1
  Mn3.34+  Mn136  1  0.58036962  0.83241591  0.58254990  1
  Mn3.34+  Mn137  1  0.58973770  0.83924413  0.91199326  1
  Mn3.34+  Mn138  1  0.91265758  0.33240470  0.25329414  1
  Mn3.34+  Mn139  1  0.91499984  0.33286432  0.58043956  1
  Mn3.34+  Mn140  1  0.91467858  0.33107676  0.91641076  1
  Mn3.34+  Mn141  1  0.91969951  0.83541256  0.23979086  1
  Mn3.34+  Mn142  1  0.91264662  0.83289585  0.58259740  1
  Mn3.34+  Mn143  1  0.90796801  0.83978594  0.91566649  1
  Mn3.34+  Mn144  1  0.91733254  0.67111058  0.24881250  1
  Mn3.34+  Mn145  1  0.91295605  0.16474167  0.58150369  1
  Mn3.34+  Mn146  1  0.25747367  0.67191549  0.57885714  1
  Mn3.34+  Mn147  1  0.74556619  0.67086559  0.74919960  1
  Mn3.34+  Mn148  1  0.09086881  0.17542083  0.08731228  1
  Mn3.34+  Mn149  1  0.57777855  0.66159780  0.91377325  1
  Mn3.34+  Mn150  1  0.91539412  0.16525090  0.91799062  1
  Mn3.34+  Mn151  1  0.08366041  0.66834931  0.75016987  1
  Mn3.34+  Mn152  1  0.07903194  0.18112331  0.08652887  1
  Mn3.34+  Mn153  1  0.08529048  0.66838251  0.41606725  1
  Mn3.34+  Mn154  1  0.41500129  0.16943235  0.41319630  1
  Mn3.34+  Mn155  1  0.58532721  0.66221144  0.24495431  1
  Mn3.34+  Mn156  1  0.25292199  0.16319100  0.25206587  1
  Mn3.34+  Mn157  1  0.91956798  0.67000048  0.91964608  1
  Mn3.34+  Mn158  1  0.91845338  0.66688465  0.57919468  1
  Mn3.34+  Mn159  1  0.24212667  0.66422517  0.92063318  1
  Mn3.34+  Mn160  1  0.08486244  0.66755077  0.09047073  1
  Mn3.34+  Mn161  1  0.74816887  0.66673482  0.41471387  1
  Mn3.34+  Mn162  1  0.57709660  0.65619252  0.24143812  1
  Mn3.34+  Mn163  1  0.25222421  0.65917128  0.91860139  1
  Mn3.34+  Mn164  1  0.41961255  0.66731794  0.41800512  1
  Mn3.34+  Mn165  1  0.24815282  0.66638195  0.57645860  1
  Mn3.34+  Mn166  1  0.42238072  0.66652006  0.74562094  1
  Mn3.34+  Mn167  1  0.58227725  0.16915843  0.57891755  1
  Mn3.34+  Mn168  1  0.58671890  0.66944286  0.91528348  1
  Mn3.34+  Mn169  1  0.08578940  0.17125929  0.74286413  1
  Mn3.34+  Mn170  1  0.74868750  0.16466986  0.41684687  1
  Mn3.34+  Mn171  1  0.75173138  0.16675057  0.08867606  1
  Mn3.34+  Mn172  1  0.74486466  0.67451686  0.09323066  1
  Mn3.34+  Mn173  1  0.74173773  0.16178753  0.09052606  1
  Mn3.34+  Mn174  1  0.75329747  0.66879470  0.09634542  1
  Mn3.34+  Mn175  1  0.41972202  0.16869270  0.08883012  1
  Mn3.34+  Mn176  1  0.90727651  0.66233020  0.57803596  1
  Mn3.34+  Mn177  1  0.57969582  0.16517462  0.24770211  1
  Mn3.34+  Mn178  1  0.92414323  0.16827486  0.58191413  1
  Mn3.34+  Mn179  1  0.90660780  0.15850589  0.91639995  1
  Mn3.34+  Mn180  1  0.72592465  0.50395615  0.74467676  1
  Mn3.34+  Mn181  1  0.71654451  0.50284480  0.08700185  1
  Mn3.34+  Mn182  1  0.25276977  0.00644787  0.92035556  1
  Mn3.34+  Mn183  1  0.44597441  0.49784719  0.07492386  1
  Mn3.34+  Mn184  1  0.90782793  0.49671193  0.57689823  1
  Mn3.34+  Mn185  1  0.73840642  -0.00444900  0.74663814  1
  Mn3.34+  Mn186  1  0.73883188  0.50035784  0.74438946  1
  Mn3.34+  Mn187  1  0.08736734  0.00454282  0.74489457  1
  Mn3.34+  Mn188  1  0.58339203  0.00172426  0.57173507  1
  Mn3.34+  Mn189  1  0.07337202  -0.00177989  0.74674941  1
  Mn3.34+  Mn190  1  0.43244321  -0.00305616  0.75674265  1
  Mn3.34+  Mn191  1  0.08846437  -0.00114340  0.09655656  1
  Mn3.34+  Mn192  1  0.08049709  0.49551862  0.76140854  1
  Mn3.34+  Mn193  1  0.08546497  0.49964412  0.75219962  1
  Mn3.34+  Mn194  1  0.25873563  -0.00333393  0.58035370  1
  Mn3.34+  Mn195  1  0.26804144  0.00187370  0.91790330  1
  Mn3.34+  Mn196  1  0.43584922  0.50016432  0.74963868  1
  Mn3.34+  Mn197  1  0.07728801  0.00298869  0.09565826  1
  Mn3.34+  Mn198  1  0.41325977  0.00121725  0.41060615  1
  Mn3.34+  Mn199  1  0.74129882  0.00118824  0.40644851  1
  Mn3.34+  Mn200  1  0.92407403  0.49686515  0.92358885  1
  Mn3.34+  Mn201  1  0.91103750  -0.00118473  0.57645065  1
  Mn3.34+  Mn202  1  0.57379786  -0.00387072  0.57377862  1
  Mn3.34+  Mn203  1  0.24838898  0.49585475  0.92253686  1
  Mn3.34+  Mn204  1  0.42162483  -0.00040593  0.08583486  1
  Mn3.34+  Mn205  1  0.91026377  0.49917681  0.26380273  1
  Mn3.34+  Mn206  1  0.41901402  0.50241333  0.41088063  1
  Mn3.34+  Mn207  1  0.90017437  0.00045856  0.57900745  1
  Mn3.34+  Mn208  1  0.75162936  0.00349127  0.07180283  1
  Mn3.34+  Mn209  1  0.25691767  0.49800877  0.25183955  1
  Mn3.34+  Mn210  1  0.42369915  0.50446465  0.74847313  1
  Mn3.34+  Mn211  1  0.43978629  0.50538908  0.07859523  1
  Mn3.34+  Mn212  1  0.58012503  0.49522967  0.57654984  1
  Mn3.34+  Mn213  1  0.89591486  0.50156469  0.57676305  1
  Mn3.34+  Mn214  1  0.25745357  0.50252503  0.58021178  1
  Mn3.34+  Mn215  1  0.41920581  0.00346119  0.75802134  1
  O2-  O216  1  0.00155370  0.15509706  -0.00071409  1
  O2-  O217  1  -0.00674417  0.17218778  0.33921362  1
  O2-  O218  1  -0.00085462  0.14086815  0.66609292  1
  O2-  O219  1  -0.00279488  0.64800954  0.00522249  1
  O2-  O220  1  -0.00099410  0.67495902  0.33577018  1
  O2-  O221  1  0.00017297  0.63903122  0.65955399  1
  O2-  O222  1  0.33633304  0.17950211  0.01351544  1
  O2-  O223  1  0.33375481  0.14866561  0.33586282  1
  O2-  O224  1  0.33632469  0.18446376  0.66038610  1
  O2-  O225  1  0.33098896  0.64816720  -0.00119335  1
  O2-  O226  1  0.33092632  0.66785040  0.34327728  1
  O2-  O227  1  0.32653937  0.66039020  0.67196392  1
  O2-  O228  1  0.66729818  0.15413803  0.00735478  1
  O2-  O229  1  0.67001334  0.15067111  0.32952684  1
  O2-  O230  1  0.65958953  0.16081214  0.65910990  1
  O2-  O231  1  0.67297259  0.65637430  -0.00012489  1
  O2-  O232  1  0.66594682  0.66820815  0.32504886  1
  O2-  O233  1  0.66884353  0.66901649  0.67474842  1
  O2-  O234  1  0.16012302  0.17590279  -0.00435348  1
  O2-  O235  1  0.16990599  0.16138611  0.32452947  1
  O2-  O236  1  0.16979001  0.16536283  0.67275155  1
  O2-  O237  1  0.16510962  0.64385851  0.00451105  1
  O2-  O238  1  0.16297533  0.67560886  0.33843725  1
  O2-  O239  1  0.16531015  0.65583603  0.66144330  1
  O2-  O240  1  0.49862772  0.16968036  0.01044499  1
  O2-  O241  1  0.49776784  0.15086531  0.33123987  1
  O2-  O242  1  0.49893030  0.15571095  0.65458156  1
  O2-  O243  1  0.50002541  0.65518547  -0.00489568  1
  O2-  O244  1  0.50038550  0.65179535  0.32867380  1
  O2-  O245  1  0.49698338  0.66876160  0.67053675  1
  O2-  O246  1  0.83824399  0.14153280  0.01220282  1
  O2-  O247  1  0.83388149  0.15168481  0.34943888  1
  O2-  O248  1  0.83717237  0.15593118  0.66293221  1
  O2-  O249  1  0.83295841  0.65026682  0.00636187  1
  O2-  O250  1  0.83276875  0.66639795  0.32485799  1
  O2-  O251  1  0.83638069  0.64875327  0.67352414  1
  O2-  O252  1  -0.00550040  0.33966561  0.00575721  1
  O2-  O253  1  -0.00178787  0.35188866  0.33325387  1
  O2-  O254  1  0.00148065  0.35843376  0.66349686  1
  O2-  O255  1  -0.00576900  0.84724264  0.01714811  1
  O2-  O256  1  -0.00402567  0.82886919  0.33335498  1
  O2-  O257  1  0.00826421  0.85034969  0.65753708  1
  O2-  O258  1  0.32936939  0.34067475  0.00776744  1
  O2-  O259  1  0.33458253  0.35259406  0.33058783  1
  O2-  O260  1  0.33223682  0.32613068  0.67040922  1
  O2-  O261  1  0.33687439  0.85525958  0.00053208  1
  O2-  O262  1  0.33217267  0.83975987  0.32666938  1
  O2-  O263  1  0.32949895  0.83493159  0.66970939  1
  O2-  O264  1  0.66437893  0.34198433  0.00145214  1
  O2-  O265  1  0.66649352  0.33714942  0.33637156  1
  O2-  O266  1  0.66400916  0.34341878  0.66748682  1
  O2-  O267  1  0.66614856  0.82526345  0.00382804  1
  O2-  O268  1  0.65903255  0.82135827  0.33353112  1
  O2-  O269  1  0.66914788  0.82790362  0.66350379  1
  O2-  O270  1  0.16733106  0.31960160  0.00110900  1
  O2-  O271  1  0.16455417  0.34933288  0.32708034  1
  O2-  O272  1  0.17267082  0.33593287  0.66302028  1
  O2-  O273  1  0.16100692  0.85551412  -0.00126079  1
  O2-  O274  1  0.16879551  0.82033263  0.33180178  1
  O2-  O275  1  0.17154123  0.84230624  0.65992448  1
  O2-  O276  1  0.49363536  0.33147159  -0.00384286  1
  O2-  O277  1  0.50168136  0.34567931  0.33796418  1
  O2-  O278  1  0.49628647  0.34205113  0.66264903  1
  O2-  O279  1  0.50396868  0.84483555  0.01009218  1
  O2-  O280  1  0.49688929  0.84560997  0.32664289  1
  O2-  O281  1  0.50183210  0.83052930  0.66808632  1
  O2-  O282  1  0.83204242  0.35052419  -0.00205550  1
  O2-  O283  1  0.83391838  0.34002615  0.33470189  1
  O2-  O284  1  0.83920189  0.34100673  0.67294636  1
  O2-  O285  1  0.83123775  0.83122947  0.00766146  1
  O2-  O286  1  0.83725026  0.84278836  0.32844335  1
  O2-  O287  1  0.83297233  0.84268923  0.66365384  1
  O2-  O288  1  -0.00235039  0.18286345  0.16201245  1
  O2-  O289  1  0.00299178  0.17355953  0.50586989  1
  O2-  O290  1  0.00335565  0.17947966  0.83692542  1
  O2-  O291  1  -0.00254202  0.68239592  0.16609827  1
  O2-  O292  1  0.00525869  0.68572749  0.50052280  1
  O2-  O293  1  -0.00582947  0.67902789  0.82550354  1
  O2-  O294  1  0.33843329  0.18355821  0.17077975  1
  O2-  O295  1  0.33757566  0.18310210  0.49371483  1
  O2-  O296  1  0.34468062  0.19101384  0.83580363  1
  O2-  O297  1  0.32411972  0.68537661  0.17879320  1
  O2-  O298  1  0.33878153  0.68819988  0.50135020  1
  O2-  O299  1  0.32975775  0.67644180  0.83515857  1
  O2-  O300  1  0.66201405  0.18603355  0.16766560  1
  O2-  O301  1  0.66354714  0.17819488  0.49738887  1
  O2-  O302  1  0.65496350  0.17160392  0.83300085  1
  O2-  O303  1  0.65805185  0.69672211  0.16846824  1
  O2-  O304  1  0.66855301  0.67560353  0.48726511  1
  O2-  O305  1  0.67572880  0.67960653  0.84327790  1
  O2-  O306  1  0.17356731  0.18814936  0.16356387  1
  O2-  O307  1  0.17407436  0.17897834  0.49926911  1
  O2-  O308  1  0.15870971  0.18268065  0.83099795  1
  O2-  O309  1  0.16407645  0.67875226  0.16477632  1
  O2-  O310  1  0.16606146  0.69350813  0.49967892  1
  O2-  O311  1  0.16959374  0.68115187  0.83477376  1
  O2-  O312  1  0.49910392  0.18827664  0.16892298  1
  O2-  O313  1  0.49172244  0.17860172  0.50086201  1
  O2-  O314  1  0.50342870  0.18765833  0.82167480  1
  O2-  O315  1  0.49511721  0.68452581  0.17548508  1
  O2-  O316  1  0.50435634  0.67439653  0.48650411  1
  O2-  O317  1  0.49374825  0.67456092  0.83620417  1
  O2-  O318  1  0.82785758  0.17398681  0.17052885  1
  O2-  O319  1  0.82701463  0.18346860  0.50810440  1
  O2-  O320  1  0.82927719  0.17251817  0.83408877  1
  O2-  O321  1  0.83956309  0.69813200  0.16605195  1
  O2-  O322  1  0.84003015  0.67639462  0.48698910  1
  O2-  O323  1  0.83465672  0.67273168  0.83821284  1
  O2-  O324  1  -0.00232373  0.32519392  0.16527491  1
  O2-  O325  1  0.00409555  0.32441037  0.50348458  1
  O2-  O326  1  -0.00833003  0.32215706  0.82939936  1
  O2-  O327  1  0.00490211  0.80799922  0.17057375  1
  O2-  O328  1  0.00244826  0.81329539  0.49947927  1
  O2-  O329  1  0.00043768  0.82882677  0.84448119  1
  O2-  O330  1  0.33369271  0.31901848  0.16497037  1
  O2-  O331  1  0.33637769  0.31707787  0.49940698  1
  O2-  O332  1  0.33585698  0.31465686  0.83070523  1
  O2-  O333  1  0.33091212  0.82319694  0.16789573  1
  O2-  O334  1  0.33208074  0.81233273  0.49138995  1
  O2-  O335  1  0.32839126  0.82620732  0.83287984  1
  O2-  O336  1  0.66775145  0.31317849  0.16890556  1
  O2-  O337  1  0.66575852  0.31990653  0.49858925  1
  O2-  O338  1  0.66801547  0.32456999  0.83309184  1
  O2-  O339  1  0.66261146  0.81133420  0.16922335  1
  O2-  O340  1  0.67364539  0.82374019  0.50546376  1
  O2-  O341  1  0.66193121  0.81787988  0.82805608  1
  O2-  O342  1  0.17191684  0.31577254  0.16216325  1
  O2-  O343  1  0.16993066  0.31990039  0.49637980  1
  O2-  O344  1  0.17597941  0.31510990  0.82378885  1
  O2-  O345  1  0.17430277  0.81285529  0.16341004  1
  O2-  O346  1  0.16094945  0.81407481  0.50551760  1
  O2-  O347  1  0.17101275  0.82197754  0.82739064  1
  O2-  O348  1  0.49783428  0.31618380  0.16946467  1
  O2-  O349  1  0.49623038  0.32184861  0.50056805  1
  O2-  O350  1  0.50341882  0.32092507  0.83020384  1
  O2-  O351  1  0.49343280  0.81511554  0.17279713  1
  O2-  O352  1  0.50012186  0.82232724  0.49964902  1
  O2-  O353  1  0.49333265  0.82637798  0.84551487  1
  O2-  O354  1  0.84092309  0.33395640  0.16003638  1
  O2-  O355  1  0.83740510  0.31532632  0.49891374  1
  O2-  O356  1  0.82764770  0.32186099  0.83916542  1
  O2-  O357  1  0.83704781  0.81580546  0.16269797  1
  O2-  O358  1  0.84040910  0.83283670  0.49160170  1
  O2-  O359  1  0.83101538  0.82933084  0.83388570  1
  O2-  O360  1  0.08239666  0.08700903  0.10410085  1
  O2-  O361  1  0.08685794  0.06057949  0.44776462  1
  O2-  O362  1  0.08792711  0.08385371  0.77976803  1
  O2-  O363  1  0.07238168  0.58480241  0.11765160  1
  O2-  O364  1  0.08956508  0.58834593  0.42886725  1
  O2-  O365  1  0.06788669  0.58171455  0.78761849  1
  O2-  O366  1  0.41638738  0.08174405  0.10783874  1
  O2-  O367  1  0.42188835  0.07804041  0.45439387  1
  O2-  O368  1  0.41026042  0.08293471  0.77359038  1
  O2-  O369  1  0.40248094  0.57386230  0.12442820  1
  O2-  O370  1  0.40534758  0.58163255  0.43251599  1
  O2-  O371  1  0.40644139  0.58243609  0.78580341  1
  O2-  O372  1  0.74631891  0.07915716  0.12526718  1
  O2-  O373  1  0.73996743  0.07328614  0.45574141  1
  O2-  O374  1  0.74633092  0.06844248  0.78900033  1
  O2-  O375  1  0.76065915  0.58307179  0.13138069  1
  O2-  O376  1  0.75341908  0.58686179  0.41888755  1
  O2-  O377  1  0.76630939  0.57965279  0.79244007  1
  O2-  O378  1  0.26073522  0.08517573  0.21965960  1
  O2-  O379  1  0.26318500  0.07650073  0.55623519  1
  O2-  O380  1  0.23948109  0.08588743  0.88811885  1
  O2-  O381  1  0.25100797  0.57784007  0.24053791  1
  O2-  O382  1  0.23797661  0.58312590  0.53704750  1
  O2-  O383  1  0.23777438  0.57608012  0.87861278  1
  O2-  O384  1  0.57208921  0.08755263  0.21444501  1
  O2-  O385  1  0.57864005  0.08233168  0.54155797  1
  O2-  O386  1  0.55553335  0.06533412  0.87513909  1
  O2-  O387  1  0.60364426  0.57783620  0.21928744  1
  O2-  O388  1  0.58249813  0.56856598  0.55459756  1
  O2-  O389  1  0.60601612  0.58337321  0.89232780  1
  O2-  O390  1  0.90217361  0.06462855  0.23898467  1
  O2-  O391  1  0.90272408  0.08260238  0.54216963  1
  O2-  O392  1  0.94254196  0.08037044  0.88473145  1
  O2-  O393  1  0.90919415  0.57812854  0.22431906  1
  O2-  O394  1  0.93233393  0.57655632  0.52915934  1
  O2-  O395  1  0.91525253  0.58080595  0.89301409  1
  O2-  O396  1  0.09719840  0.41945110  0.12514111  1
  O2-  O397  1  0.09229034  0.41879929  0.43406151  1
  O2-  O398  1  0.10848327  0.41371690  0.76962135  1
  O2-  O399  1  0.09347682  0.91721560  0.12638464  1
  O2-  O400  1  0.07823731  0.90942675  0.43490615  1
  O2-  O401  1  0.10477185  0.91934342  0.77863395  1
  O2-  O402  1  0.40198562  0.42438326  0.11840287  1
  O2-  O403  1  0.40603212  0.42209703  0.44379125  1
  O2-  O404  1  0.40400624  0.41862513  0.78408826  1
  O2-  O405  1  0.40878784  0.92046402  0.12175026  1
  O2-  O406  1  0.40355259  0.91923975  0.42355244  1
  O2-  O407  1  0.40611531  0.91650529  0.77826832  1
  O2-  O408  1  0.76948022  0.42411980  0.09176000  1
  O2-  O409  1  0.75546415  0.41534627  0.43754104  1
  O2-  O410  1  0.75813218  0.42122221  0.78452831  1
  O2-  O411  1  0.75553633  0.92191191  0.10193775  1
  O2-  O412  1  0.76093212  0.92528755  0.44641282  1
  O2-  O413  1  0.74450326  0.91657183  0.74889301  1
  O2-  O414  1  0.24693476  0.41801753  0.21364559  1
  O2-  O415  1  0.25121350  0.41786235  0.56205931  1
  O2-  O416  1  0.26047924  0.41476264  0.88626707  1
  O2-  O417  1  0.25215533  0.92026828  0.23133792  1
  O2-  O418  1  0.23305278  0.91859942  0.54443656  1
  O2-  O419  1  0.25147870  0.92383879  0.87775324  1
  O2-  O420  1  0.57726723  0.41425412  0.23596442  1
  O2-  O421  1  0.57187934  0.41959013  0.53700544  1
  O2-  O422  1  0.59153062  0.41317044  0.88526940  1
  O2-  O423  1  0.55835090  0.92040439  0.20662332  1
  O2-  O424  1  0.59644375  0.91544457  0.56553830  1
  O2-  O425  1  0.58172694  0.91685426  0.91257224  1
  O2-  O426  1  0.93511758  0.42486576  0.21709559  1
  O2-  O427  1  0.91531811  0.41733714  0.55020371  1
  O2-  O428  1  0.90404751  0.41603661  0.89496200  1
  O2-  O429  1  0.93289823  0.91692336  0.20977483  1
  O2-  O430  1  0.93964793  0.91978672  0.54064536  1
  O2-  O431  1  0.91693057  0.91879117  0.92757155  1
  O2-  O432  1  0.01723576  -0.00186044  -0.00124410  1
  O2-  O433  1  -0.00538443  -0.01816854  0.34481766  1
  O2-  O434  1  -0.00039653  -0.00015153  0.65684852  1
  O2-  O435  1  -0.01418927  0.49870122  0.03061564  1
  O2-  O436  1  0.00682968  0.50327633  0.31294826  1
  O2-  O437  1  -0.00338830  0.50735055  0.66207934  1
  O2-  O438  1  0.32713743  -0.00318330  0.01830912  1
  O2-  O439  1  0.32564390  0.00272302  0.34719000  1
  O2-  O440  1  0.32407891  -0.01032274  0.68236170  1
  O2-  O441  1  0.33490848  0.50109946  0.00791431  1
  O2-  O442  1  0.32341570  0.49631062  0.34664615  1
  O2-  O443  1  0.31701852  0.49749504  0.69069348  1
  O2-  O444  1  0.65786897  0.01282105  0.01670466  1
  O2-  O445  1  0.66933908  0.01393807  0.33329996  1
  O2-  O446  1  0.67198452  0.01186710  0.64954587  1
  O2-  O447  1  0.69736756  0.49674020  -0.04131447  1
  O2-  O448  1  0.65370292  0.51448477  0.36096606  1
  O2-  O449  1  0.65641523  0.48342567  0.66146841  1
  O2-  O450  1  0.17100700  0.00271414  0.00627467  1
  O2-  O451  1  0.16834373  -0.00346278  0.35666667  1
  O2-  O452  1  0.15849860  -0.00764637  0.65090817  1
  O2-  O453  1  0.17155948  0.49113178  0.01010543  1
  O2-  O454  1  0.16006008  0.49743031  0.30641015  1
  O2-  O455  1  0.15955424  0.51636909  0.66144775  1
  O2-  O456  1  0.49721507  -0.00469926  0.01282653  1
  O2-  O457  1  0.48368134  0.00266986  0.32299698  1
  O2-  O458  1  0.49760940  0.00974451  0.66202363  1
  O2-  O459  1  0.49028531  0.49822660  -0.03057997  1
  O2-  O460  1  0.50210711  0.49570199  0.34571020  1
  O2-  O461  1  0.49090151  0.48123498  0.65205645  1
  O2-  O462  1  0.86372536  0.00697071  0.05446021  1
  O2-  O463  1  0.83991691  0.00244710  0.36060208  1
  O2-  O464  1  0.83479418  0.01180548  0.67420176  1
  O2-  O465  1  0.83392885  0.52578173  0.01178793  1
  O2-  O466  1  0.84492038  0.50230573  0.34874778  1
  O2-  O467  1  0.84042332  0.51345742  0.68065811  1
  O2-  O468  1  0.07472882  0.75017355  0.72702103  1
  O2-  O469  1  0.42744650  0.75131030  0.39005001  1
  O2-  O470  1  0.57609906  0.74948092  0.93485140  1
  O2-  O471  1  0.76094942  0.75343726  0.40458867  1
  O2-  O472  1  0.07973876  0.25454628  0.40354093  1
  O2-  O473  1  0.58134716  0.25250966  0.60055686  1
  O2-  O474  1  0.58297196  0.24815076  0.27887847  1
  O2-  O475  1  0.40868554  0.74900891  0.74388289  1
  O2-  O476  1  0.74819613  0.24693420  0.39920445  1
  O2-  O477  1  0.58885096  0.25079844  0.93175891  1
  O2-  O478  1  0.91995288  0.75176870  0.93640953  1
  O2-  O479  1  0.06140776  0.24980456  0.71977467  1
  O2-  O480  1  0.91016300  0.24647837  0.94420918  1
  O2-  O481  1  0.25944963  0.25139912  0.27883982  1
  O2-  O482  1  0.91918267  0.74869016  0.61565673  1
  O2-  O483  1  0.42255540  0.25083351  0.39065534  1
  O2-  O484  1  0.76579665  0.75128602  0.74101323  1
  O2-  O485  1  0.91020873  0.25427570  0.26190588  1
  O2-  O486  1  0.76103248  0.24898904  0.05822233  1
  O2-  O487  1  0.40992017  0.75632527  0.05738125  1
  O2-  O488  1  0.92997775  0.25020040  0.61263618  1
  O2-  O489  1  0.24883872  0.74880382  0.94476613  1
  O2-  O490  1  0.58379047  0.75193216  0.58634465  1
  O2-  O491  1  0.08409361  0.74862611  0.05077019  1
  O2-  O492  1  0.74955303  0.25174256  0.73272241  1
