# generated using pymatgen
data_Ca108Mn108O277
_symmetry_space_group_name_H-M   'P 1'
_cell_length_a   16.03006791
_cell_length_b   22.30788793
_cell_length_c   16.38893223
_cell_angle_alpha   90.00526888
_cell_angle_beta   90.00143559
_cell_angle_gamma   90.00054989
_symmetry_Int_Tables_number   1
_chemical_formula_structural   Ca108Mn108O277
_chemical_formula_sum   'Ca108 Mn108 O277'
_cell_volume   5860.63229004
_cell_formula_units_Z   1
loop_
 _symmetry_equiv_pos_site_id
 _symmetry_equiv_pos_as_xyz
  1  'x, y, z'
loop_
 _atom_type_symbol
 _atom_type_oxidation_number
  Ca2+  2.0
  Mn3.34+  3.34
  O2-  -2.0
loop_
 _atom_site_type_symbol
 _atom_site_label
 _atom_site_symmetry_multiplicity
 _atom_site_fract_x
 _atom_site_fract_y
 _atom_site_fract_z
 _atom_site_occupancy
  Ca2+  Ca0  1  0.08071520  0.25480269  0.25623536  1
  Ca2+  Ca1  1  0.07322100  0.25825345  0.58907288  1
  Ca2+  Ca2  1  0.07916021  0.24938636  0.90684827  1
  Ca2+  Ca3  1  0.10247449  0.75148997  0.25265904  1
  Ca2+  Ca4  1  0.07681969  0.74066180  0.59277771  1
  Ca2+  Ca5  1  0.09697505  0.74478991  0.88820273  1
  Ca2+  Ca6  1  0.42451259  0.25863038  0.23705537  1
  Ca2+  Ca7  1  0.41333710  0.25951650  0.58936668  1
  Ca2+  Ca8  1  0.42960693  0.24496617  0.92003213  1
  Ca2+  Ca9  1  0.39453004  0.74198448  0.24501986  1
  Ca2+  Ca10  1  0.42727193  0.74708117  0.58829123  1
  Ca2+  Ca11  1  0.41692207  0.74704570  0.91661993  1
  Ca2+  Ca12  1  0.73940896  0.25072121  0.25473512  1
  Ca2+  Ca13  1  0.76281641  0.25578304  0.59119961  1
  Ca2+  Ca14  1  0.74467544  0.24762330  0.91011134  1
  Ca2+  Ca15  1  0.74952400  0.74988408  0.25215965  1
  Ca2+  Ca16  1  0.75036927  0.74544183  0.56958743  1
  Ca2+  Ca17  1  0.73375671  0.74583060  0.92946005  1
  Ca2+  Ca18  1  0.26891702  0.25908646  0.07228836  1
  Ca2+  Ca19  1  0.25341125  0.25716743  0.41628081  1
  Ca2+  Ca20  1  0.24694975  0.25551089  0.76432064  1
  Ca2+  Ca21  1  0.26057853  0.74285472  0.09152524  1
  Ca2+  Ca22  1  0.23950143  0.74338163  0.40231109  1
  Ca2+  Ca23  1  0.24389609  0.74397951  0.75562501  1
  Ca2+  Ca24  1  0.57001158  0.24865499  0.06856353  1
  Ca2+  Ca25  1  0.57480104  0.24959497  0.40753480  1
  Ca2+  Ca26  1  0.58847286  0.24696187  0.77435483  1
  Ca2+  Ca27  1  0.60046752  0.74308494  0.08168712  1
  Ca2+  Ca28  1  0.60694316  0.74724828  0.42007230  1
  Ca2+  Ca29  1  0.58763183  0.75790646  0.75497305  1
  Ca2+  Ca30  1  0.90705104  0.24306553  0.06127389  1
  Ca2+  Ca31  1  0.91553255  0.25229705  0.42151062  1
  Ca2+  Ca32  1  0.91543595  0.25802959  0.76049637  1
  Ca2+  Ca33  1  0.88920128  0.75537510  0.08768079  1
  Ca2+  Ca34  1  0.90068265  0.74867497  0.42310115  1
  Ca2+  Ca35  1  0.92415198  0.75546606  0.73997153  1
  Ca2+  Ca36  1  0.21081581  0.58750614  0.75508153  1
  Ca2+  Ca37  1  0.57860461  0.11074691  0.76142530  1
  Ca2+  Ca38  1  0.41661586  0.57680830  0.94137136  1
  Ca2+  Ca39  1  0.75424479  0.59980853  0.57482173  1
  Ca2+  Ca40  1  0.88061480  0.08788482  0.39193795  1
  Ca2+  Ca41  1  0.89857787  0.59570701  0.42149570  1
  Ca2+  Ca42  1  0.24995275  0.58139364  0.38495110  1
  Ca2+  Ca43  1  0.57586703  0.59447196  0.75477804  1
  Ca2+  Ca44  1  0.58727507  0.59568539  0.75445698  1
  Ca2+  Ca45  1  0.26009452  0.58172228  0.38245860  1
  Ca2+  Ca46  1  0.24852486  0.10293442  0.40600196  1
  Ca2+  Ca47  1  0.26125339  0.10338360  0.40699937  1
  Ca2+  Ca48  1  0.25504633  0.08649595  0.07685976  1
  Ca2+  Ca49  1  0.26989933  0.58149722  0.10678540  1
  Ca2+  Ca50  1  0.58022825  0.59050299  0.08044424  1
  Ca2+  Ca51  1  0.73276690  0.58749795  0.94925110  1
  Ca2+  Ca52  1  0.59220474  0.09832468  0.41694397  1
  Ca2+  Ca53  1  0.60365210  0.09945459  0.41821792  1
  Ca2+  Ca54  1  0.90649517  0.10395112  0.76193624  1
  Ca2+  Ca55  1  0.40226017  0.59362701  0.24479923  1
  Ca2+  Ca56  1  0.60050171  0.59714039  0.41254625  1
  Ca2+  Ca57  1  0.75991072  0.09461258  0.91188491  1
  Ca2+  Ca58  1  0.11413237  0.58479021  0.25479026  1
  Ca2+  Ca59  1  0.25747151  0.09496604  0.76493840  1
  Ca2+  Ca60  1  0.91634860  0.10120585  0.75974747  1
  Ca2+  Ca61  1  0.96013514  0.59529209  0.73302983  1
  Ca2+  Ca62  1  0.42090664  0.10592861  0.24396866  1
  Ca2+  Ca63  1  0.43271337  0.10300645  0.57883692  1
  Ca2+  Ca64  1  0.06835204  0.10011008  0.92309250  1
  Ca2+  Ca65  1  0.58962352  0.59557633  0.41096864  1
  Ca2+  Ca66  1  0.94838160  0.59840866  0.73062733  1
  Ca2+  Ca67  1  0.74927899  0.09469077  0.91164540  1
  Ca2+  Ca68  1  0.41177235  0.10800547  0.24824719  1
  Ca2+  Ca69  1  0.73478894  0.60351685  0.23637625  1
  Ca2+  Ca70  1  0.74239828  0.09220013  0.58542563  1
  Ca2+  Ca71  1  0.42551617  0.57899271  0.93688639  1
  Ca2+  Ca72  1  0.75742713  0.91397714  0.92193006  1
  Ca2+  Ca73  1  0.73884619  0.40851328  0.91847540  1
  Ca2+  Ca74  1  0.59436735  0.91149777  0.08612269  1
  Ca2+  Ca75  1  0.40686072  0.90720603  0.58293972  1
  Ca2+  Ca76  1  0.07383684  0.90927702  0.93486810  1
  Ca2+  Ca77  1  0.58190438  0.39897847  0.74669415  1
  Ca2+  Ca78  1  0.57197820  0.39644365  0.75035316  1
  Ca2+  Ca79  1  0.72662691  0.40953105  0.91859728  1
  Ca2+  Ca80  1  0.91330294  0.40107882  0.41126849  1
  Ca2+  Ca81  1  0.92869459  0.40127628  0.09613224  1
  Ca2+  Ca82  1  0.39841514  0.41012011  0.24561466  1
  Ca2+  Ca83  1  0.76600403  0.91330974  0.23807543  1
  Ca2+  Ca84  1  0.10244879  0.41588642  0.26845028  1
  Ca2+  Ca85  1  0.09576139  0.40105908  0.91962533  1
  Ca2+  Ca86  1  0.57682655  0.40304489  0.40942445  1
  Ca2+  Ca87  1  0.90688656  0.90747144  0.75777351  1
  Ca2+  Ca88  1  0.23250008  0.91124181  0.08425212  1
  Ca2+  Ca89  1  0.07071069  0.90980826  0.24476683  1
  Ca2+  Ca90  1  0.75953019  0.91161964  0.59048134  1
  Ca2+  Ca91  1  0.74853897  0.91251476  0.58987268  1
  Ca2+  Ca92  1  0.60850861  0.91418559  0.41138429  1
  Ca2+  Ca93  1  0.41963717  0.90728392  0.58381922  1
  Ca2+  Ca94  1  0.76007511  0.91112228  0.93113653  1
  Ca2+  Ca95  1  0.25651839  0.41716028  0.40869974  1
  Ca2+  Ca96  1  0.25055313  0.90641309  0.75225587  1
  Ca2+  Ca97  1  0.24220395  0.41034825  0.74178160  1
  Ca2+  Ca98  1  0.24220626  0.90733777  0.08247409  1
  Ca2+  Ca99  1  0.90883824  0.91291653  0.40421610  1
  Ca2+  Ca100  1  0.59718958  0.91084183  0.40926400  1
  Ca2+  Ca101  1  0.41620269  0.90537207  0.92066831  1
  Ca2+  Ca102  1  0.42187861  0.89823766  0.25058065  1
  Ca2+  Ca103  1  0.26230744  0.90608065  0.75234379  1
  Ca2+  Ca104  1  0.09194949  0.41478942  0.58205136  1
  Ca2+  Ca105  1  0.24329624  0.89822521  0.41052406  1
  Ca2+  Ca106  1  0.91575396  0.40167872  0.09536467  1
  Ca2+  Ca107  1  0.74247823  0.40201581  0.26071789  1
  Mn3.34+  Mn108  1  0.09143413  0.33263042  0.08913287  1
  Mn3.34+  Mn109  1  0.08494299  0.33151727  0.42167816  1
  Mn3.34+  Mn110  1  0.08067457  0.33586241  0.74937492  1
  Mn3.34+  Mn111  1  0.07294418  0.83429541  0.08485470  1
  Mn3.34+  Mn112  1  0.07807227  0.83016168  0.41811913  1
  Mn3.34+  Mn113  1  0.08183729  0.83236363  0.74767375  1
  Mn3.34+  Mn114  1  0.41675142  0.34844368  0.07932168  1
  Mn3.34+  Mn115  1  0.41557773  0.33190525  0.42078775  1
  Mn3.34+  Mn116  1  0.40912788  0.33107764  0.74817100  1
  Mn3.34+  Mn117  1  0.42091336  0.83190059  0.08571454  1
  Mn3.34+  Mn118  1  0.41880910  0.82388632  0.41814473  1
  Mn3.34+  Mn119  1  0.42095129  0.83197456  0.75468497  1
  Mn3.34+  Mn120  1  0.74435859  0.33339477  0.08891225  1
  Mn3.34+  Mn121  1  0.74685238  0.32945086  0.42487882  1
  Mn3.34+  Mn122  1  0.75457665  0.33276932  0.74529100  1
  Mn3.34+  Mn123  1  0.74858795  0.83590419  0.08769167  1
  Mn3.34+  Mn124  1  0.75521087  0.83333399  0.41640347  1
  Mn3.34+  Mn125  1  0.74962007  0.83437557  0.75538851  1
  Mn3.34+  Mn126  1  0.25043174  0.33238040  0.24698769  1
  Mn3.34+  Mn127  1  0.25041837  0.33969931  0.57991873  1
  Mn3.34+  Mn128  1  0.25699033  0.33726431  0.91778385  1
  Mn3.34+  Mn129  1  0.24832827  0.83182013  0.24809597  1
  Mn3.34+  Mn130  1  0.24368854  0.83007397  0.57765716  1
  Mn3.34+  Mn131  1  0.25018203  0.83006071  0.91881505  1
  Mn3.34+  Mn132  1  0.57918202  0.33330233  0.24630581  1
  Mn3.34+  Mn133  1  0.58336695  0.33235806  0.57591540  1
  Mn3.34+  Mn134  1  0.57524426  0.33472187  0.92081356  1
  Mn3.34+  Mn135  1  0.58374236  0.83182541  0.24587773  1
  Mn3.34+  Mn136  1  0.58515006  0.83064677  0.58829481  1
  Mn3.34+  Mn137  1  0.58030743  0.83394059  0.91552929  1
  Mn3.34+  Mn138  1  0.91659762  0.32507991  0.25054699  1
  Mn3.34+  Mn139  1  0.91704901  0.33758703  0.58564568  1
  Mn3.34+  Mn140  1  0.91642543  0.33321617  0.91301102  1
  Mn3.34+  Mn141  1  0.91852853  0.83490055  0.24790223  1
  Mn3.34+  Mn142  1  0.92353033  0.83389720  0.58119029  1
  Mn3.34+  Mn143  1  0.92038227  0.82984219  0.91840112  1
  Mn3.34+  Mn144  1  0.41868779  0.16874435  0.07478057  1
  Mn3.34+  Mn145  1  0.58350516  0.16786434  0.24719232  1
  Mn3.34+  Mn146  1  0.58060989  0.66567570  0.58157244  1
  Mn3.34+  Mn147  1  0.07432755  0.15594782  0.09524680  1
  Mn3.34+  Mn148  1  0.74922233  0.16651682  0.74836211  1
  Mn3.34+  Mn149  1  0.08307944  0.16258975  0.09436001  1
  Mn3.34+  Mn150  1  0.41717289  0.16821092  0.75344872  1
  Mn3.34+  Mn151  1  0.25241681  0.16872993  0.91724310  1
  Mn3.34+  Mn152  1  0.75413128  0.17206506  0.42006942  1
  Mn3.34+  Mn153  1  0.41604155  0.66761569  0.08667407  1
  Mn3.34+  Mn154  1  0.75401765  0.15543778  0.09047409  1
  Mn3.34+  Mn155  1  0.24643303  0.17539456  0.24496535  1
  Mn3.34+  Mn156  1  0.41346413  0.66694470  0.75036815  1
  Mn3.34+  Mn157  1  0.25209588  0.66200580  0.91393436  1
  Mn3.34+  Mn158  1  0.07507989  0.65901978  0.08071504  1
  Mn3.34+  Mn159  1  0.91263641  0.66573494  0.24711374  1
  Mn3.34+  Mn160  1  0.74533410  0.16139014  0.08852625  1
  Mn3.34+  Mn161  1  0.91821322  0.66671003  0.91247024  1
  Mn3.34+  Mn162  1  0.24428044  0.66018529  0.58391061  1
  Mn3.34+  Mn163  1  0.58417132  0.17567838  0.58242564  1
  Mn3.34+  Mn164  1  0.75094879  0.67118173  0.75005780  1
  Mn3.34+  Mn165  1  0.58135924  0.66856542  0.91568964  1
  Mn3.34+  Mn166  1  0.91516940  0.16836681  0.24940543  1
  Mn3.34+  Mn167  1  0.57638652  0.66952129  0.24458113  1
  Mn3.34+  Mn168  1  0.92145303  0.16928184  0.57789140  1
  Mn3.34+  Mn169  1  0.91684959  0.66831682  0.57632696  1
  Mn3.34+  Mn170  1  0.92295306  0.66135262  0.24402794  1
  Mn3.34+  Mn171  1  0.41888663  0.66844574  0.42282569  1
  Mn3.34+  Mn172  1  0.07990398  0.66546280  0.41986428  1
  Mn3.34+  Mn173  1  0.25943306  0.65721872  0.57729015  1
  Mn3.34+  Mn174  1  0.91226928  0.67725970  0.91774170  1
  Mn3.34+  Mn175  1  0.08212400  0.16968135  0.75038175  1
  Mn3.34+  Mn176  1  0.08781320  0.66620102  0.07985184  1
  Mn3.34+  Mn177  1  0.24998038  0.16970156  0.58652033  1
  Mn3.34+  Mn178  1  0.23935965  0.16478769  0.58459593  1
  Mn3.34+  Mn179  1  0.07607529  0.17110019  0.41557285  1
  Mn3.34+  Mn180  1  0.07313781  -0.00205822  0.76881055  1
  Mn3.34+  Mn181  1  0.76543145  0.50138060  0.74879530  1
  Mn3.34+  Mn182  1  0.57787619  0.49926726  0.58167826  1
  Mn3.34+  Mn183  1  0.75317388  0.50600331  0.74878840  1
  Mn3.34+  Mn184  1  0.08857872  -0.00306597  0.42879534  1
  Mn3.34+  Mn185  1  0.57745955  0.00157398  0.91373189  1
  Mn3.34+  Mn186  1  0.23616611  -0.00170301  0.58879147  1
  Mn3.34+  Mn187  1  0.57929565  0.50003674  0.24816258  1
  Mn3.34+  Mn188  1  0.93716096  0.50524695  0.92010679  1
  Mn3.34+  Mn189  1  0.91711140  0.50110852  0.25500299  1
  Mn3.34+  Mn190  1  0.41144224  0.00244211  0.41518567  1
  Mn3.34+  Mn191  1  0.58332896  0.00056480  0.59473308  1
  Mn3.34+  Mn192  1  0.74331790  0.49694041  0.07750714  1
  Mn3.34+  Mn193  1  0.93409281  0.00231157  0.58059876  1
  Mn3.34+  Mn194  1  0.23709525  0.00335193  0.24768920  1
  Mn3.34+  Mn195  1  0.42146213  0.00014072  0.09071121  1
  Mn3.34+  Mn196  1  0.92415147  0.49907029  0.91768840  1
  Mn3.34+  Mn197  1  0.07981842  0.49270651  0.74162215  1
  Mn3.34+  Mn198  1  0.74836021  0.49667440  0.40802949  1
  Mn3.34+  Mn199  1  0.09474845  0.49437931  0.08428877  1
  Mn3.34+  Mn200  1  0.92306745  0.00102021  0.94407973  1
  Mn3.34+  Mn201  1  0.91921442  0.49929461  0.57902763  1
  Mn3.34+  Mn202  1  0.40708357  0.49704594  0.73835435  1
  Mn3.34+  Mn203  1  0.07814999  0.50210522  0.41835463  1
  Mn3.34+  Mn204  1  0.42384071  0.49984571  0.42118625  1
  Mn3.34+  Mn205  1  0.56636575  -0.00147610  0.91038246  1
  Mn3.34+  Mn206  1  0.40190184  0.50453792  0.73560727  1
  Mn3.34+  Mn207  1  0.42307571  -0.00105887  0.41591665  1
  Mn3.34+  Mn208  1  0.08396409  0.00227940  0.76855660  1
  Mn3.34+  Mn209  1  0.42376084  0.00013948  0.74280587  1
  Mn3.34+  Mn210  1  0.25068633  0.00190209  0.93036282  1
  Mn3.34+  Mn211  1  0.25371060  0.49683299  0.93155427  1
  Mn3.34+  Mn212  1  0.91353581  0.00160537  0.25483353  1
  Mn3.34+  Mn213  1  0.92005348  0.00837865  0.58128839  1
  Mn3.34+  Mn214  1  0.59920211  0.00440821  0.25060632  1
  Mn3.34+  Mn215  1  0.07609266  0.00407118  0.42718136  1
  O2-  O216  1  0.00356345  0.16962468  0.00755738  1
  O2-  O217  1  -0.00369686  0.18694168  0.33246088  1
  O2-  O218  1  -0.00232048  0.14809283  0.66621938  1
  O2-  O219  1  0.00028660  0.67802052  -0.00339014  1
  O2-  O220  1  0.00132507  0.64447660  0.32450632  1
  O2-  O221  1  0.00131399  0.66691920  0.65568052  1
  O2-  O222  1  0.32504250  0.15836126  0.00739767  1
  O2-  O223  1  0.33134576  0.16663223  0.32867022  1
  O2-  O224  1  0.33435423  0.14408851  0.66259748  1
  O2-  O225  1  0.33256748  0.64570366  0.00452653  1
  O2-  O226  1  0.33671558  0.66235904  0.34479738  1
  O2-  O227  1  0.32753021  0.64266866  0.67018865  1
  O2-  O228  1  0.67400982  0.15290612  0.00103319  1
  O2-  O229  1  0.66572160  0.16796998  0.33799691  1
  O2-  O230  1  0.66612785  0.16121631  0.66629011  1
  O2-  O231  1  0.65594862  0.65974375  -0.00294287  1
  O2-  O232  1  0.65518891  0.66342957  0.33120029  1
  O2-  O233  1  0.66504212  0.64526779  0.66451493  1
  O2-  O234  1  0.16102935  0.16724047  0.00674091  1
  O2-  O235  1  0.17065626  0.17928868  0.33700475  1
  O2-  O236  1  0.17044508  0.14722495  0.67307990  1
  O2-  O237  1  0.16676397  0.66104806  -0.00135560  1
  O2-  O238  1  0.16483122  0.65484556  0.34409271  1
  O2-  O239  1  0.16400758  0.64933270  0.65753042  1
  O2-  O240  1  0.49623852  0.16715452  0.00258497  1
  O2-  O241  1  0.50434051  0.15705301  0.33452890  1
  O2-  O242  1  0.49971838  0.17019332  0.66365350  1
  O2-  O243  1  0.49308544  0.65834369  -0.00833925  1
  O2-  O244  1  0.49678914  0.67306034  0.33375585  1
  O2-  O245  1  0.49954720  0.65015034  0.66923508  1
  O2-  O246  1  0.83137634  0.15314607  0.00518995  1
  O2-  O247  1  0.83342730  0.18446348  0.33591081  1
  O2-  O248  1  0.83485588  0.14845407  0.65968378  1
  O2-  O249  1  0.83181668  0.66468019  -0.00618261  1
  O2-  O250  1  0.83217730  0.64871041  0.32640956  1
  O2-  O251  1  0.84098878  0.64845199  0.67533687  1
  O2-  O252  1  -0.00141104  0.34255273  0.00632467  1
  O2-  O253  1  0.00050436  0.32848399  0.33417599  1
  O2-  O254  1  0.00675245  0.34806873  0.65939644  1
  O2-  O255  1  0.00080719  0.80541936  -0.00079896  1
  O2-  O256  1  -0.00244704  0.85055628  0.33429850  1
  O2-  O257  1  -0.00611756  0.84536457  0.67336199  1
  O2-  O258  1  0.33319091  0.33912573  0.00081223  1
  O2-  O259  1  0.33314579  0.31826126  0.33202075  1
  O2-  O260  1  0.33157800  0.35058461  0.66479846  1
  O2-  O261  1  0.33029484  0.85379164  0.00483889  1
  O2-  O262  1  0.33521053  0.84060653  0.33446436  1
  O2-  O263  1  0.33241518  0.84871729  0.66595277  1
  O2-  O264  1  0.66714085  0.34668577  -0.00078002  1
  O2-  O265  1  0.66406313  0.32929506  0.34193544  1
  O2-  O266  1  0.66071437  0.33403189  0.66979085  1
  O2-  O267  1  0.66709392  0.85011384  -0.00478578  1
  O2-  O268  1  0.66976753  0.84496371  0.33175545  1
  O2-  O269  1  0.66857742  0.85411769  0.66724158  1
  O2-  O270  1  0.16203933  0.32977030  -0.00196474  1
  O2-  O271  1  0.16655068  0.32231601  0.33361482  1
  O2-  O272  1  0.16426030  0.34894505  0.66457592  1
  O2-  O273  1  0.16246648  0.84412912  -0.00090537  1
  O2-  O274  1  0.15960227  0.84771826  0.32417098  1
  O2-  O275  1  0.16881030  0.85327484  0.66872937  1
  O2-  O276  1  0.49876978  0.33578885  0.00109960  1
  O2-  O277  1  0.49573460  0.33219896  0.33429920  1
  O2-  O278  1  0.50324314  0.33028197  0.66681109  1
  O2-  O279  1  0.50290923  0.84925826  0.00401324  1
  O2-  O280  1  0.50938764  0.83537882  0.33997167  1
  O2-  O281  1  0.49551169  0.84813687  0.66468308  1
  O2-  O282  1  0.83197711  0.35416987  0.00220917  1
  O2-  O283  1  0.83036845  0.32312276  0.33184354  1
  O2-  O284  1  0.83626533  0.34157089  0.66852239  1
  O2-  O285  1  0.83240120  0.84108782  -0.00159808  1
  O2-  O286  1  0.83237961  0.84993496  0.33279550  1
  O2-  O287  1  0.83376590  0.85129122  0.66759254  1
  O2-  O288  1  -0.00408143  0.19272711  0.16555257  1
  O2-  O289  1  0.00214698  0.18997716  0.49920539  1
  O2-  O290  1  -0.00342208  0.17629541  0.82289755  1
  O2-  O291  1  -0.00344506  0.68960366  0.15997885  1
  O2-  O292  1  -0.00954413  0.68322436  0.49038545  1
  O2-  O293  1  -0.00807389  0.68122907  0.82706852  1
  O2-  O294  1  0.33542291  0.18462071  0.17355428  1
  O2-  O295  1  0.32515955  0.18180429  0.49960973  1
  O2-  O296  1  0.32673357  0.17206363  0.82611298  1
  O2-  O297  1  0.33591445  0.67177905  0.16359329  1
  O2-  O298  1  0.33609394  0.69097909  0.50309934  1
  O2-  O299  1  0.34348060  0.67717092  0.84189884  1
  O2-  O300  1  0.66763811  0.17826581  0.16781939  1
  O2-  O301  1  0.66678899  0.18407388  0.49845714  1
  O2-  O302  1  0.67469641  0.17421306  0.83020784  1
  O2-  O303  1  0.66218669  0.68553388  0.17929764  1
  O2-  O304  1  0.66073861  0.67402602  0.50308241  1
  O2-  O305  1  0.66027976  0.67956334  0.82638665  1
  O2-  O306  1  0.16223745  0.18978197  0.16708293  1
  O2-  O307  1  0.16776829  0.18479176  0.49461061  1
  O2-  O308  1  0.16298592  0.18061474  0.83520391  1
  O2-  O309  1  0.16001126  0.68184261  0.16440986  1
  O2-  O310  1  0.16772459  0.68554044  0.50281805  1
  O2-  O311  1  0.17917902  0.67336642  0.83181143  1
  O2-  O312  1  0.49274464  0.17629890  0.17325786  1
  O2-  O313  1  0.50858572  0.17715984  0.49904105  1
  O2-  O314  1  0.49688947  0.18178292  0.82570953  1
  O2-  O315  1  0.49836966  0.68886987  0.16262795  1
  O2-  O316  1  0.50581175  0.68934317  0.49569675  1
  O2-  O317  1  0.50622367  0.68082848  0.82370169  1
  O2-  O318  1  0.83079341  0.18377648  0.16760308  1
  O2-  O319  1  0.83357090  0.18793570  0.50116716  1
  O2-  O320  1  0.83080230  0.17071512  0.82972606  1
  O2-  O321  1  0.83050747  0.67973005  0.17292094  1
  O2-  O322  1  0.83054163  0.67318410  0.50490907  1
  O2-  O323  1  0.83191495  0.69309551  0.83720003  1
  O2-  O324  1  -0.00280669  0.31382546  0.16356469  1
  O2-  O325  1  -0.00071311  0.31782194  0.49710285  1
  O2-  O326  1  0.00214194  0.32066549  0.83553263  1
  O2-  O327  1  0.00381752  0.81321167  0.17186111  1
  O2-  O328  1  -0.00422622  0.81337492  0.49573492  1
  O2-  O329  1  0.00162565  0.81547029  0.83543700  1
  O2-  O330  1  0.33502647  0.32366358  0.17196811  1
  O2-  O331  1  0.33193435  0.31590460  0.49883119  1
  O2-  O332  1  0.32721247  0.32944266  0.82576737  1
  O2-  O333  1  0.33163116  0.82468836  0.16387615  1
  O2-  O334  1  0.34232886  0.81658135  0.50607191  1
  O2-  O335  1  0.33038889  0.82361838  0.82970505  1
  O2-  O336  1  0.67384956  0.32631866  0.17888435  1
  O2-  O337  1  0.66602184  0.30491374  0.50256590  1
  O2-  O338  1  0.66545379  0.32679755  0.82922660  1
  O2-  O339  1  0.66148372  0.81762870  0.16542166  1
  O2-  O340  1  0.66694718  0.82408293  0.50021543  1
  O2-  O341  1  0.67183971  0.82024756  0.84134193  1
  O2-  O342  1  0.16981948  0.30917802  0.16965796  1
  O2-  O343  1  0.16468583  0.31153500  0.50104034  1
  O2-  O344  1  0.16252899  0.32364163  0.83294291  1
  O2-  O345  1  0.17250653  0.81784585  0.15711670  1
  O2-  O346  1  0.17403403  0.81811932  0.48618737  1
  O2-  O347  1  0.17295754  0.82685191  0.82840834  1
  O2-  O348  1  0.49929071  0.32832366  0.16774042  1
  O2-  O349  1  0.50095664  0.30787367  0.49740571  1
  O2-  O350  1  0.50299092  0.32324970  0.82558097  1
  O2-  O351  1  0.49345390  0.81409750  0.17596522  1
  O2-  O352  1  0.50191958  0.81875753  0.50304427  1
  O2-  O353  1  0.49478097  0.81485124  0.83941542  1
  O2-  O354  1  0.83996672  0.31633807  0.16220475  1
  O2-  O355  1  0.83652350  0.31954947  0.49775606  1
  O2-  O356  1  0.81997779  0.33278565  0.84384474  1
  O2-  O357  1  0.82605073  0.82286561  0.17491289  1
  O2-  O358  1  0.82814233  0.82878967  0.50620952  1
  O2-  O359  1  0.83717928  0.81604903  0.83292614  1
  O2-  O360  1  0.10954928  0.07719385  0.10364368  1
  O2-  O361  1  0.10681593  0.08465308  0.43410333  1
  O2-  O362  1  0.08196191  0.08516648  0.78436528  1
  O2-  O363  1  0.10036314  0.57701516  0.11688786  1
  O2-  O364  1  0.08139863  0.58159396  0.44400488  1
  O2-  O365  1  0.07322394  0.56263108  0.79586147  1
  O2-  O366  1  0.40606400  0.08278254  0.11298959  1
  O2-  O367  1  0.39744425  0.08269355  0.44454862  1
  O2-  O368  1  0.42889880  0.08297781  0.76516213  1
  O2-  O369  1  0.42470670  0.58578592  0.10850566  1
  O2-  O370  1  0.42525844  0.58162219  0.44287112  1
  O2-  O371  1  0.43440868  0.57519005  0.79570961  1
  O2-  O372  1  0.75128058  0.07628595  0.09978301  1
  O2-  O373  1  0.74124446  0.08667905  0.44458871  1
  O2-  O374  1  0.76299466  0.08104694  0.77186694  1
  O2-  O375  1  0.72189934  0.57166243  0.10568240  1
  O2-  O376  1  0.73123714  0.57087393  0.44951148  1
  O2-  O377  1  0.74521445  0.58148238  0.80165327  1
  O2-  O378  1  0.26822856  0.08543973  0.22678601  1
  O2-  O379  1  0.25115336  0.08038870  0.54045559  1
  O2-  O380  1  0.23049897  0.08139024  0.90341407  1
  O2-  O381  1  0.25774128  0.57270564  0.24277687  1
  O2-  O382  1  0.25481717  0.58221058  0.52858763  1
  O2-  O383  1  0.26949012  0.57314558  0.88237212  1
  O2-  O384  1  0.56064651  0.08429443  0.23452422  1
  O2-  O385  1  0.58106108  0.07936370  0.55359418  1
  O2-  O386  1  0.61348369  0.07695507  0.88223108  1
  O2-  O387  1  0.57172087  0.58126095  0.22109937  1
  O2-  O388  1  0.57701328  0.58200572  0.54559175  1
  O2-  O389  1  0.57711828  0.58549048  0.88908170  1
  O2-  O390  1  0.91818529  0.08245582  0.25357522  1
  O2-  O391  1  0.91757473  0.08322617  0.52976801  1
  O2-  O392  1  0.91703369  0.07394429  0.88752753  1
  O2-  O393  1  0.92115176  0.57930789  0.20930386  1
  O2-  O394  1  0.91560718  0.58207328  0.55552369  1
  O2-  O395  1  0.91735179  0.58276817  0.87534605  1
  O2-  O396  1  0.06598880  0.41894313  0.13422681  1
  O2-  O397  1  0.08303357  0.41973439  0.43793971  1
  O2-  O398  1  0.08614301  0.42011558  0.78420937  1
  O2-  O399  1  0.09752026  0.91767974  0.11244666  1
  O2-  O400  1  0.07929668  0.91677518  0.45155106  1
  O2-  O401  1  0.07576036  0.91600404  0.79104318  1
  O2-  O402  1  0.41293347  0.42229238  0.11281135  1
  O2-  O403  1  0.42373030  0.41783259  0.42845352  1
  O2-  O404  1  0.43339666  0.41722177  0.76732697  1
  O2-  O405  1  0.42594229  0.91843337  0.11896910  1
  O2-  O406  1  0.42818902  0.91712292  0.44531746  1
  O2-  O407  1  0.40656444  0.91844525  0.78257566  1
  O2-  O408  1  0.77808839  0.42510673  0.12324534  1
  O2-  O409  1  0.75088932  0.41608948  0.41850854  1
  O2-  O410  1  0.73383395  0.42011774  0.77210081  1
  O2-  O411  1  0.73849305  0.91769590  0.10543776  1
  O2-  O412  1  0.73718066  0.92042249  0.45233137  1
  O2-  O413  1  0.76246970  0.91639332  0.78858340  1
  O2-  O414  1  0.24924829  0.41181304  0.25551213  1
  O2-  O415  1  0.23550228  0.41522563  0.54632974  1
  O2-  O416  1  0.24040878  0.42266272  0.88601091  1
  O2-  O417  1  0.25359176  0.91975331  0.22008295  1
  O2-  O418  1  0.27580639  0.92326130  0.53770917  1
  O2-  O419  1  0.26100730  0.92492208  0.88474668  1
  O2-  O420  1  0.59052505  0.41734573  0.25500967  1
  O2-  O421  1  0.58341661  0.41753090  0.54990830  1
  O2-  O422  1  0.59797458  0.42005007  0.87786337  1
  O2-  O423  1  0.58838068  0.92059076  0.22769277  1
  O2-  O424  1  0.57512357  0.92250842  0.54485976  1
  O2-  O425  1  0.56489106  0.91694915  0.87758442  1
  O2-  O426  1  0.90971850  0.41770635  0.23076663  1
  O2-  O427  1  0.93169004  0.41971751  0.54627496  1
  O2-  O428  1  0.92509450  0.41992308  0.89022642  1
  O2-  O429  1  0.92105188  0.92113713  0.21994277  1
  O2-  O430  1  0.91393276  0.92283632  0.54273922  1
  O2-  O431  1  0.91617917  0.92016061  0.89880543  1
  O2-  O432  1  0.03649092  0.00389653  -0.05995408  1
  O2-  O433  1  0.00202654  -0.00934056  0.33705377  1
  O2-  O434  1  0.00047197  0.00699115  0.67766481  1
  O2-  O435  1  -0.00678621  0.48417383  0.01843793  1
  O2-  O436  1  0.01295005  0.49283671  0.31999717  1
  O2-  O437  1  -0.00580487  0.50965257  0.67301463  1
  O2-  O438  1  0.31930643  -0.00816360  0.02910368  1
  O2-  O439  1  0.32298397  0.00936196  0.34090776  1
  O2-  O440  1  0.32784437  -0.02017391  0.67137300  1
  O2-  O441  1  0.33220330  0.51397653  0.00385068  1
  O2-  O442  1  0.33263912  0.49850582  0.35777679  1
  O2-  O443  1  0.29529226  0.50506405  0.69714267  1
  O2-  O444  1  0.66343263  -0.02034576  -0.01676155  1
  O2-  O445  1  0.62745851  0.00464714  0.37339944  1
  O2-  O446  1  0.69386201  0.00004066  0.61620299  1
  O2-  O447  1  0.68116691  0.49094660  -0.01430644  1
  O2-  O448  1  0.67428434  0.51588899  0.32029529  1
  O2-  O449  1  0.66675984  0.51852418  0.66911404  1
  O2-  O450  1  0.17297449  -0.02186878  -0.00326871  1
  O2-  O451  1  0.17253550  -0.00495168  0.34862218  1
  O2-  O452  1  0.18088037  -0.00430245  0.70211040  1
  O2-  O453  1  0.15695189  0.49524308  -0.01302166  1
  O2-  O454  1  0.17044685  0.50140795  0.35372297  1
  O2-  O455  1  0.15491603  0.49353982  0.67036381  1
  O2-  O456  1  0.48957409  -0.00995208  -0.00364361  1
  O2-  O457  1  0.47994013  -0.00894242  0.31297992  1
  O2-  O458  1  0.47249988  -0.00197810  0.62501203  1
  O2-  O459  1  0.51018767  0.52511809  0.00595667  1
  O2-  O460  1  0.51370839  0.51212604  0.34774424  1
  O2-  O461  1  0.51867568  0.50353256  0.69465771  1
  O2-  O462  1  0.80752932  0.00444316  -0.04891372  1
  O2-  O463  1  0.83338201  -0.00924401  0.33052260  1
  O2-  O464  1  0.84073537  -0.01239062  0.66057940  1
  O2-  O465  1  0.83338939  0.50583869  -0.00624553  1
  O2-  O466  1  0.84795553  0.50614539  0.35180677  1
  O2-  O467  1  0.83713380  0.51580812  0.66201538  1
  O2-  O468  1  0.90563764  0.25532236  0.92656558  1
  O2-  O469  1  0.74800373  0.75643567  0.06410382  1
  O2-  O470  1  0.58018574  0.24959632  0.26200144  1
  O2-  O471  1  0.91242733  0.74867403  0.28058155  1
  O2-  O472  1  0.24982357  0.74142537  0.61648074  1
  O2-  O473  1  0.41713291  0.25140258  0.06993585  1
  O2-  O474  1  0.25936166  0.25113013  0.92832177  1
  O2-  O475  1  0.91938219  0.24959431  0.61450703  1
  O2-  O476  1  0.25634121  0.74741105  0.94144898  1
  O2-  O477  1  0.58880330  0.25526321  0.92830739  1
  O2-  O478  1  0.74320694  0.75237751  0.71520565  1
  O2-  O479  1  0.08253074  0.74927488  0.38760043  1
  O2-  O480  1  0.90488629  0.75084821  0.60312983  1
  O2-  O481  1  0.24948333  0.25118833  0.61853008  1
  O2-  O482  1  0.58677771  0.74732089  0.61504112  1
  O2-  O483  1  0.25002524  0.75390787  0.26689950  1
  O2-  O484  1  0.41081185  0.75204893  0.72440580  1
  O2-  O485  1  0.74834740  0.24350904  0.05994924  1
  O2-  O486  1  0.58263912  0.75226919  0.94145343  1
  O2-  O487  1  0.76152664  0.24957163  0.73367885  1
  O2-  O488  1  0.08243884  0.25083846  0.72589734  1
  O2-  O489  1  0.39548878  0.24966863  0.72808683  1
  O2-  O490  1  0.09165444  0.75500561  0.73089325  1
  O2-  O491  1  0.40498804  0.75151187  0.05547547  1
  O2-  O492  1  0.75465918  0.75489527  0.39889216  1
