# generated using pymatgen
data_Ca108Mn108O277
_symmetry_space_group_name_H-M   'P 1'
_cell_length_a   16.02565396
_cell_length_b   22.30455923
_cell_length_c   16.38745599
_cell_angle_alpha   90.00441581
_cell_angle_beta   89.99529690
_cell_angle_gamma   89.99869597
_symmetry_Int_Tables_number   1
_chemical_formula_structural   Ca108Mn108O277
_chemical_formula_sum   'Ca108 Mn108 O277'
_cell_volume   5857.61659548
_cell_formula_units_Z   1
loop_
 _symmetry_equiv_pos_site_id
 _symmetry_equiv_pos_as_xyz
  1  'x, y, z'
loop_
 _atom_type_symbol
 _atom_type_oxidation_number
  Ca2+  2.0
  Mn3.34+  3.34
  O2-  -2.0
loop_
 _atom_site_type_symbol
 _atom_site_label
 _atom_site_symmetry_multiplicity
 _atom_site_fract_x
 _atom_site_fract_y
 _atom_site_fract_z
 _atom_site_occupancy
  Ca2+  Ca0  1  0.10655909  0.24275032  0.24038528  1
  Ca2+  Ca1  1  0.07470276  0.24805888  0.59082475  1
  Ca2+  Ca2  1  0.08005310  0.25675714  0.92381522  1
  Ca2+  Ca3  1  0.07450621  0.74836925  0.26326295  1
  Ca2+  Ca4  1  0.06346820  0.74577288  0.56120208  1
  Ca2+  Ca5  1  0.09378503  0.74294834  0.92506942  1
  Ca2+  Ca6  1  0.41618327  0.25593121  0.22749711  1
  Ca2+  Ca7  1  0.41976336  0.26128320  0.56822859  1
  Ca2+  Ca8  1  0.44545082  0.24674036  0.93883209  1
  Ca2+  Ca9  1  0.40850418  0.75081079  0.25079512  1
  Ca2+  Ca10  1  0.42263339  0.75129561  0.57256562  1
  Ca2+  Ca11  1  0.41890389  0.74531109  0.92420391  1
  Ca2+  Ca12  1  0.73150563  0.24653445  0.23074893  1
  Ca2+  Ca13  1  0.76084841  0.25375209  0.59932124  1
  Ca2+  Ca14  1  0.73416365  0.23719452  0.92542546  1
  Ca2+  Ca15  1  0.76886360  0.75600122  0.26291562  1
  Ca2+  Ca16  1  0.76846402  0.74823718  0.58368922  1
  Ca2+  Ca17  1  0.74728343  0.75129078  0.90870845  1
  Ca2+  Ca18  1  0.25932686  0.24994114  0.10271483  1
  Ca2+  Ca19  1  0.25782249  0.25664754  0.39676763  1
  Ca2+  Ca20  1  0.23197633  0.26625036  0.75183272  1
  Ca2+  Ca21  1  0.26350779  0.73877885  0.07138917  1
  Ca2+  Ca22  1  0.24781283  0.75022836  0.41251703  1
  Ca2+  Ca23  1  0.25652305  0.74717802  0.76187916  1
  Ca2+  Ca24  1  0.57401034  0.24881689  0.08359062  1
  Ca2+  Ca25  1  0.56910471  0.25343662  0.39253493  1
  Ca2+  Ca26  1  0.60397832  0.25455319  0.76887793  1
  Ca2+  Ca27  1  0.56533864  0.75142248  0.07415976  1
  Ca2+  Ca28  1  0.57740271  0.75650961  0.42394379  1
  Ca2+  Ca29  1  0.58838519  0.75555523  0.75890315  1
  Ca2+  Ca30  1  0.91243967  0.25608752  0.07977988  1
  Ca2+  Ca31  1  0.92716458  0.25927685  0.42113915  1
  Ca2+  Ca32  1  0.89726084  0.24337159  0.74964738  1
  Ca2+  Ca33  1  0.93087662  0.74141565  0.08882426  1
  Ca2+  Ca34  1  0.93037060  0.72973709  0.41500414  1
  Ca2+  Ca35  1  0.90448800  0.73951820  0.73681455  1
  Ca2+  Ca36  1  0.40774058  0.59330879  0.57713332  1
  Ca2+  Ca37  1  0.58779592  0.57406302  0.04210717  1
  Ca2+  Ca38  1  0.77032010  0.08291630  0.61786069  1
  Ca2+  Ca39  1  0.25543207  0.10490886  0.11022217  1
  Ca2+  Ca40  1  0.24248186  0.08812103  0.40545140  1
  Ca2+  Ca41  1  0.59556704  0.57143120  0.04942216  1
  Ca2+  Ca42  1  0.40455223  0.58833869  0.26454452  1
  Ca2+  Ca43  1  0.58210543  0.10422407  0.08354077  1
  Ca2+  Ca44  1  0.25180050  0.10016109  0.10303953  1
  Ca2+  Ca45  1  0.59735246  0.07408471  0.38312358  1
  Ca2+  Ca46  1  0.60084663  0.58366987  0.76696494  1
  Ca2+  Ca47  1  0.56224840  0.59991666  0.41316768  1
  Ca2+  Ca48  1  0.40227911  0.09321607  0.58776394  1
  Ca2+  Ca49  1  0.43720303  0.09526604  0.93781644  1
  Ca2+  Ca50  1  0.72661138  0.07665860  0.23565948  1
  Ca2+  Ca51  1  0.61850365  0.11063200  0.77867784  1
  Ca2+  Ca52  1  0.24478778  0.09279825  0.73288532  1
  Ca2+  Ca53  1  0.79916668  0.57686962  0.24822306  1
  Ca2+  Ca54  1  0.23963664  0.60668580  0.77683770  1
  Ca2+  Ca55  1  0.23202709  0.60004892  0.06337235  1
  Ca2+  Ca56  1  0.23233252  0.09497095  0.73556050  1
  Ca2+  Ca57  1  0.59125744  0.08032785  0.38419968  1
  Ca2+  Ca58  1  0.77954567  0.08528426  0.61408550  1
  Ca2+  Ca59  1  0.90523343  0.08699066  0.06745005  1
  Ca2+  Ca60  1  0.10579019  0.60588757  0.93192743  1
  Ca2+  Ca61  1  0.37705263  0.60044694  0.92118452  1
  Ca2+  Ca62  1  0.57359218  0.10782996  0.08714637  1
  Ca2+  Ca63  1  0.75743367  0.58901838  0.90599548  1
  Ca2+  Ca64  1  0.38690322  0.60081730  0.92457522  1
  Ca2+  Ca65  1  0.42636495  0.11021637  0.23752455  1
  Ca2+  Ca66  1  0.25254854  0.09367616  0.40370582  1
  Ca2+  Ca67  1  0.73677110  0.07531363  0.23368300  1
  Ca2+  Ca68  1  0.06652680  0.59932018  0.22900810  1
  Ca2+  Ca69  1  0.41690397  0.11309128  0.23514350  1
  Ca2+  Ca70  1  0.91567030  0.08725130  0.06866867  1
  Ca2+  Ca71  1  0.25112577  0.58996431  0.40995693  1
  Ca2+  Ca72  1  0.25677339  0.42082973  0.39441687  1
  Ca2+  Ca73  1  0.76455459  0.41735312  0.60381868  1
  Ca2+  Ca74  1  0.90794070  0.90484045  0.41531830  1
  Ca2+  Ca75  1  0.90551505  0.90271117  0.75121463  1
  Ca2+  Ca76  1  0.23762162  0.40780075  0.08231956  1
  Ca2+  Ca77  1  0.75500995  0.90633434  0.57580731  1
  Ca2+  Ca78  1  0.07811512  0.40936999  0.24652160  1
  Ca2+  Ca79  1  0.60441026  0.91343300  0.39620150  1
  Ca2+  Ca80  1  0.07469093  0.40704055  0.58463335  1
  Ca2+  Ca81  1  0.58982812  0.91326642  0.09126081  1
  Ca2+  Ca82  1  0.59455970  0.40856353  0.07428000  1
  Ca2+  Ca83  1  0.91413193  0.41022934  0.39652470  1
  Ca2+  Ca84  1  0.77111336  0.42286743  0.60524859  1
  Ca2+  Ca85  1  0.90593750  0.41964766  0.74798803  1
  Ca2+  Ca86  1  0.75360915  0.91502231  0.93686701  1
  Ca2+  Ca87  1  0.58021653  0.40795720  0.76225224  1
  Ca2+  Ca88  1  0.23767149  0.89961664  0.42174748  1
  Ca2+  Ca89  1  0.58419078  0.39777922  0.41307869  1
  Ca2+  Ca90  1  0.59798456  0.91650228  0.08649906  1
  Ca2+  Ca91  1  0.77097016  0.40817329  0.22850666  1
  Ca2+  Ca92  1  0.07283057  0.90512650  0.93376551  1
  Ca2+  Ca93  1  0.73154174  0.42305752  0.92914526  1
  Ca2+  Ca94  1  0.40657745  0.89149667  0.57955832  1
  Ca2+  Ca95  1  0.91894161  0.90522686  0.41589460  1
  Ca2+  Ca96  1  0.24839653  0.40710554  0.08242994  1
  Ca2+  Ca97  1  0.91818482  0.90380125  0.74899070  1
  Ca2+  Ca98  1  0.08588333  0.90487975  0.93364512  1
  Ca2+  Ca99  1  0.75453953  0.91490208  0.25270973  1
  Ca2+  Ca100  1  0.24596593  0.89156419  0.75172328  1
  Ca2+  Ca101  1  0.08620938  0.40693362  0.58462453  1
  Ca2+  Ca102  1  0.09373783  0.41007652  0.92326769  1
  Ca2+  Ca103  1  0.24637873  0.89927956  0.08401183  1
  Ca2+  Ca104  1  0.74191245  0.42317971  0.92764984  1
  Ca2+  Ca105  1  0.41681094  0.90259593  0.25044193  1
  Ca2+  Ca106  1  0.40445166  0.40330443  0.58942767  1
  Ca2+  Ca107  1  0.42357671  0.90053121  0.91915410  1
  Mn3.34+  Mn108  1  0.07667492  0.33031578  0.08525324  1
  Mn3.34+  Mn109  1  0.08757665  0.33548927  0.41388553  1
  Mn3.34+  Mn110  1  0.07711150  0.33616116  0.75904538  1
  Mn3.34+  Mn111  1  0.08320273  0.82816250  0.09253613  1
  Mn3.34+  Mn112  1  0.08279065  0.83136551  0.41466331  1
  Mn3.34+  Mn113  1  0.08293126  0.82177703  0.75126682  1
  Mn3.34+  Mn114  1  0.41796676  0.33246286  0.08029977  1
  Mn3.34+  Mn115  1  0.41520655  0.33651317  0.41069368  1
  Mn3.34+  Mn116  1  0.41366610  0.33380987  0.75534588  1
  Mn3.34+  Mn117  1  0.41707202  0.82992118  0.08640240  1
  Mn3.34+  Mn118  1  0.41590777  0.82667440  0.41454173  1
  Mn3.34+  Mn119  1  0.42187570  0.82819348  0.74955731  1
  Mn3.34+  Mn120  1  0.75283134  0.33382258  0.08276865  1
  Mn3.34+  Mn121  1  0.75059012  0.32999043  0.41752106  1
  Mn3.34+  Mn122  1  0.75209291  0.33522207  0.75959765  1
  Mn3.34+  Mn123  1  0.75538393  0.83435699  0.08780980  1
  Mn3.34+  Mn124  1  0.74990005  0.83377850  0.41856574  1
  Mn3.34+  Mn125  1  0.74420815  0.83316786  0.75092876  1
  Mn3.34+  Mn126  1  0.25171172  0.33973179  0.24781338  1
  Mn3.34+  Mn127  1  0.24979488  0.33296881  0.58181589  1
  Mn3.34+  Mn128  1  0.25611825  0.33730100  0.91312810  1
  Mn3.34+  Mn129  1  0.24564864  0.83378749  0.24725885  1
  Mn3.34+  Mn130  1  0.24249052  0.83061189  0.58261347  1
  Mn3.34+  Mn131  1  0.25154226  0.82971401  0.91634816  1
  Mn3.34+  Mn132  1  0.58206791  0.33068210  0.24458381  1
  Mn3.34+  Mn133  1  0.58328449  0.33516950  0.58235793  1
  Mn3.34+  Mn134  1  0.58040815  0.33566236  0.91704179  1
  Mn3.34+  Mn135  1  0.58502678  0.83541905  0.24755865  1
  Mn3.34+  Mn136  1  0.58483286  0.83536991  0.58520667  1
  Mn3.34+  Mn137  1  0.58573024  0.83426830  0.91541359  1
  Mn3.34+  Mn138  1  0.91837469  0.33179737  0.24675109  1
  Mn3.34+  Mn139  1  0.91548334  0.33488389  0.57866755  1
  Mn3.34+  Mn140  1  0.91451801  0.34058409  0.91430002  1
  Mn3.34+  Mn141  1  0.92157119  0.83419825  0.24475169  1
  Mn3.34+  Mn142  1  0.91994162  0.83434594  0.58097591  1
  Mn3.34+  Mn143  1  0.91501149  0.82604926  0.91887021  1
  Mn3.34+  Mn144  1  0.92322784  0.66266519  0.90864740  1
  Mn3.34+  Mn145  1  0.07383952  0.66939716  0.75198571  1
  Mn3.34+  Mn146  1  0.24720473  0.66532059  0.58452368  1
  Mn3.34+  Mn147  1  0.23670182  0.66960441  0.58356142  1
  Mn3.34+  Mn148  1  0.42565341  0.18332216  0.74936246  1
  Mn3.34+  Mn149  1  0.57856403  0.67430230  0.24702886  1
  Mn3.34+  Mn150  1  0.07004257  0.15975955  0.41528004  1
  Mn3.34+  Mn151  1  0.92484240  0.66600659  0.25192145  1
  Mn3.34+  Mn152  1  0.92119444  0.16855090  0.58668361  1
  Mn3.34+  Mn153  1  0.91877922  0.16499681  0.24283679  1
  Mn3.34+  Mn154  1  0.24254306  0.66552250  0.24594218  1
  Mn3.34+  Mn155  1  0.57953791  0.16468913  0.57395862  1
  Mn3.34+  Mn156  1  0.58281262  0.66697848  0.58744834  1
  Mn3.34+  Mn157  1  0.41524735  0.17897095  0.75165305  1
  Mn3.34+  Mn158  1  0.75223594  0.66753301  0.08388223  1
  Mn3.34+  Mn159  1  0.24825250  0.16834145  0.91805719  1
  Mn3.34+  Mn160  1  0.41913007  0.66569503  0.75100660  1
  Mn3.34+  Mn161  1  0.75804767  0.15846123  0.41982622  1
  Mn3.34+  Mn162  1  0.75346862  0.16660947  0.08161698  1
  Mn3.34+  Mn163  1  0.23532684  0.16192217  0.91512267  1
  Mn3.34+  Mn164  1  0.91941934  0.64762495  0.58199228  1
  Mn3.34+  Mn165  1  0.75725428  0.66013775  0.75003114  1
  Mn3.34+  Mn166  1  0.76230368  0.66212196  0.08461031  1
  Mn3.34+  Mn167  1  0.58454464  0.66546902  0.91054052  1
  Mn3.34+  Mn168  1  0.07756299  0.16664140  0.08572181  1
  Mn3.34+  Mn169  1  0.59334763  0.66241504  0.58548125  1
  Mn3.34+  Mn170  1  0.59169083  0.17264612  0.57681615  1
  Mn3.34+  Mn171  1  0.59139760  0.66772358  0.24592336  1
  Mn3.34+  Mn172  1  0.24766819  0.17323276  0.57755963  1
  Mn3.34+  Mn173  1  0.07071015  0.17314258  0.75283538  1
  Mn3.34+  Mn174  1  0.25298106  0.66208960  0.24329874  1
  Mn3.34+  Mn175  1  0.41625925  0.17094120  0.41938083  1
  Mn3.34+  Mn176  1  0.75830838  0.66939482  0.42102967  1
  Mn3.34+  Mn177  1  0.76743581  0.16364721  0.41744279  1
  Mn3.34+  Mn178  1  0.91598675  0.16331992  0.90925423  1
  Mn3.34+  Mn179  1  0.07986513  0.16535457  0.41584586  1
  Mn3.34+  Mn180  1  0.08216664  -0.00029819  0.08496734  1
  Mn3.34+  Mn181  1  0.24580364  0.00173810  0.92071055  1
  Mn3.34+  Mn182  1  0.58942997  -0.00160478  0.92807313  1
  Mn3.34+  Mn183  1  0.41155341  -0.00598102  0.08243106  1
  Mn3.34+  Mn184  1  0.41892869  -0.00103965  0.42452716  1
  Mn3.34+  Mn185  1  0.42821834  -0.00074911  0.75869343  1
  Mn3.34+  Mn186  1  0.40576258  0.49991264  0.74454037  1
  Mn3.34+  Mn187  1  0.57532947  -0.00298088  0.58250328  1
  Mn3.34+  Mn188  1  0.41381357  0.00517313  0.75892425  1
  Mn3.34+  Mn189  1  0.41318930  0.49913737  0.41309749  1
  Mn3.34+  Mn190  1  0.58889689  0.50367142  0.59449695  1
  Mn3.34+  Mn191  1  0.58996096  0.49709570  0.24862052  1
  Mn3.34+  Mn192  1  0.08247258  0.00064129  0.75751284  1
  Mn3.34+  Mn193  1  0.76929060  0.50954252  0.41736889  1
  Mn3.34+  Mn194  1  0.08270528  0.50146493  0.74645318  1
  Mn3.34+  Mn195  1  0.08067794  0.50006251  0.07093427  1
  Mn3.34+  Mn196  1  0.07191013  0.00544188  0.75954766  1
  Mn3.34+  Mn197  1  0.25215406  0.50094224  0.58571321  1
  Mn3.34+  Mn198  1  0.92260942  0.00024752  0.25761718  1
  Mn3.34+  Mn199  1  0.07000673  0.50764910  0.74356205  1
  Mn3.34+  Mn200  1  0.57745068  0.50201337  0.24661339  1
  Mn3.34+  Mn201  1  0.40810440  -0.00580302  0.42404010  1
  Mn3.34+  Mn202  1  0.91997872  0.50441960  0.93282988  1
  Mn3.34+  Mn203  1  0.41974657  0.49723094  0.08877922  1
  Mn3.34+  Mn204  1  0.07898979  -0.00300461  0.40850018  1
  Mn3.34+  Mn205  1  0.91408359  0.00044678  0.92117470  1
  Mn3.34+  Mn206  1  0.07207062  0.50999479  0.41124391  1
  Mn3.34+  Mn207  1  0.06550490  0.51996385  0.40669917  1
  Mn3.34+  Mn208  1  0.40804666  0.50306159  0.09723317  1
  Mn3.34+  Mn209  1  0.58853022  0.00392923  0.58149184  1
  Mn3.34+  Mn210  1  0.57471634  0.49814459  0.59567950  1
  Mn3.34+  Mn211  1  0.75044212  -0.00215173  0.75464433  1
  Mn3.34+  Mn212  1  0.23178382  -0.00695859  0.25862938  1
  Mn3.34+  Mn213  1  0.75809047  0.50451301  0.42062148  1
  Mn3.34+  Mn214  1  0.23815693  -0.00105064  0.58047804  1
  Mn3.34+  Mn215  1  0.93317913  0.00269726  0.58167616  1
  O2-  O216  1  -0.00968489  0.16553502  0.00648080  1
  O2-  O217  1  -0.00517930  0.17587020  0.32848255  1
  O2-  O218  1  0.00397954  0.15955970  0.66480422  1
  O2-  O219  1  -0.00249628  0.68204420  -0.01407721  1
  O2-  O220  1  0.00047389  0.66146952  0.32850286  1
  O2-  O221  1  -0.00177303  0.67351868  0.66619828  1
  O2-  O222  1  0.32498008  0.14506282  -0.00403118  1
  O2-  O223  1  0.33820692  0.15070231  0.34145400  1
  O2-  O224  1  0.33432156  0.16421926  0.66525147  1
  O2-  O225  1  0.32974312  0.66915812  -0.00304368  1
  O2-  O226  1  0.32470128  0.65471688  0.33029905  1
  O2-  O227  1  0.32563153  0.65850200  0.66968310  1
  O2-  O228  1  0.67140819  0.15480430  0.00873153  1
  O2-  O229  1  0.67740114  0.14873485  0.33107540  1
  O2-  O230  1  0.67064760  0.14838577  0.65161234  1
  O2-  O231  1  0.66970773  0.65320533  0.00111187  1
  O2-  O232  1  0.65795062  0.66853961  0.33824217  1
  O2-  O233  1  0.66288546  0.65271852  0.67322374  1
  O2-  O234  1  0.16236474  0.14281973  0.00441949  1
  O2-  O235  1  0.16567166  0.15594994  0.34000489  1
  O2-  O236  1  0.17320005  0.16691312  0.66882824  1
  O2-  O237  1  0.17012899  0.67966414  -0.00025614  1
  O2-  O238  1  0.16582221  0.65338627  0.32284568  1
  O2-  O239  1  0.16456903  0.67563804  0.67051777  1
  O2-  O240  1  0.50256679  0.16117824  0.00488799  1
  O2-  O241  1  0.50255138  0.14740666  0.34531670  1
  O2-  O242  1  0.50041620  0.14901063  0.66685856  1
  O2-  O243  1  0.50105758  0.64541411  -0.01011135  1
  O2-  O244  1  0.49691013  0.65685698  0.32209318  1
  O2-  O245  1  0.50034345  0.64084972  0.66545037  1
  O2-  O246  1  0.84164459  0.16495361  0.00386633  1
  O2-  O247  1  0.83283277  0.18078487  0.32380156  1
  O2-  O248  1  0.83612129  0.16761258  0.65913826  1
  O2-  O249  1  0.83589830  0.66219586  -0.00893026  1
  O2-  O250  1  0.82695069  0.65792919  0.32973133  1
  O2-  O251  1  0.83171804  0.66600543  0.66520356  1
  O2-  O252  1  -0.00161070  0.32869270  -0.00318274  1
  O2-  O253  1  -0.00240271  0.33926721  0.33616294  1
  O2-  O254  1  -0.00155507  0.35160822  0.66654883  1
  O2-  O255  1  0.00457759  0.82454815  -0.00126661  1
  O2-  O256  1  -0.00254336  0.84699486  0.33485451  1
  O2-  O257  1  -0.00358393  0.84150880  0.67449482  1
  O2-  O258  1  0.32581651  0.34080279  0.00669194  1
  O2-  O259  1  0.32869445  0.34569976  0.33566979  1
  O2-  O260  1  0.33248575  0.31017903  0.66449592  1
  O2-  O261  1  0.33446979  0.84523658  -0.00094952  1
  O2-  O262  1  0.33239541  0.84582116  0.33336631  1
  O2-  O263  1  0.32796674  0.83166854  0.66702343  1
  O2-  O264  1  0.66985502  0.34600758  -0.00257618  1
  O2-  O265  1  0.66821129  0.33462971  0.33346127  1
  O2-  O266  1  0.67030384  0.35461281  0.66660263  1
  O2-  O267  1  0.66523087  0.84937588  0.00388897  1
  O2-  O268  1  0.66993676  0.83699285  0.32851211  1
  O2-  O269  1  0.67109076  0.84841796  0.66129078  1
  O2-  O270  1  0.16139783  0.34537232  0.00542770  1
  O2-  O271  1  0.16715971  0.35138446  0.33243847  1
  O2-  O272  1  0.16239949  0.34226628  0.66399095  1
  O2-  O273  1  0.16660374  0.82474327  -0.00216112  1
  O2-  O274  1  0.16898612  0.83769286  0.33609514  1
  O2-  O275  1  0.16832969  0.81328797  0.67289924  1
  O2-  O276  1  0.50280681  0.34268315  0.00227185  1
  O2-  O277  1  0.50226028  0.34428720  0.33272782  1
  O2-  O278  1  0.49297435  0.33952083  0.66084769  1
  O2-  O279  1  0.50754306  0.84922459  0.00875616  1
  O2-  O280  1  0.50556787  0.84218887  0.33500261  1
  O2-  O281  1  0.49811106  0.84814878  0.66318669  1
  O2-  O282  1  0.82872946  0.33596920  -0.00632562  1
  O2-  O283  1  0.83752893  0.32086808  0.33529673  1
  O2-  O284  1  0.83252111  0.34214920  0.66636488  1
  O2-  O285  1  0.82731675  0.83745284  -0.00863848  1
  O2-  O286  1  0.83190305  0.84664181  0.33284398  1
  O2-  O287  1  0.83430640  0.84948792  0.66516838  1
  O2-  O288  1  -0.00165124  0.18729287  0.16466310  1
  O2-  O289  1  -0.00143044  0.17896345  0.49905381  1
  O2-  O290  1  0.00032419  0.18981611  0.83966054  1
  O2-  O291  1  0.00290774  0.68461236  0.17498301  1
  O2-  O292  1  -0.00919194  0.66969865  0.50958178  1
  O2-  O293  1  -0.00421736  0.69564695  0.83018078  1
  O2-  O294  1  0.33326415  0.16934678  0.16862671  1
  O2-  O295  1  0.33341305  0.18795039  0.49968595  1
  O2-  O296  1  0.32572260  0.18467316  0.82745320  1
  O2-  O297  1  0.33531076  0.67607926  0.17333654  1
  O2-  O298  1  0.33158754  0.68350232  0.51137725  1
  O2-  O299  1  0.34074797  0.68075282  0.83139444  1
  O2-  O300  1  0.67752212  0.16068344  0.16648909  1
  O2-  O301  1  0.66243228  0.19489703  0.48215015  1
  O2-  O302  1  0.67250481  0.18490932  0.83189607  1
  O2-  O303  1  0.66849305  0.69254201  0.16841101  1
  O2-  O304  1  0.66565295  0.68597993  0.50037783  1
  O2-  O305  1  0.66711831  0.68010155  0.83301304  1
  O2-  O306  1  0.16651500  0.17118055  0.15689840  1
  O2-  O307  1  0.16700489  0.18341742  0.49697734  1
  O2-  O308  1  0.16941137  0.18087647  0.82670291  1
  O2-  O309  1  0.16959932  0.67866489  0.16429969  1
  O2-  O310  1  0.17078463  0.69078176  0.50010241  1
  O2-  O311  1  0.15975905  0.68674875  0.82489184  1
  O2-  O312  1  0.50588336  0.16836085  0.16815612  1
  O2-  O313  1  0.49530326  0.18542125  0.50254432  1
  O2-  O314  1  0.50410725  0.18588591  0.83118216  1
  O2-  O315  1  0.50492234  0.69018396  0.16824393  1
  O2-  O316  1  0.50450109  0.67642230  0.50525927  1
  O2-  O317  1  0.50228901  0.67488827  0.83124437  1
  O2-  O318  1  0.83928429  0.18333092  0.16353494  1
  O2-  O319  1  0.83607478  0.18984879  0.50235239  1
  O2-  O320  1  0.83722000  0.19027109  0.84845113  1
  O2-  O321  1  0.83395518  0.67980007  0.17055576  1
  O2-  O322  1  0.83450696  0.67656445  0.50312786  1
  O2-  O323  1  0.83147115  0.68170928  0.83640626  1
  O2-  O324  1  0.00334951  0.31284106  0.17424334  1
  O2-  O325  1  0.00545643  0.32970139  0.50350482  1
  O2-  O326  1  -0.00515148  0.31695925  0.83448609  1
  O2-  O327  1  0.00214143  0.81185786  0.16909634  1
  O2-  O328  1  -0.00939752  0.82650188  0.49053367  1
  O2-  O329  1  0.00343662  0.82302388  0.83796432  1
  O2-  O330  1  0.32894949  0.32887092  0.16214415  1
  O2-  O331  1  0.33186013  0.32045360  0.49879581  1
  O2-  O332  1  0.33611592  0.30805492  0.83586828  1
  O2-  O333  1  0.33630766  0.82235319  0.16835316  1
  O2-  O334  1  0.33143631  0.81558860  0.50028695  1
  O2-  O335  1  0.33365443  0.81726824  0.83604242  1
  O2-  O336  1  0.66602604  0.32390332  0.16207608  1
  O2-  O337  1  0.66667307  0.32169751  0.49939248  1
  O2-  O338  1  0.66821722  0.32900096  0.83675360  1
  O2-  O339  1  0.65944039  0.81588639  0.16241425  1
  O2-  O340  1  0.66334034  0.82510741  0.49541618  1
  O2-  O341  1  0.67099209  0.82332870  0.83999902  1
  O2-  O342  1  0.16799698  0.32660349  0.16247294  1
  O2-  O343  1  0.16121586  0.32284813  0.50664911  1
  O2-  O344  1  0.16083504  0.32358347  0.84101501  1
  O2-  O345  1  0.17374486  0.81274667  0.15978102  1
  O2-  O346  1  0.16712503  0.81828626  0.49752331  1
  O2-  O347  1  0.16839003  0.81251372  0.83452130  1
  O2-  O348  1  0.50297774  0.32681256  0.16020307  1
  O2-  O349  1  0.50112351  0.32241819  0.49222277  1
  O2-  O350  1  0.50473748  0.32009522  0.82741877  1
  O2-  O351  1  0.49842143  0.81730663  0.17331681  1
  O2-  O352  1  0.49692591  0.82103782  0.50268959  1
  O2-  O353  1  0.49589898  0.82069582  0.84385316  1
  O2-  O354  1  0.83143339  0.31621758  0.17135380  1
  O2-  O355  1  0.83176070  0.31267392  0.50016216  1
  O2-  O356  1  0.83630623  0.31747549  0.83419148  1
  O2-  O357  1  0.83150507  0.82124509  0.17111999  1
  O2-  O358  1  0.83114844  0.82877859  0.50084724  1
  O2-  O359  1  0.84310163  0.81880653  0.82599372  1
  O2-  O360  1  0.05482920  0.08053863  0.10710139  1
  O2-  O361  1  0.09671506  0.07872466  0.44477218  1
  O2-  O362  1  0.09426009  0.08805320  0.77563726  1
  O2-  O363  1  0.09093158  0.57477275  0.09875582  1
  O2-  O364  1  0.10855524  0.58412394  0.45308050  1
  O2-  O365  1  0.09075881  0.58317022  0.79059412  1
  O2-  O366  1  0.40924559  0.07366904  0.10902919  1
  O2-  O367  1  0.41029812  0.08080135  0.45464828  1
  O2-  O368  1  0.41298866  0.08643696  0.78586973  1
  O2-  O369  1  0.44212680  0.57485150  0.12932609  1
  O2-  O370  1  0.42133067  0.57460294  0.44703976  1
  O2-  O371  1  0.39991136  0.58063151  0.78297188  1
  O2-  O372  1  0.77389895  0.08122894  0.10446110  1
  O2-  O373  1  0.72867880  0.08228861  0.47605789  1
  O2-  O374  1  0.75001451  0.07806832  0.75399836  1
  O2-  O375  1  0.73610678  0.58378226  0.11904953  1
  O2-  O376  1  0.73322121  0.58817262  0.43663412  1
  O2-  O377  1  0.74205819  0.58232748  0.77482166  1
  O2-  O378  1  0.26492263  0.07401667  0.23474255  1
  O2-  O379  1  0.26134543  0.08156212  0.54255036  1
  O2-  O380  1  0.25613523  0.08121812  0.86692700  1
  O2-  O381  1  0.25289974  0.58229316  0.21756741  1
  O2-  O382  1  0.25663296  0.58210226  0.55155776  1
  O2-  O383  1  0.25281752  0.57617135  0.89690092  1
  O2-  O384  1  0.58884031  0.06848493  0.21633212  1
  O2-  O385  1  0.57039597  0.08148722  0.53143876  1
  O2-  O386  1  0.56615250  0.06811820  0.88620688  1
  O2-  O387  1  0.58373228  0.58211021  0.21123757  1
  O2-  O388  1  0.58246901  0.57810852  0.54141864  1
  O2-  O389  1  0.59519323  0.58170507  0.90142778  1
  O2-  O390  1  0.90945399  0.07687259  0.20863931  1
  O2-  O391  1  0.90206218  0.08584478  0.55910517  1
  O2-  O392  1  0.91996601  0.08019915  0.90555026  1
  O2-  O393  1  0.92769424  0.58609974  0.22539909  1
  O2-  O394  1  0.91589433  0.57459907  0.57244126  1
  O2-  O395  1  0.92435951  0.58235299  0.89095948  1
  O2-  O396  1  0.08218607  0.41979957  0.10850930  1
  O2-  O397  1  0.07725408  0.43281221  0.45357509  1
  O2-  O398  1  0.07069957  0.42233889  0.79018832  1
  O2-  O399  1  0.10048101  0.91624057  0.07579287  1
  O2-  O400  1  0.08105658  0.91913553  0.44140844  1
  O2-  O401  1  0.08751430  0.91807827  0.78818280  1
  O2-  O402  1  0.40228372  0.41870429  0.09899519  1
  O2-  O403  1  0.41235636  0.42014396  0.44812704  1
  O2-  O404  1  0.42589421  0.42042815  0.75461954  1
  O2-  O405  1  0.43138264  0.91625501  0.11352793  1
  O2-  O406  1  0.41362372  0.91262488  0.44309872  1
  O2-  O407  1  0.40244391  0.91788046  0.77483995  1
  O2-  O408  1  0.75028395  0.41482512  0.09572663  1
  O2-  O409  1  0.75756913  0.42175641  0.45073708  1
  O2-  O410  1  0.76037339  0.41791580  0.78809287  1
  O2-  O411  1  0.73586310  0.91484776  0.11312147  1
  O2-  O412  1  0.75855913  0.91807648  0.43365126  1
  O2-  O413  1  0.77143447  0.91886177  0.78961758  1
  O2-  O414  1  0.23786024  0.42240980  0.21657932  1
  O2-  O415  1  0.24159396  0.42168496  0.55092330  1
  O2-  O416  1  0.24368329  0.41575670  0.91356495  1
  O2-  O417  1  0.25752376  0.91570628  0.21751000  1
  O2-  O418  1  0.26458055  0.91742965  0.56016088  1
  O2-  O419  1  0.22108673  0.91839962  0.89022692  1
  O2-  O420  1  0.59758643  0.41724691  0.22579681  1
  O2-  O421  1  0.57304671  0.42295901  0.54480047  1
  O2-  O422  1  0.59946605  0.42047590  0.89451612  1
  O2-  O423  1  0.58203008  0.91868059  0.22551784  1
  O2-  O424  1  0.58207594  0.91969603  0.54320473  1
  O2-  O425  1  0.58208556  0.92021555  0.89549327  1
  O2-  O426  1  0.91458639  0.40900529  0.23821325  1
  O2-  O427  1  0.90401041  0.41386231  0.54298548  1
  O2-  O428  1  0.91356468  0.42606647  0.88894133  1
  O2-  O429  1  0.91282446  0.91965685  0.23702234  1
  O2-  O430  1  0.91209698  0.92063034  0.55009279  1
  O2-  O431  1  0.93508796  0.92144999  0.88275148  1
  O2-  O432  1  0.00716987  -0.00899008  -0.01043744  1
  O2-  O433  1  -0.03160175  -0.00404371  0.37186194  1
  O2-  O434  1  -0.01751231  -0.01576336  0.69093277  1
  O2-  O435  1  0.03195587  0.50020751  -0.03107856  1
  O2-  O436  1  0.00021963  0.48685398  0.32445474  1
  O2-  O437  1  0.00663507  0.47672726  0.65717141  1
  O2-  O438  1  0.33467730  -0.00282246  -0.00002868  1
  O2-  O439  1  0.34384698  0.00103346  0.32775875  1
  O2-  O440  1  0.33353410  0.02052890  0.67147714  1
  O2-  O441  1  0.33170288  0.52519462  0.01583118  1
  O2-  O442  1  0.32555767  0.51004407  0.35220232  1
  O2-  O443  1  0.36108333  0.49959460  0.63142355  1
  O2-  O444  1  0.65357951  -0.00558229  0.01904999  1
  O2-  O445  1  0.67482504  0.01351444  0.33124388  1
  O2-  O446  1  0.66772733  -0.00118191  0.66433391  1
  O2-  O447  1  0.65960954  0.49402124  0.01552619  1
  O2-  O448  1  0.66064346  0.50122349  0.34462355  1
  O2-  O449  1  0.67113237  0.48053101  0.66747961  1
  O2-  O450  1  0.17346643  0.01074990  0.01616782  1
  O2-  O451  1  0.19319393  -0.00131590  0.37853648  1
  O2-  O452  1  0.18019147  0.00665384  0.69072993  1
  O2-  O453  1  0.18265296  0.49291953  0.03223841  1
  O2-  O454  1  0.16677674  0.49627985  0.34943836  1
  O2-  O455  1  0.16714214  0.50027307  0.66433484  1
  O2-  O456  1  0.49778093  -0.00120669  0.00045309  1
  O2-  O457  1  0.51283630  -0.00131668  0.35468873  1
  O2-  O458  1  0.49790227  0.01442421  0.66604667  1
  O2-  O459  1  0.49748107  0.49822840  0.01056769  1
  O2-  O460  1  0.50040455  0.50805325  0.33671761  1
  O2-  O461  1  0.51543542  0.51445459  0.69435707  1
  O2-  O462  1  0.83857816  -0.00079722  -0.00340027  1
  O2-  O463  1  0.81766987  0.00513383  0.29032293  1
  O2-  O464  1  0.82415345  -0.00797106  0.65573752  1
  O2-  O465  1  0.80937023  0.50589638  -0.04462149  1
  O2-  O466  1  0.82368116  0.48965260  0.32013507  1
  O2-  O467  1  0.83993066  0.48058112  0.66337852  1
  O2-  O468  1  0.43296986  0.74481750  0.71920233  1
  O2-  O469  1  0.08507278  0.25411045  0.72876969  1
  O2-  O470  1  0.25088987  0.25740943  0.26119676  1
  O2-  O471  1  0.41863552  0.75440376  0.06013769  1
  O2-  O472  1  0.41373312  0.25431526  0.07410812  1
  O2-  O473  1  0.08510612  0.24866185  0.39929790  1
  O2-  O474  1  0.74401855  0.75160260  0.72809007  1
  O2-  O475  1  0.25399033  0.74612959  0.27228733  1
  O2-  O476  1  0.74111134  0.24908644  0.07018814  1
  O2-  O477  1  0.75438399  0.74832304  0.05706236  1
  O2-  O478  1  0.91251914  0.75346573  0.27559683  1
  O2-  O479  1  0.09611377  0.24808854  0.06355355  1
  O2-  O480  1  0.91389161  0.75581872  0.59663920  1
  O2-  O481  1  0.07513370  0.75310007  0.40302314  1
  O2-  O482  1  0.75708814  0.75116217  0.40122285  1
  O2-  O483  1  0.58791349  0.25633030  0.93652745  1
  O2-  O484  1  0.57998262  0.24965758  0.61615203  1
  O2-  O485  1  0.41845162  0.25102864  0.38524700  1
  O2-  O486  1  0.58049227  0.75135876  0.61083688  1
  O2-  O487  1  0.58404321  0.74943044  0.93793017  1
  O2-  O488  1  0.23660612  0.24843512  0.94697705  1
  O2-  O489  1  0.74342604  0.25592767  0.73229933  1
  O2-  O490  1  0.57944160  0.25207278  0.25728306  1
  O2-  O491  1  0.92957247  0.25222303  0.60477854  1
  O2-  O492  1  0.42089239  0.75082292  0.39338756  1
