# generated using pymatgen
data_Ca108Mn108O277
_symmetry_space_group_name_H-M   'P 1'
_cell_length_a   16.01156530
_cell_length_b   22.28500462
_cell_length_c   16.37689681
_cell_angle_alpha   90.00143096
_cell_angle_beta   90.00121381
_cell_angle_gamma   90.00005289
_symmetry_Int_Tables_number   1
_chemical_formula_structural   Ca108Mn108O277
_chemical_formula_sum   'Ca108 Mn108 O277'
_cell_volume   5843.56839550
_cell_formula_units_Z   1
loop_
 _symmetry_equiv_pos_site_id
 _symmetry_equiv_pos_as_xyz
  1  'x, y, z'
loop_
 _atom_type_symbol
 _atom_type_oxidation_number
  Ca2+  2.0
  Mn3.34+  3.34
  O2-  -2.0
loop_
 _atom_site_type_symbol
 _atom_site_label
 _atom_site_symmetry_multiplicity
 _atom_site_fract_x
 _atom_site_fract_y
 _atom_site_fract_z
 _atom_site_occupancy
  Ca2+  Ca0  1  0.07351237  0.24684329  0.23804405  1
  Ca2+  Ca1  1  0.06513472  0.23121880  0.58987887  1
  Ca2+  Ca2  1  0.08254848  0.24002656  0.92644945  1
  Ca2+  Ca3  1  0.08824576  0.75242352  0.25297807  1
  Ca2+  Ca4  1  0.07883013  0.75487614  0.57085263  1
  Ca2+  Ca5  1  0.09252272  0.74161451  0.92559818  1
  Ca2+  Ca6  1  0.42338292  0.25638146  0.25356853  1
  Ca2+  Ca7  1  0.41304364  0.24549675  0.57217041  1
  Ca2+  Ca8  1  0.40502293  0.25378197  0.91692081  1
  Ca2+  Ca9  1  0.42872175  0.73708989  0.23237334  1
  Ca2+  Ca10  1  0.40444598  0.75539068  0.58802806  1
  Ca2+  Ca11  1  0.39920147  0.74027739  0.93054789  1
  Ca2+  Ca12  1  0.75788303  0.25152014  0.24571823  1
  Ca2+  Ca13  1  0.76909735  0.25537824  0.58388869  1
  Ca2+  Ca14  1  0.76616411  0.25217819  0.91574778  1
  Ca2+  Ca15  1  0.73513079  0.75388984  0.24528519  1
  Ca2+  Ca16  1  0.76274946  0.75786219  0.58746589  1
  Ca2+  Ca17  1  0.76069309  0.74572593  0.91383383  1
  Ca2+  Ca18  1  0.22623117  0.25725603  0.07772351  1
  Ca2+  Ca19  1  0.24033773  0.25810733  0.41658064  1
  Ca2+  Ca20  1  0.24428352  0.25626942  0.75503035  1
  Ca2+  Ca21  1  0.26075762  0.73921361  0.07277869  1
  Ca2+  Ca22  1  0.24128659  0.75709063  0.41469177  1
  Ca2+  Ca23  1  0.26023167  0.74816812  0.76066350  1
  Ca2+  Ca24  1  0.58843021  0.26089793  0.09397316  1
  Ca2+  Ca25  1  0.57694480  0.24963513  0.40705742  1
  Ca2+  Ca26  1  0.58271408  0.25867175  0.74818119  1
  Ca2+  Ca27  1  0.58042454  0.73590586  0.10219514  1
  Ca2+  Ca28  1  0.58433927  0.76269777  0.39775804  1
  Ca2+  Ca29  1  0.58840822  0.76130906  0.75694256  1
  Ca2+  Ca30  1  0.94233135  0.24072942  0.08164795  1
  Ca2+  Ca31  1  0.92305891  0.23487795  0.42481464  1
  Ca2+  Ca32  1  0.92399640  0.25094635  0.74370660  1
  Ca2+  Ca33  1  0.91011990  0.73606077  0.08014559  1
  Ca2+  Ca34  1  0.91860567  0.76216401  0.42205540  1
  Ca2+  Ca35  1  0.90376282  0.74957449  0.74567469  1
  Ca2+  Ca36  1  0.40593002  0.59213676  0.93052968  1
  Ca2+  Ca37  1  0.22561785  0.11253973  0.74908398  1
  Ca2+  Ca38  1  0.59526166  0.08658097  0.09570910  1
  Ca2+  Ca39  1  0.59849072  0.57685529  0.74420586  1
  Ca2+  Ca40  1  0.23442191  0.10893599  0.75221569  1
  Ca2+  Ca41  1  0.08763624  0.59161068  0.93555185  1
  Ca2+  Ca42  1  0.59275991  0.09591543  0.75570994  1
  Ca2+  Ca43  1  0.26242417  0.10229384  0.43364114  1
  Ca2+  Ca44  1  0.24566833  0.60102341  0.75821651  1
  Ca2+  Ca45  1  0.22362298  0.10183371  0.07465673  1
  Ca2+  Ca46  1  0.93053693  0.11430121  0.74152634  1
  Ca2+  Ca47  1  0.07947493  0.58946346  0.92965139  1
  Ca2+  Ca48  1  0.72287479  0.60259947  0.20625572  1
  Ca2+  Ca49  1  0.93001796  0.59592278  0.41797135  1
  Ca2+  Ca50  1  0.76239849  0.58470835  0.95388248  1
  Ca2+  Ca51  1  0.39774995  0.59720886  0.93320524  1
  Ca2+  Ca52  1  0.41874589  0.09970950  0.90829272  1
  Ca2+  Ca53  1  0.78009557  0.09469123  0.57268294  1
  Ca2+  Ca54  1  0.07532375  0.59945642  0.58275715  1
  Ca2+  Ca55  1  0.25099692  0.10140566  0.43333803  1
  Ca2+  Ca56  1  0.42495162  0.09054275  0.27054583  1
  Ca2+  Ca57  1  0.76839166  0.09543360  0.57746884  1
  Ca2+  Ca58  1  0.23451451  0.58897749  0.40792217  1
  Ca2+  Ca59  1  0.58141774  0.08250638  0.39808032  1
  Ca2+  Ca60  1  0.08238303  0.59538820  0.24090223  1
  Ca2+  Ca61  1  0.57272611  0.08631775  0.40067216  1
  Ca2+  Ca62  1  0.24971397  0.59697952  0.08482649  1
  Ca2+  Ca63  1  0.26023342  0.59697686  0.08518670  1
  Ca2+  Ca64  1  0.92731756  0.10822061  0.74618176  1
  Ca2+  Ca65  1  0.72314667  0.60262559  0.20590787  1
  Ca2+  Ca66  1  0.75017687  0.08199005  0.26488837  1
  Ca2+  Ca67  1  0.89796968  0.58994393  0.74978754  1
  Ca2+  Ca68  1  0.74539342  0.57299717  0.60795683  1
  Ca2+  Ca69  1  0.25712399  0.60135496  0.75897797  1
  Ca2+  Ca70  1  0.24605939  0.58926137  0.40783143  1
  Ca2+  Ca71  1  0.58343831  0.58020669  0.38288595  1
  Ca2+  Ca72  1  0.42130230  0.40753001  0.91492420  1
  Ca2+  Ca73  1  0.41862409  0.40541522  0.24538436  1
  Ca2+  Ca74  1  0.25448464  0.90436908  0.74290982  1
  Ca2+  Ca75  1  0.06841343  0.90487108  0.91655303  1
  Ca2+  Ca76  1  0.24199956  0.90769028  0.41996736  1
  Ca2+  Ca77  1  0.59658658  0.41544435  0.09460712  1
  Ca2+  Ca78  1  0.23910947  0.90345069  0.08931428  1
  Ca2+  Ca79  1  0.43837267  0.91439571  0.26259056  1
  Ca2+  Ca80  1  0.92637198  0.41105803  0.07491950  1
  Ca2+  Ca81  1  0.58904300  0.41179134  0.41674951  1
  Ca2+  Ca82  1  0.09687978  0.40481675  0.24030425  1
  Ca2+  Ca83  1  0.75459770  0.90745598  0.91799440  1
  Ca2+  Ca84  1  0.90429080  0.90231783  0.08919206  1
  Ca2+  Ca85  1  0.74208192  0.90760849  0.91753166  1
  Ca2+  Ca86  1  0.08344063  0.39126076  0.58211586  1
  Ca2+  Ca87  1  0.42012864  0.90412294  0.91498646  1
  Ca2+  Ca88  1  0.06947269  0.90770103  0.26706718  1
  Ca2+  Ca89  1  0.91430536  0.41091237  0.07476055  1
  Ca2+  Ca90  1  0.42980836  0.40325910  0.58343268  1
  Ca2+  Ca91  1  0.92223820  0.40027570  0.42483772  1
  Ca2+  Ca92  1  0.90388184  0.40339993  0.75230482  1
  Ca2+  Ca93  1  0.90944553  0.39989351  0.42495483  1
  Ca2+  Ca94  1  0.57771165  0.41152074  0.41550581  1
  Ca2+  Ca95  1  0.24185039  0.90414822  0.74226937  1
  Ca2+  Ca96  1  0.60000538  0.42039326  0.73318480  1
  Ca2+  Ca97  1  0.42779564  0.91078211  0.26717623  1
  Ca2+  Ca98  1  0.75372500  0.90801818  0.56868706  1
  Ca2+  Ca99  1  0.40877961  0.40563443  0.91264225  1
  Ca2+  Ca100  1  0.43189171  0.90357348  0.91454680  1
  Ca2+  Ca101  1  0.90797940  0.90478509  0.73638968  1
  Ca2+  Ca102  1  0.75278171  0.41400585  0.92057974  1
  Ca2+  Ca103  1  0.60174209  0.90623063  0.09378482  1
  Ca2+  Ca104  1  0.08161490  0.90503756  0.91688262  1
  Ca2+  Ca105  1  0.25187363  0.90351451  0.08904223  1
  Ca2+  Ca106  1  0.42624117  0.90261308  0.57307751  1
  Ca2+  Ca107  1  0.73615881  0.40967585  0.24556191  1
  Mn3.34+  Mn108  1  0.08606440  0.33817552  0.08144566  1
  Mn3.34+  Mn109  1  0.08804496  0.32975152  0.41603562  1
  Mn3.34+  Mn110  1  0.08501031  0.32788065  0.75245049  1
  Mn3.34+  Mn111  1  0.07621138  0.82919305  0.09034892  1
  Mn3.34+  Mn112  1  0.07752840  0.83761668  0.41869805  1
  Mn3.34+  Mn113  1  0.07991535  0.82494040  0.74646123  1
  Mn3.34+  Mn114  1  0.41285158  0.33816799  0.08528116  1
  Mn3.34+  Mn115  1  0.40928343  0.33364586  0.41987611  1
  Mn3.34+  Mn116  1  0.41448477  0.33257132  0.74703730  1
  Mn3.34+  Mn117  1  0.42079728  0.82759881  0.08725982  1
  Mn3.34+  Mn118  1  0.41946853  0.83386727  0.42001006  1
  Mn3.34+  Mn119  1  0.42482073  0.83085339  0.74547408  1
  Mn3.34+  Mn120  1  0.75176708  0.33815523  0.08375194  1
  Mn3.34+  Mn121  1  0.74958931  0.32834391  0.41792923  1
  Mn3.34+  Mn122  1  0.74839349  0.33984398  0.75274538  1
  Mn3.34+  Mn123  1  0.75172449  0.82804670  0.08870003  1
  Mn3.34+  Mn124  1  0.75045020  0.84295108  0.41165990  1
  Mn3.34+  Mn125  1  0.74593183  0.83349812  0.74716193  1
  Mn3.34+  Mn126  1  0.25057303  0.33563506  0.24854965  1
  Mn3.34+  Mn127  1  0.24903516  0.32589465  0.58450289  1
  Mn3.34+  Mn128  1  0.24091997  0.33363754  0.91466914  1
  Mn3.34+  Mn129  1  0.25006682  0.83238590  0.25211382  1
  Mn3.34+  Mn130  1  0.24632660  0.83270307  0.57871923  1
  Mn3.34+  Mn131  1  0.24827259  0.83056532  0.91532504  1
  Mn3.34+  Mn132  1  0.58318463  0.33481599  0.24777679  1
  Mn3.34+  Mn133  1  0.58753511  0.33609531  0.58182709  1
  Mn3.34+  Mn134  1  0.58647765  0.33083948  0.91327948  1
  Mn3.34+  Mn135  1  0.58898882  0.83529606  0.24879995  1
  Mn3.34+  Mn136  1  0.58713496  0.83353260  0.57777504  1
  Mn3.34+  Mn137  1  0.58563692  0.83281593  0.91726643  1
  Mn3.34+  Mn138  1  0.91735535  0.32897869  0.24811568  1
  Mn3.34+  Mn139  1  0.91629256  0.32850468  0.58686134  1
  Mn3.34+  Mn140  1  0.92185282  0.33178508  0.91136047  1
  Mn3.34+  Mn141  1  0.90854295  0.83952917  0.25220943  1
  Mn3.34+  Mn142  1  0.91822994  0.83500485  0.57843364  1
  Mn3.34+  Mn143  1  0.91650812  0.83048546  0.91425928  1
  Mn3.34+  Mn144  1  0.07439767  0.16282477  0.42321803  1
  Mn3.34+  Mn145  1  0.92529444  0.16041809  0.24993722  1
  Mn3.34+  Mn146  1  0.25130707  0.66838117  0.24442327  1
  Mn3.34+  Mn147  1  0.42475878  0.16648498  0.08167888  1
  Mn3.34+  Mn148  1  0.59181685  0.66745197  0.92119491  1
  Mn3.34+  Mn149  1  0.74755875  0.16946911  0.75530931  1
  Mn3.34+  Mn150  1  0.58550114  0.17011170  0.57940830  1
  Mn3.34+  Mn151  1  0.41679335  0.17552898  0.75157435  1
  Mn3.34+  Mn152  1  0.75135036  0.66322628  0.75445833  1
  Mn3.34+  Mn153  1  0.42431040  0.66234853  0.41438270  1
  Mn3.34+  Mn154  1  0.91592616  0.67300927  0.24555577  1
  Mn3.34+  Mn155  1  0.24843813  0.17433456  0.58416530  1
  Mn3.34+  Mn156  1  0.41132606  0.17247173  0.08130119  1
  Mn3.34+  Mn157  1  0.75161804  0.16682564  0.08116674  1
  Mn3.34+  Mn158  1  0.23733140  0.16205836  0.24941852  1
  Mn3.34+  Mn159  1  0.41899027  0.66613142  0.75258085  1
  Mn3.34+  Mn160  1  0.58666960  0.16972558  0.91186687  1
  Mn3.34+  Mn161  1  0.75765698  0.66313033  0.41916046  1
  Mn3.34+  Mn162  1  0.25000700  0.66817974  0.58233190  1
  Mn3.34+  Mn163  1  0.58491894  0.16681153  0.25028654  1
  Mn3.34+  Mn164  1  0.75450795  0.16061813  0.41320893  1
  Mn3.34+  Mn165  1  0.57121344  0.16381145  0.58024318  1
  Mn3.34+  Mn166  1  0.58584644  0.66333077  0.58644599  1
  Mn3.34+  Mn167  1  0.07988377  0.67251028  0.75246840  1
  Mn3.34+  Mn168  1  0.92623206  0.16714424  0.91732324  1
  Mn3.34+  Mn169  1  0.07992714  0.66512564  0.08861799  1
  Mn3.34+  Mn170  1  0.08082060  0.67017771  0.41551733  1
  Mn3.34+  Mn171  1  0.41452924  0.66764530  0.41311248  1
  Mn3.34+  Mn172  1  0.58349559  0.66082244  0.92116499  1
  Mn3.34+  Mn173  1  0.25081955  0.16852465  0.25033237  1
  Mn3.34+  Mn174  1  0.76172303  0.16161197  0.08181021  1
  Mn3.34+  Mn175  1  0.57683789  0.65738290  0.58443098  1
  Mn3.34+  Mn176  1  0.74488891  0.67026080  0.41728362  1
  Mn3.34+  Mn177  1  0.91330053  0.66646957  0.91808593  1
  Mn3.34+  Mn178  1  0.91612374  0.66701467  0.58481137  1
  Mn3.34+  Mn179  1  0.24378459  0.17066633  0.91650889  1
  Mn3.34+  Mn180  1  0.07711997  0.00355946  0.09197900  1
  Mn3.34+  Mn181  1  0.75689600  -0.00174639  0.08214144  1
  Mn3.34+  Mn182  1  0.41586272  0.00648555  0.74672171  1
  Mn3.34+  Mn183  1  0.58793388  0.49779245  0.92766877  1
  Mn3.34+  Mn184  1  0.91107755  0.49989370  0.24700449  1
  Mn3.34+  Mn185  1  0.25283026  0.49929695  0.25206050  1
  Mn3.34+  Mn186  1  0.24813367  0.49409289  0.58035418  1
  Mn3.34+  Mn187  1  0.07377316  0.00101360  0.75402502  1
  Mn3.34+  Mn188  1  0.24284459  0.00375993  0.91417751  1
  Mn3.34+  Mn189  1  0.41877036  0.50224017  0.08419289  1
  Mn3.34+  Mn190  1  0.92244060  -0.00217413  0.57935100  1
  Mn3.34+  Mn191  1  0.08934435  0.49249260  0.75471443  1
  Mn3.34+  Mn192  1  0.24609092  -0.00021647  0.58344802  1
  Mn3.34+  Mn193  1  0.58628979  -0.00205109  0.57943054  1
  Mn3.34+  Mn194  1  0.08496791  0.00534125  0.75660227  1
  Mn3.34+  Mn195  1  0.42421811  0.49981790  0.74063367  1
  Mn3.34+  Mn196  1  0.06485809  0.01073382  0.08750650  1
  Mn3.34+  Mn197  1  0.42992110  0.00027683  0.74869862  1
  Mn3.34+  Mn198  1  0.26109490  0.50052112  0.57969911  1
  Mn3.34+  Mn199  1  0.41303153  -0.00212266  0.08655878  1
  Mn3.34+  Mn200  1  0.59030582  0.00376337  0.91634025  1
  Mn3.34+  Mn201  1  0.90782471  0.49951291  0.59324783  1
  Mn3.34+  Mn202  1  0.23893440  0.49189833  0.92444590  1
  Mn3.34+  Mn203  1  0.74822597  0.00163487  0.74278575  1
  Mn3.34+  Mn204  1  0.07546965  0.00275621  0.41430236  1
  Mn3.34+  Mn205  1  0.42383234  0.00143942  0.08777295  1
  Mn3.34+  Mn206  1  0.92207221  0.50401698  0.24527193  1
  Mn3.34+  Mn207  1  0.41666953  0.49915146  0.40863870  1
  Mn3.34+  Mn208  1  0.90942429  0.00216789  0.27055698  1
  Mn3.34+  Mn209  1  0.08740468  0.49702570  0.41750590  1
  Mn3.34+  Mn210  1  0.23941779  0.00141025  0.25719351  1
  Mn3.34+  Mn211  1  0.41633671  0.00109710  0.41545136  1
  Mn3.34+  Mn212  1  0.91938272  0.49964887  0.92500061  1
  Mn3.34+  Mn213  1  0.07521781  0.49867486  0.75602639  1
  Mn3.34+  Mn214  1  0.74741937  0.50046028  0.41754907  1
  Mn3.34+  Mn215  1  0.91411910  0.00467919  0.91644344  1
  O2-  O216  1  -0.00109024  0.16987782  -0.00545494  1
  O2-  O217  1  0.00121088  0.16705132  0.33452669  1
  O2-  O218  1  -0.00749261  0.17609466  0.68045145  1
  O2-  O219  1  0.00391263  0.66020552  -0.00303729  1
  O2-  O220  1  0.00060986  0.66645315  0.33104911  1
  O2-  O221  1  -0.00080199  0.66592945  0.66840370  1
  O2-  O222  1  0.33595255  0.15521142  -0.00539965  1
  O2-  O223  1  0.33003072  0.16009065  0.33245136  1
  O2-  O224  1  0.33013856  0.17543896  0.67293004  1
  O2-  O225  1  0.32493803  0.65652710  -0.00275782  1
  O2-  O226  1  0.32450440  0.65562492  0.33474259  1
  O2-  O227  1  0.32873433  0.66026326  0.67414037  1
  O2-  O228  1  0.66339020  0.16709917  0.00336121  1
  O2-  O229  1  0.66476937  0.16447962  0.33630144  1
  O2-  O230  1  0.66427071  0.16032240  0.66577629  1
  O2-  O231  1  0.67283431  0.67450851  -0.00136176  1
  O2-  O232  1  0.67051276  0.65914835  0.33485731  1
  O2-  O233  1  0.66557993  0.66555525  0.67088119  1
  O2-  O234  1  0.17300842  0.17089119  -0.00210406  1
  O2-  O235  1  0.17140646  0.15952998  0.34455225  1
  O2-  O236  1  0.17285412  0.17868967  0.67014221  1
  O2-  O237  1  0.16264010  0.65599299  0.00493053  1
  O2-  O238  1  0.16532938  0.65579726  0.33247685  1
  O2-  O239  1  0.16522389  0.66012371  0.67108404  1
  O2-  O240  1  0.50277478  0.16751890  -0.00555136  1
  O2-  O241  1  0.50434965  0.16333439  0.33142722  1
  O2-  O242  1  0.50299180  0.17014972  0.67379377  1
  O2-  O243  1  0.49462409  0.66080035  -0.00613532  1
  O2-  O244  1  0.50411129  0.66447347  0.33673619  1
  O2-  O245  1  0.50136942  0.67094586  0.67187398  1
  O2-  O246  1  0.83285890  0.16442934  -0.00539173  1
  O2-  O247  1  0.82742241  0.17236733  0.33029495  1
  O2-  O248  1  0.82220227  0.16266857  0.66826885  1
  O2-  O249  1  0.83276968  0.67211725  -0.00707804  1
  O2-  O250  1  0.84008107  0.66396542  0.33532029  1
  O2-  O251  1  0.83142873  0.65926488  0.66676633  1
  O2-  O252  1  -0.00725585  0.34085147  0.00607528  1
  O2-  O253  1  -0.00482624  0.34462909  0.33622806  1
  O2-  O254  1  -0.00048549  0.33439516  0.66656125  1
  O2-  O255  1  -0.00030989  0.84532935  -0.00079222  1
  O2-  O256  1  0.00022407  0.82742687  0.32862793  1
  O2-  O257  1  -0.00485654  0.82573546  0.67067487  1
  O2-  O258  1  0.34010437  0.34135690  -0.00710647  1
  O2-  O259  1  0.33900765  0.32643357  0.33008045  1
  O2-  O260  1  0.33633835  0.31206470  0.66330812  1
  O2-  O261  1  0.33333538  0.84671583  -0.00088321  1
  O2-  O262  1  0.33556449  0.84789487  0.33190044  1
  O2-  O263  1  0.33338379  0.84184325  0.66734145  1
  O2-  O264  1  0.66540142  0.33330245  0.00093858  1
  O2-  O265  1  0.66483418  0.33479611  0.33472491  1
  O2-  O266  1  0.66699127  0.32830491  0.67212739  1
  O2-  O267  1  0.67255287  0.83735907  -0.00187707  1
  O2-  O268  1  0.66801000  0.83056926  0.33053747  1
  O2-  O269  1  0.66601201  0.82306730  0.66348099  1
  O2-  O270  1  0.16532884  0.33261361  -0.00136226  1
  O2-  O271  1  0.16334060  0.33600083  0.32893787  1
  O2-  O272  1  0.16173258  0.31367640  0.66363853  1
  O2-  O273  1  0.16393590  0.84903657  0.00016028  1
  O2-  O274  1  0.16708166  0.84027030  0.33296202  1
  O2-  O275  1  0.17271692  0.83132814  0.67466264  1
  O2-  O276  1  0.49986656  0.33566406  -0.00510190  1
  O2-  O277  1  0.50061370  0.33550160  0.33674424  1
  O2-  O278  1  0.49991889  0.33706343  0.66679600  1
  O2-  O279  1  0.49835293  0.84452927  0.00011409  1
  O2-  O280  1  0.49827533  0.83929405  0.32993438  1
  O2-  O281  1  0.50068809  0.82181733  0.65851208  1
  O2-  O282  1  0.83353274  0.34624106  -0.00093466  1
  O2-  O283  1  0.83198793  0.33774789  0.33324614  1
  O2-  O284  1  0.83468106  0.32885202  0.67307737  1
  O2-  O285  1  0.83008348  0.83609375  -0.00290352  1
  O2-  O286  1  0.83423843  0.82028610  0.33242219  1
  O2-  O287  1  0.83131668  0.83701694  0.66710872  1
  O2-  O288  1  -0.00318449  0.17514846  0.17355213  1
  O2-  O289  1  0.00070845  0.17194196  0.49778578  1
  O2-  O290  1  -0.00610445  0.17859882  0.83288296  1
  O2-  O291  1  0.00281394  0.68458417  0.17014319  1
  O2-  O292  1  0.00113924  0.67233824  0.50055384  1
  O2-  O293  1  0.00456104  0.67349732  0.83880329  1
  O2-  O294  1  0.33743989  0.16932567  0.17126448  1
  O2-  O295  1  0.32125949  0.18454004  0.49710737  1
  O2-  O296  1  0.33218058  0.17556635  0.83024522  1
  O2-  O297  1  0.32401220  0.67410325  0.16298450  1
  O2-  O298  1  0.33201607  0.67195599  0.49148818  1
  O2-  O299  1  0.33760044  0.66605397  0.83360318  1
  O2-  O300  1  0.66730648  0.17266390  0.16341376  1
  O2-  O301  1  0.66500256  0.17887075  0.49458125  1
  O2-  O302  1  0.66249613  0.18956472  0.82927495  1
  O2-  O303  1  0.66882191  0.68241431  0.16671645  1
  O2-  O304  1  0.66572330  0.68046386  0.50463601  1
  O2-  O305  1  0.66476255  0.67358358  0.83367444  1
  O2-  O306  1  0.17195188  0.17726451  0.16331034  1
  O2-  O307  1  0.16863395  0.17769866  0.49868815  1
  O2-  O308  1  0.17209343  0.17924267  0.83259665  1
  O2-  O309  1  0.16662212  0.67537864  0.16590021  1
  O2-  O310  1  0.16868211  0.67147419  0.49485261  1
  O2-  O311  1  0.16595622  0.67343527  0.82889684  1
  O2-  O312  1  0.50233397  0.17136614  0.16689351  1
  O2-  O313  1  0.50208945  0.17797480  0.49157401  1
  O2-  O314  1  0.49673786  0.18852145  0.83630978  1
  O2-  O315  1  0.50836704  0.66754987  0.17365764  1
  O2-  O316  1  0.49900205  0.68014234  0.50403303  1
  O2-  O317  1  0.49950620  0.66824104  0.83889366  1
  O2-  O318  1  0.83025246  0.17057311  0.17248678  1
  O2-  O319  1  0.82016300  0.17783014  0.49921780  1
  O2-  O320  1  0.83698638  0.18054156  0.82464692  1
  O2-  O321  1  0.82892458  0.68592608  0.17743924  1
  O2-  O322  1  0.83457643  0.67269697  0.50012981  1
  O2-  O323  1  0.83661308  0.67122752  0.83181761  1
  O2-  O324  1  -0.00163133  0.32801348  0.16799449  1
  O2-  O325  1  -0.00381347  0.33010086  0.49850082  1
  O2-  O326  1  -0.00433611  0.31879225  0.82603334  1
  O2-  O327  1  -0.00323636  0.82373749  0.17201304  1
  O2-  O328  1  0.00075434  0.82342895  0.50147202  1
  O2-  O329  1  0.00611853  0.82854359  0.83631652  1
  O2-  O330  1  0.33915074  0.32714301  0.17267685  1
  O2-  O331  1  0.33247013  0.31211505  0.50217918  1
  O2-  O332  1  0.33873823  0.32352117  0.83373714  1
  O2-  O333  1  0.33159890  0.83297907  0.16456850  1
  O2-  O334  1  0.33293365  0.82810329  0.50143449  1
  O2-  O335  1  0.33210953  0.83681643  0.83188517  1
  O2-  O336  1  0.66804610  0.32968782  0.16729271  1
  O2-  O337  1  0.66204014  0.32089843  0.49180818  1
  O2-  O338  1  0.66934115  0.31510705  0.83365595  1
  O2-  O339  1  0.66132172  0.82114789  0.15910116  1
  O2-  O340  1  0.66957297  0.81981623  0.50249492  1
  O2-  O341  1  0.67295878  0.82979306  0.83985862  1
  O2-  O342  1  0.16394262  0.32932241  0.16964766  1
  O2-  O343  1  0.16231983  0.32081979  0.50493143  1
  O2-  O344  1  0.16270053  0.31295728  0.83494787  1
  O2-  O345  1  0.17111893  0.83042270  0.16247335  1
  O2-  O346  1  0.16863997  0.82628667  0.49670787  1
  O2-  O347  1  0.16422380  0.82770240  0.83178217  1
  O2-  O348  1  0.50086004  0.32799059  0.16754504  1
  O2-  O349  1  0.49786617  0.32115174  0.49523313  1
  O2-  O350  1  0.49752530  0.31612375  0.83498904  1
  O2-  O351  1  0.49700062  0.82907363  0.16938002  1
  O2-  O352  1  0.49830250  0.81710089  0.50354027  1
  O2-  O353  1  0.49457516  0.83125392  0.83993833  1
  O2-  O354  1  0.83517022  0.33214378  0.16537315  1
  O2-  O355  1  0.83803478  0.32388759  0.49465116  1
  O2-  O356  1  0.83161926  0.32454525  0.83217222  1
  O2-  O357  1  0.83753187  0.81204930  0.16246785  1
  O2-  O358  1  0.83139462  0.82722704  0.50332425  1
  O2-  O359  1  0.83231763  0.83187350  0.83484870  1
  O2-  O360  1  0.09094094  0.08681592  0.10146622  1
  O2-  O361  1  0.10532021  0.08082076  0.44127217  1
  O2-  O362  1  0.08717098  0.08767850  0.76452516  1
  O2-  O363  1  0.09503589  0.58402836  0.10589215  1
  O2-  O364  1  0.08997733  0.58078678  0.44191390  1
  O2-  O365  1  0.08905777  0.57962400  0.77990042  1
  O2-  O366  1  0.42061522  0.08300839  0.10113777  1
  O2-  O367  1  0.41257580  0.08020405  0.43030215  1
  O2-  O368  1  0.42264686  0.08619766  0.77235347  1
  O2-  O369  1  0.39539041  0.57992515  0.08860896  1
  O2-  O370  1  0.41347973  0.57985106  0.43995975  1
  O2-  O371  1  0.41347428  0.57896051  0.77991311  1
  O2-  O372  1  0.73890003  0.07914958  0.11062915  1
  O2-  O373  1  0.73118168  0.07978443  0.44728716  1
  O2-  O374  1  0.74495465  0.08114474  0.76883588  1
  O2-  O375  1  0.75243621  0.56995141  0.09259792  1
  O2-  O376  1  0.74845673  0.58107751  0.44800920  1
  O2-  O377  1  0.74720705  0.58316992  0.76692822  1
  O2-  O378  1  0.25673669  0.08062033  0.22120802  1
  O2-  O379  1  0.25114072  0.08185060  0.56703784  1
  O2-  O380  1  0.25757075  0.08549502  0.88720230  1
  O2-  O381  1  0.24198759  0.58132060  0.22325460  1
  O2-  O382  1  0.24487425  0.58146886  0.55182399  1
  O2-  O383  1  0.25041095  0.57075709  0.88359135  1
  O2-  O384  1  0.58242536  0.08423536  0.23594505  1
  O2-  O385  1  0.58522676  0.08128474  0.54956617  1
  O2-  O386  1  0.56962654  0.08341254  0.88767358  1
  O2-  O387  1  0.60023467  0.57518086  0.23947068  1
  O2-  O388  1  0.59960632  0.57736735  0.55694498  1
  O2-  O389  1  0.58384722  0.57673064  0.88897805  1
  O2-  O390  1  0.90581604  0.07526729  0.22980320  1
  O2-  O391  1  0.90755019  0.07761532  0.56975118  1
  O2-  O392  1  0.91807548  0.08393701  0.88214631  1
  O2-  O393  1  0.92108123  0.58586519  0.23244500  1
  O2-  O394  1  0.91885413  0.57947467  0.55953499  1
  O2-  O395  1  0.92106711  0.57935044  0.89203201  1
  O2-  O396  1  0.05548636  0.42285073  0.11080440  1
  O2-  O397  1  0.06641445  0.41678154  0.43973898  1
  O2-  O398  1  0.07670839  0.41252324  0.75547973  1
  O2-  O399  1  0.08529848  0.92028185  0.11042236  1
  O2-  O400  1  0.08923058  0.91988825  0.42496341  1
  O2-  O401  1  0.09319604  0.91832414  0.77447324  1
  O2-  O402  1  0.43407237  0.42083379  0.10260720  1
  O2-  O403  1  0.42989817  0.42069929  0.44325085  1
  O2-  O404  1  0.42492526  0.42103094  0.77781107  1
  O2-  O405  1  0.40934327  0.91538823  0.10120222  1
  O2-  O406  1  0.41220812  0.91866624  0.43527763  1
  O2-  O407  1  0.40889638  0.91957285  0.77240203  1
  O2-  O408  1  0.75218638  0.41935373  0.10373972  1
  O2-  O409  1  0.75004058  0.41885721  0.43009615  1
  O2-  O410  1  0.74583339  0.41851759  0.77621653  1
  O2-  O411  1  0.75347816  0.91661557  0.09802994  1
  O2-  O412  1  0.74790063  0.91857966  0.43558304  1
  O2-  O413  1  0.75584532  0.92154916  0.77851980  1
  O2-  O414  1  0.25590149  0.41825754  0.23697721  1
  O2-  O415  1  0.25518519  0.41295462  0.57391281  1
  O2-  O416  1  0.26664847  0.41635608  0.89669021  1
  O2-  O417  1  0.24906595  0.92039988  0.22297952  1
  O2-  O418  1  0.25552977  0.91728803  0.57201487  1
  O2-  O419  1  0.24033766  0.91899753  0.88870541  1
  O2-  O420  1  0.58390490  0.41683231  0.23850973  1
  O2-  O421  1  0.57334933  0.41720403  0.55464652  1
  O2-  O422  1  0.57194229  0.42039419  0.88864093  1
  O2-  O423  1  0.56486008  0.92132272  0.22187753  1
  O2-  O424  1  0.57811939  0.91779930  0.56753355  1
  O2-  O425  1  0.58200423  0.91857457  0.90274675  1
  O2-  O426  1  0.91367786  0.41693721  0.23144458  1
  O2-  O427  1  0.92031138  0.41968091  0.56060291  1
  O2-  O428  1  0.91196118  0.41971904  0.89459614  1
  O2-  O429  1  0.92383323  0.92999084  0.21998119  1
  O2-  O430  1  0.90683063  0.91653398  0.57949579  1
  O2-  O431  1  0.92590039  0.91993571  0.88819071  1
  O2-  O432  1  0.00513616  -0.01311325  -0.00895407  1
  O2-  O433  1  0.00715087  -0.00245871  0.31948716  1
  O2-  O434  1  -0.00349639  0.00311003  0.67049969  1
  O2-  O435  1  0.00467057  0.50505834  -0.01089235  1
  O2-  O436  1  -0.00104334  0.50495944  0.33632902  1
  O2-  O437  1  0.00192484  0.50517768  0.66463942  1
  O2-  O438  1  0.33239205  -0.00761053  -0.00080934  1
  O2-  O439  1  0.34177664  -0.00319541  0.32248513  1
  O2-  O440  1  0.32794380  -0.00563950  0.67183396  1
  O2-  O441  1  0.33791823  0.50321644  -0.01240643  1
  O2-  O442  1  0.32311028  0.51058109  0.34628227  1
  O2-  O443  1  0.32756246  0.50923163  0.67647083  1
  O2-  O444  1  0.66205796  -0.00564507  0.01021672  1
  O2-  O445  1  0.66131262  0.02417454  0.33796529  1
  O2-  O446  1  0.67489195  0.01215838  0.65161444  1
  O2-  O447  1  0.67716015  0.49279439  -0.01625763  1
  O2-  O448  1  0.66700622  0.49718201  0.34551259  1
  O2-  O449  1  0.66395342  0.50609956  0.67704343  1
  O2-  O450  1  0.17153813  -0.00820607  0.01387925  1
  O2-  O451  1  0.17894887  -0.00072915  0.35544186  1
  O2-  O452  1  0.17304649  -0.00269877  0.67713168  1
  O2-  O453  1  0.16746791  0.52302696  -0.00351285  1
  O2-  O454  1  0.16521253  0.51299324  0.33178368  1
  O2-  O455  1  0.16450598  0.51171119  0.66428408  1
  O2-  O456  1  0.49448372  -0.00211410  -0.00730440  1
  O2-  O457  1  0.49663888  0.00522559  0.33570182  1
  O2-  O458  1  0.50248408  0.00417933  0.66070629  1
  O2-  O459  1  0.48692752  0.50172880  -0.01777697  1
  O2-  O460  1  0.51608116  0.49368269  0.36060592  1
  O2-  O461  1  0.51682382  0.49761679  0.68554351  1
  O2-  O462  1  0.82785755  -0.01659860  -0.01057837  1
  O2-  O463  1  0.82280138  0.00337995  0.32466605  1
  O2-  O464  1  0.83385772  0.00189623  0.66455423  1
  O2-  O465  1  0.83672310  0.49330307  -0.00812353  1
  O2-  O466  1  0.83699031  0.49796807  0.33883351  1
  O2-  O467  1  0.83596745  0.50710242  0.67184835  1
  O2-  O468  1  0.25488784  0.75047124  0.59359217  1
  O2-  O469  1  0.91207690  0.75009708  0.58968377  1
  O2-  O470  1  0.41789381  0.25462826  0.07547657  1
  O2-  O471  1  0.40656531  0.74854806  0.74948287  1
  O2-  O472  1  0.08953399  0.74925492  0.06498198  1
  O2-  O473  1  0.58259962  0.25051490  0.25334220  1
  O2-  O474  1  0.41602374  0.74990512  0.07523227  1
  O2-  O475  1  0.58062377  0.25154499  0.59383510  1
  O2-  O476  1  0.08936309  0.75153654  0.41012437  1
  O2-  O477  1  0.26147379  0.25173096  0.93155786  1
  O2-  O478  1  0.91614479  0.25069749  0.58808961  1
  O2-  O479  1  0.24623083  0.74993353  0.26575386  1
  O2-  O480  1  0.75229688  0.25130767  0.07991234  1
  O2-  O481  1  0.91439228  0.24937766  0.25763264  1
  O2-  O482  1  0.25195885  0.75224312  0.92666766  1
  O2-  O483  1  0.08252581  0.25674134  0.07954325  1
  O2-  O484  1  0.75178339  0.75136205  0.41202468  1
  O2-  O485  1  0.75480781  0.74935080  0.74994194  1
  O2-  O486  1  0.08103041  0.24911416  0.40417023  1
  O2-  O487  1  0.57694081  0.75466429  0.25563218  1
  O2-  O488  1  0.40945888  0.75080946  0.40250681  1
  O2-  O489  1  0.91061315  0.25185355  0.93271057  1
  O2-  O490  1  0.57710399  0.75147175  0.91555996  1
  O2-  O491  1  0.25034243  0.25106987  0.25684948  1
  O2-  O492  1  0.92239902  0.74985681  0.92331387  1
