# generated using pymatgen
data_Ca108Mn108O277
_symmetry_space_group_name_H-M   'P 1'
_cell_length_a   16.02860539
_cell_length_b   22.30682640
_cell_length_c   16.39008029
_cell_angle_alpha   90.00203958
_cell_angle_beta   90.00186860
_cell_angle_gamma   89.99971216
_symmetry_Int_Tables_number   1
_chemical_formula_structural   Ca108Mn108O277
_chemical_formula_sum   'Ca108 Mn108 O277'
_cell_volume   5860.22924062
_cell_formula_units_Z   1
loop_
 _symmetry_equiv_pos_site_id
 _symmetry_equiv_pos_as_xyz
  1  'x, y, z'
loop_
 _atom_type_symbol
 _atom_type_oxidation_number
  Ca2+  2.0
  Mn3.34+  3.34
  O2-  -2.0
loop_
 _atom_site_type_symbol
 _atom_site_label
 _atom_site_symmetry_multiplicity
 _atom_site_fract_x
 _atom_site_fract_y
 _atom_site_fract_z
 _atom_site_occupancy
  Ca2+  Ca0  1  0.09398564  0.24253456  0.25451162  1
  Ca2+  Ca1  1  0.06608727  0.25114162  0.57438995  1
  Ca2+  Ca2  1  0.09582582  0.25308218  0.91758126  1
  Ca2+  Ca3  1  0.05918659  0.73618403  0.25773290  1
  Ca2+  Ca4  1  0.07412575  0.74805287  0.56700563  1
  Ca2+  Ca5  1  0.10613975  0.75556208  0.91476400  1
  Ca2+  Ca6  1  0.41486183  0.23450443  0.25874046  1
  Ca2+  Ca7  1  0.43253678  0.25237339  0.58243818  1
  Ca2+  Ca8  1  0.41843087  0.25980906  0.91110552  1
  Ca2+  Ca9  1  0.41836347  0.73952450  0.25489713  1
  Ca2+  Ca10  1  0.40673720  0.74525705  0.57558416  1
  Ca2+  Ca11  1  0.39247205  0.73731225  0.91658749  1
  Ca2+  Ca12  1  0.74424597  0.24720500  0.24218563  1
  Ca2+  Ca13  1  0.74437826  0.25927784  0.58741323  1
  Ca2+  Ca14  1  0.73664618  0.25438531  0.91417174  1
  Ca2+  Ca15  1  0.76647957  0.74930298  0.24502221  1
  Ca2+  Ca16  1  0.76902569  0.74347478  0.59846375  1
  Ca2+  Ca17  1  0.74807259  0.75662162  0.91273358  1
  Ca2+  Ca18  1  0.26088583  0.25790545  0.08867745  1
  Ca2+  Ca19  1  0.26844058  0.24572125  0.40280542  1
  Ca2+  Ca20  1  0.27688492  0.24805334  0.76282087  1
  Ca2+  Ca21  1  0.26010766  0.74545102  0.07272080  1
  Ca2+  Ca22  1  0.25866859  0.74756624  0.41101190  1
  Ca2+  Ca23  1  0.25528607  0.75218407  0.76039306  1
  Ca2+  Ca24  1  0.57910421  0.25105990  0.08764872  1
  Ca2+  Ca25  1  0.56222018  0.23190861  0.41294329  1
  Ca2+  Ca26  1  0.56550350  0.22948484  0.74837480  1
  Ca2+  Ca27  1  0.56754233  0.75689787  0.09513425  1
  Ca2+  Ca28  1  0.55731903  0.75030575  0.40625305  1
  Ca2+  Ca29  1  0.58177718  0.75128919  0.75362006  1
  Ca2+  Ca30  1  0.91186643  0.25457017  0.08974483  1
  Ca2+  Ca31  1  0.92573348  0.25569973  0.41817765  1
  Ca2+  Ca32  1  0.90626978  0.25661381  0.74704866  1
  Ca2+  Ca33  1  0.91006043  0.76307942  0.09656538  1
  Ca2+  Ca34  1  0.92537377  0.75856595  0.41086438  1
  Ca2+  Ca35  1  0.91736185  0.76042150  0.74527130  1
  Ca2+  Ca36  1  0.40864133  0.60480893  0.57985151  1
  Ca2+  Ca37  1  0.94092314  0.60547888  0.10564002  1
  Ca2+  Ca38  1  0.59736654  0.10795121  0.08975523  1
  Ca2+  Ca39  1  0.26601234  0.58281616  0.06189176  1
  Ca2+  Ca40  1  0.75699410  0.10568793  0.92908602  1
  Ca2+  Ca41  1  0.54846907  0.58988611  0.41184551  1
  Ca2+  Ca42  1  0.27231654  0.09390370  0.75148846  1
  Ca2+  Ca43  1  0.43351915  0.10188411  0.58043332  1
  Ca2+  Ca44  1  0.08782265  0.07714406  0.58608051  1
  Ca2+  Ca45  1  0.41052287  0.10486465  0.90857845  1
  Ca2+  Ca46  1  0.92124367  0.59002364  0.41633527  1
  Ca2+  Ca47  1  0.29521660  0.60666536  0.76935660  1
  Ca2+  Ca48  1  0.76599888  0.10346916  0.92483097  1
  Ca2+  Ca49  1  0.30804075  0.60722305  0.76984817  1
  Ca2+  Ca50  1  0.91801777  0.10134614  0.07570591  1
  Ca2+  Ca51  1  0.75138116  0.55974875  0.58991716  1
  Ca2+  Ca52  1  0.87164946  0.57950302  0.72704873  1
  Ca2+  Ca53  1  0.74598826  0.10977762  0.23135167  1
  Ca2+  Ca54  1  0.92104842  0.09893423  0.41767136  1
  Ca2+  Ca55  1  0.12792941  0.58381309  0.92400480  1
  Ca2+  Ca56  1  0.06785561  0.08058634  0.92843072  1
  Ca2+  Ca57  1  0.93143549  0.09814327  0.41875645  1
  Ca2+  Ca58  1  0.11660749  0.58718816  0.92604055  1
  Ca2+  Ca59  1  0.73680916  0.58134085  0.90573384  1
  Ca2+  Ca60  1  0.27829086  0.60382343  0.41328655  1
  Ca2+  Ca61  1  0.73721031  0.10331027  0.57774222  1
  Ca2+  Ca62  1  0.92993024  0.59310206  0.42045523  1
  Ca2+  Ca63  1  0.88327609  0.58229729  0.72437385  1
  Ca2+  Ca64  1  0.40700841  0.59399428  0.25525635  1
  Ca2+  Ca65  1  0.56230342  0.58172232  0.08569814  1
  Ca2+  Ca66  1  0.41954855  0.10809747  0.90546135  1
  Ca2+  Ca67  1  0.60476882  0.58783292  0.74367270  1
  Ca2+  Ca68  1  0.25356290  0.09806718  0.08519882  1
  Ca2+  Ca69  1  0.92831902  0.60617569  0.10333313  1
  Ca2+  Ca70  1  0.90652473  0.10198394  0.07600620  1
  Ca2+  Ca71  1  0.74751965  0.57550412  0.27032373  1
  Ca2+  Ca72  1  0.42285201  0.90335129  0.58948883  1
  Ca2+  Ca73  1  0.24498575  0.91427473  0.07438869  1
  Ca2+  Ca74  1  0.75054093  0.39911926  0.91465337  1
  Ca2+  Ca75  1  0.73401622  0.89649675  0.58089934  1
  Ca2+  Ca76  1  0.07601150  0.91575821  0.92118927  1
  Ca2+  Ca77  1  0.23827660  0.91438963  0.41385975  1
  Ca2+  Ca78  1  0.60776911  0.41231751  0.74474052  1
  Ca2+  Ca79  1  0.24398006  0.40800910  0.75107391  1
  Ca2+  Ca80  1  0.40693108  0.40242941  0.24978845  1
  Ca2+  Ca81  1  0.24832192  0.91575538  0.75151681  1
  Ca2+  Ca82  1  0.23557351  0.91476282  0.75055599  1
  Ca2+  Ca83  1  0.58071420  0.91176756  0.41441145  1
  Ca2+  Ca84  1  0.07924410  0.39914825  0.58448981  1
  Ca2+  Ca85  1  0.58291857  0.40340905  0.41793312  1
  Ca2+  Ca86  1  0.40129165  0.90764013  0.24796748  1
  Ca2+  Ca87  1  0.75027432  0.91022058  0.25051321  1
  Ca2+  Ca88  1  0.09444207  0.90481122  0.26047520  1
  Ca2+  Ca89  1  0.94401883  0.92346505  0.75670782  1
  Ca2+  Ca90  1  0.74450051  0.40053887  0.25274460  1
  Ca2+  Ca91  1  0.73880276  0.91041744  0.25016357  1
  Ca2+  Ca92  1  0.25483199  0.40809945  0.75119122  1
  Ca2+  Ca93  1  0.09269367  0.39411089  0.23960430  1
  Ca2+  Ca94  1  0.57939874  0.90946379  0.07742575  1
  Ca2+  Ca95  1  0.88312167  0.42602529  0.70666247  1
  Ca2+  Ca96  1  0.58204764  0.40562607  0.08397565  1
  Ca2+  Ca97  1  0.59745671  0.41142689  0.74671803  1
  Ca2+  Ca98  1  0.90084276  0.40737256  0.42940637  1
  Ca2+  Ca99  1  0.08770989  0.90983237  0.58407567  1
  Ca2+  Ca100  1  0.39414183  0.41678672  0.92694718  1
  Ca2+  Ca101  1  0.76713468  0.91251859  0.91962225  1
  Ca2+  Ca102  1  0.41282913  0.90717666  0.24859580  1
  Ca2+  Ca103  1  0.10374518  0.41020586  0.92680886  1
  Ca2+  Ca104  1  0.92086653  0.91892283  0.06356673  1
  Ca2+  Ca105  1  0.74679086  0.89554797  0.58074859  1
  Ca2+  Ca106  1  0.41046625  0.90228289  0.58786211  1
  Ca2+  Ca107  1  0.59365222  0.40415974  0.41906195  1
  Mn3.34+  Mn108  1  0.08168586  0.33188848  0.08504264  1
  Mn3.34+  Mn109  1  0.08802484  0.33074706  0.41613965  1
  Mn3.34+  Mn110  1  0.07834166  0.33111839  0.75231117  1
  Mn3.34+  Mn111  1  0.08474337  0.83641193  0.08758594  1
  Mn3.34+  Mn112  1  0.08309219  0.83786799  0.41933791  1
  Mn3.34+  Mn113  1  0.08116550  0.83644732  0.75221082  1
  Mn3.34+  Mn114  1  0.41447606  0.33482114  0.08353329  1
  Mn3.34+  Mn115  1  0.41196148  0.33240414  0.41975430  1
  Mn3.34+  Mn116  1  0.42086576  0.33513507  0.74686284  1
  Mn3.34+  Mn117  1  0.41428628  0.83368070  0.07852269  1
  Mn3.34+  Mn118  1  0.41224361  0.83423188  0.41719018  1
  Mn3.34+  Mn119  1  0.42112214  0.82962710  0.76085642  1
  Mn3.34+  Mn120  1  0.75319797  0.33370274  0.08531358  1
  Mn3.34+  Mn121  1  0.75078153  0.33557241  0.42011108  1
  Mn3.34+  Mn122  1  0.75227966  0.33242200  0.75148202  1
  Mn3.34+  Mn123  1  0.74745348  0.83585944  0.07944962  1
  Mn3.34+  Mn124  1  0.74970975  0.83233484  0.41616666  1
  Mn3.34+  Mn125  1  0.74704347  0.83239383  0.75709116  1
  Mn3.34+  Mn126  1  0.25199684  0.33214220  0.24982047  1
  Mn3.34+  Mn127  1  0.25179730  0.33601860  0.57563537  1
  Mn3.34+  Mn128  1  0.25002953  0.33401876  0.91921530  1
  Mn3.34+  Mn129  1  0.24549606  0.83169015  0.24532064  1
  Mn3.34+  Mn130  1  0.24647345  0.82836012  0.58104030  1
  Mn3.34+  Mn131  1  0.25191598  0.83466167  0.91860156  1
  Mn3.34+  Mn132  1  0.58023943  0.33076001  0.24586634  1
  Mn3.34+  Mn133  1  0.58500190  0.33346641  0.58263514  1
  Mn3.34+  Mn134  1  0.58024683  0.33539104  0.91667180  1
  Mn3.34+  Mn135  1  0.58104413  0.83373375  0.24855818  1
  Mn3.34+  Mn136  1  0.58150147  0.82430765  0.58346481  1
  Mn3.34+  Mn137  1  0.57931614  0.83181063  0.91541091  1
  Mn3.34+  Mn138  1  0.91838340  0.32959652  0.25010143  1
  Mn3.34+  Mn139  1  0.91403147  0.33642727  0.58224259  1
  Mn3.34+  Mn140  1  0.91875224  0.32553458  0.91911277  1
  Mn3.34+  Mn141  1  0.92013004  0.83494294  0.25140559  1
  Mn3.34+  Mn142  1  0.91894024  0.83216841  0.58199662  1
  Mn3.34+  Mn143  1  0.91893084  0.83668202  0.91628186  1
  Mn3.34+  Mn144  1  0.91192072  0.17069180  0.58406052  1
  Mn3.34+  Mn145  1  0.09230886  0.67019864  0.08772956  1
  Mn3.34+  Mn146  1  0.73967354  0.66218928  0.42049237  1
  Mn3.34+  Mn147  1  0.58114929  0.66845147  0.91613066  1
  Mn3.34+  Mn148  1  0.75169071  0.66739759  0.41646690  1
  Mn3.34+  Mn149  1  0.57782130  0.66445594  0.24992828  1
  Mn3.34+  Mn150  1  0.24185136  0.66138832  0.24188808  1
  Mn3.34+  Mn151  1  0.58074819  0.16760653  0.25096067  1
  Mn3.34+  Mn152  1  0.41090124  0.66562074  0.08455913  1
  Mn3.34+  Mn153  1  0.90762310  0.66732798  0.91114487  1
  Mn3.34+  Mn154  1  0.08949449  0.16318371  0.41305161  1
  Mn3.34+  Mn155  1  0.08923206  0.66599221  0.74217627  1
  Mn3.34+  Mn156  1  0.58251862  0.17038120  0.91613896  1
  Mn3.34+  Mn157  1  0.91746711  0.17543095  0.91553439  1
  Mn3.34+  Mn158  1  0.91833306  0.67223147  0.91362020  1
  Mn3.34+  Mn159  1  0.24722874  0.17540512  0.57909409  1
  Mn3.34+  Mn160  1  0.24684110  0.16838427  0.91809582  1
  Mn3.34+  Mn161  1  0.91590845  0.66487547  0.57911189  1
  Mn3.34+  Mn162  1  0.73737698  0.65925584  0.08725405  1
  Mn3.34+  Mn163  1  0.57077533  0.66382662  0.91384827  1
  Mn3.34+  Mn164  1  0.07255861  0.15858735  0.75246154  1
  Mn3.34+  Mn165  1  0.25264183  0.16247177  0.25185106  1
  Mn3.34+  Mn166  1  0.08617036  0.66894776  0.41519283  1
  Mn3.34+  Mn167  1  0.58191037  0.67177968  0.59000514  1
  Mn3.34+  Mn168  1  0.24661555  0.66439627  0.57371944  1
  Mn3.34+  Mn169  1  0.74785925  0.66467903  0.08438811  1
  Mn3.34+  Mn170  1  0.08694393  0.16924446  0.08638115  1
  Mn3.34+  Mn171  1  0.58877923  0.67221995  0.57974579  1
  Mn3.34+  Mn172  1  0.92007963  0.16998267  0.24628497  1
  Mn3.34+  Mn173  1  0.07969599  0.66005486  0.74403182  1
  Mn3.34+  Mn174  1  0.74696884  0.16534048  0.41682877  1
  Mn3.34+  Mn175  1  0.08301538  0.16344005  0.75077842  1
  Mn3.34+  Mn176  1  0.25406062  0.16518087  0.57599673  1
  Mn3.34+  Mn177  1  0.41793652  0.16797518  0.08899249  1
  Mn3.34+  Mn178  1  0.58298923  0.16910807  0.58356797  1
  Mn3.34+  Mn179  1  0.74881395  0.16936697  0.74822841  1
  Mn3.34+  Mn180  1  0.25239236  0.00086647  0.58539109  1
  Mn3.34+  Mn181  1  0.58494403  -0.00570339  0.90576339  1
  Mn3.34+  Mn182  1  0.57311164  0.50047136  0.92583683  1
  Mn3.34+  Mn183  1  0.08025310  0.49931528  0.74232444  1
  Mn3.34+  Mn184  1  0.91107734  0.50110047  0.91124784  1
  Mn3.34+  Mn185  1  0.58449026  0.00376402  0.57851064  1
  Mn3.34+  Mn186  1  0.94211195  0.00155813  0.25835916  1
  Mn3.34+  Mn187  1  0.42310809  0.49961669  0.74810010  1
  Mn3.34+  Mn188  1  0.25191114  0.50102057  0.59060354  1
  Mn3.34+  Mn189  1  0.07989162  0.00234716  0.08487810  1
  Mn3.34+  Mn190  1  0.58550256  0.49839423  0.25777649  1
  Mn3.34+  Mn191  1  0.24183112  0.00548890  0.26313821  1
  Mn3.34+  Mn192  1  0.92201714  0.49637813  0.91286511  1
  Mn3.34+  Mn193  1  0.74920226  0.49824879  0.08052756  1
  Mn3.34+  Mn194  1  0.90912098  -0.00223622  0.57887212  1
  Mn3.34+  Mn195  1  0.92144572  0.00099077  0.57845306  1
  Mn3.34+  Mn196  1  0.41499638  0.00360523  0.40343181  1
  Mn3.34+  Mn197  1  0.73689041  0.00127069  0.74538726  1
  Mn3.34+  Mn198  1  0.74257625  0.00384784  0.40771386  1
  Mn3.34+  Mn199  1  0.41737027  0.00403124  0.07979073  1
  Mn3.34+  Mn200  1  0.57606654  0.00572474  0.25249857  1
  Mn3.34+  Mn201  1  0.92958238  -0.00226198  0.25699936  1
  Mn3.34+  Mn202  1  0.08987983  0.50022697  0.08891662  1
  Mn3.34+  Mn203  1  0.91341575  0.48861060  0.26005801  1
  Mn3.34+  Mn204  1  0.40802196  0.49795888  0.07859055  1
  Mn3.34+  Mn205  1  0.25102194  0.00171711  0.92394989  1
  Mn3.34+  Mn206  1  0.42759446  -0.00234808  0.73688426  1
  Mn3.34+  Mn207  1  0.57246217  -0.00037048  0.90649084  1
  Mn3.34+  Mn208  1  0.11154665  0.49694567  0.42163362  1
  Mn3.34+  Mn209  1  0.75120306  0.00254791  0.07689359  1
  Mn3.34+  Mn210  1  0.40610028  0.49341543  0.41327595  1
  Mn3.34+  Mn211  1  0.92689507  0.49430423  0.25751542  1
  Mn3.34+  Mn212  1  0.09897424  0.50074912  0.42283852  1
  Mn3.34+  Mn213  1  0.75021025  0.00755102  0.74696256  1
  Mn3.34+  Mn214  1  0.58273464  0.49810459  0.58953154  1
  Mn3.34+  Mn215  1  0.25107987  0.49859146  0.24349863  1
  O2-  O216  1  -0.00195645  0.17276285  0.00307272  1
  O2-  O217  1  0.00113571  0.15267248  0.33063550  1
  O2-  O218  1  0.00428916  0.14608660  0.65928772  1
  O2-  O219  1  0.00363090  0.64879225  -0.00574111  1
  O2-  O220  1  0.00090936  0.65470675  0.34193797  1
  O2-  O221  1  -0.00555658  0.64451480  0.66947085  1
  O2-  O222  1  0.33313567  0.15453017  0.00050485  1
  O2-  O223  1  0.33103802  0.16128342  0.32479892  1
  O2-  O224  1  0.32979595  0.16353722  0.66195337  1
  O2-  O225  1  0.33386463  0.66007513  0.00807139  1
  O2-  O226  1  0.32595978  0.66641383  0.31919377  1
  O2-  O227  1  0.32581351  0.67227602  0.65803782  1
  O2-  O228  1  0.66974588  0.15749315  -0.00788716  1
  O2-  O229  1  0.67292550  0.17288092  0.32898249  1
  O2-  O230  1  0.66735231  0.15676295  0.67198600  1
  O2-  O231  1  0.66128684  0.64131753  -0.00040003  1
  O2-  O232  1  0.65789499  0.64412409  0.33882752  1
  O2-  O233  1  0.66303166  0.67674720  0.67212841  1
  O2-  O234  1  0.15885490  0.15411710  -0.00610754  1
  O2-  O235  1  0.16795135  0.16407579  0.33208168  1
  O2-  O236  1  0.16988431  0.15835033  0.66406095  1
  O2-  O237  1  0.16809251  0.65991274  0.00367822  1
  O2-  O238  1  0.17101797  0.66810784  0.33658973  1
  O2-  O239  1  0.16522003  0.66323405  0.65826331  1
  O2-  O240  1  0.50270689  0.15021252  0.00170805  1
  O2-  O241  1  0.50318427  0.15758122  0.32551922  1
  O2-  O242  1  0.50564024  0.16132280  0.66208668  1
  O2-  O243  1  0.50009927  0.64977871  0.00132731  1
  O2-  O244  1  0.49609295  0.65582134  0.32457772  1
  O2-  O245  1  0.49857921  0.67976728  0.66153753  1
  O2-  O246  1  0.83667525  0.17689289  -0.00047925  1
  O2-  O247  1  0.83583688  0.15105136  0.33087349  1
  O2-  O248  1  0.82809641  0.15486903  0.66317739  1
  O2-  O249  1  0.83361576  0.63587937  0.00322490  1
  O2-  O250  1  0.83083293  0.64382819  0.33710177  1
  O2-  O251  1  0.83061936  0.65980132  0.65524792  1
  O2-  O252  1  0.00117513  0.30789018  0.00139649  1
  O2-  O253  1  -0.00401916  0.35456452  0.33596521  1
  O2-  O254  1  -0.00403254  0.34600544  0.67075065  1
  O2-  O255  1  0.00148052  0.84404550  0.00215390  1
  O2-  O256  1  0.00224113  0.84869354  0.33191276  1
  O2-  O257  1  -0.00248735  0.85404608  0.67018356  1
  O2-  O258  1  0.33304136  0.34251919  -0.00149433  1
  O2-  O259  1  0.33146684  0.34513347  0.33521213  1
  O2-  O260  1  0.32553175  0.34023904  0.67366945  1
  O2-  O261  1  0.32477638  0.84516708  0.00766217  1
  O2-  O262  1  0.32770958  0.84929481  0.33553857  1
  O2-  O263  1  0.33192490  0.82212665  0.66362577  1
  O2-  O264  1  0.66793521  0.34076141  -0.00040394  1
  O2-  O265  1  0.66540156  0.33724383  0.33256193  1
  O2-  O266  1  0.67032044  0.34694468  0.66540621  1
  O2-  O267  1  0.67024847  0.85414403  -0.00714866  1
  O2-  O268  1  0.66399034  0.85016659  0.33278763  1
  O2-  O269  1  0.67160386  0.81899882  0.66296921  1
  O2-  O270  1  0.15972884  0.33305770  -0.00517574  1
  O2-  O271  1  0.16246376  0.33667774  0.32739193  1
  O2-  O272  1  0.16669683  0.34229135  0.66987438  1
  O2-  O273  1  0.16080659  0.84568213  -0.00543812  1
  O2-  O274  1  0.16960410  0.83526500  0.33405929  1
  O2-  O275  1  0.16970478  0.84668780  0.66856754  1
  O2-  O276  1  0.49632412  0.35441622  -0.00472975  1
  O2-  O277  1  0.50233152  0.35372196  0.33008742  1
  O2-  O278  1  0.50725362  0.35425425  0.67090114  1
  O2-  O279  1  0.50591097  0.84416735  0.00706467  1
  O2-  O280  1  0.49567923  0.85180356  0.33442035  1
  O2-  O281  1  0.49449809  0.82147967  0.66502759  1
  O2-  O282  1  0.82858671  0.31321858  -0.00236569  1
  O2-  O283  1  0.83117613  0.33813525  0.33476125  1
  O2-  O284  1  0.83276447  0.33717220  0.66784234  1
  O2-  O285  1  0.83644126  0.85033247  0.00223306  1
  O2-  O286  1  0.82914755  0.85187101  0.32827541  1
  O2-  O287  1  0.82857456  0.83588769  0.66910417  1
  O2-  O288  1  -0.00225367  0.18454841  0.16069196  1
  O2-  O289  1  -0.00794486  0.17922236  0.49642772  1
  O2-  O290  1  0.00091092  0.18588211  0.83956752  1
  O2-  O291  1  -0.00414072  0.68716251  0.14622801  1
  O2-  O292  1  -0.00629348  0.67530371  0.49409529  1
  O2-  O293  1  0.01088852  0.68057119  0.83510186  1
  O2-  O294  1  0.33038639  0.17910771  0.15890172  1
  O2-  O295  1  0.33542489  0.18666120  0.50564780  1
  O2-  O296  1  0.33166514  0.17466030  0.84146492  1
  O2-  O297  1  0.33244327  0.68394568  0.16695034  1
  O2-  O298  1  0.32749649  0.68193802  0.50032370  1
  O2-  O299  1  0.33615414  0.68901256  0.81910056  1
  O2-  O300  1  0.66393345  0.18307441  0.16666133  1
  O2-  O301  1  0.67508850  0.18621326  0.50286462  1
  O2-  O302  1  0.66949345  0.17883159  0.83962558  1
  O2-  O303  1  0.66637571  0.68400788  0.17392530  1
  O2-  O304  1  0.66776909  0.69679347  0.50501710  1
  O2-  O305  1  0.66562475  0.67937430  0.84155892  1
  O2-  O306  1  0.17206162  0.18418453  0.15637192  1
  O2-  O307  1  0.16348447  0.18530343  0.50304125  1
  O2-  O308  1  0.16918853  0.18035888  0.82775185  1
  O2-  O309  1  0.16517472  0.69642896  0.16761107  1
  O2-  O310  1  0.16727092  0.68760358  0.49618484  1
  O2-  O311  1  0.16786853  0.67506852  0.82711948  1
  O2-  O312  1  0.50476752  0.17859895  0.16052280  1
  O2-  O313  1  0.50163013  0.17865115  0.51119340  1
  O2-  O314  1  0.49236757  0.17952244  0.84897503  1
  O2-  O315  1  0.50241979  0.67547570  0.16365833  1
  O2-  O316  1  0.50418139  0.67974375  0.49958116  1
  O2-  O317  1  0.50125680  0.68612265  0.83228790  1
  O2-  O318  1  0.83993225  0.17893891  0.16723743  1
  O2-  O319  1  0.83767097  0.18563365  0.49092371  1
  O2-  O320  1  0.82817364  0.18366229  0.84072824  1
  O2-  O321  1  0.83738943  0.67674338  0.15853738  1
  O2-  O322  1  0.83592204  0.68795249  0.49406132  1
  O2-  O323  1  0.83616594  0.68980351  0.82504925  1
  O2-  O324  1  0.00589738  0.31465010  0.17406987  1
  O2-  O325  1  -0.00174080  0.32323499  0.50096461  1
  O2-  O326  1  0.00306331  0.31381062  0.83900221  1
  O2-  O327  1  0.00242897  0.81846144  0.16879067  1
  O2-  O328  1  0.00236179  0.82677886  0.50389382  1
  O2-  O329  1  0.00206412  0.81989615  0.83618046  1
  O2-  O330  1  0.34197725  0.32035979  0.17330965  1
  O2-  O331  1  0.33571481  0.31193600  0.50427449  1
  O2-  O332  1  0.33311767  0.32674811  0.83418666  1
  O2-  O333  1  0.33951550  0.82028747  0.17812561  1
  O2-  O334  1  0.33490979  0.81954340  0.50381013  1
  O2-  O335  1  0.32785156  0.82694534  0.82840588  1
  O2-  O336  1  0.66631635  0.31640135  0.16582001  1
  O2-  O337  1  0.66292380  0.31838750  0.49202928  1
  O2-  O338  1  0.66337138  0.32239241  0.83053969  1
  O2-  O339  1  0.66684745  0.82383721  0.16760208  1
  O2-  O340  1  0.66444960  0.81744840  0.50191203  1
  O2-  O341  1  0.66483878  0.81087416  0.83257000  1
  O2-  O342  1  0.16587301  0.31674907  0.16575814  1
  O2-  O343  1  0.16311331  0.31146359  0.50663424  1
  O2-  O344  1  0.17214312  0.32144384  0.82801597  1
  O2-  O345  1  0.17120819  0.81531871  0.16008673  1
  O2-  O346  1  0.16735143  0.81422325  0.50141671  1
  O2-  O347  1  0.17000183  0.82182819  0.82782994  1
  O2-  O348  1  0.50493087  0.32832877  0.15953546  1
  O2-  O349  1  0.50911302  0.32254399  0.49358818  1
  O2-  O350  1  0.50219737  0.33316357  0.83096084  1
  O2-  O351  1  0.49375560  0.82837961  0.17189501  1
  O2-  O352  1  0.49584418  0.82531663  0.50215515  1
  O2-  O353  1  0.49480013  0.80492850  0.84107184  1
  O2-  O354  1  0.82851331  0.31297414  0.17083306  1
  O2-  O355  1  0.83431345  0.31840160  0.49685610  1
  O2-  O356  1  0.82973486  0.31799858  0.83800958  1
  O2-  O357  1  0.82665652  0.82785431  0.17099810  1
  O2-  O358  1  0.82506976  0.81722922  0.50647333  1
  O2-  O359  1  0.83303980  0.81925130  0.83585666  1
  O2-  O360  1  0.05875535  0.08304085  0.09993548  1
  O2-  O361  1  0.06477731  0.08620755  0.45460685  1
  O2-  O362  1  0.08841225  0.07952786  0.78508676  1
  O2-  O363  1  0.07210222  0.58142518  0.11859787  1
  O2-  O364  1  0.07681020  0.58173494  0.45037996  1
  O2-  O365  1  0.08367994  0.57687870  0.79108983  1
  O2-  O366  1  0.41787152  0.08344212  0.10509881  1
  O2-  O367  1  0.41024222  0.06665910  0.45992746  1
  O2-  O368  1  0.41040870  0.07065457  0.78442778  1
  O2-  O369  1  0.41387761  0.57811206  0.11473833  1
  O2-  O370  1  0.41240931  0.56983447  0.45285975  1
  O2-  O371  1  0.43577006  0.57961128  0.75842886  1
  O2-  O372  1  0.76818090  0.08274107  0.09560211  1
  O2-  O373  1  0.78289551  0.07859084  0.45019782  1
  O2-  O374  1  0.74936653  0.08324323  0.79220163  1
  O2-  O375  1  0.75339233  0.57671940  0.13054292  1
  O2-  O376  1  0.74949896  0.58431460  0.45640546  1
  O2-  O377  1  0.75309310  0.57213418  0.77968176  1
  O2-  O378  1  0.24387435  0.07956324  0.21810011  1
  O2-  O379  1  0.23549460  0.08091212  0.56327432  1
  O2-  O380  1  0.26004466  0.08248630  0.89184935  1
  O2-  O381  1  0.25717542  0.57594705  0.20254667  1
  O2-  O382  1  0.26430619  0.57842494  0.55149151  1
  O2-  O383  1  0.23888768  0.56378057  0.86734573  1
  O2-  O384  1  0.60445567  0.08404060  0.22368067  1
  O2-  O385  1  0.59196477  0.08400064  0.55772656  1
  O2-  O386  1  0.57322677  0.08206513  0.88718409  1
  O2-  O387  1  0.58452998  0.57786116  0.22092095  1
  O2-  O388  1  0.58453616  0.58112616  0.55819440  1
  O2-  O389  1  0.58453913  0.58088529  0.87782342  1
  O2-  O390  1  0.91336228  0.08094516  0.21118920  1
  O2-  O391  1  0.91126948  0.08416674  0.55539836  1
  O2-  O392  1  0.90297181  0.08800192  0.92554633  1
  O2-  O393  1  0.90922353  0.57395813  0.22551069  1
  O2-  O394  1  0.90327097  0.58383188  0.55295251  1
  O2-  O395  1  0.91168406  0.58167245  0.86845297  1
  O2-  O396  1  0.07692128  0.41936430  0.10072751  1
  O2-  O397  1  0.09000648  0.41553722  0.44968565  1
  O2-  O398  1  0.09580665  0.42039308  0.77994039  1
  O2-  O399  1  0.09066071  0.92425864  0.12183608  1
  O2-  O400  1  0.10197267  0.91511039  0.44779298  1
  O2-  O401  1  0.09370916  0.91867729  0.78149875  1
  O2-  O402  1  0.41763321  0.42124472  0.11332808  1
  O2-  O403  1  0.43856751  0.41821866  0.44186033  1
  O2-  O404  1  0.39600286  0.42199195  0.78143485  1
  O2-  O405  1  0.41516224  0.92284474  0.11378246  1
  O2-  O406  1  0.41991259  0.92629459  0.45685301  1
  O2-  O407  1  0.39491452  0.91494530  0.73957667  1
  O2-  O408  1  0.73808815  0.41926015  0.11254851  1
  O2-  O409  1  0.73815006  0.41519678  0.42835872  1
  O2-  O410  1  0.74451723  0.41484995  0.77880437  1
  O2-  O411  1  0.74097517  0.92435927  0.11480051  1
  O2-  O412  1  0.73473217  0.92309983  0.45409249  1
  O2-  O413  1  0.75073426  0.92146477  0.77988182  1
  O2-  O414  1  0.24538332  0.41695390  0.22585111  1
  O2-  O415  1  0.23208402  0.42246353  0.56874582  1
  O2-  O416  1  0.24330451  0.41621640  0.88900714  1
  O2-  O417  1  0.26044539  0.92725084  0.21054734  1
  O2-  O418  1  0.27691064  0.92027459  0.55954985  1
  O2-  O419  1  0.24275926  0.92192406  0.88626848  1
  O2-  O420  1  0.59211132  0.41880422  0.22446025  1
  O2-  O421  1  0.59087627  0.41942471  0.55364750  1
  O2-  O422  1  0.59702782  0.42089364  0.88523733  1
  O2-  O423  1  0.58491400  0.92381976  0.21176605  1
  O2-  O424  1  0.59411748  0.91862283  0.56159449  1
  O2-  O425  1  0.58520953  0.91535834  0.87763989  1
  O2-  O426  1  0.90619634  0.41231278  0.21868721  1
  O2-  O427  1  0.92611708  0.41664858  0.56419359  1
  O2-  O428  1  0.91483447  0.41358341  0.90499729  1
  O2-  O429  1  0.91847979  0.92187848  0.20677211  1
  O2-  O430  1  0.88507395  0.91672154  0.55951092  1
  O2-  O431  1  0.91954051  0.91705135  0.89133369  1
  O2-  O432  1  -0.00687855  -0.00058914  0.01699291  1
  O2-  O433  1  -0.01609559  0.01452843  0.36126197  1
  O2-  O434  1  0.01440245  -0.01033185  0.64302985  1
  O2-  O435  1  0.00431128  0.52041333  -0.00723026  1
  O2-  O436  1  0.00143934  0.49667127  0.35131433  1
  O2-  O437  1  -0.03042266  0.50377102  0.72999692  1
  O2-  O438  1  0.31693118  0.00448707  0.02151363  1
  O2-  O439  1  0.33194947  -0.02040114  0.33158576  1
  O2-  O440  1  0.31715259  0.00499236  0.68523310  1
  O2-  O441  1  0.33686946  0.50025335  0.00195378  1
  O2-  O442  1  0.34244224  0.51130401  0.31911026  1
  O2-  O443  1  0.32329014  0.50637006  0.69017895  1
  O2-  O444  1  0.67274273  0.01159082  -0.01317996  1
  O2-  O445  1  0.66566392  -0.01796009  0.32144346  1
  O2-  O446  1  0.68999393  -0.00165057  0.63616907  1
  O2-  O447  1  0.66940635  0.51033132  -0.00265013  1
  O2-  O448  1  0.67333524  0.49652580  0.32038338  1
  O2-  O449  1  0.65930660  0.50161576  0.66734419  1
  O2-  O450  1  0.15233859  0.00004543  -0.01039665  1
  O2-  O451  1  0.16255653  -0.02084825  0.32611083  1
  O2-  O452  1  0.17003685  -0.01770993  0.65195010  1
  O2-  O453  1  0.16557364  0.51434217  0.00543613  1
  O2-  O454  1  0.16989941  0.51024077  0.32527136  1
  O2-  O455  1  0.17294880  0.49806589  0.68078708  1
  O2-  O456  1  0.50944277  -0.00646145  0.00778307  1
  O2-  O457  1  0.49177214  -0.02324779  0.32702057  1
  O2-  O458  1  0.47458574  -0.00599938  0.62292714  1
  O2-  O459  1  0.50852808  0.49616942  0.02665150  1
  O2-  O460  1  0.50928610  0.50227864  0.34581620  1
  O2-  O461  1  0.51439713  0.48824504  0.68517110  1
  O2-  O462  1  0.83172002  -0.00350477  0.00660011  1
  O2-  O463  1  0.82241452  -0.00808794  0.31167789  1
  O2-  O464  1  0.85001215  -0.00198134  0.68500959  1
  O2-  O465  1  0.83431834  0.50985649  -0.00168193  1
  O2-  O466  1  0.84578268  0.51302445  0.35284571  1
  O2-  O467  1  0.82990422  0.50699189  0.66056371  1
  O2-  O468  1  0.58555967  0.25381903  0.61146119  1
  O2-  O469  1  0.25191576  0.24980363  0.93661647  1
  O2-  O470  1  0.42181170  0.74949484  0.06088016  1
  O2-  O471  1  0.06914961  0.75112866  0.39889007  1
  O2-  O472  1  0.42151027  0.25071347  0.05639690  1
  O2-  O473  1  0.74536488  0.74514524  0.38023367  1
  O2-  O474  1  0.07491513  0.24361386  0.72126216  1
  O2-  O475  1  0.92823925  0.74859027  0.60742240  1
  O2-  O476  1  0.25403232  0.24964704  0.26566353  1
  O2-  O477  1  0.07274695  0.75181126  0.72241515  1
  O2-  O478  1  0.91033179  0.75196647  0.95364806  1
  O2-  O479  1  0.59461542  0.74743187  0.95729384  1
  O2-  O480  1  0.75234952  0.74813115  0.05300385  1
  O2-  O481  1  0.91088269  0.75666320  0.27239159  1
  O2-  O482  1  0.75091776  0.24991967  0.72745573  1
  O2-  O483  1  0.92116609  0.24988661  0.60938297  1
  O2-  O484  1  0.57758444  0.25229452  0.94271086  1
  O2-  O485  1  0.24718808  0.75622988  0.93372820  1
  O2-  O486  1  0.57772109  0.74966254  0.27157451  1
  O2-  O487  1  0.42021319  0.25576492  0.39402916  1
  O2-  O488  1  0.07207816  0.24988323  0.39398854  1
  O2-  O489  1  0.41443702  0.75721087  0.39256531  1
  O2-  O490  1  0.42255904  0.25670543  0.73368410  1
  O2-  O491  1  0.56695984  0.25160686  0.27018848  1
  O2-  O492  1  0.92044821  0.24907550  0.27975130  1
