# generated using pymatgen
data_Ca108Mn108O277
_symmetry_space_group_name_H-M   'P 1'
_cell_length_a   16.03073723
_cell_length_b   22.31169356
_cell_length_c   16.39160210
_cell_angle_alpha   89.99959846
_cell_angle_beta   90.00434261
_cell_angle_gamma   90.00423545
_symmetry_Int_Tables_number   1
_chemical_formula_structural   Ca108Mn108O277
_chemical_formula_sum   'Ca108 Mn108 O277'
_cell_volume   5862.83176931
_cell_formula_units_Z   1
loop_
 _symmetry_equiv_pos_site_id
 _symmetry_equiv_pos_as_xyz
  1  'x, y, z'
loop_
 _atom_type_symbol
 _atom_type_oxidation_number
  Ca2+  2.0
  Mn3.34+  3.34
  O2-  -2.0
loop_
 _atom_site_type_symbol
 _atom_site_label
 _atom_site_symmetry_multiplicity
 _atom_site_fract_x
 _atom_site_fract_y
 _atom_site_fract_z
 _atom_site_occupancy
  Ca2+  Ca0  1  0.08203894  0.25167561  0.26231539  1
  Ca2+  Ca1  1  0.07126742  0.23665757  0.59658788  1
  Ca2+  Ca2  1  0.08874738  0.25580593  0.90119376  1
  Ca2+  Ca3  1  0.07291191  0.75860271  0.25370463  1
  Ca2+  Ca4  1  0.05879760  0.74499815  0.58072386  1
  Ca2+  Ca5  1  0.06076491  0.74286697  0.91604313  1
  Ca2+  Ca6  1  0.42199582  0.24632694  0.23499850  1
  Ca2+  Ca7  1  0.40244018  0.25486327  0.59139896  1
  Ca2+  Ca8  1  0.41599717  0.25715962  0.92252513  1
  Ca2+  Ca9  1  0.41556349  0.75031189  0.25727791  1
  Ca2+  Ca10  1  0.42952118  0.75815344  0.57625737  1
  Ca2+  Ca11  1  0.42194487  0.75263504  0.92573461  1
  Ca2+  Ca12  1  0.74045576  0.26734928  0.24317277  1
  Ca2+  Ca13  1  0.77686932  0.25079000  0.59434410  1
  Ca2+  Ca14  1  0.73795078  0.25980650  0.92005988  1
  Ca2+  Ca15  1  0.75986301  0.73358812  0.23633388  1
  Ca2+  Ca16  1  0.77217642  0.74264992  0.57622067  1
  Ca2+  Ca17  1  0.77271422  0.73348275  0.92572443  1
  Ca2+  Ca18  1  0.27186304  0.25332772  0.07550056  1
  Ca2+  Ca19  1  0.24502208  0.25082683  0.42507083  1
  Ca2+  Ca20  1  0.23393371  0.24582312  0.75175376  1
  Ca2+  Ca21  1  0.24015791  0.75033058  0.08451524  1
  Ca2+  Ca22  1  0.24776686  0.76110711  0.42285710  1
  Ca2+  Ca23  1  0.23323412  0.75624112  0.74886057  1
  Ca2+  Ca24  1  0.56415129  0.24321790  0.08034954  1
  Ca2+  Ca25  1  0.56962341  0.25601814  0.40742165  1
  Ca2+  Ca26  1  0.58248281  0.25242486  0.76381363  1
  Ca2+  Ca27  1  0.60470334  0.74930981  0.08021287  1
  Ca2+  Ca28  1  0.58312848  0.76027965  0.42485246  1
  Ca2+  Ca29  1  0.59709625  0.76469875  0.73943537  1
  Ca2+  Ca30  1  0.91023759  0.25057590  0.08046086  1
  Ca2+  Ca31  1  0.92599443  0.24633693  0.44111450  1
  Ca2+  Ca32  1  0.93392363  0.24620415  0.74531822  1
  Ca2+  Ca33  1  0.91303275  0.73765066  0.07630897  1
  Ca2+  Ca34  1  0.92224625  0.75214408  0.42348330  1
  Ca2+  Ca35  1  0.92649043  0.73552844  0.74138492  1
  Ca2+  Ca36  1  0.26551361  0.58077204  0.05415787  1
  Ca2+  Ca37  1  0.88263788  0.59670890  0.07261214  1
  Ca2+  Ca38  1  0.24156342  0.59312798  0.41875623  1
  Ca2+  Ca39  1  0.57751526  0.59723373  0.40991275  1
  Ca2+  Ca40  1  0.76146741  0.10220475  0.91982430  1
  Ca2+  Ca41  1  0.24278569  0.09471340  0.41114427  1
  Ca2+  Ca42  1  0.23884817  0.57719180  0.76899962  1
  Ca2+  Ca43  1  0.61235913  0.59169233  0.08881575  1
  Ca2+  Ca44  1  0.55401901  0.07584397  0.73577405  1
  Ca2+  Ca45  1  0.25857219  0.09916817  0.08741083  1
  Ca2+  Ca46  1  0.42470692  0.58970341  0.24672305  1
  Ca2+  Ca47  1  0.40782546  0.58652847  0.58652237  1
  Ca2+  Ca48  1  0.10385337  0.10395731  0.89702343  1
  Ca2+  Ca49  1  0.76106488  0.08865371  0.60182532  1
  Ca2+  Ca50  1  0.75331288  0.10041507  0.22966751  1
  Ca2+  Ca51  1  0.74790608  0.08835923  0.60190806  1
  Ca2+  Ca52  1  0.05378300  0.59725537  0.91371164  1
  Ca2+  Ca53  1  0.08545467  0.10604402  0.25816012  1
  Ca2+  Ca54  1  0.58910478  0.59740124  0.41077605  1
  Ca2+  Ca55  1  0.91263053  0.60225093  0.42228327  1
  Ca2+  Ca56  1  0.94783047  0.09875612  0.74054794  1
  Ca2+  Ca57  1  0.39353477  0.09183784  0.93255750  1
  Ca2+  Ca58  1  0.39839666  0.08552060  0.92990016  1
  Ca2+  Ca59  1  0.42123135  0.10041982  0.22466748  1
  Ca2+  Ca60  1  0.25418959  0.59423688  0.41734081  1
  Ca2+  Ca61  1  0.92368982  0.60263874  0.42133578  1
  Ca2+  Ca62  1  0.07648515  0.59503643  0.24879901  1
  Ca2+  Ca63  1  0.56233229  0.07763073  0.40118033  1
  Ca2+  Ca64  1  0.74043686  0.10015932  0.22930672  1
  Ca2+  Ca65  1  0.74957185  0.10212544  0.92050409  1
  Ca2+  Ca66  1  0.07388810  0.59063075  0.60618578  1
  Ca2+  Ca67  1  0.09658408  0.10075495  0.89106156  1
  Ca2+  Ca68  1  0.24828141  0.10000192  0.08617183  1
  Ca2+  Ca69  1  0.42060644  0.58617397  0.58635690  1
  Ca2+  Ca70  1  0.22846756  0.57775958  0.76740238  1
  Ca2+  Ca71  1  0.25777128  0.58216421  0.04773722  1
  Ca2+  Ca72  1  0.42316893  0.91382883  0.25494171  1
  Ca2+  Ca73  1  0.26425219  0.92104555  0.07097036  1
  Ca2+  Ca74  1  0.91731733  0.90776188  0.08000633  1
  Ca2+  Ca75  1  0.73514914  0.40209625  0.58700683  1
  Ca2+  Ca76  1  0.57712124  0.40174051  0.75432838  1
  Ca2+  Ca77  1  0.72726176  0.89797924  0.24951031  1
  Ca2+  Ca78  1  0.09777605  0.90992377  0.59393508  1
  Ca2+  Ca79  1  0.56655009  0.41201608  0.08500984  1
  Ca2+  Ca80  1  0.74666757  0.40153728  0.58802829  1
  Ca2+  Ca81  1  0.92699643  0.89738017  0.41791837  1
  Ca2+  Ca82  1  0.75058514  0.90305397  0.91230337  1
  Ca2+  Ca83  1  0.26749790  0.41766861  0.05352383  1
  Ca2+  Ca84  1  0.93343861  0.91015285  0.74176761  1
  Ca2+  Ca85  1  0.09606468  0.91792152  0.90937488  1
  Ca2+  Ca86  1  0.94123311  0.41425534  0.75662854  1
  Ca2+  Ca87  1  0.23961052  0.40660444  0.76083523  1
  Ca2+  Ca88  1  0.09594714  0.41411735  0.91825818  1
  Ca2+  Ca89  1  0.74880287  0.41338301  0.92519419  1
  Ca2+  Ca90  1  0.43436055  0.92757685  0.59060812  1
  Ca2+  Ca91  1  0.91565169  0.40256256  0.08660935  1
  Ca2+  Ca92  1  0.07994568  0.39691157  0.25052438  1
  Ca2+  Ca93  1  0.41516019  0.40720545  0.59001629  1
  Ca2+  Ca94  1  0.92978430  0.90828210  0.08162692  1
  Ca2+  Ca95  1  0.76200284  0.90211511  0.91282247  1
  Ca2+  Ca96  1  0.57719615  0.92109352  0.72216057  1
  Ca2+  Ca97  1  0.73967743  0.89756085  0.25127238  1
  Ca2+  Ca98  1  0.40516080  0.91359806  0.91786271  1
  Ca2+  Ca99  1  0.24901635  0.92662875  0.74813654  1
  Ca2+  Ca100  1  0.24502193  0.39779562  0.41867916  1
  Ca2+  Ca101  1  0.25692146  0.91572302  0.07288886  1
  Ca2+  Ca102  1  0.41799697  0.39822501  0.24392745  1
  Ca2+  Ca103  1  0.39570279  0.91786557  0.91625005  1
  Ca2+  Ca104  1  0.57432559  0.40721225  0.40993181  1
  Ca2+  Ca105  1  0.92572548  0.39957133  0.40563895  1
  Ca2+  Ca106  1  0.43592905  0.91182403  0.25309610  1
  Ca2+  Ca107  1  0.10582357  0.91796792  0.91425612  1
  Mn3.34+  Mn108  1  0.08544999  0.33135431  0.08524756  1
  Mn3.34+  Mn109  1  0.08383520  0.33133564  0.42000887  1
  Mn3.34+  Mn110  1  0.08409993  0.33702601  0.74927700  1
  Mn3.34+  Mn111  1  0.08451131  0.83223138  0.08760231  1
  Mn3.34+  Mn112  1  0.08954206  0.83642025  0.41902454  1
  Mn3.34+  Mn113  1  0.08674697  0.83325681  0.74867533  1
  Mn3.34+  Mn114  1  0.41609333  0.33498134  0.08207229  1
  Mn3.34+  Mn115  1  0.41322872  0.32960356  0.41695854  1
  Mn3.34+  Mn116  1  0.41240167  0.33153061  0.75327028  1
  Mn3.34+  Mn117  1  0.42018841  0.83072706  0.08777279  1
  Mn3.34+  Mn118  1  0.41563631  0.83780839  0.42331417  1
  Mn3.34+  Mn119  1  0.41299526  0.83363035  0.74941160  1
  Mn3.34+  Mn120  1  0.74472152  0.33682139  0.08496440  1
  Mn3.34+  Mn121  1  0.74956958  0.33205777  0.41358158  1
  Mn3.34+  Mn122  1  0.75224845  0.33271749  0.75968577  1
  Mn3.34+  Mn123  1  0.74826993  0.83173361  0.08292846  1
  Mn3.34+  Mn124  1  0.74964222  0.82923138  0.42167030  1
  Mn3.34+  Mn125  1  0.75320020  0.83588874  0.74290822  1
  Mn3.34+  Mn126  1  0.24966433  0.32815430  0.24585324  1
  Mn3.34+  Mn127  1  0.24510542  0.33562147  0.58619557  1
  Mn3.34+  Mn128  1  0.25183138  0.33788421  0.91445235  1
  Mn3.34+  Mn129  1  0.25025123  0.83134717  0.24907892  1
  Mn3.34+  Mn130  1  0.25533534  0.83763810  0.58360184  1
  Mn3.34+  Mn131  1  0.24852355  0.82623978  0.91268983  1
  Mn3.34+  Mn132  1  0.58334374  0.33557089  0.24754106  1
  Mn3.34+  Mn133  1  0.57974240  0.33076050  0.58130584  1
  Mn3.34+  Mn134  1  0.57720935  0.33934489  0.91934888  1
  Mn3.34+  Mn135  1  0.58071669  0.82273357  0.24879827  1
  Mn3.34+  Mn136  1  0.58972600  0.84115030  0.57858453  1
  Mn3.34+  Mn137  1  0.58044523  0.83119218  0.91201007  1
  Mn3.34+  Mn138  1  0.91417563  0.33366827  0.24547136  1
  Mn3.34+  Mn139  1  0.92340511  0.33597981  0.58468979  1
  Mn3.34+  Mn140  1  0.91662899  0.33605153  0.91502503  1
  Mn3.34+  Mn141  1  0.91931456  0.82945559  0.25116540  1
  Mn3.34+  Mn142  1  0.91686967  0.83275542  0.58425597  1
  Mn3.34+  Mn143  1  0.92113728  0.83170749  0.90885674  1
  Mn3.34+  Mn144  1  0.57839798  0.16387237  0.58172908  1
  Mn3.34+  Mn145  1  0.58245059  0.66676456  0.24276526  1
  Mn3.34+  Mn146  1  0.58039822  0.66172113  0.91731692  1
  Mn3.34+  Mn147  1  0.07544003  0.16706764  0.42425358  1
  Mn3.34+  Mn148  1  0.41478215  0.66938405  0.09144093  1
  Mn3.34+  Mn149  1  0.74655683  0.66258327  0.74730279  1
  Mn3.34+  Mn150  1  0.25249357  0.17283634  0.91689646  1
  Mn3.34+  Mn151  1  0.41346964  0.67338870  0.75504685  1
  Mn3.34+  Mn152  1  0.41333602  0.16503745  0.41331118  1
  Mn3.34+  Mn153  1  0.41352409  0.67184608  0.41693648  1
  Mn3.34+  Mn154  1  0.57965334  0.16874897  0.24620543  1
  Mn3.34+  Mn155  1  0.25011565  0.67249060  0.91662138  1
  Mn3.34+  Mn156  1  0.75667797  0.16360125  0.42084730  1
  Mn3.34+  Mn157  1  0.75113416  0.67139776  0.41069054  1
  Mn3.34+  Mn158  1  0.24370748  0.15890607  0.58862845  1
  Mn3.34+  Mn159  1  0.42188643  0.66679560  0.75694525  1
  Mn3.34+  Mn160  1  0.24838485  0.66982771  0.24443766  1
  Mn3.34+  Mn161  1  0.58853486  0.66865719  0.58210087  1
  Mn3.34+  Mn162  1  0.74225260  0.16903228  0.41917955  1
  Mn3.34+  Mn163  1  0.57848912  0.16936855  0.91670407  1
  Mn3.34+  Mn164  1  0.75935925  0.65776728  0.74522125  1
  Mn3.34+  Mn165  1  0.07907148  0.17182554  0.08804102  1
  Mn3.34+  Mn166  1  0.08485729  0.67003928  0.41905321  1
  Mn3.34+  Mn167  1  0.08199124  0.66741942  0.08787566  1
  Mn3.34+  Mn168  1  0.41404605  0.16268280  0.75730707  1
  Mn3.34+  Mn169  1  0.25396774  0.15440917  0.58742200  1
  Mn3.34+  Mn170  1  0.92115746  0.17217487  0.91898400  1
  Mn3.34+  Mn171  1  0.24933731  0.17426030  0.25105509  1
  Mn3.34+  Mn172  1  0.08058012  0.66772738  0.75450005  1
  Mn3.34+  Mn173  1  0.75204496  0.17154734  0.75714318  1
  Mn3.34+  Mn174  1  0.74737517  0.17559938  0.08136885  1
  Mn3.34+  Mn175  1  0.91522807  0.66367727  0.24189002  1
  Mn3.34+  Mn176  1  0.59010191  0.65637254  0.91557117  1
  Mn3.34+  Mn177  1  0.91754947  0.17199611  0.24634681  1
  Mn3.34+  Mn178  1  0.24678324  0.67232193  0.58470211  1
  Mn3.34+  Mn179  1  0.57032442  0.15763536  0.57776857  1
  Mn3.34+  Mn180  1  0.92616556  0.49413709  0.60003463  1
  Mn3.34+  Mn181  1  0.25724758  0.50323724  0.23624997  1
  Mn3.34+  Mn182  1  0.58710594  -0.00184062  0.90978274  1
  Mn3.34+  Mn183  1  0.74472301  0.49625519  0.75615092  1
  Mn3.34+  Mn184  1  0.91995342  0.50359877  0.25077422  1
  Mn3.34+  Mn185  1  0.91467037  0.50115879  0.60110246  1
  Mn3.34+  Mn186  1  0.23735638  0.49452461  0.59537691  1
  Mn3.34+  Mn187  1  0.91959199  0.00720158  0.25803563  1
  Mn3.34+  Mn188  1  0.75403416  0.00116443  0.07623743  1
  Mn3.34+  Mn189  1  0.59046412  0.50272575  0.59120199  1
  Mn3.34+  Mn190  1  0.75035146  0.49433550  0.08124816  1
  Mn3.34+  Mn191  1  0.93035161  0.00421496  0.57782202  1
  Mn3.34+  Mn192  1  0.73635743  -0.00547072  0.42423459  1
  Mn3.34+  Mn193  1  0.07997618  0.00021352  0.08692861  1
  Mn3.34+  Mn194  1  0.91466943  0.50107653  0.92786335  1
  Mn3.34+  Mn195  1  0.08274706  0.00321232  0.43047867  1
  Mn3.34+  Mn196  1  0.91806140  -0.00332383  0.57652041  1
  Mn3.34+  Mn197  1  0.74795130  0.00317919  0.74843380  1
  Mn3.34+  Mn198  1  0.23128255  -0.00623796  0.25743436  1
  Mn3.34+  Mn199  1  0.57817273  0.00384991  0.91250710  1
  Mn3.34+  Mn200  1  0.41555632  0.49674243  0.41472410  1
  Mn3.34+  Mn201  1  0.25251839  -0.00165697  0.59892648  1
  Mn3.34+  Mn202  1  0.75019013  0.00030083  0.42597033  1
  Mn3.34+  Mn203  1  0.24211466  0.49827230  0.23894865  1
  Mn3.34+  Mn204  1  0.42164554  0.50011830  0.75318684  1
  Mn3.34+  Mn205  1  0.57025967  0.49858979  0.94006977  1
  Mn3.34+  Mn206  1  0.58393881  0.00174699  0.23394717  1
  Mn3.34+  Mn207  1  0.07993161  0.50173794  0.08067497  1
  Mn3.34+  Mn208  1  0.75827315  0.49980871  0.42046890  1
  Mn3.34+  Mn209  1  0.58418090  0.50133700  0.25020953  1
  Mn3.34+  Mn210  1  0.74794642  0.50407856  0.41674956  1
  Mn3.34+  Mn211  1  0.08355610  0.50066367  0.41724733  1
  Mn3.34+  Mn212  1  0.93299159  0.00108698  0.25557450  1
  Mn3.34+  Mn213  1  0.41612151  0.00044234  0.41393558  1
  Mn3.34+  Mn214  1  0.24178584  -0.00051178  0.25487333  1
  Mn3.34+  Mn215  1  0.92668072  0.00188799  0.90663076  1
  O2-  O216  1  0.00676306  0.18456535  -0.00211549  1
  O2-  O217  1  -0.00099156  0.17038190  0.32948594  1
  O2-  O218  1  -0.00025665  0.17191388  0.67282243  1
  O2-  O219  1  -0.00104895  0.65278876  0.01723583  1
  O2-  O220  1  0.00201940  0.65113818  0.33635190  1
  O2-  O221  1  0.01067783  0.66191918  0.67063191  1
  O2-  O222  1  0.32870849  0.15836460  0.00369500  1
  O2-  O223  1  0.33317392  0.15039086  0.32877046  1
  O2-  O224  1  0.33044690  0.15297374  0.67130177  1
  O2-  O225  1  0.33045248  0.68464438  0.00560859  1
  O2-  O226  1  0.33025367  0.65407942  0.33091331  1
  O2-  O227  1  0.33883839  0.66890000  0.66061874  1
  O2-  O228  1  0.66509646  0.15277032  -0.00044006  1
  O2-  O229  1  0.66718150  0.14153447  0.33913500  1
  O2-  O230  1  0.66082457  0.15260958  0.67038612  1
  O2-  O231  1  0.66963416  0.65094183  -0.00617892  1
  O2-  O232  1  0.65888609  0.66232993  0.33240327  1
  O2-  O233  1  0.66785291  0.65427459  0.66482223  1
  O2-  O234  1  0.16462837  0.16130722  0.00233521  1
  O2-  O235  1  0.16813029  0.16998833  0.33317774  1
  O2-  O236  1  0.16283456  0.15715853  0.66361842  1
  O2-  O237  1  0.16862231  0.65628875  0.00291354  1
  O2-  O238  1  0.16978918  0.65309932  0.33310811  1
  O2-  O239  1  0.17948494  0.65237605  0.67662639  1
  O2-  O240  1  0.49403576  0.14961792  -0.01710894  1
  O2-  O241  1  0.50303035  0.15324065  0.33135658  1
  O2-  O242  1  0.49556167  0.15800227  0.66802552  1
  O2-  O243  1  0.50052921  0.66957391  0.00995917  1
  O2-  O244  1  0.49802314  0.65637354  0.33257045  1
  O2-  O245  1  0.49565957  0.65196826  0.66448283  1
  O2-  O246  1  0.83176846  0.17328167  -0.00266321  1
  O2-  O247  1  0.82892439  0.15172315  0.32424529  1
  O2-  O248  1  0.82759476  0.15474523  0.67620944  1
  O2-  O249  1  0.83490152  0.66912814  0.00228128  1
  O2-  O250  1  0.83270621  0.64633067  0.32765727  1
  O2-  O251  1  0.83263493  0.65988242  0.66539995  1
  O2-  O252  1  -0.00272394  0.32433320  0.00193998  1
  O2-  O253  1  0.00137454  0.32997355  0.32784937  1
  O2-  O254  1  -0.00147381  0.34903637  0.66932697  1
  O2-  O255  1  0.00808857  0.85613473  -0.01069658  1
  O2-  O256  1  0.00207419  0.84467998  0.32862737  1
  O2-  O257  1  0.01013364  0.84812386  0.66182330  1
  O2-  O258  1  0.33371790  0.33911953  -0.00102814  1
  O2-  O259  1  0.33007740  0.34457532  0.33374186  1
  O2-  O260  1  0.33420124  0.34703940  0.66479744  1
  O2-  O261  1  0.32892549  0.83264748  0.00374419  1
  O2-  O262  1  0.34055422  0.84447371  0.32303647  1
  O2-  O263  1  0.33425080  0.80570063  0.66685877  1
  O2-  O264  1  0.66640120  0.35506099  0.00020965  1
  O2-  O265  1  0.66164390  0.34595931  0.33732026  1
  O2-  O266  1  0.66372422  0.34399030  0.66998211  1
  O2-  O267  1  0.66825546  0.85289104  -0.00091823  1
  O2-  O268  1  0.66287653  0.83430359  0.33292036  1
  O2-  O269  1  0.66154212  0.84613874  0.67197207  1
  O2-  O270  1  0.16420165  0.33761093  -0.00038164  1
  O2-  O271  1  0.16817147  0.32993625  0.33082165  1
  O2-  O272  1  0.17187654  0.34520077  0.67385652  1
  O2-  O273  1  0.17078854  0.85222783  0.00317688  1
  O2-  O274  1  0.17451900  0.82021578  0.33195304  1
  O2-  O275  1  0.18200449  0.84691400  0.67720783  1
  O2-  O276  1  0.50244435  0.34573864  0.00561737  1
  O2-  O277  1  0.49874231  0.34169021  0.33402775  1
  O2-  O278  1  0.49936202  0.33183562  0.66413908  1
  O2-  O279  1  0.48419517  0.84225015  -0.01341916  1
  O2-  O280  1  0.49624539  0.83848593  0.32590111  1
  O2-  O281  1  0.49304119  0.84103880  0.66618096  1
  O2-  O282  1  0.83270362  0.34073695  -0.00025159  1
  O2-  O283  1  0.84049166  0.33324546  0.33500497  1
  O2-  O284  1  0.83290171  0.35052508  0.66758422  1
  O2-  O285  1  0.83918684  0.85210871  0.00174318  1
  O2-  O286  1  0.83144350  0.85323031  0.32816425  1
  O2-  O287  1  0.84364030  0.84752868  0.67334488  1
  O2-  O288  1  0.00028433  0.19184799  0.16889267  1
  O2-  O289  1  0.00283952  0.17618844  0.50051195  1
  O2-  O290  1  0.00406326  0.16981696  0.84101499  1
  O2-  O291  1  0.00872012  0.68274537  0.17641461  1
  O2-  O292  1  0.00114290  0.67125971  0.49224103  1
  O2-  O293  1  0.00540147  0.67766862  0.83206170  1
  O2-  O294  1  0.32456479  0.17599372  0.16790050  1
  O2-  O295  1  0.32709521  0.17478335  0.50090111  1
  O2-  O296  1  0.34435570  0.17394725  0.84929966  1
  O2-  O297  1  0.33195963  0.69418649  0.17027360  1
  O2-  O298  1  0.32997999  0.68263828  0.50000865  1
  O2-  O299  1  0.33275747  0.69500490  0.83619153  1
  O2-  O300  1  0.67546401  0.17971885  0.17763931  1
  O2-  O301  1  0.66151071  0.19538480  0.50698882  1
  O2-  O302  1  0.67649761  0.18099001  0.84528735  1
  O2-  O303  1  0.65716652  0.68467876  0.16756200  1
  O2-  O304  1  0.65993739  0.68040610  0.48609013  1
  O2-  O305  1  0.66709733  0.68061823  0.82533663  1
  O2-  O306  1  0.16497229  0.18623780  0.16688025  1
  O2-  O307  1  0.17278640  0.17400156  0.49822818  1
  O2-  O308  1  0.16996119  0.17739801  0.83925431  1
  O2-  O309  1  0.16475493  0.69228718  0.17357391  1
  O2-  O310  1  0.17151018  0.68327683  0.49625118  1
  O2-  O311  1  0.17037078  0.68727063  0.83809943  1
  O2-  O312  1  0.50147294  0.17636612  0.17106896  1
  O2-  O313  1  0.49617418  0.18577942  0.49681268  1
  O2-  O314  1  0.50714236  0.18302322  0.82799901  1
  O2-  O315  1  0.49290527  0.68708187  0.17238802  1
  O2-  O316  1  0.49806914  0.67410003  0.49831241  1
  O2-  O317  1  0.50364212  0.68434462  0.83805185  1
  O2-  O318  1  0.82765947  0.18826012  0.17258927  1
  O2-  O319  1  0.82316529  0.18082419  0.50781372  1
  O2-  O320  1  0.83403531  0.18579292  0.83988105  1
  O2-  O321  1  0.84353089  0.67593338  0.16188086  1
  O2-  O322  1  0.83799068  0.67622593  0.48186008  1
  O2-  O323  1  0.83442265  0.67904604  0.82248815  1
  O2-  O324  1  0.00000917  0.31543020  0.16654217  1
  O2-  O325  1  -0.00598888  0.32965524  0.49276740  1
  O2-  O326  1  -0.00248198  0.32087611  0.83409699  1
  O2-  O327  1  -0.01142310  0.81963815  0.15331403  1
  O2-  O328  1  -0.00164235  0.82194682  0.49860075  1
  O2-  O329  1  -0.00235875  0.82144059  0.82505603  1
  O2-  O330  1  0.33585898  0.31561214  0.17114390  1
  O2-  O331  1  0.33233566  0.31952681  0.49915086  1
  O2-  O332  1  0.32517909  0.32593245  0.82582742  1
  O2-  O333  1  0.33487223  0.81000180  0.16671102  1
  O2-  O334  1  0.33424959  0.81604505  0.50314164  1
  O2-  O335  1  0.33474930  0.81109612  0.83618205  1
  O2-  O336  1  0.65780074  0.32489717  0.16015948  1
  O2-  O337  1  0.67226535  0.31931928  0.51186599  1
  O2-  O338  1  0.66270828  0.32303577  0.83494976  1
  O2-  O339  1  0.67381344  0.81821346  0.17600664  1
  O2-  O340  1  0.67386500  0.81416184  0.50432110  1
  O2-  O341  1  0.66919662  0.83299136  0.83541110  1
  O2-  O342  1  0.16552196  0.30906626  0.16768104  1
  O2-  O343  1  0.17068220  0.32687324  0.49519648  1
  O2-  O344  1  0.16707531  0.32239009  0.83368718  1
  O2-  O345  1  0.17129178  0.82098934  0.16344704  1
  O2-  O346  1  0.16469573  0.81503269  0.51353943  1
  O2-  O347  1  0.15599000  0.81477963  0.84545411  1
  O2-  O348  1  0.49771157  0.32093927  0.16996789  1
  O2-  O349  1  0.49935011  0.31449062  0.49885187  1
  O2-  O350  1  0.49894650  0.32062907  0.83188314  1
  O2-  O351  1  0.50219765  0.80868079  0.16490343  1
  O2-  O352  1  0.50308079  0.82410115  0.49900354  1
  O2-  O353  1  0.49852239  0.80764725  0.82629710  1
  O2-  O354  1  0.83482295  0.31731284  0.16125261  1
  O2-  O355  1  0.82918606  0.32514590  0.50583038  1
  O2-  O356  1  0.83394970  0.31236129  0.83554022  1
  O2-  O357  1  0.83135093  0.82574508  0.16873103  1
  O2-  O358  1  0.83958209  0.82121816  0.49270866  1
  O2-  O359  1  0.82500204  0.82400540  0.84358662  1
  O2-  O360  1  0.10604106  0.08156981  0.11197373  1
  O2-  O361  1  0.09362273  0.08546295  0.42231693  1
  O2-  O362  1  0.03665816  0.04008010  0.82015781  1
  O2-  O363  1  0.10059352  0.58212539  0.11386187  1
  O2-  O364  1  0.10561051  0.58059965  0.45772093  1
  O2-  O365  1  0.10075553  0.58684833  0.78595514  1
  O2-  O366  1  0.37096432  0.06153691  0.11214963  1
  O2-  O367  1  0.42363018  0.08145545  0.44090650  1
  O2-  O368  1  0.42821115  0.08112101  0.79840791  1
  O2-  O369  1  0.38981703  0.59293217  0.11311960  1
  O2-  O370  1  0.40169608  0.58180804  0.45098278  1
  O2-  O371  1  0.38302885  0.58290272  0.77933453  1
  O2-  O372  1  0.75935653  0.08714784  0.09758229  1
  O2-  O373  1  0.74969072  0.08091655  0.45794756  1
  O2-  O374  1  0.75677064  0.08381802  0.78599706  1
  O2-  O375  1  0.74587074  0.56432604  0.12479733  1
  O2-  O376  1  0.73746979  0.58586679  0.44245183  1
  O2-  O377  1  0.75178418  0.57828181  0.77587985  1
  O2-  O378  1  0.22687276  0.08092741  0.22470702  1
  O2-  O379  1  0.24913950  0.07057826  0.54699891  1
  O2-  O380  1  0.24476901  0.08532182  0.91595568  1
  O2-  O381  1  0.24769860  0.58312707  0.20097179  1
  O2-  O382  1  0.26857000  0.57552343  0.54881058  1
  O2-  O383  1  0.25205227  0.58306181  0.90344691  1
  O2-  O384  1  0.59983377  0.08412949  0.22013515  1
  O2-  O385  1  0.61415557  0.08149680  0.53604496  1
  O2-  O386  1  0.60039847  0.08310825  0.87833707  1
  O2-  O387  1  0.56997718  0.58169588  0.21633806  1
  O2-  O388  1  0.56513386  0.57986429  0.54200756  1
  O2-  O389  1  0.57092122  0.57565165  0.88918750  1
  O2-  O390  1  0.90929489  0.08224061  0.21053604  1
  O2-  O391  1  0.89487477  0.07954719  0.55592155  1
  O2-  O392  1  0.89446558  0.08282723  0.90188722  1
  O2-  O393  1  0.93010720  0.58098508  0.20852318  1
  O2-  O394  1  0.93360938  0.57089497  0.54614130  1
  O2-  O395  1  0.91604195  0.57251928  0.89577647  1
  O2-  O396  1  0.07174556  0.42168603  0.11176429  1
  O2-  O397  1  0.08274738  0.41694949  0.40804560  1
  O2-  O398  1  0.08453700  0.41777566  0.78336059  1
  O2-  O399  1  0.06679570  0.91825941  0.12055351  1
  O2-  O400  1  0.07339207  0.92233162  0.45611600  1
  O2-  O401  1  0.09452621  0.91444829  0.77859684  1
  O2-  O402  1  0.41106643  0.41462797  0.11266821  1
  O2-  O403  1  0.42314009  0.41419236  0.44421724  1
  O2-  O404  1  0.43092452  0.41697514  0.75712129  1
  O2-  O405  1  0.40106923  0.91626844  0.12156309  1
  O2-  O406  1  0.41630335  0.92028581  0.44569576  1
  O2-  O407  1  0.40757073  0.91574757  0.78367007  1
  O2-  O408  1  0.76262256  0.41824513  0.11419141  1
  O2-  O409  1  0.74681406  0.41858034  0.44871535  1
  O2-  O410  1  0.74944326  0.41602051  0.78944800  1
  O2-  O411  1  0.75930759  0.92093121  0.12225637  1
  O2-  O412  1  0.74794731  0.91333486  0.43072849  1
  O2-  O413  1  0.75584137  0.92355491  0.77977598  1
  O2-  O414  1  0.23896721  0.41655348  0.22257978  1
  O2-  O415  1  0.26681362  0.42259786  0.55012050  1
  O2-  O416  1  0.23846937  0.41821120  0.90091545  1
  O2-  O417  1  0.26404647  0.91904285  0.21016301  1
  O2-  O418  1  0.25101022  0.92713830  0.55156820  1
  O2-  O419  1  0.25174635  0.91646413  0.88436895  1
  O2-  O420  1  0.56635901  0.41937483  0.22740370  1
  O2-  O421  1  0.59364370  0.42090491  0.54624464  1
  O2-  O422  1  0.58431906  0.42632735  0.88667761  1
  O2-  O423  1  0.58304337  0.91705248  0.22522113  1
  O2-  O424  1  0.57620062  0.92014634  0.57411282  1
  O2-  O425  1  0.56026600  0.91875843  0.88076389  1
  O2-  O426  1  0.93368490  0.42210928  0.22873656  1
  O2-  O427  1  0.89964735  0.42621978  0.53995617  1
  O2-  O428  1  0.90564710  0.42540604  0.88808391  1
  O2-  O429  1  0.90856306  0.92380069  0.21404067  1
  O2-  O430  1  0.92038160  0.91809160  0.55164538  1
  O2-  O431  1  0.91701133  0.92001631  0.87518434  1
  O2-  O432  1  0.00302539  -0.01745302  -0.00408682  1
  O2-  O433  1  0.00275304  -0.00120663  0.34481540  1
  O2-  O434  1  -0.00217823  -0.01090882  0.66611098  1
  O2-  O435  1  0.01758246  0.49630997  -0.02216442  1
  O2-  O436  1  0.00476384  0.52168580  0.33493761  1
  O2-  O437  1  0.00732810  0.50677209  0.67275871  1
  O2-  O438  1  0.32793091  -0.02000666  -0.00658697  1
  O2-  O439  1  0.33883826  -0.00431882  0.32243745  1
  O2-  O440  1  0.33496313  -0.01407300  0.66131246  1
  O2-  O441  1  0.32656320  0.50119959  0.04270917  1
  O2-  O442  1  0.33007838  0.51381705  0.32971121  1
  O2-  O443  1  0.32734273  0.51052511  0.67091282  1
  O2-  O444  1  0.68538426  -0.00055159  -0.02793594  1
  O2-  O445  1  0.67082402  0.00519456  0.32400315  1
  O2-  O446  1  0.66440588  0.02217122  0.67926355  1
  O2-  O447  1  0.67647995  0.49068016  -0.00340881  1
  O2-  O448  1  0.64905722  0.50329738  0.35689748  1
  O2-  O449  1  0.66982396  0.47432540  0.66941288  1
  O2-  O450  1  0.16582684  -0.02031502  0.00881630  1
  O2-  O451  1  0.17461924  0.00327634  0.35592721  1
  O2-  O452  1  0.16989431  -0.00997608  0.66138062  1
  O2-  O453  1  0.17417539  0.49994041  0.02743081  1
  O2-  O454  1  0.17419297  0.51695284  0.33585535  1
  O2-  O455  1  0.17048032  0.51851401  0.67600333  1
  O2-  O456  1  0.46943395  0.00450006  -0.04696664  1
  O2-  O457  1  0.49408783  0.00078514  0.31287647  1
  O2-  O458  1  0.50282449  -0.00447794  0.67354557  1
  O2-  O459  1  0.52296371  0.50822564  0.03463825  1
  O2-  O460  1  0.49955483  0.52065443  0.33532167  1
  O2-  O461  1  0.48185187  0.50710195  0.64270289  1
  O2-  O462  1  0.83939955  -0.02415833  -0.00800499  1
  O2-  O463  1  0.83018307  0.00162592  0.33500562  1
  O2-  O464  1  0.82771022  0.00298870  0.65687017  1
  O2-  O465  1  0.85102100  0.49417476  0.02259316  1
  O2-  O466  1  0.85237014  0.50308329  0.35305196  1
  O2-  O467  1  0.83634232  0.47879578  0.67756358  1
  O2-  O468  1  0.58224186  0.25117427  0.94145722  1
  O2-  O469  1  0.40931320  0.24800948  0.38479535  1
  O2-  O470  1  0.42077747  0.25388252  0.06355210  1
  O2-  O471  1  0.92103423  0.25713397  0.60020698  1
  O2-  O472  1  0.74512949  0.74838625  0.72391251  1
  O2-  O473  1  0.40538473  0.24787740  0.73132471  1
  O2-  O474  1  0.57836078  0.75023590  0.60283905  1
  O2-  O475  1  0.08442761  0.25020464  0.40963380  1
  O2-  O476  1  0.07391437  0.74882790  0.39549083  1
  O2-  O477  1  0.91578961  0.75471916  0.60207708  1
  O2-  O478  1  0.74490579  0.24797100  0.38376756  1
  O2-  O479  1  0.42040415  0.75293809  0.39652616  1
  O2-  O480  1  0.08777478  0.75199002  0.72072104  1
  O2-  O481  1  0.25558545  0.25266703  0.93483179  1
  O2-  O482  1  0.73932644  0.25132489  0.72613799  1
  O2-  O483  1  0.08400826  0.25531124  0.73534742  1
  O2-  O484  1  0.59607260  0.74569040  0.93873185  1
  O2-  O485  1  0.75995219  0.75046997  0.38374550  1
  O2-  O486  1  0.73258701  0.25504798  0.05868662  1
  O2-  O487  1  0.58867138  0.25020407  0.27232407  1
  O2-  O488  1  0.75185701  0.75482824  0.06051225  1
  O2-  O489  1  0.92019787  0.75595272  0.94000022  1
  O2-  O490  1  0.25133774  0.24656533  0.60322329  1
  O2-  O491  1  0.08568869  0.75146069  0.05438566  1
  O2-  O492  1  0.91420792  0.74629812  0.27812215  1
