# generated using pymatgen
data_Ca108Mn108O277
_symmetry_space_group_name_H-M   'P 1'
_cell_length_a   16.03676247
_cell_length_b   22.32134212
_cell_length_c   16.39829142
_cell_angle_alpha   90.00035178
_cell_angle_beta   89.99740894
_cell_angle_gamma   90.00351189
_symmetry_Int_Tables_number   1
_chemical_formula_structural   Ca108Mn108O277
_chemical_formula_sum   'Ca108 Mn108 O277'
_cell_volume   5869.96618793
_cell_formula_units_Z   1
loop_
 _symmetry_equiv_pos_site_id
 _symmetry_equiv_pos_as_xyz
  1  'x, y, z'
loop_
 _atom_type_symbol
 _atom_type_oxidation_number
  Ca2+  2.0
  Mn3.34+  3.34
  O2-  -2.0
loop_
 _atom_site_type_symbol
 _atom_site_label
 _atom_site_symmetry_multiplicity
 _atom_site_fract_x
 _atom_site_fract_y
 _atom_site_fract_z
 _atom_site_occupancy
  Ca2+  Ca0  1  0.08668702  0.27132187  0.26045864  1
  Ca2+  Ca1  1  0.08014126  0.24776113  0.59075091  1
  Ca2+  Ca2  1  0.06700533  0.25169926  0.88344963  1
  Ca2+  Ca3  1  0.08439529  0.73805400  0.26233907  1
  Ca2+  Ca4  1  0.08132920  0.73779715  0.57066772  1
  Ca2+  Ca5  1  0.12144589  0.73741332  0.92404033  1
  Ca2+  Ca6  1  0.41193800  0.27445388  0.25370336  1
  Ca2+  Ca7  1  0.40889323  0.27318077  0.57825046  1
  Ca2+  Ca8  1  0.42282605  0.27018958  0.92422035  1
  Ca2+  Ca9  1  0.40429185  0.73625753  0.25100334  1
  Ca2+  Ca10  1  0.41281664  0.73724012  0.58809447  1
  Ca2+  Ca11  1  0.39195940  0.72253213  0.91886417  1
  Ca2+  Ca12  1  0.74094910  0.26095621  0.25237353  1
  Ca2+  Ca13  1  0.76068756  0.25529856  0.59799829  1
  Ca2+  Ca14  1  0.76983899  0.25197599  0.89661333  1
  Ca2+  Ca15  1  0.75511100  0.73277379  0.22503575  1
  Ca2+  Ca16  1  0.75950076  0.75146491  0.57287395  1
  Ca2+  Ca17  1  0.74020328  0.74448031  0.93364660  1
  Ca2+  Ca18  1  0.26004197  0.26756090  0.08383723  1
  Ca2+  Ca19  1  0.23613005  0.25791110  0.43796973  1
  Ca2+  Ca20  1  0.21527791  0.24937092  0.72878614  1
  Ca2+  Ca21  1  0.25384446  0.72979700  0.07537230  1
  Ca2+  Ca22  1  0.24707028  0.74208080  0.41811498  1
  Ca2+  Ca23  1  0.25508676  0.75376209  0.74377822  1
  Ca2+  Ca24  1  0.57974718  0.25450389  0.09184302  1
  Ca2+  Ca25  1  0.58628617  0.25482637  0.41481043  1
  Ca2+  Ca26  1  0.61223667  0.25815928  0.74801115  1
  Ca2+  Ca27  1  0.58979747  0.73641521  0.07816475  1
  Ca2+  Ca28  1  0.57995977  0.74596111  0.42939086  1
  Ca2+  Ca29  1  0.56972242  0.74717812  0.74482023  1
  Ca2+  Ca30  1  0.91343531  0.25638856  0.06514082  1
  Ca2+  Ca31  1  0.92756733  0.26055459  0.43271292  1
  Ca2+  Ca32  1  0.91285273  0.25171569  0.75006858  1
  Ca2+  Ca33  1  0.91489979  0.73539307  0.09822951  1
  Ca2+  Ca34  1  0.92638116  0.73042584  0.43227015  1
  Ca2+  Ca35  1  0.91700185  0.74706449  0.72622071  1
  Ca2+  Ca36  1  0.05592452  0.10621360  0.90028059  1
  Ca2+  Ca37  1  0.40261887  0.09428683  0.59280509  1
  Ca2+  Ca38  1  0.29494367  0.60846373  0.75481161  1
  Ca2+  Ca39  1  0.45140676  0.10279280  0.24623723  1
  Ca2+  Ca40  1  0.11092789  0.59661074  0.92655840  1
  Ca2+  Ca41  1  0.28469483  0.58349181  0.09675833  1
  Ca2+  Ca42  1  0.39931839  0.08835344  0.91787349  1
  Ca2+  Ca43  1  0.56332648  0.58446996  0.40752955  1
  Ca2+  Ca44  1  0.06365776  0.59404331  0.26852495  1
  Ca2+  Ca45  1  0.23766004  0.58270460  0.40169327  1
  Ca2+  Ca46  1  0.24049141  0.09896478  0.72810137  1
  Ca2+  Ca47  1  0.24425663  0.08324373  0.07391421  1
  Ca2+  Ca48  1  0.60180452  0.09370477  0.73751142  1
  Ca2+  Ca49  1  0.46155275  0.10326823  0.24253396  1
  Ca2+  Ca50  1  0.71393769  0.11924072  0.24210525  1
  Ca2+  Ca51  1  0.24681579  0.58088804  0.40560099  1
  Ca2+  Ca52  1  0.55307056  0.58431855  0.40550012  1
  Ca2+  Ca53  1  0.76095730  0.10206942  0.58315302  1
  Ca2+  Ca54  1  0.23377707  0.10007495  0.43972572  1
  Ca2+  Ca55  1  0.08827296  0.10812586  0.58263824  1
  Ca2+  Ca56  1  0.73565407  0.58026712  0.96428141  1
  Ca2+  Ca57  1  0.40833614  0.08525659  0.92164185  1
  Ca2+  Ca58  1  0.59270138  0.09081591  0.73354872  1
  Ca2+  Ca59  1  0.78567813  0.11844559  0.90626472  1
  Ca2+  Ca60  1  0.92701553  0.57749687  0.71539820  1
  Ca2+  Ca61  1  0.84874694  0.58855628  0.13953135  1
  Ca2+  Ca62  1  0.77648932  0.58345029  0.56968463  1
  Ca2+  Ca63  1  0.57449683  0.58403656  0.08957743  1
  Ca2+  Ca64  1  0.89196644  0.09085418  0.06719453  1
  Ca2+  Ca65  1  0.23326320  0.10437898  0.72658166  1
  Ca2+  Ca66  1  0.90571090  0.11653890  0.75312665  1
  Ca2+  Ca67  1  0.72909741  0.58608587  0.96581863  1
  Ca2+  Ca68  1  0.04895602  0.11112087  0.89648630  1
  Ca2+  Ca69  1  0.92126980  0.09955788  0.43058030  1
  Ca2+  Ca70  1  0.76436894  0.58211823  0.57385201  1
  Ca2+  Ca71  1  0.60210358  0.10411340  0.40749289  1
  Ca2+  Ca72  1  0.07856047  0.90433546  0.92209239  1
  Ca2+  Ca73  1  0.41878144  0.89290940  0.58958123  1
  Ca2+  Ca74  1  0.58681367  0.39791790  0.75844631  1
  Ca2+  Ca75  1  0.23753323  0.90065119  0.08576388  1
  Ca2+  Ca76  1  0.58958662  0.89796874  0.08237904  1
  Ca2+  Ca77  1  0.73469935  0.89847047  0.92434190  1
  Ca2+  Ca78  1  0.25856976  0.90917438  0.41951183  1
  Ca2+  Ca79  1  0.75637091  0.90500850  0.58348977  1
  Ca2+  Ca80  1  0.42978209  0.42479334  0.95532873  1
  Ca2+  Ca81  1  0.89770735  0.90343922  0.08931584  1
  Ca2+  Ca82  1  0.58495193  0.90238902  0.42266446  1
  Ca2+  Ca83  1  0.60226302  0.89839535  0.08379922  1
  Ca2+  Ca84  1  0.09096085  0.90285091  0.92012487  1
  Ca2+  Ca85  1  0.27661849  0.41586624  0.10336142  1
  Ca2+  Ca86  1  0.08167848  0.41226718  0.56932704  1
  Ca2+  Ca87  1  0.57330332  0.90203925  0.42259406  1
  Ca2+  Ca88  1  0.90872179  0.90326329  0.08685413  1
  Ca2+  Ca89  1  0.91680940  0.90581244  0.41756454  1
  Ca2+  Ca90  1  0.42777602  0.89472571  0.90089097  1
  Ca2+  Ca91  1  0.08096937  0.90834335  0.25245445  1
  Ca2+  Ca92  1  0.90800108  0.90647363  0.73957327  1
  Ca2+  Ca93  1  0.91916979  0.90605276  0.73824244  1
  Ca2+  Ca94  1  0.08065873  0.42825973  0.28736488  1
  Ca2+  Ca95  1  0.07581563  0.90554503  0.58329337  1
  Ca2+  Ca96  1  0.24881370  0.90125327  0.08578548  1
  Ca2+  Ca97  1  0.41912633  0.90768765  0.25353266  1
  Ca2+  Ca98  1  0.08688207  0.39637472  0.91960138  1
  Ca2+  Ca99  1  0.74693509  0.40395097  0.92978455  1
  Ca2+  Ca100  1  0.25651484  0.41171014  0.74467380  1
  Ca2+  Ca101  1  0.24379707  0.41188606  0.74453418  1
  Ca2+  Ca102  1  0.58790638  0.41003489  0.40405518  1
  Ca2+  Ca103  1  0.24576620  0.41599668  0.41008499  1
  Ca2+  Ca104  1  0.24775195  0.90870687  0.41848492  1
  Ca2+  Ca105  1  0.92826822  0.90564055  0.41803484  1
  Ca2+  Ca106  1  0.90236089  0.40651315  0.09009290  1
  Ca2+  Ca107  1  0.57755986  0.40978951  0.40436163  1
  Mn3.34+  Mn108  1  0.08087946  0.33216663  0.08782202  1
  Mn3.34+  Mn109  1  0.07844018  0.33967025  0.42047439  1
  Mn3.34+  Mn110  1  0.07362464  0.33962259  0.74576091  1
  Mn3.34+  Mn111  1  0.07729520  0.82544785  0.08998091  1
  Mn3.34+  Mn112  1  0.08671887  0.83025693  0.41760002  1
  Mn3.34+  Mn113  1  0.08976275  0.82887974  0.74825727  1
  Mn3.34+  Mn114  1  0.42533620  0.33951680  0.08937818  1
  Mn3.34+  Mn115  1  0.41497570  0.34241111  0.41559070  1
  Mn3.34+  Mn116  1  0.41837880  0.33859075  0.75378034  1
  Mn3.34+  Mn117  1  0.41853825  0.82649692  0.08292139  1
  Mn3.34+  Mn118  1  0.41576093  0.82814637  0.41762137  1
  Mn3.34+  Mn119  1  0.41689676  0.83118815  0.75056528  1
  Mn3.34+  Mn120  1  0.74674816  0.34130003  0.08978804  1
  Mn3.34+  Mn121  1  0.76028179  0.34324069  0.41929043  1
  Mn3.34+  Mn122  1  0.75743801  0.34111646  0.74857456  1
  Mn3.34+  Mn123  1  0.75148415  0.82264116  0.08682650  1
  Mn3.34+  Mn124  1  0.74948757  0.82956414  0.41142038  1
  Mn3.34+  Mn125  1  0.74227136  0.82580324  0.75146293  1
  Mn3.34+  Mn126  1  0.24758636  0.34352181  0.25216657  1
  Mn3.34+  Mn127  1  0.24984673  0.33857952  0.57936930  1
  Mn3.34+  Mn128  1  0.25186469  0.33148887  0.91295251  1
  Mn3.34+  Mn129  1  0.25087029  0.83069492  0.25043620  1
  Mn3.34+  Mn130  1  0.24769932  0.83024390  0.58853844  1
  Mn3.34+  Mn131  1  0.25618921  0.83136338  0.91128562  1
  Mn3.34+  Mn132  1  0.58784966  0.33820687  0.24315929  1
  Mn3.34+  Mn133  1  0.58739054  0.33149323  0.58089298  1
  Mn3.34+  Mn134  1  0.58592256  0.33507122  0.92207232  1
  Mn3.34+  Mn135  1  0.58298141  0.82776397  0.24838369  1
  Mn3.34+  Mn136  1  0.58684413  0.83015471  0.58990365  1
  Mn3.34+  Mn137  1  0.57934032  0.82559603  0.90896231  1
  Mn3.34+  Mn138  1  0.91072096  0.34366573  0.25433546  1
  Mn3.34+  Mn139  1  0.91587427  0.33816158  0.58410347  1
  Mn3.34+  Mn140  1  0.91648474  0.33404470  0.91675168  1
  Mn3.34+  Mn141  1  0.91682565  0.82985893  0.25156184  1
  Mn3.34+  Mn142  1  0.91587577  0.83074083  0.57814972  1
  Mn3.34+  Mn143  1  0.91379163  0.82781719  0.90930224  1
  Mn3.34+  Mn144  1  0.91746601  0.67352981  0.91624948  1
  Mn3.34+  Mn145  1  0.74919600  0.66210731  0.75454027  1
  Mn3.34+  Mn146  1  0.91597561  0.16708990  0.58495087  1
  Mn3.34+  Mn147  1  0.56857949  0.65897158  0.90740159  1
  Mn3.34+  Mn148  1  0.75293571  0.18231602  0.41883160  1
  Mn3.34+  Mn149  1  0.07631323  0.65629691  0.42421667  1
  Mn3.34+  Mn150  1  0.09195163  0.65792350  0.74551336  1
  Mn3.34+  Mn151  1  0.40758626  0.17130175  0.42190731  1
  Mn3.34+  Mn152  1  0.59233577  0.16087851  0.91997565  1
  Mn3.34+  Mn153  1  0.73520912  0.65531282  0.75430868  1
  Mn3.34+  Mn154  1  0.25330991  0.16795902  0.25298263  1
  Mn3.34+  Mn155  1  0.41447617  0.18769773  0.75040874  1
  Mn3.34+  Mn156  1  0.91165847  0.17487874  0.25176190  1
  Mn3.34+  Mn157  1  0.23995322  0.16214850  0.25048794  1
  Mn3.34+  Mn158  1  0.75899596  0.65616564  0.40604836  1
  Mn3.34+  Mn159  1  0.25195710  0.66334526  0.57849491  1
  Mn3.34+  Mn160  1  0.41807642  0.17364228  0.08618452  1
  Mn3.34+  Mn161  1  0.41108348  0.66498954  0.41798213  1
  Mn3.34+  Mn162  1  0.74775271  0.66049817  0.40511108  1
  Mn3.34+  Mn163  1  0.08219024  0.17088949  0.41888429  1
  Mn3.34+  Mn164  1  0.92054910  0.16892812  0.24977914  1
  Mn3.34+  Mn165  1  0.08265353  0.66358589  0.74378537  1
  Mn3.34+  Mn166  1  0.07490833  0.16437598  0.08973189  1
  Mn3.34+  Mn167  1  0.41952048  0.66073527  0.08465803  1
  Mn3.34+  Mn168  1  0.42384523  0.18246715  0.75022093  1
  Mn3.34+  Mn169  1  0.57959343  0.16764766  0.92271093  1
  Mn3.34+  Mn170  1  0.08477993  0.66698188  0.09364957  1
  Mn3.34+  Mn171  1  0.92733788  0.66680724  0.91367927  1
  Mn3.34+  Mn172  1  0.57650562  0.66489087  0.58461881  1
  Mn3.34+  Mn173  1  0.24837244  0.66036070  0.24564421  1
  Mn3.34+  Mn174  1  0.24882084  0.17162264  0.91731826  1
  Mn3.34+  Mn175  1  0.42019900  0.16691419  0.42529683  1
  Mn3.34+  Mn176  1  0.08742734  0.17061373  0.08539550  1
  Mn3.34+  Mn177  1  0.58893833  0.17110697  0.57829007  1
  Mn3.34+  Mn178  1  0.74725591  0.17200369  0.08884014  1
  Mn3.34+  Mn179  1  0.57630168  0.66079185  0.24188060  1
  Mn3.34+  Mn180  1  0.42204778  0.00202200  0.41234389  1
  Mn3.34+  Mn181  1  0.75426827  -0.00166775  0.75560028  1
  Mn3.34+  Mn182  1  0.06662920  0.50002962  0.09914068  1
  Mn3.34+  Mn183  1  0.26517101  0.50672836  0.92845514  1
  Mn3.34+  Mn184  1  0.07388358  0.00125312  0.08435180  1
  Mn3.34+  Mn185  1  0.75749260  0.00797233  0.42402796  1
  Mn3.34+  Mn186  1  0.07775944  -0.00074236  0.74236276  1
  Mn3.34+  Mn187  1  0.09126151  -0.00778189  0.74142694  1
  Mn3.34+  Mn188  1  0.25965604  0.00001275  0.58883746  1
  Mn3.34+  Mn189  1  0.41968469  0.00085264  0.75014125  1
  Mn3.34+  Mn190  1  0.74401512  0.00238764  0.09058667  1
  Mn3.34+  Mn191  1  0.58519782  0.50102755  0.26508866  1
  Mn3.34+  Mn192  1  0.57792211  0.49939122  0.92300571  1
  Mn3.34+  Mn193  1  0.56975379  0.49822633  0.59940205  1
  Mn3.34+  Mn194  1  0.07976617  0.50617850  0.09997757  1
  Mn3.34+  Mn195  1  0.07999619  0.49814959  0.74260351  1
  Mn3.34+  Mn196  1  0.25379445  0.49865037  0.92712015  1
  Mn3.34+  Mn197  1  0.57799025  0.00510502  0.57989857  1
  Mn3.34+  Mn198  1  0.59454595  -0.00194847  0.24916740  1
  Mn3.34+  Mn199  1  0.24589017  0.00485737  0.26311434  1
  Mn3.34+  Mn200  1  0.42083087  0.49937401  0.75692705  1
  Mn3.34+  Mn201  1  0.92187142  0.00713207  0.25221015  1
  Mn3.34+  Mn202  1  0.90817474  -0.00394760  0.91938420  1
  Mn3.34+  Mn203  1  0.42130379  0.00292695  0.08369263  1
  Mn3.34+  Mn204  1  0.43334889  -0.00028070  0.08264059  1
  Mn3.34+  Mn205  1  0.59348010  -0.00174608  0.91367658  1
  Mn3.34+  Mn206  1  0.23992002  0.00049120  0.91534458  1
  Mn3.34+  Mn207  1  0.91793417  0.49119658  0.58294132  1
  Mn3.34+  Mn208  1  0.25643714  0.50403998  0.59196677  1
  Mn3.34+  Mn209  1  0.07844500  0.00228534  0.42208809  1
  Mn3.34+  Mn210  1  0.58023002  0.49401428  0.59763708  1
  Mn3.34+  Mn211  1  0.91542912  0.50644100  0.90672484  1
  Mn3.34+  Mn212  1  0.75241163  0.49964619  0.74762351  1
  Mn3.34+  Mn213  1  0.74705211  0.00330371  0.42295105  1
  Mn3.34+  Mn214  1  0.74075268  -0.00848972  0.75413335  1
  Mn3.34+  Mn215  1  0.92906294  0.49980030  0.90626439  1
  O2-  O216  1  -0.00627695  0.14813406  0.01197539  1
  O2-  O217  1  -0.00646109  0.15885153  0.33884265  1
  O2-  O218  1  -0.00578726  0.15199345  0.65916797  1
  O2-  O219  1  0.00384943  0.65492275  -0.00080811  1
  O2-  O220  1  0.00510359  0.67176627  0.34234015  1
  O2-  O221  1  -0.00699517  0.65914560  0.67725600  1
  O2-  O222  1  0.33034313  0.15184138  0.00203073  1
  O2-  O223  1  0.34204269  0.13011131  0.32882962  1
  O2-  O224  1  0.33251533  0.16467596  0.67317154  1
  O2-  O225  1  0.33835678  0.65132359  0.00953550  1
  O2-  O226  1  0.32783701  0.65311343  0.33664713  1
  O2-  O227  1  0.32812564  0.67482349  0.65862760  1
  O2-  O228  1  0.67202809  0.15263774  0.00020035  1
  O2-  O229  1  0.66759245  0.18437765  0.34198942  1
  O2-  O230  1  0.66596016  0.15356338  0.65956481  1
  O2-  O231  1  0.65901512  0.66912852  -0.01775997  1
  O2-  O232  1  0.66338875  0.65255794  0.32760818  1
  O2-  O233  1  0.67027658  0.64204961  0.65231927  1
  O2-  O234  1  0.16014062  0.13928009  -0.01131999  1
  O2-  O235  1  0.16782279  0.15067057  0.33601176  1
  O2-  O236  1  0.16272609  0.16332277  0.66790763  1
  O2-  O237  1  0.16991097  0.65238065  0.01637088  1
  O2-  O238  1  0.16865566  0.65717416  0.33087216  1
  O2-  O239  1  0.16857112  0.64320124  0.66040960  1
  O2-  O240  1  0.49698102  0.14142741  -0.00575336  1
  O2-  O241  1  0.50275167  0.16044110  0.34580008  1
  O2-  O242  1  0.50281870  0.15324514  0.66738139  1
  O2-  O243  1  0.50559296  0.66758263  0.00399000  1
  O2-  O244  1  0.50422639  0.66645750  0.33794660  1
  O2-  O245  1  0.50409897  0.67952543  0.66298074  1
  O2-  O246  1  0.82944565  0.17460611  0.01167857  1
  O2-  O247  1  0.82735538  0.15868952  0.32871477  1
  O2-  O248  1  0.83156311  0.16575477  0.65739036  1
  O2-  O249  1  0.83408361  0.65536776  -0.00897602  1
  O2-  O250  1  0.83624782  0.68372388  0.33429727  1
  O2-  O251  1  0.82672188  0.64034963  0.67452254  1
  O2-  O252  1  -0.00462646  0.35102613  0.00706755  1
  O2-  O253  1  -0.00135173  0.33673974  0.33221583  1
  O2-  O254  1  0.00428169  0.35691255  0.66081360  1
  O2-  O255  1  -0.00878463  0.84994959  -0.00021915  1
  O2-  O256  1  0.00310674  0.84336414  0.33281558  1
  O2-  O257  1  -0.00358398  0.84444577  0.66688468  1
  O2-  O258  1  0.33427893  0.34070475  -0.00317097  1
  O2-  O259  1  0.33292771  0.34922818  0.33251230  1
  O2-  O260  1  0.33111211  0.34586001  0.67133465  1
  O2-  O261  1  0.33560347  0.85935868  -0.00118125  1
  O2-  O262  1  0.33361529  0.85230860  0.33444432  1
  O2-  O263  1  0.33748498  0.82222948  0.66302059  1
  O2-  O264  1  0.67335488  0.32770619  0.00399174  1
  O2-  O265  1  0.66615668  0.32498139  0.33597432  1
  O2-  O266  1  0.66509892  0.34560546  0.66971285  1
  O2-  O267  1  0.66373221  0.82964931  0.00093098  1
  O2-  O268  1  0.65798758  0.84107077  0.33787116  1
  O2-  O269  1  0.66877004  0.85096323  0.66774618  1
  O2-  O270  1  0.17099356  0.33764824  -0.00093813  1
  O2-  O271  1  0.16534041  0.34338847  0.33523536  1
  O2-  O272  1  0.16823491  0.34959646  0.66865652  1
  O2-  O273  1  0.16177305  0.84611730  0.00321094  1
  O2-  O274  1  0.16799469  0.85330977  0.33518838  1
  O2-  O275  1  0.16541397  0.85341590  0.66591535  1
  O2-  O276  1  0.49965986  0.34395017  -0.00081679  1
  O2-  O277  1  0.50843865  0.33207020  0.33332713  1
  O2-  O278  1  0.49831226  0.33299371  0.66960842  1
  O2-  O279  1  0.50526207  0.83975490  0.00301982  1
  O2-  O280  1  0.50021535  0.84479836  0.33303500  1
  O2-  O281  1  0.49621888  0.82043807  0.66312049  1
  O2-  O282  1  0.83032266  0.32959147  0.00485803  1
  O2-  O283  1  0.83678146  0.30325603  0.33747020  1
  O2-  O284  1  0.83789301  0.34134396  0.66907639  1
  O2-  O285  1  0.83052049  0.84273685  -0.00498651  1
  O2-  O286  1  0.84187419  0.84131185  0.33838669  1
  O2-  O287  1  0.83312169  0.84444288  0.66520654  1
  O2-  O288  1  0.00761366  0.19555393  0.18117160  1
  O2-  O289  1  0.00006023  0.17815416  0.49862313  1
  O2-  O290  1  -0.00026164  0.17364212  0.82774603  1
  O2-  O291  1  0.00699714  0.68244569  0.17244872  1
  O2-  O292  1  0.00916057  0.67126710  0.50283063  1
  O2-  O293  1  0.01073642  0.69247111  0.83952463  1
  O2-  O294  1  0.32785397  0.18257672  0.17016721  1
  O2-  O295  1  0.32717183  0.17705969  0.49714974  1
  O2-  O296  1  0.34429175  0.18929214  0.84823771  1
  O2-  O297  1  0.33109641  0.67406334  0.16650509  1
  O2-  O298  1  0.33186966  0.68283937  0.49711688  1
  O2-  O299  1  0.33544381  0.69230911  0.80685993  1
  O2-  O300  1  0.67032035  0.19511441  0.16392558  1
  O2-  O301  1  0.67026986  0.18872121  0.50230455  1
  O2-  O302  1  0.66259130  0.17764913  0.83400760  1
  O2-  O303  1  0.65235249  0.68151594  0.16999853  1
  O2-  O304  1  0.66110689  0.65477319  0.48690222  1
  O2-  O305  1  0.65969609  0.68424222  0.82993425  1
  O2-  O306  1  0.17288263  0.18810116  0.15513479  1
  O2-  O307  1  0.16050552  0.17760173  0.49544467  1
  O2-  O308  1  0.17228414  0.17996965  0.83765327  1
  O2-  O309  1  0.16683311  0.68708941  0.17118501  1
  O2-  O310  1  0.17545527  0.66900303  0.48909900  1
  O2-  O311  1  0.16916629  0.67475852  0.82378861  1
  O2-  O312  1  0.48807571  0.18594219  0.17631039  1
  O2-  O313  1  0.49774109  0.18938959  0.50843495  1
  O2-  O314  1  0.50697841  0.18951601  0.83225185  1
  O2-  O315  1  0.49702312  0.68961383  0.16934210  1
  O2-  O316  1  0.50056296  0.68017758  0.49634167  1
  O2-  O317  1  0.50028196  0.69425992  0.84026705  1
  O2-  O318  1  0.83580711  0.19684714  0.16883583  1
  O2-  O319  1  0.83857959  0.18779073  0.49377091  1
  O2-  O320  1  0.83730605  0.18269994  0.82624268  1
  O2-  O321  1  0.84905356  0.67876748  0.17646176  1
  O2-  O322  1  0.82295895  0.67108838  0.50119599  1
  O2-  O323  1  0.83949324  0.69212415  0.83247203  1
  O2-  O324  1  -0.00437791  0.31315256  0.16570958  1
  O2-  O325  1  0.00647252  0.32151276  0.50722959  1
  O2-  O326  1  0.00232675  0.33550103  0.83754546  1
  O2-  O327  1  -0.00278691  0.81063572  0.17156444  1
  O2-  O328  1  -0.00147720  0.82180142  0.49436559  1
  O2-  O329  1  0.00267949  0.81723178  0.83438087  1
  O2-  O330  1  0.33175042  0.32821834  0.16601085  1
  O2-  O331  1  0.32949963  0.33147958  0.49378621  1
  O2-  O332  1  0.33105022  0.30865542  0.82754580  1
  O2-  O333  1  0.33261341  0.83417860  0.16266372  1
  O2-  O334  1  0.33173156  0.82687522  0.49656552  1
  O2-  O335  1  0.33666696  0.82061931  0.83403686  1
  O2-  O336  1  0.66674507  0.31728680  0.16404323  1
  O2-  O337  1  0.66702202  0.31511249  0.49819498  1
  O2-  O338  1  0.66753665  0.32440790  0.84132305  1
  O2-  O339  1  0.66059369  0.81573485  0.16190998  1
  O2-  O340  1  0.66392925  0.83773789  0.49814449  1
  O2-  O341  1  0.66953578  0.80738969  0.84228438  1
  O2-  O342  1  0.16901887  0.31635846  0.16514693  1
  O2-  O343  1  0.16120060  0.32783803  0.50549278  1
  O2-  O344  1  0.16841440  0.32032781  0.83077063  1
  O2-  O345  1  0.17015566  0.82603642  0.16595969  1
  O2-  O346  1  0.17150532  0.83856848  0.49569862  1
  O2-  O347  1  0.16269016  0.81749983  0.84296648  1
  O2-  O348  1  0.50300089  0.31794404  0.16841347  1
  O2-  O349  1  0.50359331  0.31802767  0.49424814  1
  O2-  O350  1  0.50373938  0.31769287  0.82816528  1
  O2-  O351  1  0.49946839  0.81442001  0.16736533  1
  O2-  O352  1  0.50455746  0.82017340  0.49472947  1
  O2-  O353  1  0.49374377  0.81235872  0.83530270  1
  O2-  O354  1  0.83203510  0.32183914  0.16611296  1
  O2-  O355  1  0.83292813  0.31917834  0.50284246  1
  O2-  O356  1  0.83249747  0.32962583  0.83806091  1
  O2-  O357  1  0.84152360  0.82133659  0.16259670  1
  O2-  O358  1  0.83146142  0.82590727  0.49675024  1
  O2-  O359  1  0.83812058  0.81254913  0.82397092  1
  O2-  O360  1  0.09381608  0.08398286  0.11729228  1
  O2-  O361  1  0.07957138  0.08343619  0.44494568  1
  O2-  O362  1  0.10833988  0.07504367  0.78250809  1
  O2-  O363  1  0.08148796  0.58552515  0.12476279  1
  O2-  O364  1  0.09493880  0.57993716  0.42262478  1
  O2-  O365  1  0.06798800  0.57935611  0.78741552  1
  O2-  O366  1  0.41363519  0.08488276  0.11618758  1
  O2-  O367  1  0.42190200  0.08375082  0.45651225  1
  O2-  O368  1  0.42164460  0.08930440  0.78676339  1
  O2-  O369  1  0.43121282  0.58580426  0.11142939  1
  O2-  O370  1  0.42187356  0.58556131  0.43339893  1
  O2-  O371  1  0.41538814  0.56579741  0.80532693  1
  O2-  O372  1  0.75813700  0.08442166  0.11895331  1
  O2-  O373  1  0.74767857  0.09028626  0.44010855  1
  O2-  O374  1  0.73154875  0.07639710  0.78986326  1
  O2-  O375  1  0.71845522  0.57612443  0.09254048  1
  O2-  O376  1  0.75717961  0.57506285  0.43614593  1
  O2-  O377  1  0.75981084  0.58070566  0.80945935  1
  O2-  O378  1  0.25366173  0.08262049  0.20950264  1
  O2-  O379  1  0.25522614  0.07934413  0.56665624  1
  O2-  O380  1  0.27106196  0.07856599  0.86595771  1
  O2-  O381  1  0.23502412  0.58208572  0.22658694  1
  O2-  O382  1  0.26386019  0.57966773  0.54716283  1
  O2-  O383  1  0.23864720  0.57441739  0.87207416  1
  O2-  O384  1  0.58858072  0.08265135  0.23366046  1
  O2-  O385  1  0.59006724  0.08730660  0.54138677  1
  O2-  O386  1  0.56775707  0.08092038  0.87180714  1
  O2-  O387  1  0.57446477  0.57390664  0.22381435  1
  O2-  O388  1  0.56611428  0.57371605  0.54453372  1
  O2-  O389  1  0.60166464  0.57582467  0.89194826  1
  O2-  O390  1  0.91662921  0.08706895  0.20379779  1
  O2-  O391  1  0.90100410  0.08441228  0.55933054  1
  O2-  O392  1  0.91671308  0.07858178  0.89331518  1
  O2-  O393  1  0.94915637  0.54621894  0.21082101  1
  O2-  O394  1  0.90670491  0.56458450  0.54644596  1
  O2-  O395  1  0.92722413  0.58383674  0.86524381  1
  O2-  O396  1  0.08559911  0.41810118  0.11430828  1
  O2-  O397  1  0.08781162  0.41887153  0.43161339  1
  O2-  O398  1  0.10633989  0.42250289  0.78744878  1
  O2-  O399  1  0.06793706  0.91440432  0.11144810  1
  O2-  O400  1  0.06976341  0.91974161  0.44839210  1
  O2-  O401  1  0.07296315  0.91666429  0.78932627  1
  O2-  O402  1  0.41715759  0.41692825  0.09698473  1
  O2-  O403  1  0.44571565  0.41741024  0.43298788  1
  O2-  O404  1  0.39447557  0.42532528  0.80028412  1
  O2-  O405  1  0.44185012  0.91705656  0.10708223  1
  O2-  O406  1  0.43443601  0.91797081  0.44840204  1
  O2-  O407  1  0.42059286  0.91810542  0.76429005  1
  O2-  O408  1  0.76080565  0.41723999  0.08665784  1
  O2-  O409  1  0.71903473  0.41827301  0.42988556  1
  O2-  O410  1  0.73057026  0.42265070  0.78934682  1
  O2-  O411  1  0.74773528  0.91192838  0.10543667  1
  O2-  O412  1  0.75271496  0.92118274  0.44367666  1
  O2-  O413  1  0.75918468  0.91433285  0.79495940  1
  O2-  O414  1  0.23037496  0.42012253  0.22998209  1
  O2-  O415  1  0.24211027  0.42544723  0.55879467  1
  O2-  O416  1  0.24877935  0.42198470  0.88077263  1
  O2-  O417  1  0.24059592  0.92441325  0.21465907  1
  O2-  O418  1  0.26889179  0.92011791  0.55845977  1
  O2-  O419  1  0.22903775  0.91659748  0.89301135  1
  O2-  O420  1  0.59631634  0.42412871  0.24939999  1
  O2-  O421  1  0.58124882  0.41729596  0.54670388  1
  O2-  O422  1  0.56597964  0.42212287  0.89015944  1
  O2-  O423  1  0.57590149  0.91817310  0.21271138  1
  O2-  O424  1  0.56753909  0.91983575  0.55908788  1
  O2-  O425  1  0.58351957  0.91378380  0.89600041  1
  O2-  O426  1  0.93327213  0.41799657  0.22155523  1
  O2-  O427  1  0.92829647  0.41884755  0.54406970  1
  O2-  O428  1  0.90515557  0.41985046  0.91076581  1
  O2-  O429  1  0.93124882  0.92324714  0.21490860  1
  O2-  O430  1  0.91426853  0.91718529  0.54888967  1
  O2-  O431  1  0.92233934  0.91703194  0.87398926  1
  O2-  O432  1  0.02626734  -0.00627300  -0.03275842  1
  O2-  O433  1  -0.00869372  -0.01392900  0.34898352  1
  O2-  O434  1  -0.00425392  -0.02578306  0.66977566  1
  O2-  O435  1  0.00234031  0.50728324  -0.00158780  1
  O2-  O436  1  0.00165233  0.50797450  0.30382802  1
  O2-  O437  1  0.00265153  0.50040760  0.65473196  1
  O2-  O438  1  0.33150643  0.01893205  0.00382090  1
  O2-  O439  1  0.32944288  -0.02203776  0.34403620  1
  O2-  O440  1  0.32174669  0.02373878  0.68399292  1
  O2-  O441  1  0.32622351  0.49722446  0.02445432  1
  O2-  O442  1  0.30484082  0.49914568  0.37717928  1
  O2-  O443  1  0.33103369  0.49947219  0.68854161  1
  O2-  O444  1  0.65192238  -0.02023156  0.01640010  1
  O2-  O445  1  0.64310612  -0.00474177  0.36481296  1
  O2-  O446  1  0.67320624  0.01205405  0.65979677  1
  O2-  O447  1  0.67451968  0.48897695  -0.03019030  1
  O2-  O448  1  0.65062718  0.51263970  0.35057318  1
  O2-  O449  1  0.67784894  0.52131179  0.65204383  1
  O2-  O450  1  0.18337681  -0.01487067  0.02854994  1
  O2-  O451  1  0.17623148  -0.01121000  0.36175413  1
  O2-  O452  1  0.15483876  0.00693787  0.64523870  1
  O2-  O453  1  0.15918798  0.50464619  0.00346917  1
  O2-  O454  1  0.16807834  0.50365580  0.34191306  1
  O2-  O455  1  0.17577499  0.49193339  0.67640787  1
  O2-  O456  1  0.48268572  0.00914971  -0.02658843  1
  O2-  O457  1  0.48388554  0.00685851  0.30471622  1
  O2-  O458  1  0.50658174  0.02906340  0.67333891  1
  O2-  O459  1  0.50442326  0.50945668  -0.00543980  1
  O2-  O460  1  0.50343197  0.50076918  0.33798536  1
  O2-  O461  1  0.51584422  0.47770024  0.70063849  1
  O2-  O462  1  0.85771148  -0.00908873  0.03322926  1
  O2-  O463  1  0.83696263  -0.00019422  0.34154148  1
  O2-  O464  1  0.83599648  -0.02124112  0.67742164  1
  O2-  O465  1  0.83397002  0.51684122  -0.01323556  1
  O2-  O466  1  0.85717642  0.51049002  0.31402788  1
  O2-  O467  1  0.83460892  0.51050246  0.65813877  1
  O2-  O468  1  0.92633732  0.25423807  0.60618577  1
  O2-  O469  1  0.07580234  0.24672739  0.04371252  1
  O2-  O470  1  0.74632348  0.74046778  0.71129033  1
  O2-  O471  1  0.75232375  0.25989304  0.73943075  1
  O2-  O472  1  0.08313190  0.74788854  0.05538565  1
  O2-  O473  1  0.41543588  0.25228760  0.05909009  1
  O2-  O474  1  0.72709391  0.74392911  0.41540295  1
  O2-  O475  1  0.40208189  0.25142593  0.39100062  1
  O2-  O476  1  0.91226898  0.75139102  0.59241370  1
  O2-  O477  1  0.08624447  0.25123466  0.39571912  1
  O2-  O478  1  0.25623729  0.75508609  0.94300951  1
  O2-  O479  1  0.25121027  0.24836799  0.28142286  1
  O2-  O480  1  0.92684070  0.25629609  0.92665075  1
  O2-  O481  1  0.57271223  0.24772315  0.95038800  1
  O2-  O482  1  0.39991623  0.75009211  0.06006475  1
  O2-  O483  1  0.75894695  0.74596906  0.07032710  1
  O2-  O484  1  0.40717577  0.75038466  0.39006078  1
  O2-  O485  1  0.22555497  0.74865118  0.59040500  1
  O2-  O486  1  0.09064653  0.74557316  0.71244645  1
  O2-  O487  1  0.09904878  0.75140403  0.40570666  1
  O2-  O488  1  0.06984673  0.26123322  0.73107653  1
  O2-  O489  1  0.58564370  0.24953238  0.61289989  1
  O2-  O490  1  0.61285815  0.74673839  0.58427429  1
  O2-  O491  1  0.25580764  0.75109050  0.27566697  1
  O2-  O492  1  0.25388385  0.26066166  0.59406413  1
