# generated using pymatgen
data_Ca108Mn108O277
_symmetry_space_group_name_H-M   'P 1'
_cell_length_a   16.02980911
_cell_length_b   22.30930447
_cell_length_c   16.39165808
_cell_angle_alpha   89.99705788
_cell_angle_beta   90.00028200
_cell_angle_gamma   89.99888988
_symmetry_Int_Tables_number   1
_chemical_formula_structural   Ca108Mn108O277
_chemical_formula_sum   'Ca108 Mn108 O277'
_cell_volume   5861.88463354
_cell_formula_units_Z   1
loop_
 _symmetry_equiv_pos_site_id
 _symmetry_equiv_pos_as_xyz
  1  'x, y, z'
loop_
 _atom_type_symbol
 _atom_type_oxidation_number
  Ca2+  2.0
  Mn3.34+  3.34
  O2-  -2.0
loop_
 _atom_site_type_symbol
 _atom_site_label
 _atom_site_symmetry_multiplicity
 _atom_site_fract_x
 _atom_site_fract_y
 _atom_site_fract_z
 _atom_site_occupancy
  Ca2+  Ca0  1  0.07760551  0.25971769  0.25229738  1
  Ca2+  Ca1  1  0.08323856  0.22020544  0.59859233  1
  Ca2+  Ca2  1  0.05695216  0.23620813  0.89727925  1
  Ca2+  Ca3  1  0.07473555  0.76068480  0.23806970  1
  Ca2+  Ca4  1  0.07478946  0.75682141  0.58737142  1
  Ca2+  Ca5  1  0.08435840  0.76539159  0.92639443  1
  Ca2+  Ca6  1  0.42977398  0.24704711  0.24939889  1
  Ca2+  Ca7  1  0.40142747  0.23851918  0.57859805  1
  Ca2+  Ca8  1  0.42004817  0.25222395  0.91737974  1
  Ca2+  Ca9  1  0.41417098  0.75244539  0.24720845  1
  Ca2+  Ca10  1  0.42885908  0.75999351  0.58584718  1
  Ca2+  Ca11  1  0.41805637  0.75620572  0.91427945  1
  Ca2+  Ca12  1  0.74481547  0.25928691  0.24625496  1
  Ca2+  Ca13  1  0.75653981  0.23552907  0.59550003  1
  Ca2+  Ca14  1  0.76301260  0.22299564  0.90914106  1
  Ca2+  Ca15  1  0.76186480  0.75094976  0.25763940  1
  Ca2+  Ca16  1  0.74530642  0.75998097  0.58808513  1
  Ca2+  Ca17  1  0.75360787  0.76494398  0.90400588  1
  Ca2+  Ca18  1  0.23742381  0.25431939  0.08426718  1
  Ca2+  Ca19  1  0.23674774  0.24272045  0.44036758  1
  Ca2+  Ca20  1  0.22439676  0.24130954  0.73714551  1
  Ca2+  Ca21  1  0.24920021  0.75001362  0.08531870  1
  Ca2+  Ca22  1  0.26491778  0.75748468  0.40224787  1
  Ca2+  Ca23  1  0.26508203  0.75319735  0.76701956  1
  Ca2+  Ca24  1  0.59633794  0.23995362  0.08690161  1
  Ca2+  Ca25  1  0.59671036  0.24697987  0.41897764  1
  Ca2+  Ca26  1  0.61402129  0.24437966  0.74707910  1
  Ca2+  Ca27  1  0.56878871  0.76191609  0.07878936  1
  Ca2+  Ca28  1  0.58505112  0.76196061  0.41230049  1
  Ca2+  Ca29  1  0.58694496  0.76279082  0.75492307  1
  Ca2+  Ca30  1  0.91159861  0.23627424  0.06354669  1
  Ca2+  Ca31  1  0.90821486  0.25137192  0.43177993  1
  Ca2+  Ca32  1  0.91065371  0.23712128  0.74557341  1
  Ca2+  Ca33  1  0.92781122  0.75293595  0.09125770  1
  Ca2+  Ca34  1  0.90360436  0.75187746  0.40044162  1
  Ca2+  Ca35  1  0.90027391  0.75795181  0.75511142  1
  Ca2+  Ca36  1  0.22642200  0.09196106  0.44722482  1
  Ca2+  Ca37  1  0.89805458  0.09863778  0.75366986  1
  Ca2+  Ca38  1  0.05210339  0.60861057  0.24077656  1
  Ca2+  Ca39  1  0.25119368  0.58635796  0.39465023  1
  Ca2+  Ca40  1  0.58231570  0.08256515  0.40914068  1
  Ca2+  Ca41  1  0.04894944  0.10306334  0.90699969  1
  Ca2+  Ca42  1  0.07814921  0.07357774  0.28191255  1
  Ca2+  Ca43  1  0.04418997  0.57403486  0.59674106  1
  Ca2+  Ca44  1  0.93347207  0.08300762  0.42637053  1
  Ca2+  Ca45  1  0.58766618  0.60016672  0.74907624  1
  Ca2+  Ca46  1  0.76600429  0.58059613  0.59974776  1
  Ca2+  Ca47  1  0.77397789  0.60561577  0.25501265  1
  Ca2+  Ca48  1  0.09011745  0.60323891  0.91120522  1
  Ca2+  Ca49  1  0.76023623  0.58688844  0.90291544  1
  Ca2+  Ca50  1  0.59352162  0.60248622  0.41023026  1
  Ca2+  Ca51  1  0.75248397  0.08541033  0.60442308  1
  Ca2+  Ca52  1  0.07865828  0.60215943  0.91000228  1
  Ca2+  Ca53  1  0.91283455  0.59357206  0.74705165  1
  Ca2+  Ca54  1  0.24763765  0.59047726  0.74930254  1
  Ca2+  Ca55  1  0.26018151  0.59054307  0.75114415  1
  Ca2+  Ca56  1  0.24854076  0.08466832  0.07449299  1
  Ca2+  Ca57  1  0.58529462  0.60544644  0.40125996  1
  Ca2+  Ca58  1  0.58138161  0.59991884  0.10551526  1
  Ca2+  Ca59  1  0.42072818  0.59308301  0.91943488  1
  Ca2+  Ca60  1  0.41404517  0.08577893  0.58808024  1
  Ca2+  Ca61  1  0.62429716  0.09919728  0.75711943  1
  Ca2+  Ca62  1  0.73110821  0.08200687  0.24849156  1
  Ca2+  Ca63  1  0.77372466  0.57505275  0.60048357  1
  Ca2+  Ca64  1  0.44630527  0.08333088  0.26207624  1
  Ca2+  Ca65  1  0.42550809  0.60594671  0.24864395  1
  Ca2+  Ca66  1  0.23698525  0.09058364  0.71788683  1
  Ca2+  Ca67  1  0.72158879  0.08541444  0.24578713  1
  Ca2+  Ca68  1  0.74741988  0.58703596  0.90245574  1
  Ca2+  Ca69  1  0.57185632  0.60128672  0.10162321  1
  Ca2+  Ca70  1  0.90826960  0.08754390  0.05852948  1
  Ca2+  Ca71  1  0.91266176  0.59076198  0.40803555  1
  Ca2+  Ca72  1  0.43070381  0.40212205  0.58754004  1
  Ca2+  Ca73  1  0.74814303  0.41279173  0.58885369  1
  Ca2+  Ca74  1  0.26291556  0.90785938  0.74683465  1
  Ca2+  Ca75  1  0.89854253  0.40337678  0.08808444  1
  Ca2+  Ca76  1  0.07006636  0.91202965  0.57969902  1
  Ca2+  Ca77  1  0.24072561  0.40977649  0.41898575  1
  Ca2+  Ca78  1  0.58135372  0.40852642  0.07368885  1
  Ca2+  Ca79  1  0.07707777  0.40508602  0.91047507  1
  Ca2+  Ca80  1  0.73201933  0.91106954  0.26122355  1
  Ca2+  Ca81  1  0.90623506  0.42514957  0.72627507  1
  Ca2+  Ca82  1  0.42277199  0.40270267  0.91894021  1
  Ca2+  Ca83  1  0.25062554  0.90319916  0.41935277  1
  Ca2+  Ca84  1  0.91694738  0.40842424  0.42888825  1
  Ca2+  Ca85  1  0.42494942  0.40960244  0.24618521  1
  Ca2+  Ca86  1  0.91588952  0.90378437  0.07979603  1
  Ca2+  Ca87  1  0.74084193  0.40408458  0.90583767  1
  Ca2+  Ca88  1  0.59146723  0.40350151  0.41792173  1
  Ca2+  Ca89  1  0.42134115  0.90423119  0.90993188  1
  Ca2+  Ca90  1  0.90982828  0.40329057  0.08693904  1
  Ca2+  Ca91  1  0.08984739  0.40556308  0.91120753  1
  Ca2+  Ca92  1  0.59290792  0.40838000  0.07520535  1
  Ca2+  Ca93  1  0.89660705  0.42809967  0.72960092  1
  Ca2+  Ca94  1  0.26364036  0.40517259  0.07526559  1
  Ca2+  Ca95  1  0.92235136  0.91005867  0.40819263  1
  Ca2+  Ca96  1  0.24073588  0.90595755  0.07889022  1
  Ca2+  Ca97  1  0.24731595  0.40803391  0.74849890  1
  Ca2+  Ca98  1  0.23093708  0.40628223  0.42263473  1
  Ca2+  Ca99  1  0.41789685  0.40164293  0.58716727  1
  Ca2+  Ca100  1  0.41219778  0.40757421  0.24500666  1
  Ca2+  Ca101  1  0.08278236  0.91013896  0.57920696  1
  Ca2+  Ca102  1  0.74308942  0.91233020  0.26143875  1
  Ca2+  Ca103  1  0.75867895  0.41268315  0.58841718  1
  Ca2+  Ca104  1  0.07196350  0.41252624  0.25919988  1
  Ca2+  Ca105  1  0.27450767  0.91027266  0.74894255  1
  Ca2+  Ca106  1  0.26011430  0.40796702  0.74886018  1
  Ca2+  Ca107  1  0.44391129  0.91030130  0.26599478  1
  Mn3.34+  Mn108  1  0.08164101  0.33041225  0.08512986  1
  Mn3.34+  Mn109  1  0.07640281  0.33096364  0.42045305  1
  Mn3.34+  Mn110  1  0.07896965  0.33147322  0.74448619  1
  Mn3.34+  Mn111  1  0.08267672  0.83880864  0.08292040  1
  Mn3.34+  Mn112  1  0.08357787  0.83755039  0.41500549  1
  Mn3.34+  Mn113  1  0.07941681  0.82823910  0.75418683  1
  Mn3.34+  Mn114  1  0.41969614  0.32034343  0.08210254  1
  Mn3.34+  Mn115  1  0.41724059  0.32442504  0.41726605  1
  Mn3.34+  Mn116  1  0.42357748  0.32773559  0.75418949  1
  Mn3.34+  Mn117  1  0.41663704  0.83578304  0.08481276  1
  Mn3.34+  Mn118  1  0.42262903  0.83541753  0.42091297  1
  Mn3.34+  Mn119  1  0.42858415  0.83697480  0.74823754  1
  Mn3.34+  Mn120  1  0.74945182  0.32965490  0.08166051  1
  Mn3.34+  Mn121  1  0.75202379  0.33168167  0.41627009  1
  Mn3.34+  Mn122  1  0.74954306  0.33345451  0.75247653  1
  Mn3.34+  Mn123  1  0.74567950  0.83716950  0.08258756  1
  Mn3.34+  Mn124  1  0.74718066  0.83391677  0.42538648  1
  Mn3.34+  Mn125  1  0.74663448  0.84519852  0.74775920  1
  Mn3.34+  Mn126  1  0.24904028  0.33474263  0.24790547  1
  Mn3.34+  Mn127  1  0.24568982  0.32922848  0.58330404  1
  Mn3.34+  Mn128  1  0.25090708  0.32943692  0.91453473  1
  Mn3.34+  Mn129  1  0.24998501  0.83251428  0.24566518  1
  Mn3.34+  Mn130  1  0.25077371  0.82924311  0.57930991  1
  Mn3.34+  Mn131  1  0.24881248  0.83656404  0.91799930  1
  Mn3.34+  Mn132  1  0.58850474  0.33314243  0.24992324  1
  Mn3.34+  Mn133  1  0.58705388  0.32694993  0.58479172  1
  Mn3.34+  Mn134  1  0.58672335  0.32495343  0.91132249  1
  Mn3.34+  Mn135  1  0.58445934  0.83401016  0.24304516  1
  Mn3.34+  Mn136  1  0.58584617  0.84958803  0.58206805  1
  Mn3.34+  Mn137  1  0.58766177  0.83446978  0.91799240  1
  Mn3.34+  Mn138  1  0.91120422  0.33557616  0.25578257  1
  Mn3.34+  Mn139  1  0.91927562  0.33199886  0.58370755  1
  Mn3.34+  Mn140  1  0.91444863  0.33250635  0.90829546  1
  Mn3.34+  Mn141  1  0.91660874  0.83329822  0.24727516  1
  Mn3.34+  Mn142  1  0.90830186  0.83922862  0.58233908  1
  Mn3.34+  Mn143  1  0.91532731  0.83526753  0.91415532  1
  Mn3.34+  Mn144  1  0.91801923  0.16024499  0.58463405  1
  Mn3.34+  Mn145  1  0.58185765  0.66661252  0.58026409  1
  Mn3.34+  Mn146  1  0.41213241  0.66935743  0.08321943  1
  Mn3.34+  Mn147  1  0.08007402  0.16433005  0.42415615  1
  Mn3.34+  Mn148  1  0.92116905  0.16020045  0.24836028  1
  Mn3.34+  Mn149  1  0.24632242  0.16399292  0.91583592  1
  Mn3.34+  Mn150  1  0.91554442  0.67112669  0.57958963  1
  Mn3.34+  Mn151  1  0.74884780  0.66912596  0.74834320  1
  Mn3.34+  Mn152  1  0.58191554  0.66808841  0.91453187  1
  Mn3.34+  Mn153  1  0.74688623  0.67076494  0.08349742  1
  Mn3.34+  Mn154  1  0.75292902  0.67186004  0.42333795  1
  Mn3.34+  Mn155  1  0.58279310  0.16821872  0.24908404  1
  Mn3.34+  Mn156  1  0.42810241  0.16038655  0.08116471  1
  Mn3.34+  Mn157  1  0.25747725  0.16407372  0.24659782  1
  Mn3.34+  Mn158  1  0.42953596  0.15598885  0.75945145  1
  Mn3.34+  Mn159  1  0.75598345  0.67650754  0.08125123  1
  Mn3.34+  Mn160  1  0.24700715  0.16907987  0.24893262  1
  Mn3.34+  Mn161  1  0.07784654  0.67708200  0.41951513  1
  Mn3.34+  Mn162  1  0.74291569  0.16311188  0.07415365  1
  Mn3.34+  Mn163  1  0.41882832  0.67455111  0.41534386  1
  Mn3.34+  Mn164  1  0.25843804  0.67639323  0.57886767  1
  Mn3.34+  Mn165  1  0.24948028  0.66706079  0.24368108  1
  Mn3.34+  Mn166  1  0.42093053  0.16242885  0.75736237  1
  Mn3.34+  Mn167  1  0.08191893  0.68040115  0.74784219  1
  Mn3.34+  Mn168  1  0.08039983  0.16306025  0.08505179  1
  Mn3.34+  Mn169  1  0.08609787  0.67085202  0.42184807  1
  Mn3.34+  Mn170  1  0.08339630  0.67240253  0.08713550  1
  Mn3.34+  Mn171  1  0.25712639  0.15993675  0.91334583  1
  Mn3.34+  Mn172  1  0.42126280  0.66804119  0.74945207  1
  Mn3.34+  Mn173  1  0.41919612  0.16119347  0.41992840  1
  Mn3.34+  Mn174  1  0.58448728  0.16391337  0.57708705  1
  Mn3.34+  Mn175  1  0.75058191  0.16228687  0.42163501  1
  Mn3.34+  Mn176  1  0.24732148  0.66795081  0.57603553  1
  Mn3.34+  Mn177  1  0.91671770  0.67091214  0.91772152  1
  Mn3.34+  Mn178  1  0.91092435  0.16507949  0.25074289  1
  Mn3.34+  Mn179  1  0.25380406  0.67042651  0.92242320  1
  Mn3.34+  Mn180  1  0.91292761  -0.00813776  0.92822894  1
  Mn3.34+  Mn181  1  0.42245941  0.50400917  0.41949495  1
  Mn3.34+  Mn182  1  0.42769079  -0.00537562  0.41528567  1
  Mn3.34+  Mn183  1  0.24086112  -0.00686391  0.25914378  1
  Mn3.34+  Mn184  1  0.25645507  -0.00426810  0.59100334  1
  Mn3.34+  Mn185  1  0.25370475  -0.00049866  0.25705330  1
  Mn3.34+  Mn186  1  0.40927951  0.50397714  0.08319726  1
  Mn3.34+  Mn187  1  0.58566898  0.00459064  0.90521403  1
  Mn3.34+  Mn188  1  0.07365019  0.00217037  0.75679198  1
  Mn3.34+  Mn189  1  0.58006365  0.49870113  0.91902457  1
  Mn3.34+  Mn190  1  0.07651873  0.50169350  0.42175361  1
  Mn3.34+  Mn191  1  0.06492222  -0.00482903  0.75608828  1
  Mn3.34+  Mn192  1  0.42792207  0.49812768  0.75029705  1
  Mn3.34+  Mn193  1  0.07997594  0.00153377  0.08014581  1
  Mn3.34+  Mn194  1  0.08156876  0.50237335  0.75169708  1
  Mn3.34+  Mn195  1  0.24223454  0.00044520  0.92409027  1
  Mn3.34+  Mn196  1  0.91581779  0.49930994  0.91274450  1
  Mn3.34+  Mn197  1  0.07956488  0.50748263  0.08719391  1
  Mn3.34+  Mn198  1  0.09368075  0.50146488  0.08810623  1
  Mn3.34+  Mn199  1  0.41666857  0.50238281  0.42961673  1
  Mn3.34+  Mn200  1  0.74627415  -0.00226167  0.07241197  1
  Mn3.34+  Mn201  1  0.23753192  0.50095599  0.25047109  1
  Mn3.34+  Mn202  1  0.92233908  -0.00188228  0.25866652  1
  Mn3.34+  Mn203  1  0.74321832  -0.00062389  0.41673355  1
  Mn3.34+  Mn204  1  0.42252517  0.00191366  0.07871580  1
  Mn3.34+  Mn205  1  0.59719035  -0.00204031  0.90614517  1
  Mn3.34+  Mn206  1  0.91510410  0.50379497  0.25537937  1
  Mn3.34+  Mn207  1  0.75565266  0.50391688  0.08667027  1
  Mn3.34+  Mn208  1  0.57397135  0.50069526  0.58226670  1
  Mn3.34+  Mn209  1  0.57892685  0.00401621  0.60442874  1
  Mn3.34+  Mn210  1  0.89890594  -0.00288903  0.60167883  1
  Mn3.34+  Mn211  1  0.25971821  0.50182814  0.92075606  1
  Mn3.34+  Mn212  1  0.43593281  -0.00403340  0.07951710  1
  Mn3.34+  Mn213  1  0.60425940  0.49534675  0.26062585  1
  Mn3.34+  Mn214  1  0.25218621  0.50447648  0.58621994  1
  Mn3.34+  Mn215  1  0.74945654  0.50269386  0.41344706  1
  O2-  O216  1  -0.00175621  0.15764619  0.01013162  1
  O2-  O217  1  0.00087707  0.15218046  0.33043605  1
  O2-  O218  1  -0.00681018  0.15320249  0.66156332  1
  O2-  O219  1  0.00394696  0.65502239  -0.00390682  1
  O2-  O220  1  -0.00232704  0.66278241  0.34132597  1
  O2-  O221  1  0.00188228  0.66952636  0.66030027  1
  O2-  O222  1  0.33380136  0.15425103  0.00090701  1
  O2-  O223  1  0.34374501  0.15615070  0.32426709  1
  O2-  O224  1  0.33998614  0.16849967  0.67716010  1
  O2-  O225  1  0.33693325  0.64857469  -0.00367026  1
  O2-  O226  1  0.33416563  0.65445670  0.33485366  1
  O2-  O227  1  0.33216538  0.65506420  0.66695624  1
  O2-  O228  1  0.66494695  0.17695593  0.00203863  1
  O2-  O229  1  0.66641602  0.15019912  0.33483737  1
  O2-  O230  1  0.66409983  0.15526822  0.65343012  1
  O2-  O231  1  0.66974043  0.65170256  -0.00188809  1
  O2-  O232  1  0.67796049  0.65786390  0.33574873  1
  O2-  O233  1  0.67459487  0.64802534  0.65591106  1
  O2-  O234  1  0.16368911  0.14270664  -0.00020483  1
  O2-  O235  1  0.17074245  0.14751264  0.33256163  1
  O2-  O236  1  0.17181133  0.16530474  0.66716081  1
  O2-  O237  1  0.16289632  0.65692353  -0.00513406  1
  O2-  O238  1  0.16600808  0.65906583  0.33693462  1
  O2-  O239  1  0.17080929  0.67318159  0.66812824  1
  O2-  O240  1  0.48602490  0.21093328  0.01523744  1
  O2-  O241  1  0.50227693  0.16566632  0.33526812  1
  O2-  O242  1  0.49587314  0.15855248  0.66265794  1
  O2-  O243  1  0.50414845  0.64861599  0.00204692  1
  O2-  O244  1  0.50147227  0.66359589  0.33656320  1
  O2-  O245  1  0.51187764  0.66936231  0.67333973  1
  O2-  O246  1  0.82975930  0.15965548  0.00704686  1
  O2-  O247  1  0.83082801  0.13730814  0.33214163  1
  O2-  O248  1  0.83332577  0.15912490  0.65540361  1
  O2-  O249  1  0.82772750  0.64947425  -0.00265710  1
  O2-  O250  1  0.83575039  0.66022305  0.35087648  1
  O2-  O251  1  0.83742667  0.65668740  0.66870546  1
  O2-  O252  1  -0.00637593  0.35561305  0.00181306  1
  O2-  O253  1  0.00049030  0.34800069  0.33306147  1
  O2-  O254  1  -0.01005289  0.35350871  0.67641547  1
  O2-  O255  1  -0.00193446  0.83904318  0.00264425  1
  O2-  O256  1  -0.00276395  0.83598141  0.33871777  1
  O2-  O257  1  0.00172464  0.82909666  0.66103807  1
  O2-  O258  1  0.33750114  0.33696276  -0.00270259  1
  O2-  O259  1  0.33053136  0.35198155  0.33864532  1
  O2-  O260  1  0.33579268  0.34402168  0.66660040  1
  O2-  O261  1  0.33384605  0.85509188  0.00001073  1
  O2-  O262  1  0.33378404  0.84922951  0.32893046  1
  O2-  O263  1  0.32590458  0.83530221  0.67080204  1
  O2-  O264  1  0.66421328  0.34079832  0.00024399  1
  O2-  O265  1  0.66711750  0.34668322  0.33434416  1
  O2-  O266  1  0.66864116  0.35022695  0.66467371  1
  O2-  O267  1  0.67009338  0.81533731  0.00158984  1
  O2-  O268  1  0.66956286  0.83185285  0.32592800  1
  O2-  O269  1  0.66382045  0.82741115  0.66501038  1
  O2-  O270  1  0.16520349  0.35367330  0.00156060  1
  O2-  O271  1  0.16416848  0.35510942  0.32890893  1
  O2-  O272  1  0.17025712  0.34924649  0.66871763  1
  O2-  O273  1  0.16652239  0.84224272  -0.00010688  1
  O2-  O274  1  0.16958531  0.82926142  0.33823111  1
  O2-  O275  1  0.16300776  0.82455957  0.66181740  1
  O2-  O276  1  0.50481452  0.33553327  0.00185835  1
  O2-  O277  1  0.49346418  0.34448044  0.32873530  1
  O2-  O278  1  0.49490540  0.33436933  0.66078370  1
  O2-  O279  1  0.49783861  0.84262088  -0.00063166  1
  O2-  O280  1  0.50529946  0.83061897  0.32826466  1
  O2-  O281  1  0.50557844  0.82499806  0.66374653  1
  O2-  O282  1  0.83141712  0.35197681  -0.00837237  1
  O2-  O283  1  0.83932813  0.34767965  0.34512442  1
  O2-  O284  1  0.83063275  0.34883526  0.66619304  1
  O2-  O285  1  0.83413934  0.83432306  0.00612546  1
  O2-  O286  1  0.83169499  0.84524070  0.32806443  1
  O2-  O287  1  0.83315271  0.82317849  0.66404396  1
  O2-  O288  1  0.00048597  0.18780457  0.16984319  1
  O2-  O289  1  -0.00805217  0.17902540  0.49217868  1
  O2-  O290  1  -0.02128531  0.17218789  0.82976247  1
  O2-  O291  1  0.00700460  0.68474052  0.16357926  1
  O2-  O292  1  -0.00530247  0.69807724  0.49850971  1
  O2-  O293  1  0.00316369  0.67481729  0.83390182  1
  O2-  O294  1  0.33196430  0.19041917  0.16240403  1
  O2-  O295  1  0.33507623  0.17969858  0.48700588  1
  O2-  O296  1  0.34239254  0.19135975  0.83398101  1
  O2-  O297  1  0.33807676  0.67843304  0.16935535  1
  O2-  O298  1  0.33429551  0.68561763  0.49431479  1
  O2-  O299  1  0.32786385  0.66951698  0.82932813  1
  O2-  O300  1  0.67287786  0.17369912  0.17741938  1
  O2-  O301  1  0.66444898  0.17817134  0.49361447  1
  O2-  O302  1  0.67487952  0.17736708  0.82687281  1
  O2-  O303  1  0.66105141  0.69139560  0.15431519  1
  O2-  O304  1  0.65823718  0.68412490  0.49487532  1
  O2-  O305  1  0.66773831  0.67450827  0.83415656  1
  O2-  O306  1  0.16907697  0.17988959  0.16360005  1
  O2-  O307  1  0.16063592  0.17310835  0.49691714  1
  O2-  O308  1  0.16761670  0.17912589  0.83705415  1
  O2-  O309  1  0.16445745  0.68570785  0.17037083  1
  O2-  O310  1  0.16588823  0.69841594  0.49906454  1
  O2-  O311  1  0.16631745  0.68157546  0.83398637  1
  O2-  O312  1  0.49967216  0.18268593  0.17078599  1
  O2-  O313  1  0.49854541  0.18546938  0.49875937  1
  O2-  O314  1  0.50951750  0.19097878  0.82303144  1
  O2-  O315  1  0.49990113  0.67965709  0.15686973  1
  O2-  O316  1  0.50288295  0.68858040  0.49697161  1
  O2-  O317  1  0.49746920  0.66425617  0.83706562  1
  O2-  O318  1  0.82898079  0.17092661  0.17265341  1
  O2-  O319  1  0.83349546  0.17628228  0.49490893  1
  O2-  O320  1  0.83580678  0.16968859  0.82368547  1
  O2-  O321  1  0.82890944  0.68700536  0.16566394  1
  O2-  O322  1  0.82545068  0.68747437  0.51289408  1
  O2-  O323  1  0.82983866  0.67421976  0.83567657  1
  O2-  O324  1  -0.00533341  0.32563992  0.16534773  1
  O2-  O325  1  -0.01071300  0.32397599  0.49360051  1
  O2-  O326  1  0.01371740  0.32540743  0.84571321  1
  O2-  O327  1  -0.00375483  0.82782136  0.16182855  1
  O2-  O328  1  0.00390324  0.82177029  0.50245492  1
  O2-  O329  1  -0.00095034  0.80836599  0.83161017  1
  O2-  O330  1  0.33979443  0.31838316  0.17169660  1
  O2-  O331  1  0.33518449  0.31876729  0.50211510  1
  O2-  O332  1  0.33058576  0.31731395  0.82437592  1
  O2-  O333  1  0.33008656  0.81915847  0.16115341  1
  O2-  O334  1  0.33144264  0.81646360  0.49956024  1
  O2-  O335  1  0.33444078  0.82622412  0.83634635  1
  O2-  O336  1  0.65835123  0.32699412  0.15548691  1
  O2-  O337  1  0.66499146  0.33046876  0.49900943  1
  O2-  O338  1  0.67798124  0.31665789  0.84163956  1
  O2-  O339  1  0.66828249  0.81149036  0.16872200  1
  O2-  O340  1  0.66583168  0.81862855  0.50264981  1
  O2-  O341  1  0.66722261  0.82384242  0.83280542  1
  O2-  O342  1  0.16958348  0.32465799  0.16590297  1
  O2-  O343  1  0.17427436  0.32880202  0.48997565  1
  O2-  O344  1  0.16818906  0.32719976  0.83037998  1
  O2-  O345  1  0.16779624  0.82032796  0.16227671  1
  O2-  O346  1  0.16495035  0.81364068  0.49823811  1
  O2-  O347  1  0.17081170  0.81516058  0.82768044  1
  O2-  O348  1  0.49950730  0.31689687  0.16783170  1
  O2-  O349  1  0.50034220  0.31611719  0.49952258  1
  O2-  O350  1  0.50129490  0.30939480  0.83579358  1
  O2-  O351  1  0.49617729  0.81550884  0.17185062  1
  O2-  O352  1  0.50458267  0.81872918  0.50133528  1
  O2-  O353  1  0.49911069  0.82336655  0.83697896  1
  O2-  O354  1  0.83746706  0.32756958  0.16066821  1
  O2-  O355  1  0.82552118  0.32249574  0.50997090  1
  O2-  O356  1  0.84497368  0.33039128  0.82061510  1
  O2-  O357  1  0.82973988  0.82140240  0.16726991  1
  O2-  O358  1  0.83747839  0.81895520  0.49598149  1
  O2-  O359  1  0.83349782  0.82582497  0.83046691  1
  O2-  O360  1  0.08426552  0.07804967  0.12597765  1
  O2-  O361  1  0.07718003  0.08475216  0.43565114  1
  O2-  O362  1  0.09282024  0.07818937  0.78235885  1
  O2-  O363  1  0.08763241  0.58776142  0.10907779  1
  O2-  O364  1  0.07290333  0.58502281  0.45835018  1
  O2-  O365  1  0.09992907  0.58481192  0.77280707  1
  O2-  O366  1  0.40901729  0.07790328  0.12667863  1
  O2-  O367  1  0.42838694  0.07427637  0.44808403  1
  O2-  O368  1  0.40072166  0.07806311  0.76659278  1
  O2-  O369  1  0.43095435  0.58423690  0.11501636  1
  O2-  O370  1  0.42689539  0.58896245  0.43713430  1
  O2-  O371  1  0.40305520  0.57991342  0.77783304  1
  O2-  O372  1  0.75315836  0.07845953  0.11113133  1
  O2-  O373  1  0.73642991  0.07817472  0.45234002  1
  O2-  O374  1  0.75858660  0.08265075  0.77285620  1
  O2-  O375  1  0.72155643  0.58439290  0.12526873  1
  O2-  O376  1  0.74790151  0.58395608  0.45884029  1
  O2-  O377  1  0.75173644  0.57965535  0.76859510  1
  O2-  O378  1  0.25008874  0.07747092  0.20888295  1
  O2-  O379  1  0.27624612  0.07235662  0.57089554  1
  O2-  O380  1  0.25580746  0.08063884  0.87505581  1
  O2-  O381  1  0.24659784  0.58426796  0.23491078  1
  O2-  O382  1  0.23345250  0.58422750  0.54142598  1
  O2-  O383  1  0.22772317  0.58016238  0.88142066  1
  O2-  O384  1  0.58330233  0.08590560  0.23442032  1
  O2-  O385  1  0.57661096  0.07371858  0.54827957  1
  O2-  O386  1  0.57743146  0.08182669  0.88400287  1
  O2-  O387  1  0.57987831  0.57790539  0.23281094  1
  O2-  O388  1  0.58256271  0.57856904  0.54252897  1
  O2-  O389  1  0.60580906  0.57737984  0.88485064  1
  O2-  O390  1  0.92835363  0.07647892  0.21026003  1
  O2-  O391  1  0.90404738  0.07413228  0.55586129  1
  O2-  O392  1  0.92415944  0.05913244  0.87715199  1
  O2-  O393  1  0.91158399  0.57946759  0.22765710  1
  O2-  O394  1  0.91175177  0.58276426  0.55204618  1
  O2-  O395  1  0.91388891  0.58333190  0.88514161  1
  O2-  O396  1  0.07973957  0.42179650  0.12107700  1
  O2-  O397  1  0.08555997  0.41855466  0.44493075  1
  O2-  O398  1  0.09548224  0.42095296  0.77678027  1
  O2-  O399  1  0.08033099  0.92211805  0.10586714  1
  O2-  O400  1  0.08948098  0.91757265  0.44606789  1
  O2-  O401  1  0.10409343  0.91500335  0.75653508  1
  O2-  O402  1  0.42974746  0.41955059  0.11215986  1
  O2-  O403  1  0.42179707  0.41819442  0.45323890  1
  O2-  O404  1  0.40158801  0.41754368  0.78356094  1
  O2-  O405  1  0.41965625  0.92038209  0.12873826  1
  O2-  O406  1  0.40388472  0.91737558  0.44014215  1
  O2-  O407  1  0.40644899  0.91642261  0.77409949  1
  O2-  O408  1  0.75046606  0.41712695  0.10232052  1
  O2-  O409  1  0.75151298  0.42226879  0.44982710  1
  O2-  O410  1  0.76394588  0.42177435  0.77279430  1
  O2-  O411  1  0.75066063  0.92274686  0.12312835  1
  O2-  O412  1  0.76117223  0.91774639  0.41810019  1
  O2-  O413  1  0.74672368  0.91907257  0.75343745  1
  O2-  O414  1  0.27405620  0.42187470  0.21079883  1
  O2-  O415  1  0.27845104  0.42106375  0.55325554  1
  O2-  O416  1  0.23932677  0.42097829  0.88113229  1
  O2-  O417  1  0.24916528  0.91683835  0.21636677  1
  O2-  O418  1  0.22217703  0.91872470  0.55876208  1
  O2-  O419  1  0.24888112  0.91996711  0.88036721  1
  O2-  O420  1  0.56640048  0.41947017  0.21039209  1
  O2-  O421  1  0.56715227  0.41819509  0.55435573  1
  O2-  O422  1  0.57216769  0.41653357  0.91011962  1
  O2-  O423  1  0.59497895  0.91250512  0.22806808  1
  O2-  O424  1  0.58453942  0.93862524  0.55171461  1
  O2-  O425  1  0.57605007  0.91841552  0.89450642  1
  O2-  O426  1  0.92277313  0.42538157  0.21699025  1
  O2-  O427  1  0.90078599  0.41647198  0.56721554  1
  O2-  O428  1  0.94049721  0.42157667  0.86890796  1
  O2-  O429  1  0.89706217  0.92185788  0.22374340  1
  O2-  O430  1  0.93414994  0.92676819  0.54428715  1
  O2-  O431  1  0.92607829  0.91702579  0.89833366  1
  O2-  O432  1  0.00509729  0.01496887  -0.00284242  1
  O2-  O433  1  -0.01035883  0.00212805  0.34093981  1
  O2-  O434  1  0.00275908  -0.01083365  0.65635193  1
  O2-  O435  1  0.00005236  0.49011543  0.00047115  1
  O2-  O436  1  0.01545855  0.50344223  0.31750256  1
  O2-  O437  1  -0.02022593  0.51089917  0.69716699  1
  O2-  O438  1  0.33536423  -0.00664718  0.00408383  1
  O2-  O439  1  0.33687450  -0.00116392  0.33918509  1
  O2-  O440  1  0.31779141  -0.01284779  0.68034230  1
  O2-  O441  1  0.34720975  0.47869477  -0.00969576  1
  O2-  O442  1  0.33301696  0.48984516  0.33925714  1
  O2-  O443  1  0.31908954  0.49784563  0.69559438  1
  O2-  O444  1  0.66573868  0.00557743  -0.00481248  1
  O2-  O445  1  0.68030855  0.00103321  0.31370365  1
  O2-  O446  1  0.65787957  0.01685793  0.66884426  1
  O2-  O447  1  0.66265153  0.49556205  0.00533659  1
  O2-  O448  1  0.63557234  0.50805059  0.37939483  1
  O2-  O449  1  0.68082854  0.49959038  0.62052278  1
  O2-  O450  1  0.18222571  0.00229064  0.03161853  1
  O2-  O451  1  0.17216085  0.01418024  0.34432468  1
  O2-  O452  1  0.16167021  0.00366830  0.66643844  1
  O2-  O453  1  0.15962905  0.49267920  -0.01016264  1
  O2-  O454  1  0.18251663  0.49416502  0.36455573  1
  O2-  O455  1  0.17655315  0.50474371  0.68481644  1
  O2-  O456  1  0.50026696  -0.00064061  -0.01495225  1
  O2-  O457  1  0.49893642  0.00271035  0.33330720  1
  O2-  O458  1  0.49225241  0.01329438  0.65680126  1
  O2-  O459  1  0.51066330  0.50959545  0.01729041  1
  O2-  O460  1  0.48596229  0.48989639  0.31745469  1
  O2-  O461  1  0.47443942  0.49032870  0.63855143  1
  O2-  O462  1  0.85425238  -0.00665901  0.02741946  1
  O2-  O463  1  0.83026421  0.01212765  0.32639131  1
  O2-  O464  1  0.83302113  0.01744662  0.68075217  1
  O2-  O465  1  0.82155925  0.50145773  -0.01714287  1
  O2-  O466  1  0.84539193  0.50865188  0.34971163  1
  O2-  O467  1  0.82646196  0.49444592  0.65161185  1
  O2-  O468  1  0.40964172  0.74982913  0.05371594  1
  O2-  O469  1  0.91845855  0.24972026  0.60248875  1
  O2-  O470  1  0.75629004  0.25484425  0.73137370  1
  O2-  O471  1  0.91223444  0.25511941  0.93056485  1
  O2-  O472  1  0.75176914  0.75212062  0.39702802  1
  O2-  O473  1  0.26044323  0.74981796  0.26730518  1
  O2-  O474  1  0.07617209  0.25341236  0.73269393  1
  O2-  O475  1  0.90953972  0.74976350  0.94010310  1
  O2-  O476  1  0.24490735  0.24477658  0.94746343  1
  O2-  O477  1  0.23918612  0.25202506  0.28392440  1
  O2-  O478  1  0.08886697  0.24824262  0.05513937  1
  O2-  O479  1  0.41239255  0.75317484  0.38899870  1
  O2-  O480  1  0.24233698  0.25157562  0.59842241  1
  O2-  O481  1  0.59335941  0.25154069  0.27424403  1
  O2-  O482  1  0.90944894  0.24754644  0.28022558  1
  O2-  O483  1  0.91856017  0.75546435  0.26339323  1
  O2-  O484  1  0.75885566  0.24875955  0.07989420  1
  O2-  O485  1  0.75181880  0.24681742  0.38954391  1
  O2-  O486  1  0.74656217  0.74865556  0.73718250  1
  O2-  O487  1  0.08613137  0.25043881  0.39055697  1
  O2-  O488  1  0.41168675  0.74960153  0.74127315  1
  O2-  O489  1  0.59843437  0.24815060  0.60489493  1
  O2-  O490  1  0.56986568  0.74820813  0.93078628  1
  O2-  O491  1  0.08489253  0.75283657  0.06161780  1
  O2-  O492  1  0.26055746  0.75293548  0.94042524  1
