# generated using pymatgen
data_Ca108Mn108O277
_symmetry_space_group_name_H-M   'P 1'
_cell_length_a   16.02567690
_cell_length_b   22.30468936
_cell_length_c   16.38878954
_cell_angle_alpha   89.99821267
_cell_angle_beta   90.00192082
_cell_angle_gamma   89.99835906
_symmetry_Int_Tables_number   1
_chemical_formula_structural   Ca108Mn108O277
_chemical_formula_sum   'Ca108 Mn108 O277'
_cell_volume   5858.13585621
_cell_formula_units_Z   1
loop_
 _symmetry_equiv_pos_site_id
 _symmetry_equiv_pos_as_xyz
  1  'x, y, z'
loop_
 _atom_type_symbol
 _atom_type_oxidation_number
  Ca2+  2.0
  Mn3.34+  3.34
  O2-  -2.0
loop_
 _atom_site_type_symbol
 _atom_site_label
 _atom_site_symmetry_multiplicity
 _atom_site_fract_x
 _atom_site_fract_y
 _atom_site_fract_z
 _atom_site_occupancy
  Ca2+  Ca0  1  0.08053018  0.25684748  0.25027030  1
  Ca2+  Ca1  1  0.08506669  0.26906388  0.58636174  1
  Ca2+  Ca2  1  0.08689570  0.26914716  0.91585049  1
  Ca2+  Ca3  1  0.10120881  0.74678938  0.27253702  1
  Ca2+  Ca4  1  0.11695567  0.73476582  0.57965877  1
  Ca2+  Ca5  1  0.10256532  0.74668860  0.91573837  1
  Ca2+  Ca6  1  0.41801486  0.25780222  0.25590841  1
  Ca2+  Ca7  1  0.41011088  0.23456761  0.59690942  1
  Ca2+  Ca8  1  0.41845350  0.24838937  0.89150704  1
  Ca2+  Ca9  1  0.40228604  0.74459408  0.26545718  1
  Ca2+  Ca10  1  0.39665802  0.75332781  0.58085413  1
  Ca2+  Ca11  1  0.40573313  0.75491026  0.89769966  1
  Ca2+  Ca12  1  0.75335281  0.24874475  0.25952692  1
  Ca2+  Ca13  1  0.74398829  0.24406693  0.59222899  1
  Ca2+  Ca14  1  0.74723554  0.24412022  0.90201900  1
  Ca2+  Ca15  1  0.74148843  0.75344277  0.23825051  1
  Ca2+  Ca16  1  0.73934931  0.76075350  0.59408180  1
  Ca2+  Ca17  1  0.74422207  0.75751135  0.92182076  1
  Ca2+  Ca18  1  0.24913323  0.25839722  0.07509256  1
  Ca2+  Ca19  1  0.25499552  0.25182598  0.44213257  1
  Ca2+  Ca20  1  0.27006323  0.25497226  0.73311503  1
  Ca2+  Ca21  1  0.24345431  0.75338634  0.08740448  1
  Ca2+  Ca22  1  0.25769760  0.75753782  0.42873683  1
  Ca2+  Ca23  1  0.26817225  0.74846748  0.73004742  1
  Ca2+  Ca24  1  0.59637600  0.25081273  0.06946593  1
  Ca2+  Ca25  1  0.59478286  0.24794678  0.43914382  1
  Ca2+  Ca26  1  0.58247608  0.22678623  0.74445145  1
  Ca2+  Ca27  1  0.58747026  0.75260630  0.09228778  1
  Ca2+  Ca28  1  0.54578314  0.74105462  0.40757766  1
  Ca2+  Ca29  1  0.56215991  0.75278132  0.74938166  1
  Ca2+  Ca30  1  0.91910093  0.23474262  0.09818412  1
  Ca2+  Ca31  1  0.88524871  0.23422822  0.41491761  1
  Ca2+  Ca32  1  0.90557349  0.26882371  0.74323502  1
  Ca2+  Ca33  1  0.91359920  0.75338419  0.08809458  1
  Ca2+  Ca34  1  0.95125954  0.74854729  0.41153803  1
  Ca2+  Ca35  1  0.91362636  0.74568984  0.74858709  1
  Ca2+  Ca36  1  0.75197995  0.58391604  0.60521306  1
  Ca2+  Ca37  1  0.10069357  0.58889674  0.25708005  1
  Ca2+  Ca38  1  0.23105180  0.08811568  0.07963309  1
  Ca2+  Ca39  1  0.55190815  0.57106949  0.74572914  1
  Ca2+  Ca40  1  0.11800842  0.08279600  0.57937165  1
  Ca2+  Ca41  1  0.75026830  0.60463561  0.24401578  1
  Ca2+  Ca42  1  0.43504006  0.08254165  0.60803871  1
  Ca2+  Ca43  1  0.92317939  0.58861666  0.08514005  1
  Ca2+  Ca44  1  0.10575009  0.08146941  0.58182892  1
  Ca2+  Ca45  1  0.72207680  0.08112229  0.94264953  1
  Ca2+  Ca46  1  0.25277855  0.59127531  0.08281494  1
  Ca2+  Ca47  1  0.04288577  0.11337205  0.22256243  1
  Ca2+  Ca48  1  0.89699048  0.10064659  0.75102458  1
  Ca2+  Ca49  1  0.40514840  0.58736703  0.89330710  1
  Ca2+  Ca50  1  0.59230489  0.10120914  0.43393085  1
  Ca2+  Ca51  1  0.25464090  0.08154953  0.42771476  1
  Ca2+  Ca52  1  0.41480684  0.08093654  0.26186646  1
  Ca2+  Ca53  1  0.39613592  0.58939387  0.89757164  1
  Ca2+  Ca54  1  0.79228315  0.10371593  0.24258446  1
  Ca2+  Ca55  1  0.88539912  0.10174955  0.75182542  1
  Ca2+  Ca56  1  0.28336043  0.08706251  0.72255296  1
  Ca2+  Ca57  1  0.39431172  0.60282791  0.57862614  1
  Ca2+  Ca58  1  0.96907228  0.59924246  0.41268342  1
  Ca2+  Ca59  1  0.40393474  0.59253090  0.26716592  1
  Ca2+  Ca60  1  0.23756699  0.61100951  0.42255212  1
  Ca2+  Ca61  1  0.24326417  0.08598967  0.07625516  1
  Ca2+  Ca62  1  0.24344715  0.60634455  0.75052991  1
  Ca2+  Ca63  1  0.73807755  0.10740819  0.57459629  1
  Ca2+  Ca64  1  0.79431265  0.10808099  0.25073838  1
  Ca2+  Ca65  1  0.23306532  0.60669594  0.75207580  1
  Ca2+  Ca66  1  0.10340256  0.58918752  0.91807057  1
  Ca2+  Ca67  1  0.39172185  0.60552210  0.58786510  1
  Ca2+  Ca68  1  0.26438420  0.08452276  0.42494729  1
  Ca2+  Ca69  1  0.91070632  0.58664185  0.08405370  1
  Ca2+  Ca70  1  0.24804742  0.61077438  0.42268304  1
  Ca2+  Ca71  1  0.07813897  0.08379228  0.95043696  1
  Ca2+  Ca72  1  0.41550115  0.41566585  0.60272555  1
  Ca2+  Ca73  1  0.25465225  0.89911481  0.08462639  1
  Ca2+  Ca74  1  0.72868998  0.90534565  0.58191293  1
  Ca2+  Ca75  1  0.58097718  0.41089253  0.75019139  1
  Ca2+  Ca76  1  0.74055829  0.91554270  0.92806612  1
  Ca2+  Ca77  1  0.09542195  0.91782370  0.27970472  1
  Ca2+  Ca78  1  0.42669500  0.41651268  0.60225506  1
  Ca2+  Ca79  1  0.75469426  0.89991295  0.24505930  1
  Ca2+  Ca80  1  0.91695816  0.41157042  0.07431765  1
  Ca2+  Ca81  1  0.76483196  0.40354430  0.24592008  1
  Ca2+  Ca82  1  0.40943900  0.91827934  0.59194322  1
  Ca2+  Ca83  1  0.10182915  0.41783642  0.25690958  1
  Ca2+  Ca84  1  0.27791282  0.91664108  0.73567560  1
  Ca2+  Ca85  1  0.24409777  0.40938151  0.41017141  1
  Ca2+  Ca86  1  0.91345215  0.91526562  0.08033652  1
  Ca2+  Ca87  1  0.90101099  0.91766152  0.08030408  1
  Ca2+  Ca88  1  0.92722653  0.39747834  0.42050735  1
  Ca2+  Ca89  1  0.57736343  0.40051811  0.42402339  1
  Ca2+  Ca90  1  0.90674559  0.89419308  0.75376962  1
  Ca2+  Ca91  1  0.58109142  0.41040937  0.05705956  1
  Ca2+  Ca92  1  0.92942615  0.40931025  0.07652170  1
  Ca2+  Ca93  1  0.38667471  0.41555856  0.25170135  1
  Ca2+  Ca94  1  0.75041686  0.40961649  0.91056760  1
  Ca2+  Ca95  1  0.24055479  0.41561335  0.05592795  1
  Ca2+  Ca96  1  0.93575125  0.89865484  0.41723906  1
  Ca2+  Ca97  1  0.08673982  0.90349284  0.92247356  1
  Ca2+  Ca98  1  0.75204282  0.40387545  0.24563653  1
  Ca2+  Ca99  1  0.40564616  0.41796564  0.89111078  1
  Ca2+  Ca100  1  0.41207862  0.89683431  0.24882652  1
  Ca2+  Ca101  1  0.91960803  0.89450248  0.75258005  1
  Ca2+  Ca102  1  0.57645352  0.89744904  0.42211151  1
  Ca2+  Ca103  1  0.75769778  0.40360970  0.58823166  1
  Ca2+  Ca104  1  0.39817179  0.41221422  0.25499194  1
  Ca2+  Ca105  1  0.60475157  0.91451836  0.06686067  1
  Ca2+  Ca106  1  0.73793306  0.40782104  0.91148563  1
  Ca2+  Ca107  1  0.54634088  0.92821198  0.74454258  1
  Mn3.34+  Mn108  1  0.08383680  0.33250943  0.08299475  1
  Mn3.34+  Mn109  1  0.08465329  0.33346968  0.41838794  1
  Mn3.34+  Mn110  1  0.08567356  0.34370881  0.74898927  1
  Mn3.34+  Mn111  1  0.08232403  0.83201219  0.08906455  1
  Mn3.34+  Mn112  1  0.09456112  0.83736380  0.42630045  1
  Mn3.34+  Mn113  1  0.08849246  0.82401451  0.74940519  1
  Mn3.34+  Mn114  1  0.41815389  0.33038777  0.08198926  1
  Mn3.34+  Mn115  1  0.41574995  0.33239946  0.42257198  1
  Mn3.34+  Mn116  1  0.41811358  0.33465136  0.75059548  1
  Mn3.34+  Mn117  1  0.42034165  0.83114770  0.08033963  1
  Mn3.34+  Mn118  1  0.41058571  0.83435808  0.42106792  1
  Mn3.34+  Mn119  1  0.41640545  0.83346750  0.74995269  1
  Mn3.34+  Mn120  1  0.75042694  0.32820068  0.08309996  1
  Mn3.34+  Mn121  1  0.74991767  0.33083893  0.42175900  1
  Mn3.34+  Mn122  1  0.74764823  0.33130679  0.74755318  1
  Mn3.34+  Mn123  1  0.74870446  0.83311504  0.08434556  1
  Mn3.34+  Mn124  1  0.75116959  0.82640126  0.41833142  1
  Mn3.34+  Mn125  1  0.73877000  0.82936005  0.75522817  1
  Mn3.34+  Mn126  1  0.24507586  0.33301011  0.24543575  1
  Mn3.34+  Mn127  1  0.24729258  0.33259850  0.58621348  1
  Mn3.34+  Mn128  1  0.25014732  0.33992743  0.90885568  1
  Mn3.34+  Mn129  1  0.24990512  0.83305075  0.25259893  1
  Mn3.34+  Mn130  1  0.24735658  0.84197827  0.58401067  1
  Mn3.34+  Mn131  1  0.25174683  0.83427724  0.91156800  1
  Mn3.34+  Mn132  1  0.58073787  0.33536150  0.24768786  1
  Mn3.34+  Mn133  1  0.58439265  0.33068138  0.58655258  1
  Mn3.34+  Mn134  1  0.57975405  0.33557397  0.90945108  1
  Mn3.34+  Mn135  1  0.58103143  0.83182612  0.24973211  1
  Mn3.34+  Mn136  1  0.57673211  0.83703991  0.58205507  1
  Mn3.34+  Mn137  1  0.57623585  0.84335406  0.91187762  1
  Mn3.34+  Mn138  1  0.92240083  0.32652178  0.24836930  1
  Mn3.34+  Mn139  1  0.92100623  0.33537156  0.58422753  1
  Mn3.34+  Mn140  1  0.91918208  0.33591333  0.90895780  1
  Mn3.34+  Mn141  1  0.91973418  0.83001407  0.25034216  1
  Mn3.34+  Mn142  1  0.91821627  0.82645676  0.57864173  1
  Mn3.34+  Mn143  1  0.91893332  0.82770318  0.91696071  1
  Mn3.34+  Mn144  1  0.57620006  0.15603136  0.91192585  1
  Mn3.34+  Mn145  1  0.91505806  0.66453591  0.91032403  1
  Mn3.34+  Mn146  1  0.25125748  0.16677340  0.90898437  1
  Mn3.34+  Mn147  1  0.92244599  0.17063494  0.92423237  1
  Mn3.34+  Mn148  1  0.08080547  0.17010937  0.74834962  1
  Mn3.34+  Mn149  1  0.58182214  0.66213882  0.91749458  1
  Mn3.34+  Mn150  1  0.57559460  0.16561814  0.24698894  1
  Mn3.34+  Mn151  1  0.42956870  0.16543383  0.07802148  1
  Mn3.34+  Mn152  1  0.74710624  0.66588704  0.75652720  1
  Mn3.34+  Mn153  1  0.41924382  0.66778453  0.08742276  1
  Mn3.34+  Mn154  1  0.74895851  0.67253644  0.41899642  1
  Mn3.34+  Mn155  1  0.58266958  0.16078842  0.59050431  1
  Mn3.34+  Mn156  1  0.92108585  0.66991142  0.24635451  1
  Mn3.34+  Mn157  1  0.08177392  0.16600236  0.41480849  1
  Mn3.34+  Mn158  1  0.75797966  0.67867095  0.41777101  1
  Mn3.34+  Mn159  1  0.58582180  0.17054848  0.24932633  1
  Mn3.34+  Mn160  1  0.91110130  0.16985383  0.57986448  1
  Mn3.34+  Mn161  1  0.25077285  0.66511521  0.24361102  1
  Mn3.34+  Mn162  1  0.74727016  0.66865189  0.08528485  1
  Mn3.34+  Mn163  1  0.25085515  0.66878775  0.91901186  1
  Mn3.34+  Mn164  1  0.26116234  0.16138235  0.90786057  1
  Mn3.34+  Mn165  1  0.58716124  0.65157696  0.92102143  1
  Mn3.34+  Mn166  1  0.92448017  0.67021336  0.91175884  1
  Mn3.34+  Mn167  1  0.24605297  0.16491519  0.24422259  1
  Mn3.34+  Mn168  1  0.57816532  0.66767879  0.58259221  1
  Mn3.34+  Mn169  1  0.92311016  0.65608780  0.58633746  1
  Mn3.34+  Mn170  1  0.09127421  0.16507431  0.75145465  1
  Mn3.34+  Mn171  1  0.25946609  0.17165239  0.24736984  1
  Mn3.34+  Mn172  1  0.07137116  0.16111891  0.41678641  1
  Mn3.34+  Mn173  1  0.41714675  0.16725925  0.42409058  1
  Mn3.34+  Mn174  1  0.74476207  0.16387986  0.08341790  1
  Mn3.34+  Mn175  1  0.93329084  0.66053408  0.58772871  1
  Mn3.34+  Mn176  1  0.08602483  0.66990467  0.08633328  1
  Mn3.34+  Mn177  1  0.91268651  0.16490758  0.92434560  1
  Mn3.34+  Mn178  1  0.57504373  0.67079409  0.24733835  1
  Mn3.34+  Mn179  1  0.58848589  0.66289565  0.58034927  1
  Mn3.34+  Mn180  1  0.58937727  0.50078458  0.58390711  1
  Mn3.34+  Mn181  1  0.73635933  0.50809029  0.06913560  1
  Mn3.34+  Mn182  1  0.92214296  -0.00318972  0.57332685  1
  Mn3.34+  Mn183  1  0.92362817  0.49563562  0.59870161  1
  Mn3.34+  Mn184  1  0.92448108  0.49992828  0.91192208  1
  Mn3.34+  Mn185  1  0.42594204  -0.00020106  0.06637154  1
  Mn3.34+  Mn186  1  0.07904446  0.49779515  0.74753615  1
  Mn3.34+  Mn187  1  0.92419169  -0.00261648  0.25856313  1
  Mn3.34+  Mn188  1  0.42964090  0.50644504  0.07229397  1
  Mn3.34+  Mn189  1  0.92482788  0.49877722  0.25592741  1
  Mn3.34+  Mn190  1  0.09174423  0.49749108  0.41409732  1
  Mn3.34+  Mn191  1  0.23218059  0.49829876  0.58313937  1
  Mn3.34+  Mn192  1  0.71916018  0.00186131  0.74572558  1
  Mn3.34+  Mn193  1  0.43645578  0.00819407  0.06493962  1
  Mn3.34+  Mn194  1  0.41278887  0.49868972  0.41538496  1
  Mn3.34+  Mn195  1  0.08645877  -0.00599004  0.75405099  1
  Mn3.34+  Mn196  1  0.59256205  -0.00077918  0.24154727  1
  Mn3.34+  Mn197  1  0.42226263  -0.00171109  0.41875121  1
  Mn3.34+  Mn198  1  0.24860572  -0.00086448  0.26059456  1
  Mn3.34+  Mn199  1  0.75605605  0.50234373  0.74246119  1
  Mn3.34+  Mn200  1  0.57609787  0.50242326  0.24293490  1
  Mn3.34+  Mn201  1  0.41796983  0.50205615  0.07284367  1
  Mn3.34+  Mn202  1  0.91275733  -0.00031869  0.91828483  1
  Mn3.34+  Mn203  1  0.73059305  0.00144046  0.75221825  1
  Mn3.34+  Mn204  1  0.58958295  0.50865828  0.24187464  1
  Mn3.34+  Mn205  1  0.25890686  -0.00468579  0.91433047  1
  Mn3.34+  Mn206  1  0.08141744  -0.00363254  0.08765378  1
  Mn3.34+  Mn207  1  0.08798630  0.50172237  0.08129972  1
  Mn3.34+  Mn208  1  0.09908725  -0.00264729  0.75744216  1
  Mn3.34+  Mn209  1  0.75885036  0.50628869  0.42149998  1
  Mn3.34+  Mn210  1  0.57769955  0.00381419  0.23913886  1
  Mn3.34+  Mn211  1  0.76058636  0.00291749  0.41812742  1
  Mn3.34+  Mn212  1  0.22222728  0.49027114  0.58791362  1
  Mn3.34+  Mn213  1  0.90864821  0.00350220  0.57340426  1
  Mn3.34+  Mn214  1  0.74426925  0.50085956  0.42347208  1
  Mn3.34+  Mn215  1  0.74738886  -0.00414755  0.42044461  1
  O2-  O216  1  0.00858166  0.16802729  -0.00347602  1
  O2-  O217  1  -0.00583504  0.16835078  0.33671367  1
  O2-  O218  1  0.00239030  0.13985158  0.66701220  1
  O2-  O219  1  0.00149742  0.65686904  0.00045649  1
  O2-  O220  1  0.00390136  0.66883868  0.32148072  1
  O2-  O221  1  -0.00144066  0.69781826  0.66175440  1
  O2-  O222  1  0.33426561  0.15519744  0.00609522  1
  O2-  O223  1  0.33329425  0.14565780  0.33115699  1
  O2-  O224  1  0.34039053  0.16043402  0.65627155  1
  O2-  O225  1  0.34259237  0.65090441  -0.00135498  1
  O2-  O226  1  0.32654303  0.65849164  0.32661525  1
  O2-  O227  1  0.33015107  0.65368422  0.67202842  1
  O2-  O228  1  0.66116364  0.16629381  0.00103438  1
  O2-  O229  1  0.66741551  0.14247311  0.32035410  1
  O2-  O230  1  0.66398336  0.16120833  0.66337911  1
  O2-  O231  1  0.66821651  0.67229137  -0.00413761  1
  O2-  O232  1  0.66971196  0.66250007  0.33231213  1
  O2-  O233  1  0.66791614  0.65579464  0.66139101  1
  O2-  O234  1  0.17788050  0.15592463  -0.00256759  1
  O2-  O235  1  0.16577537  0.14406058  0.33072193  1
  O2-  O236  1  0.16938698  0.14871470  0.66806489  1
  O2-  O237  1  0.16876963  0.65323862  0.00566005  1
  O2-  O238  1  0.16890090  0.65720800  0.32130066  1
  O2-  O239  1  0.17115087  0.67712862  0.68428229  1
  O2-  O240  1  0.50205114  0.19341793  -0.00295957  1
  O2-  O241  1  0.49875466  0.14799022  0.33451280  1
  O2-  O242  1  0.49678048  0.16539136  0.66129812  1
  O2-  O243  1  0.50416097  0.67923864  0.00259909  1
  O2-  O244  1  0.49417577  0.66343056  0.32101534  1
  O2-  O245  1  0.50156319  0.64512181  0.66538430  1
  O2-  O246  1  0.82728315  0.14871706  -0.00023326  1
  O2-  O247  1  0.83226092  0.17896450  0.31804843  1
  O2-  O248  1  0.83322967  0.15531164  0.66272318  1
  O2-  O249  1  0.84194878  0.66151028  0.00235880  1
  O2-  O250  1  0.83742903  0.67375171  0.33111445  1
  O2-  O251  1  0.83979849  0.65881416  0.66442840  1
  O2-  O252  1  -0.00191518  0.33996425  0.00005688  1
  O2-  O253  1  0.00684719  0.34000393  0.32564075  1
  O2-  O254  1  0.00114777  0.33946418  0.66555476  1
  O2-  O255  1  -0.00483678  0.84352101  0.00457271  1
  O2-  O256  1  0.00176301  0.83172185  0.33047625  1
  O2-  O257  1  -0.00925667  0.82775886  0.67532694  1
  O2-  O258  1  0.33245717  0.33280397  0.00691032  1
  O2-  O259  1  0.33053700  0.34827807  0.33501031  1
  O2-  O260  1  0.33752121  0.34594828  0.66332283  1
  O2-  O261  1  0.33248732  0.83635798  0.00271597  1
  O2-  O262  1  0.33485419  0.84193091  0.33012891  1
  O2-  O263  1  0.33736882  0.83729271  0.66504858  1
  O2-  O264  1  0.66622407  0.34043093  -0.00402777  1
  O2-  O265  1  0.66679593  0.35586484  0.33209999  1
  O2-  O266  1  0.66499830  0.34987810  0.66782462  1
  O2-  O267  1  0.66621512  0.83967762  -0.00347332  1
  O2-  O268  1  0.67060220  0.84461057  0.33166069  1
  O2-  O269  1  0.66301762  0.84539586  0.66865799  1
  O2-  O270  1  0.16714785  0.33077091  0.00260351  1
  O2-  O271  1  0.16653783  0.34986103  0.32985667  1
  O2-  O272  1  0.16758445  0.33952157  0.66608209  1
  O2-  O273  1  0.16477303  0.84837702  0.00462511  1
  O2-  O274  1  0.16637458  0.84117072  0.33003336  1
  O2-  O275  1  0.17184811  0.82923334  0.67442031  1
  O2-  O276  1  0.50489061  0.32670358  -0.00079817  1
  O2-  O277  1  0.49021636  0.35655483  0.32598215  1
  O2-  O278  1  0.50068961  0.34430334  0.66421523  1
  O2-  O279  1  0.50578761  0.81356589  0.00063490  1
  O2-  O280  1  0.49958489  0.84190630  0.33282305  1
  O2-  O281  1  0.50021584  0.84835548  0.66653367  1
  O2-  O282  1  0.83153383  0.35038978  0.00467716  1
  O2-  O283  1  0.83467242  0.34078691  0.33158358  1
  O2-  O284  1  0.83094377  0.34162664  0.66519168  1
  O2-  O285  1  0.83561348  0.83973338  0.00076872  1
  O2-  O286  1  0.83498211  0.81859832  0.33288404  1
  O2-  O287  1  0.83112715  0.84135346  0.66549044  1
  O2-  O288  1  0.00750104  0.19869420  0.17793460  1
  O2-  O289  1  0.00514909  0.17992564  0.50983028  1
  O2-  O290  1  -0.01270566  0.17809895  0.82071839  1
  O2-  O291  1  -0.00813894  0.68094519  0.15434456  1
  O2-  O292  1  0.00193335  0.67574708  0.50158497  1
  O2-  O293  1  0.00279487  0.69229882  0.83787894  1
  O2-  O294  1  0.34011486  0.18831518  0.16410330  1
  O2-  O295  1  0.32587844  0.17050331  0.48579948  1
  O2-  O296  1  0.32632048  0.17321958  0.81922904  1
  O2-  O297  1  0.33054189  0.68658496  0.15779955  1
  O2-  O298  1  0.32862002  0.67183724  0.50270514  1
  O2-  O299  1  0.33203475  0.67358916  0.84058210  1
  O2-  O300  1  0.66402817  0.18802049  0.16660852  1
  O2-  O301  1  0.65932918  0.17569716  0.50456119  1
  O2-  O302  1  0.65749703  0.18031983  0.84975383  1
  O2-  O303  1  0.67041663  0.67848552  0.17047926  1
  O2-  O304  1  0.66689848  0.69252093  0.50140361  1
  O2-  O305  1  0.65777329  0.68708663  0.83723690  1
  O2-  O306  1  0.17883043  0.18078109  0.15587170  1
  O2-  O307  1  0.16479504  0.16683721  0.49435390  1
  O2-  O308  1  0.14742928  0.18219335  0.85054101  1
  O2-  O309  1  0.16252322  0.67800204  0.16611352  1
  O2-  O310  1  0.18013724  0.68418787  0.48474173  1
  O2-  O311  1  0.16963743  0.67468439  0.84279126  1
  O2-  O312  1  0.49903602  0.19120464  0.16923598  1
  O2-  O313  1  0.49822022  0.17914781  0.49856487  1
  O2-  O314  1  0.50402250  0.18044434  0.84343637  1
  O2-  O315  1  0.49624903  0.69296603  0.16575142  1
  O2-  O316  1  0.49344340  0.67099588  0.50739129  1
  O2-  O317  1  0.49747555  0.67903790  0.84393039  1
  O2-  O318  1  0.82245419  0.18179585  0.16322183  1
  O2-  O319  1  0.82762239  0.18070932  0.51213035  1
  O2-  O320  1  0.83889582  0.17310884  0.83689542  1
  O2-  O321  1  0.83480712  0.68445167  0.16891879  1
  O2-  O322  1  0.84037314  0.68622308  0.50677974  1
  O2-  O323  1  0.83057704  0.68991865  0.84116115  1
  O2-  O324  1  -0.00661010  0.32004738  0.15654706  1
  O2-  O325  1  -0.00289559  0.31856058  0.49171607  1
  O2-  O326  1  -0.00229170  0.31899770  0.83109252  1
  O2-  O327  1  -0.00485430  0.81416408  0.16461489  1
  O2-  O328  1  -0.00210451  0.82069338  0.49693289  1
  O2-  O329  1  -0.00271014  0.81268310  0.83202506  1
  O2-  O330  1  0.33801610  0.31718666  0.17220684  1
  O2-  O331  1  0.33686206  0.32527641  0.50299334  1
  O2-  O332  1  0.34007476  0.32993382  0.83648287  1
  O2-  O333  1  0.33309893  0.82312048  0.16516022  1
  O2-  O334  1  0.33578818  0.83096799  0.50516254  1
  O2-  O335  1  0.32598261  0.82166279  0.82588395  1
  O2-  O336  1  0.67212332  0.32645002  0.16951621  1
  O2-  O337  1  0.66604678  0.33008024  0.50301847  1
  O2-  O338  1  0.66783203  0.31860267  0.83773793  1
  O2-  O339  1  0.66653086  0.82517247  0.16539707  1
  O2-  O340  1  0.66736655  0.82140378  0.50083550  1
  O2-  O341  1  0.66172330  0.81241742  0.83889763  1
  O2-  O342  1  0.16404820  0.31464414  0.16516854  1
  O2-  O343  1  0.17055976  0.32552483  0.49458281  1
  O2-  O344  1  0.16954661  0.32247869  0.83039863  1
  O2-  O345  1  0.16786539  0.82698813  0.16504406  1
  O2-  O346  1  0.16921146  0.82706501  0.50483237  1
  O2-  O347  1  0.15970620  0.81708265  0.84010731  1
  O2-  O348  1  0.50025906  0.31769858  0.16595607  1
  O2-  O349  1  0.50477875  0.32316765  0.49669552  1
  O2-  O350  1  0.50241993  0.31975697  0.83108122  1
  O2-  O351  1  0.49714404  0.82008239  0.16953785  1
  O2-  O352  1  0.50096061  0.81720603  0.49762271  1
  O2-  O353  1  0.49891386  0.82120981  0.83395967  1
  O2-  O354  1  0.83069895  0.31712386  0.17249799  1
  O2-  O355  1  0.83412188  0.32057234  0.49925213  1
  O2-  O356  1  0.82474726  0.32670166  0.84029106  1
  O2-  O357  1  0.83328886  0.81945326  0.16875917  1
  O2-  O358  1  0.83286606  0.80403560  0.50032313  1
  O2-  O359  1  0.83654272  0.81882216  0.83253735  1
  O2-  O360  1  0.10110950  0.07725170  0.10722740  1
  O2-  O361  1  0.08397646  0.07769561  0.44791187  1
  O2-  O362  1  0.07370651  0.07840448  0.79740562  1
  O2-  O363  1  0.06537777  0.58174906  0.11501728  1
  O2-  O364  1  0.10541453  0.57583132  0.43717513  1
  O2-  O365  1  0.10494611  0.56887047  0.78951375  1
  O2-  O366  1  0.40999355  0.07890210  0.12336317  1
  O2-  O367  1  0.41228820  0.07988384  0.44999019  1
  O2-  O368  1  0.41872293  0.06553412  0.74846775  1
  O2-  O369  1  0.41584626  0.58063171  0.12871065  1
  O2-  O370  1  0.37989933  0.57378480  0.44995027  1
  O2-  O371  1  0.39866553  0.56429226  0.77294375  1
  O2-  O372  1  0.74203685  0.08501669  0.12102712  1
  O2-  O373  1  0.73912995  0.08037993  0.44287103  1
  O2-  O374  1  0.76667839  0.07150980  0.80356193  1
  O2-  O375  1  0.76999176  0.58289658  0.11358929  1
  O2-  O376  1  0.75585099  0.58701920  0.45279233  1
  O2-  O377  1  0.74040869  0.58275872  0.76690983  1
  O2-  O378  1  0.26613784  0.07849838  0.20902136  1
  O2-  O379  1  0.23806940  0.06192619  0.54752106  1
  O2-  O380  1  0.23930734  0.07955659  0.88055973  1
  O2-  O381  1  0.25104453  0.58397974  0.22115087  1
  O2-  O382  1  0.23755198  0.57634323  0.55460164  1
  O2-  O383  1  0.25423490  0.58454648  0.88947935  1
  O2-  O384  1  0.56790502  0.08290543  0.20680497  1
  O2-  O385  1  0.58053357  0.08264319  0.56411977  1
  O2-  O386  1  0.58214295  0.08219108  0.90269773  1
  O2-  O387  1  0.58454820  0.58821421  0.22224314  1
  O2-  O388  1  0.60853916  0.58023966  0.55024064  1
  O2-  O389  1  0.54788978  0.57507153  0.88603664  1
  O2-  O390  1  0.91859535  0.07047075  0.21167101  1
  O2-  O391  1  0.91730297  0.08388598  0.55623126  1
  O2-  O392  1  0.93061411  0.08153038  0.88863385  1
  O2-  O393  1  0.90894663  0.58051284  0.21846330  1
  O2-  O394  1  0.90873980  0.57686594  0.54391263  1
  O2-  O395  1  0.94329968  0.58212145  0.89369084  1
  O2-  O396  1  0.06959054  0.42246331  0.11712109  1
  O2-  O397  1  0.07623062  0.41689326  0.43521395  1
  O2-  O398  1  0.07451962  0.42372354  0.78347232  1
  O2-  O399  1  0.05847798  0.91637707  0.11627484  1
  O2-  O400  1  0.07038343  0.91650847  0.42188136  1
  O2-  O401  1  0.05866970  0.91478476  0.77889813  1
  O2-  O402  1  0.42217010  0.42241230  0.11972857  1
  O2-  O403  1  0.42310632  0.41991488  0.45489402  1
  O2-  O404  1  0.43429173  0.41977879  0.75604238  1
  O2-  O405  1  0.41947064  0.92320208  0.11205642  1
  O2-  O406  1  0.43257343  0.91865328  0.44370215  1
  O2-  O407  1  0.41280599  0.91518291  0.76578435  1
  O2-  O408  1  0.76058241  0.42405466  0.11533105  1
  O2-  O409  1  0.75315687  0.41900652  0.44592256  1
  O2-  O410  1  0.74165537  0.42181200  0.77818863  1
  O2-  O411  1  0.76053980  0.91509816  0.10854287  1
  O2-  O412  1  0.76986582  0.91574255  0.44283357  1
  O2-  O413  1  0.76859443  0.92098264  0.78381182  1
  O2-  O414  1  0.25372965  0.41402646  0.21024433  1
  O2-  O415  1  0.25569000  0.41606327  0.55113287  1
  O2-  O416  1  0.26392917  0.41832893  0.91870180  1
  O2-  O417  1  0.25263166  0.92078384  0.22282433  1
  O2-  O418  1  0.26137704  0.92092076  0.59358092  1
  O2-  O419  1  0.23061607  0.91689026  0.87877254  1
  O2-  O420  1  0.59328747  0.42341279  0.20793481  1
  O2-  O421  1  0.57005503  0.41994848  0.56143662  1
  O2-  O422  1  0.59457769  0.41392725  0.88664917  1
  O2-  O423  1  0.58793406  0.91701044  0.21778409  1
  O2-  O424  1  0.58352375  0.91465641  0.55364736  1
  O2-  O425  1  0.59991896  0.91863128  0.88040551  1
  O2-  O426  1  0.90112124  0.41946368  0.20996140  1
  O2-  O427  1  0.90998091  0.41956501  0.55217703  1
  O2-  O428  1  0.89379953  0.41895260  0.90722182  1
  O2-  O429  1  0.90646231  0.92032099  0.21752953  1
  O2-  O430  1  0.90344562  0.91600653  0.55665330  1
  O2-  O431  1  0.92374422  0.91890700  0.88302174  1
  O2-  O432  1  0.00070525  -0.00666617  -0.00000925  1
  O2-  O433  1  0.00890916  -0.00582344  0.31880152  1
  O2-  O434  1  0.00382963  0.00577209  0.66407669  1
  O2-  O435  1  -0.01393743  0.49942377  0.02586779  1
  O2-  O436  1  -0.00248852  0.50908262  0.34843409  1
  O2-  O437  1  0.00716101  0.51856423  0.66869106  1
  O2-  O438  1  0.32169281  0.01159398  0.01777946  1
  O2-  O439  1  0.33248422  0.01383059  0.34114645  1
  O2-  O440  1  0.34423684  0.00229471  0.67131666  1
  O2-  O441  1  0.34258433  0.51926234  -0.01180304  1
  O2-  O442  1  0.34056327  0.48678869  0.32705369  1
  O2-  O443  1  0.34380459  0.50031767  0.62351678  1
  O2-  O444  1  0.67955878  -0.00815303  -0.01315869  1
  O2-  O445  1  0.65905911  -0.00281463  0.33939677  1
  O2-  O446  1  0.66852794  -0.01577561  0.65169024  1
  O2-  O447  1  0.67574774  0.47291042  -0.00932809  1
  O2-  O448  1  0.66758174  0.50134706  0.33128894  1
  O2-  O449  1  0.64894803  0.49881384  0.68503324  1
  O2-  O450  1  0.16779029  0.00400006  0.00421195  1
  O2-  O451  1  0.17187465  0.01753250  0.32944083  1
  O2-  O452  1  0.17162885  0.02069374  0.67681319  1
  O2-  O453  1  0.18315838  0.50976355  0.02964188  1
  O2-  O454  1  0.16673082  0.49352017  0.33533919  1
  O2-  O455  1  0.18200876  0.50215430  0.69405847  1
  O2-  O456  1  0.53197106  -0.01053339  0.01600447  1
  O2-  O457  1  0.49666727  0.00265484  0.32534999  1
  O2-  O458  1  0.48118259  -0.00531432  0.66045860  1
  O2-  O459  1  0.49997249  0.47933515  -0.00959694  1
  O2-  O460  1  0.49994086  0.49365919  0.33009430  1
  O2-  O461  1  0.49277070  0.50893851  0.63365928  1
  O2-  O462  1  0.83470754  -0.01880220  -0.00497609  1
  O2-  O463  1  0.81981180  0.00166988  0.31342682  1
  O2-  O464  1  0.83840220  0.00489075  0.67890543  1
  O2-  O465  1  0.84196807  0.50455442  0.01520638  1
  O2-  O466  1  0.82358996  0.48803438  0.32457320  1
  O2-  O467  1  0.80986564  0.49602976  0.63326699  1
  O2-  O468  1  0.08856274  0.75076747  0.05680744  1
  O2-  O469  1  0.09455453  0.75484572  0.40893584  1
  O2-  O470  1  0.74923891  0.24962520  0.05376559  1
  O2-  O471  1  0.75365087  0.25351216  0.73498102  1
  O2-  O472  1  0.25645344  0.75614864  0.58896807  1
  O2-  O473  1  0.25131411  0.75061377  0.94440635  1
  O2-  O474  1  0.24939385  0.25371502  0.59481197  1
  O2-  O475  1  0.41177639  0.24942011  0.39244109  1
  O2-  O476  1  0.75205510  0.74761959  0.72762365  1
  O2-  O477  1  0.24817976  0.75109613  0.26799872  1
  O2-  O478  1  0.73750588  0.25503218  0.39861506  1
  O2-  O479  1  0.40726608  0.75509286  0.40513116  1
  O2-  O480  1  0.58231768  0.75052331  0.61132650  1
  O2-  O481  1  0.24443172  0.25087407  0.28609250  1
  O2-  O482  1  0.58743694  0.25171713  0.60052611  1
  O2-  O483  1  0.41275316  0.25505661  0.73709901  1
  O2-  O484  1  0.75049435  0.75134804  0.06465118  1
  O2-  O485  1  0.92353854  0.24923630  0.60898674  1
  O2-  O486  1  0.42045257  0.75295020  0.73183016  1
  O2-  O487  1  0.08448092  0.25296024  0.72938267  1
  O2-  O488  1  0.59319160  0.75190644  0.27101809  1
  O2-  O489  1  0.90678056  0.25344513  0.93744051  1
  O2-  O490  1  0.09931551  0.24861347  0.39560764  1
  O2-  O491  1  0.25739252  0.24939036  0.92828763  1
  O2-  O492  1  0.58446246  0.25170616  0.28914611  1
