# generated using pymatgen
data_Ca108Mn108O277
_symmetry_space_group_name_H-M   'P 1'
_cell_length_a   16.01109737
_cell_length_b   22.28469678
_cell_length_c   16.37713100
_cell_angle_alpha   90.00015449
_cell_angle_beta   90.00106377
_cell_angle_gamma   89.99989551
_symmetry_Int_Tables_number   1
_chemical_formula_structural   Ca108Mn108O277
_chemical_formula_sum   'Ca108 Mn108 O277'
_cell_volume   5843.40046632
_cell_formula_units_Z   1
loop_
 _symmetry_equiv_pos_site_id
 _symmetry_equiv_pos_as_xyz
  1  'x, y, z'
loop_
 _atom_type_symbol
 _atom_type_oxidation_number
  Ca2+  2.0
  Mn3.34+  3.34
  O2-  -2.0
loop_
 _atom_site_type_symbol
 _atom_site_label
 _atom_site_symmetry_multiplicity
 _atom_site_fract_x
 _atom_site_fract_y
 _atom_site_fract_z
 _atom_site_occupancy
  Ca2+  Ca0  1  0.08708639  0.26170584  0.25307219  1
  Ca2+  Ca1  1  0.09661449  0.24353205  0.58407881  1
  Ca2+  Ca2  1  0.09600143  0.25215205  0.91552182  1
  Ca2+  Ca3  1  0.09512998  0.74641931  0.24941605  1
  Ca2+  Ca4  1  0.10028000  0.75533148  0.58046797  1
  Ca2+  Ca5  1  0.10121075  0.75034785  0.91997502  1
  Ca2+  Ca6  1  0.43779467  0.24498308  0.26391087  1
  Ca2+  Ca7  1  0.41922388  0.24150938  0.56847670  1
  Ca2+  Ca8  1  0.41222048  0.25560918  0.90680312  1
  Ca2+  Ca9  1  0.42151550  0.74592544  0.23853882  1
  Ca2+  Ca10  1  0.39503104  0.75188918  0.58358502  1
  Ca2+  Ca11  1  0.40324407  0.75234756  0.92303005  1
  Ca2+  Ca12  1  0.72686883  0.24308159  0.26379633  1
  Ca2+  Ca13  1  0.74217755  0.24864998  0.55850927  1
  Ca2+  Ca14  1  0.74228751  0.25998606  0.92451872  1
  Ca2+  Ca15  1  0.73684026  0.75722598  0.26311978  1
  Ca2+  Ca16  1  0.75167251  0.76548186  0.57940473  1
  Ca2+  Ca17  1  0.75011466  0.74462879  0.89832526  1
  Ca2+  Ca18  1  0.24348529  0.24880068  0.07507773  1
  Ca2+  Ca19  1  0.26477631  0.25017145  0.42112300  1
  Ca2+  Ca20  1  0.25396534  0.24318240  0.75431648  1
  Ca2+  Ca21  1  0.25073138  0.74058496  0.06304444  1
  Ca2+  Ca22  1  0.24060576  0.73323158  0.43850406  1
  Ca2+  Ca23  1  0.25002176  0.73687272  0.75051466  1
  Ca2+  Ca24  1  0.58926281  0.24549677  0.10012024  1
  Ca2+  Ca25  1  0.58300538  0.23802130  0.40674501  1
  Ca2+  Ca26  1  0.57212081  0.25212224  0.74628072  1
  Ca2+  Ca27  1  0.56662520  0.76271884  0.08127697  1
  Ca2+  Ca28  1  0.58806390  0.75704747  0.40923470  1
  Ca2+  Ca29  1  0.58691401  0.75661902  0.75714236  1
  Ca2+  Ca30  1  0.91196803  0.25731650  0.08305640  1
  Ca2+  Ca31  1  0.90683301  0.25239755  0.41666652  1
  Ca2+  Ca32  1  0.92336005  0.26159458  0.74853624  1
  Ca2+  Ca33  1  0.93468901  0.75141302  0.06977579  1
  Ca2+  Ca34  1  0.91475019  0.75427750  0.42467705  1
  Ca2+  Ca35  1  0.91053653  0.74676814  0.75962879  1
  Ca2+  Ca36  1  0.07097900  0.60875639  0.91147912  1
  Ca2+  Ca37  1  0.90338393  0.60700005  0.76930480  1
  Ca2+  Ca38  1  0.74898477  0.58047670  0.25697375  1
  Ca2+  Ca39  1  0.58445498  0.10084578  0.40964172  1
  Ca2+  Ca40  1  0.41819132  0.09341554  0.91308173  1
  Ca2+  Ca41  1  0.92089211  0.08336911  0.74071458  1
  Ca2+  Ca42  1  0.76481262  0.58457595  0.59252650  1
  Ca2+  Ca43  1  0.11953719  0.60821566  0.56468251  1
  Ca2+  Ca44  1  0.40417422  0.10623529  0.57216641  1
  Ca2+  Ca45  1  0.59999750  0.59768218  0.75839708  1
  Ca2+  Ca46  1  0.37727983  0.60290552  0.58404989  1
  Ca2+  Ca47  1  0.26651245  0.11201649  0.43897243  1
  Ca2+  Ca48  1  0.78742685  0.60633504  0.90079805  1
  Ca2+  Ca49  1  0.58250465  0.10035735  0.10235597  1
  Ca2+  Ca50  1  0.40798332  0.09600068  0.91063097  1
  Ca2+  Ca51  1  0.89746941  0.09356011  0.42125863  1
  Ca2+  Ca52  1  0.93096284  0.58887698  0.41760183  1
  Ca2+  Ca53  1  0.25092223  0.10018598  0.74140519  1
  Ca2+  Ca54  1  0.55670856  0.58587262  0.09515255  1
  Ca2+  Ca55  1  0.95802885  0.08974363  0.08093025  1
  Ca2+  Ca56  1  0.73614759  0.58076596  0.25748195  1
  Ca2+  Ca57  1  0.94585239  0.08877188  0.07828702  1
  Ca2+  Ca58  1  0.56851360  0.58711825  0.09148398  1
  Ca2+  Ca59  1  0.74281589  0.09377256  0.56519437  1
  Ca2+  Ca60  1  0.06039154  0.60955405  0.91091886  1
  Ca2+  Ca61  1  0.57293425  0.08697593  0.75030210  1
  Ca2+  Ca62  1  0.39001896  0.60197843  0.92029364  1
  Ca2+  Ca63  1  0.19918559  0.08605040  0.05952514  1
  Ca2+  Ca64  1  0.45258432  0.10037951  0.25983249  1
  Ca2+  Ca65  1  0.58722857  0.59669277  0.75709906  1
  Ca2+  Ca66  1  0.71344141  0.09642884  0.25999137  1
  Ca2+  Ca67  1  0.39727783  0.59762526  0.91577612  1
  Ca2+  Ca68  1  0.72641718  0.08267174  0.92737813  1
  Ca2+  Ca69  1  0.58284363  0.58811580  0.39442500  1
  Ca2+  Ca70  1  0.10953591  0.60667386  0.56400202  1
  Ca2+  Ca71  1  0.91850167  0.58857226  0.05076925  1
  Ca2+  Ca72  1  0.57964073  0.90916628  0.74893179  1
  Ca2+  Ca73  1  0.41586531  0.90505398  0.58194572  1
  Ca2+  Ca74  1  0.44096445  0.90755811  0.24975430  1
  Ca2+  Ca75  1  0.74024031  0.91111043  0.92169417  1
  Ca2+  Ca76  1  0.41678605  0.90567902  0.91336160  1
  Ca2+  Ca77  1  0.24163848  0.41069601  0.40131969  1
  Ca2+  Ca78  1  0.42913244  0.90525032  0.25359578  1
  Ca2+  Ca79  1  0.91437206  0.40627709  0.07565569  1
  Ca2+  Ca80  1  0.41300893  0.41001289  0.24598146  1
  Ca2+  Ca81  1  0.73968984  0.40838252  0.25227948  1
  Ca2+  Ca82  1  0.76109528  0.40463851  0.58358663  1
  Ca2+  Ca83  1  0.40531775  0.40434403  0.58834146  1
  Ca2+  Ca84  1  0.76611621  0.40895070  0.91664277  1
  Ca2+  Ca85  1  0.26592152  0.40294923  0.75325597  1
  Ca2+  Ca86  1  0.91860292  0.90629991  0.07482571  1
  Ca2+  Ca87  1  0.91165862  0.91087716  0.72581268  1
  Ca2+  Ca88  1  0.91220464  0.40882646  0.42115830  1
  Ca2+  Ca89  1  0.25532122  0.90228136  0.75205523  1
  Ca2+  Ca90  1  0.91313178  0.40892781  0.75502913  1
  Ca2+  Ca91  1  0.90616947  0.90591709  0.43927918  1
  Ca2+  Ca92  1  0.41674747  0.40413566  0.58794347  1
  Ca2+  Ca93  1  0.07535422  0.40755300  0.58266209  1
  Ca2+  Ca94  1  0.72533563  0.91170507  0.24876476  1
  Ca2+  Ca95  1  0.26096123  0.40524666  0.09695091  1
  Ca2+  Ca96  1  0.56709895  0.40522627  0.09250024  1
  Ca2+  Ca97  1  0.25224591  0.89606973  0.42524369  1
  Ca2+  Ca98  1  0.58661156  0.91023716  0.41214180  1
  Ca2+  Ca99  1  0.25333308  0.40414117  0.75178028  1
  Ca2+  Ca100  1  0.92367032  0.40889382  0.42104505  1
  Ca2+  Ca101  1  0.07869788  0.89980193  0.23751489  1
  Ca2+  Ca102  1  0.10960986  0.92171476  0.93330726  1
  Ca2+  Ca103  1  0.57896185  0.40638110  0.09202374  1
  Ca2+  Ca104  1  0.72848974  0.91417291  0.91937328  1
  Ca2+  Ca105  1  0.09152882  0.89984300  0.23726883  1
  Ca2+  Ca106  1  0.58068046  0.40141856  0.75160666  1
  Ca2+  Ca107  1  0.09797269  0.91928639  0.93583778  1
  Mn3.34+  Mn108  1  0.08401085  0.33314354  0.08476858  1
  Mn3.34+  Mn109  1  0.08609077  0.33263514  0.41495160  1
  Mn3.34+  Mn110  1  0.08316610  0.33165342  0.75305172  1
  Mn3.34+  Mn111  1  0.08593088  0.83270447  0.08269321  1
  Mn3.34+  Mn112  1  0.08258464  0.82948598  0.41886272  1
  Mn3.34+  Mn113  1  0.08203441  0.83036254  0.75082589  1
  Mn3.34+  Mn114  1  0.41407368  0.33611445  0.08458862  1
  Mn3.34+  Mn115  1  0.41927604  0.32996651  0.41463671  1
  Mn3.34+  Mn116  1  0.41940069  0.33341541  0.75411736  1
  Mn3.34+  Mn117  1  0.41191305  0.83360636  0.08012004  1
  Mn3.34+  Mn118  1  0.41647574  0.83087956  0.42017691  1
  Mn3.34+  Mn119  1  0.41636992  0.83183178  0.74972977  1
  Mn3.34+  Mn120  1  0.75040700  0.33242208  0.08599299  1
  Mn3.34+  Mn121  1  0.74564731  0.33204552  0.41479343  1
  Mn3.34+  Mn122  1  0.74953430  0.33509286  0.75138927  1
  Mn3.34+  Mn123  1  0.75155555  0.83065216  0.08469333  1
  Mn3.34+  Mn124  1  0.75036624  0.83443945  0.41969245  1
  Mn3.34+  Mn125  1  0.75168528  0.83446287  0.74813128  1
  Mn3.34+  Mn126  1  0.25046335  0.33785705  0.24815754  1
  Mn3.34+  Mn127  1  0.24733353  0.32881061  0.57902499  1
  Mn3.34+  Mn128  1  0.24953348  0.33071077  0.92062353  1
  Mn3.34+  Mn129  1  0.25408031  0.82815183  0.24845037  1
  Mn3.34+  Mn130  1  0.24694003  0.83088829  0.58482007  1
  Mn3.34+  Mn131  1  0.25097969  0.83228396  0.91331532  1
  Mn3.34+  Mn132  1  0.58130052  0.33497677  0.25461596  1
  Mn3.34+  Mn133  1  0.58559055  0.32955754  0.57950627  1
  Mn3.34+  Mn134  1  0.58168695  0.32942969  0.91744544  1
  Mn3.34+  Mn135  1  0.58583256  0.83202460  0.24569201  1
  Mn3.34+  Mn136  1  0.58432325  0.83680161  0.58155255  1
  Mn3.34+  Mn137  1  0.58049918  0.83428655  0.91581558  1
  Mn3.34+  Mn138  1  0.91795123  0.33792987  0.24616080  1
  Mn3.34+  Mn139  1  0.91764082  0.33687486  0.58359801  1
  Mn3.34+  Mn140  1  0.92167190  0.34014982  0.91567730  1
  Mn3.34+  Mn141  1  0.91294753  0.82425034  0.24874916  1
  Mn3.34+  Mn142  1  0.92107780  0.83633203  0.58478395  1
  Mn3.34+  Mn143  1  0.91755558  0.82933597  0.91115886  1
  Mn3.34+  Mn144  1  0.58877359  0.66580344  0.58060993  1
  Mn3.34+  Mn145  1  0.41420229  0.66583829  0.41540184  1
  Mn3.34+  Mn146  1  0.08639697  0.67293075  0.75189037  1
  Mn3.34+  Mn147  1  0.41619967  0.16839880  0.74586045  1
  Mn3.34+  Mn148  1  0.74928038  0.66618864  0.41651223  1
  Mn3.34+  Mn149  1  0.41536420  0.17019718  0.08383977  1
  Mn3.34+  Mn150  1  0.92539605  0.16653676  0.25175258  1
  Mn3.34+  Mn151  1  0.91237359  0.66093767  0.58338710  1
  Mn3.34+  Mn152  1  0.57773090  0.66665834  0.25004895  1
  Mn3.34+  Mn153  1  0.74611254  0.67753737  0.08189357  1
  Mn3.34+  Mn154  1  0.24207961  0.65420877  0.24996649  1
  Mn3.34+  Mn155  1  0.91720089  0.16559449  0.58163120  1
  Mn3.34+  Mn156  1  0.57539650  0.67261619  0.58150217  1
  Mn3.34+  Mn157  1  0.92793843  0.16414881  0.91509689  1
  Mn3.34+  Mn158  1  0.92926435  0.66609258  0.25053434  1
  Mn3.34+  Mn159  1  0.09120443  0.17027165  0.42177480  1
  Mn3.34+  Mn160  1  0.92656565  0.15994526  0.58095919  1
  Mn3.34+  Mn161  1  0.91969377  0.67180280  0.25114949  1
  Mn3.34+  Mn162  1  0.25489053  0.65863929  0.25344406  1
  Mn3.34+  Mn163  1  0.91482551  0.17102785  0.25180569  1
  Mn3.34+  Mn164  1  0.41231094  0.65869132  0.75243407  1
  Mn3.34+  Mn165  1  0.92135849  0.66908340  0.58423121  1
  Mn3.34+  Mn166  1  0.74111282  0.16791431  0.75122160  1
  Mn3.34+  Mn167  1  0.09037214  0.16895064  0.74832851  1
  Mn3.34+  Mn168  1  0.58158955  0.16518298  0.57676828  1
  Mn3.34+  Mn169  1  0.24178127  0.16688606  0.24470865  1
  Mn3.34+  Mn170  1  0.24423135  0.16403881  0.91753688  1
  Mn3.34+  Mn171  1  0.58092585  0.16404796  0.91773772  1
  Mn3.34+  Mn172  1  0.75262893  0.16175535  0.75203877  1
  Mn3.34+  Mn173  1  0.74799275  0.16522370  0.08578412  1
  Mn3.34+  Mn174  1  0.25235963  0.17063323  0.24701857  1
  Mn3.34+  Mn175  1  0.75608830  0.67235259  0.08272050  1
  Mn3.34+  Mn176  1  0.91594846  0.16980756  0.91561770  1
  Mn3.34+  Mn177  1  0.08704300  0.66814372  0.08232515  1
  Mn3.34+  Mn178  1  0.41024112  0.66396001  0.08551937  1
  Mn3.34+  Mn179  1  0.58308308  0.67180654  0.91476002  1
  Mn3.34+  Mn180  1  0.40984749  0.49808731  0.40107314  1
  Mn3.34+  Mn181  1  0.25181207  -0.00119427  0.58517530  1
  Mn3.34+  Mn182  1  0.58395582  -0.00018388  0.58759265  1
  Mn3.34+  Mn183  1  0.08955386  -0.00103299  0.74393270  1
  Mn3.34+  Mn184  1  0.58537795  0.49628403  0.57778643  1
  Mn3.34+  Mn185  1  0.75836856  0.50055402  0.07790836  1
  Mn3.34+  Mn186  1  0.75829541  0.49986659  0.74477866  1
  Mn3.34+  Mn187  1  0.57465269  0.50108584  0.57754135  1
  Mn3.34+  Mn188  1  0.08372905  0.50317478  0.75169389  1
  Mn3.34+  Mn189  1  0.42150592  -0.00064006  0.07339526  1
  Mn3.34+  Mn190  1  0.41469220  0.00001839  0.74307168  1
  Mn3.34+  Mn191  1  0.09116819  0.00570672  0.42791097  1
  Mn3.34+  Mn192  1  0.92352842  -0.00449823  0.24914564  1
  Mn3.34+  Mn193  1  0.07305435  0.49805486  0.75175828  1
  Mn3.34+  Mn194  1  0.40506523  -0.00039776  0.07649607  1
  Mn3.34+  Mn195  1  0.09168143  0.50568609  0.09354423  1
  Mn3.34+  Mn196  1  0.07912184  0.49895016  0.09213372  1
  Mn3.34+  Mn197  1  0.57224612  0.50089149  0.91697626  1
  Mn3.34+  Mn198  1  0.75319826  -0.00128716  0.73658900  1
  Mn3.34+  Mn199  1  0.24220339  -0.00115573  0.24107235  1
  Mn3.34+  Mn200  1  0.25289718  0.00223356  0.24358858  1
  Mn3.34+  Mn201  1  0.92550351  0.50045740  0.24970097  1
  Mn3.34+  Mn202  1  0.92199107  -0.00152675  0.91984858  1
  Mn3.34+  Mn203  1  0.42052034  0.00247115  0.40780767  1
  Mn3.34+  Mn204  1  0.25518194  0.49554619  0.92162670  1
  Mn3.34+  Mn205  1  0.07769098  -0.00031397  0.42888209  1
  Mn3.34+  Mn206  1  0.24204180  0.50166933  0.92002691  1
  Mn3.34+  Mn207  1  0.74277118  0.49902546  0.41240436  1
  Mn3.34+  Mn208  1  0.42174362  0.50508816  0.40075418  1
  Mn3.34+  Mn209  1  0.74486352  0.00007797  0.07896728  1
  Mn3.34+  Mn210  1  0.08893722  0.49998314  0.39486124  1
  Mn3.34+  Mn211  1  0.74189025  -0.00143172  0.40865942  1
  Mn3.34+  Mn212  1  0.90880977  0.00094777  0.24888116  1
  Mn3.34+  Mn213  1  0.07741515  0.00403630  0.73922538  1
  Mn3.34+  Mn214  1  0.58338513  0.49640072  0.91632805  1
  Mn3.34+  Mn215  1  0.25464939  0.50021211  0.58380239  1
  O2-  O216  1  -0.00272041  0.16990396  0.00822585  1
  O2-  O217  1  -0.00341703  0.15985620  0.34161767  1
  O2-  O218  1  -0.00322648  0.16133513  0.67075896  1
  O2-  O219  1  -0.00028980  0.66732059  0.00480277  1
  O2-  O220  1  -0.00352843  0.68588246  0.34054551  1
  O2-  O221  1  -0.00267927  0.66515932  0.67263784  1
  O2-  O222  1  0.33836098  0.16543980  -0.00501810  1
  O2-  O223  1  0.33249349  0.15980413  0.32314244  1
  O2-  O224  1  0.33564665  0.16721487  0.67069159  1
  O2-  O225  1  0.33900120  0.66686805  -0.00026518  1
  O2-  O226  1  0.33490888  0.67458249  0.32920162  1
  O2-  O227  1  0.34321067  0.67743652  0.67131570  1
  O2-  O228  1  0.66522553  0.15707964  0.00131952  1
  O2-  O229  1  0.65912647  0.16695516  0.33566492  1
  O2-  O230  1  0.66583300  0.15467558  0.66541492  1
  O2-  O231  1  0.66516766  0.65680417  0.00113190  1
  O2-  O232  1  0.67079628  0.65548801  0.32746498  1
  O2-  O233  1  0.66305813  0.66083008  0.66921469  1
  O2-  O234  1  0.16953272  0.17448324  -0.00247660  1
  O2-  O235  1  0.17056289  0.16118130  0.33518326  1
  O2-  O236  1  0.16986687  0.17449949  0.67300015  1
  O2-  O237  1  0.15602852  0.66092143  -0.00287914  1
  O2-  O238  1  0.16589966  0.67237123  0.32944824  1
  O2-  O239  1  0.15649063  0.67291637  0.66512716  1
  O2-  O240  1  0.49563270  0.16014351  -0.00319604  1
  O2-  O241  1  0.51008951  0.16722088  0.33587697  1
  O2-  O242  1  0.50274102  0.15791063  0.67029374  1
  O2-  O243  1  0.50001395  0.65662080  -0.00168990  1
  O2-  O244  1  0.50408358  0.67166655  0.34162597  1
  O2-  O245  1  0.50308867  0.66007956  0.67342633  1
  O2-  O246  1  0.83573790  0.15332883  -0.00009378  1
  O2-  O247  1  0.83330915  0.15762456  0.32804112  1
  O2-  O248  1  0.83433682  0.15662657  0.66825191  1
  O2-  O249  1  0.83630937  0.67808301  0.00088987  1
  O2-  O250  1  0.83307192  0.65719152  0.33051450  1
  O2-  O251  1  0.82878560  0.66215290  0.66235418  1
  O2-  O252  1  -0.00253576  0.32580039  0.00526857  1
  O2-  O253  1  -0.00603903  0.34290695  0.33977465  1
  O2-  O254  1  0.00048602  0.34168024  0.66697085  1
  O2-  O255  1  -0.00065840  0.83697402  -0.00224738  1
  O2-  O256  1  0.00336291  0.82534326  0.32801977  1
  O2-  O257  1  -0.00234990  0.82482897  0.67223295  1
  O2-  O258  1  0.33239231  0.32587564  0.00422090  1
  O2-  O259  1  0.33158536  0.34269233  0.33694640  1
  O2-  O260  1  0.33171319  0.33420061  0.66462317  1
  O2-  O261  1  0.33546828  0.83927005  -0.00661603  1
  O2-  O262  1  0.33827298  0.84059891  0.33235699  1
  O2-  O263  1  0.33553554  0.83522320  0.66494248  1
  O2-  O264  1  0.66580115  0.34397536  0.00250855  1
  O2-  O265  1  0.67228092  0.33922591  0.32692515  1
  O2-  O266  1  0.66508765  0.34187785  0.66966602  1
  O2-  O267  1  0.67425636  0.83515298  -0.00571683  1
  O2-  O268  1  0.66627236  0.83959317  0.33322982  1
  O2-  O269  1  0.66503823  0.82875908  0.67279086  1
  O2-  O270  1  0.16668121  0.32364632  0.00155207  1
  O2-  O271  1  0.16866187  0.33686712  0.33570610  1
  O2-  O272  1  0.17135760  0.33679591  0.66833291  1
  O2-  O273  1  0.16245309  0.84088605  -0.00619789  1
  O2-  O274  1  0.16242755  0.83393978  0.32975632  1
  O2-  O275  1  0.17059118  0.82976350  0.67355921  1
  O2-  O276  1  0.50334957  0.32947103  0.00801338  1
  O2-  O277  1  0.49306069  0.33997590  0.32745943  1
  O2-  O278  1  0.49771141  0.34173162  0.66717218  1
  O2-  O279  1  0.49680685  0.83785495  -0.00453762  1
  O2-  O280  1  0.49834460  0.83353994  0.33349185  1
  O2-  O281  1  0.49933592  0.83307136  0.66799470  1
  O2-  O282  1  0.83232595  0.34018614  0.00100389  1
  O2-  O283  1  0.83683863  0.34637891  0.33653762  1
  O2-  O284  1  0.83520174  0.34176628  0.66825274  1
  O2-  O285  1  0.83552080  0.82465338  -0.00137067  1
  O2-  O286  1  0.83289151  0.83126463  0.33251855  1
  O2-  O287  1  0.83541728  0.82691031  0.66973867  1
  O2-  O288  1  -0.00380184  0.17651364  0.16487283  1
  O2-  O289  1  0.00288997  0.17665267  0.49677956  1
  O2-  O290  1  -0.00347572  0.17417610  0.82558444  1
  O2-  O291  1  0.00108333  0.68290214  0.16384982  1
  O2-  O292  1  -0.00021208  0.67234234  0.50229478  1
  O2-  O293  1  0.00490487  0.68396803  0.83249844  1
  O2-  O294  1  0.32996974  0.17993283  0.16259612  1
  O2-  O295  1  0.33004268  0.18300824  0.50606504  1
  O2-  O296  1  0.33863372  0.17067153  0.83366428  1
  O2-  O297  1  0.33280682  0.67236797  0.16864590  1
  O2-  O298  1  0.34394917  0.68189037  0.49714201  1
  O2-  O299  1  0.34404369  0.67638019  0.83473317  1
  O2-  O300  1  0.67139125  0.17204716  0.16406593  1
  O2-  O301  1  0.66468132  0.17232969  0.50480463  1
  O2-  O302  1  0.66563328  0.17090261  0.83789375  1
  O2-  O303  1  0.66897274  0.67746052  0.16658178  1
  O2-  O304  1  0.66525104  0.67301454  0.49654336  1
  O2-  O305  1  0.65923223  0.67511584  0.83191009  1
  O2-  O306  1  0.16707980  0.17937857  0.16589226  1
  O2-  O307  1  0.17178152  0.18466175  0.49402077  1
  O2-  O308  1  0.16990501  0.17431110  0.83036694  1
  O2-  O309  1  0.16865483  0.67407308  0.16651664  1
  O2-  O310  1  0.15173588  0.68232299  0.50152878  1
  O2-  O311  1  0.15882296  0.67923106  0.83365884  1
  O2-  O312  1  0.49530894  0.18031606  0.15888543  1
  O2-  O313  1  0.50188346  0.17060233  0.50398465  1
  O2-  O314  1  0.49693682  0.17162417  0.83709855  1
  O2-  O315  1  0.50529148  0.67263213  0.15864181  1
  O2-  O316  1  0.50020670  0.67577595  0.49706568  1
  O2-  O317  1  0.50148144  0.67798868  0.83104521  1
  O2-  O318  1  0.84047064  0.17090691  0.16020450  1
  O2-  O319  1  0.83603734  0.17225978  0.50216682  1
  O2-  O320  1  0.83264437  0.17078111  0.83473963  1
  O2-  O321  1  0.83301246  0.68546757  0.16943264  1
  O2-  O322  1  0.83288941  0.67154220  0.49722688  1
  O2-  O323  1  0.83205002  0.68396169  0.83125128  1
  O2-  O324  1  -0.00125161  0.31857970  0.16424010  1
  O2-  O325  1  -0.00262929  0.33246830  0.49712366  1
  O2-  O326  1  -0.00221058  0.32791636  0.83011187  1
  O2-  O327  1  0.00016970  0.82125590  0.16851970  1
  O2-  O328  1  -0.00264425  0.81928039  0.49518231  1
  O2-  O329  1  0.00091026  0.81456766  0.83478856  1
  O2-  O330  1  0.33512400  0.32214896  0.16509766  1
  O2-  O331  1  0.33630916  0.32599243  0.50473631  1
  O2-  O332  1  0.33022380  0.32892207  0.82766055  1
  O2-  O333  1  0.34412578  0.83326220  0.17763596  1
  O2-  O334  1  0.33325269  0.82481040  0.49956924  1
  O2-  O335  1  0.33314258  0.82436829  0.83053917  1
  O2-  O336  1  0.66258667  0.33012637  0.16219274  1
  O2-  O337  1  0.67322686  0.32991127  0.50564282  1
  O2-  O338  1  0.66828747  0.32875840  0.83398493  1
  O2-  O339  1  0.67048278  0.82055018  0.16671636  1
  O2-  O340  1  0.66366445  0.82769629  0.49420773  1
  O2-  O341  1  0.66993556  0.82196150  0.83281312  1
  O2-  O342  1  0.17059104  0.31965981  0.16212714  1
  O2-  O343  1  0.16308158  0.32250800  0.50245753  1
  O2-  O344  1  0.17495701  0.32935219  0.82538885  1
  O2-  O345  1  0.16030425  0.82798090  0.17318536  1
  O2-  O346  1  0.17074593  0.82214278  0.49360795  1
  O2-  O347  1  0.16356136  0.82291517  0.83368357  1
  O2-  O348  1  0.50175834  0.32274629  0.16317801  1
  O2-  O349  1  0.49002033  0.33070823  0.51040814  1
  O2-  O350  1  0.50452333  0.32690763  0.82942473  1
  O2-  O351  1  0.49705973  0.82701819  0.17155856  1
  O2-  O352  1  0.49900640  0.81998442  0.49778801  1
  O2-  O353  1  0.49984497  0.82248131  0.83115884  1
  O2-  O354  1  0.83262806  0.32990580  0.16546698  1
  O2-  O355  1  0.83673153  0.32852937  0.49740844  1
  O2-  O356  1  0.83302205  0.32850586  0.83247121  1
  O2-  O357  1  0.83473570  0.80970731  0.16394239  1
  O2-  O358  1  0.83543620  0.82600118  0.49716974  1
  O2-  O359  1  0.83077401  0.81781988  0.83395086  1
  O2-  O360  1  0.07499410  0.06780046  0.10691284  1
  O2-  O361  1  0.08604948  0.08616646  0.44010370  1
  O2-  O362  1  0.08202581  0.08472333  0.76548188  1
  O2-  O363  1  0.07313071  0.58536217  0.10302906  1
  O2-  O364  1  0.06874794  0.56896211  0.44606367  1
  O2-  O365  1  0.07510059  0.58424804  0.77520571  1
  O2-  O366  1  0.42055805  0.07968799  0.10781526  1
  O2-  O367  1  0.41409990  0.07691036  0.43842141  1
  O2-  O368  1  0.41729121  0.08094265  0.77297491  1
  O2-  O369  1  0.42546940  0.58375345  0.09007505  1
  O2-  O370  1  0.42254417  0.57847678  0.44446021  1
  O2-  O371  1  0.44089195  0.57826636  0.78680431  1
  O2-  O372  1  0.75051298  0.08008839  0.10580503  1
  O2-  O373  1  0.74960460  0.07461684  0.43589958  1
  O2-  O374  1  0.74917898  0.07744578  0.78004537  1
  O2-  O375  1  0.75144839  0.58213923  0.11505950  1
  O2-  O376  1  0.74796996  0.57992201  0.44059141  1
  O2-  O377  1  0.73726795  0.57655928  0.77798144  1
  O2-  O378  1  0.25196189  0.08416277  0.22154867  1
  O2-  O379  1  0.26108565  0.07433864  0.56240885  1
  O2-  O380  1  0.26846199  0.08424546  0.89910068  1
  O2-  O381  1  0.24606597  0.57588678  0.23733694  1
  O2-  O382  1  0.24686951  0.58047450  0.56338867  1
  O2-  O383  1  0.25396900  0.58046760  0.89370127  1
  O2-  O384  1  0.58207521  0.07560372  0.23046287  1
  O2-  O385  1  0.58910524  0.07938688  0.55836480  1
  O2-  O386  1  0.57317288  0.08303404  0.89384120  1
  O2-  O387  1  0.59930107  0.58116394  0.22262276  1
  O2-  O388  1  0.58522446  0.58236616  0.55683462  1
  O2-  O389  1  0.58059294  0.58391874  0.89391827  1
  O2-  O390  1  0.91685016  0.08098382  0.21999279  1
  O2-  O391  1  0.90770772  0.07883972  0.56103567  1
  O2-  O392  1  0.91607352  0.08020334  0.89252581  1
  O2-  O393  1  0.90051617  0.58229468  0.21798642  1
  O2-  O394  1  0.90920412  0.58220093  0.56031578  1
  O2-  O395  1  0.93321135  0.57846117  0.89402540  1
  O2-  O396  1  0.08608651  0.41906785  0.09973394  1
  O2-  O397  1  0.08119220  0.42397974  0.44244459  1
  O2-  O398  1  0.08878010  0.41588320  0.76131202  1
  O2-  O399  1  0.07098872  0.91521023  0.10586416  1
  O2-  O400  1  0.08226274  0.91760019  0.42643735  1
  O2-  O401  1  0.07735948  0.92008664  0.78109280  1
  O2-  O402  1  0.42931200  0.41927405  0.10825389  1
  O2-  O403  1  0.41189309  0.42318790  0.44557293  1
  O2-  O404  1  0.40261004  0.41585426  0.74809021  1
  O2-  O405  1  0.41932468  0.91947995  0.10793312  1
  O2-  O406  1  0.41832997  0.92214377  0.43825315  1
  O2-  O407  1  0.41714339  0.92133296  0.77391275  1
  O2-  O408  1  0.74417895  0.41975416  0.10124797  1
  O2-  O409  1  0.76719369  0.42046533  0.43774267  1
  O2-  O410  1  0.75233118  0.41983010  0.77016312  1
  O2-  O411  1  0.76543771  0.91970350  0.10578230  1
  O2-  O412  1  0.75329682  0.91737814  0.42674191  1
  O2-  O413  1  0.75381044  0.92288613  0.78372465  1
  O2-  O414  1  0.26166683  0.41632405  0.22844357  1
  O2-  O415  1  0.25968213  0.41891768  0.55962921  1
  O2-  O416  1  0.24792824  0.41624376  0.89635951  1
  O2-  O417  1  0.23594714  0.91503542  0.23908801  1
  O2-  O418  1  0.25928520  0.91766996  0.56174602  1
  O2-  O419  1  0.23546422  0.91826551  0.88732474  1
  O2-  O420  1  0.58301044  0.41981158  0.22211392  1
  O2-  O421  1  0.57756033  0.41429358  0.57242324  1
  O2-  O422  1  0.58316969  0.41456471  0.90071280  1
  O2-  O423  1  0.57745619  0.91421256  0.24261575  1
  O2-  O424  1  0.57030093  0.91917425  0.56072309  1
  O2-  O425  1  0.59512549  0.91562545  0.88835143  1
  O2-  O426  1  0.90969177  0.41950341  0.22390240  1
  O2-  O427  1  0.91489262  0.41975695  0.55778228  1
  O2-  O428  1  0.90825774  0.41911995  0.89970308  1
  O2-  O429  1  0.92665422  0.91388914  0.22978493  1
  O2-  O430  1  0.91969134  0.91484723  0.57511068  1
  O2-  O431  1  0.90833801  0.91870950  0.89514096  1
  O2-  O432  1  -0.00305288  -0.00709205  -0.00284645  1
  O2-  O433  1  -0.00287925  0.00519842  0.34006033  1
  O2-  O434  1  -0.01795392  0.00016289  0.68582058  1
  O2-  O435  1  0.00024155  0.50737166  0.01322557  1
  O2-  O436  1  -0.01624317  0.49555976  0.35618666  1
  O2-  O437  1  0.00066684  0.49913478  0.66631251  1
  O2-  O438  1  0.33249417  0.00446029  -0.00553752  1
  O2-  O439  1  0.33293890  -0.00370272  0.32931166  1
  O2-  O440  1  0.33580120  -0.00153157  0.66461718  1
  O2-  O441  1  0.34242735  0.50977657  -0.01106898  1
  O2-  O442  1  0.32725838  0.49086777  0.33512895  1
  O2-  O443  1  0.34297817  0.49263281  0.64702897  1
  O2-  O444  1  0.68290132  -0.00508967  -0.01726141  1
  O2-  O445  1  0.66645376  -0.00139869  0.33347426  1
  O2-  O446  1  0.65800398  0.00382261  0.67955310  1
  O2-  O447  1  0.66679450  0.50698649  0.00194749  1
  O2-  O448  1  0.67390878  0.51040864  0.32522742  1
  O2-  O449  1  0.66649328  0.50759402  0.66696382  1
  O2-  O450  1  0.15447972  -0.00109831  -0.00695168  1
  O2-  O451  1  0.16141822  -0.00271107  0.32984075  1
  O2-  O452  1  0.18172781  0.00066141  0.67874646  1
  O2-  O453  1  0.16984451  0.50021699  0.00901802  1
  O2-  O454  1  0.17603624  0.49541086  0.34205833  1
  O2-  O455  1  0.16780023  0.49509596  0.66384750  1
  O2-  O456  1  0.49528587  0.00553751  -0.00929279  1
  O2-  O457  1  0.49310375  -0.00503306  0.32859389  1
  O2-  O458  1  0.50222526  0.00030653  0.67123525  1
  O2-  O459  1  0.51365134  0.50359902  0.01777076  1
  O2-  O460  1  0.51044144  0.50451154  0.34105535  1
  O2-  O461  1  0.50496154  0.50236831  0.66660475  1
  O2-  O462  1  0.84077304  0.00306224  0.00339333  1
  O2-  O463  1  0.83849557  0.00031285  0.34147348  1
  O2-  O464  1  0.83961288  0.00573562  0.67972819  1
  O2-  O465  1  0.83525643  0.50415670  0.00569555  1
  O2-  O466  1  0.83028343  0.50844181  0.32965659  1
  O2-  O467  1  0.83039918  0.50464842  0.66785438  1
  O2-  O468  1  0.41667718  0.75002862  0.07800495  1
  O2-  O469  1  0.58964458  0.75335419  0.59128045  1
  O2-  O470  1  0.58398008  0.75073814  0.93288729  1
  O2-  O471  1  0.91820870  0.24924723  0.59498534  1
  O2-  O472  1  0.09028761  0.75069379  0.07226457  1
  O2-  O473  1  0.58499392  0.25508166  0.25828073  1
  O2-  O474  1  0.75143591  0.25341743  0.40832318  1
  O2-  O475  1  0.91302608  0.25481191  0.26521839  1
  O2-  O476  1  0.24960426  0.25233484  0.26645811  1
  O2-  O477  1  0.25455233  0.24974009  0.91290541  1
  O2-  O478  1  0.58947003  0.24870567  0.92492337  1
  O2-  O479  1  0.58594439  0.74962815  0.26078006  1
  O2-  O480  1  0.75273686  0.24931270  0.06876923  1
  O2-  O481  1  0.75461179  0.25068498  0.74083379  1
  O2-  O482  1  0.74609226  0.74994701  0.40627983  1
  O2-  O483  1  0.42169203  0.25076186  0.74573628  1
  O2-  O484  1  0.07430461  0.25135281  0.40010617  1
  O2-  O485  1  0.58352004  0.24900921  0.59967624  1
  O2-  O486  1  0.25290632  0.74651081  0.24905979  1
  O2-  O487  1  0.25123701  0.75323719  0.92799342  1
  O2-  O488  1  0.90819541  0.25207644  0.92225944  1
  O2-  O489  1  0.91235528  0.74901132  0.58570803  1
  O2-  O490  1  0.41882127  0.25182750  0.40829331  1
  O2-  O491  1  0.07584342  0.25118712  0.74350588  1
  O2-  O492  1  0.25032430  0.75311112  0.58901099  1
