# generated using pymatgen
data_Ca108Mn108O277
_symmetry_space_group_name_H-M   'P 1'
_cell_length_a   16.02594791
_cell_length_b   22.30515199
_cell_length_c   16.38814386
_cell_angle_alpha   89.99948988
_cell_angle_beta   90.00031695
_cell_angle_gamma   90.00278596
_symmetry_Int_Tables_number   1
_chemical_formula_structural   Ca108Mn108O277
_chemical_formula_sum   'Ca108 Mn108 O277'
_cell_volume   5858.12562510
_cell_formula_units_Z   1
loop_
 _symmetry_equiv_pos_site_id
 _symmetry_equiv_pos_as_xyz
  1  'x, y, z'
loop_
 _atom_type_symbol
 _atom_type_oxidation_number
  Ca2+  2.0
  Mn3.34+  3.34
  O2-  -2.0
loop_
 _atom_site_type_symbol
 _atom_site_label
 _atom_site_symmetry_multiplicity
 _atom_site_fract_x
 _atom_site_fract_y
 _atom_site_fract_z
 _atom_site_occupancy
  Ca2+  Ca0  1  0.08024526  0.25216453  0.25429406  1
  Ca2+  Ca1  1  0.07137345  0.25178499  0.57551445  1
  Ca2+  Ca2  1  0.06956295  0.24811239  0.91946892  1
  Ca2+  Ca3  1  0.08802967  0.76108445  0.24293264  1
  Ca2+  Ca4  1  0.10435881  0.75137363  0.58931290  1
  Ca2+  Ca5  1  0.09339950  0.74706071  0.91442888  1
  Ca2+  Ca6  1  0.42295909  0.25250287  0.25855049  1
  Ca2+  Ca7  1  0.42116285  0.25707266  0.57831003  1
  Ca2+  Ca8  1  0.42946855  0.25489570  0.91963242  1
  Ca2+  Ca9  1  0.40879324  0.75256182  0.23722810  1
  Ca2+  Ca10  1  0.40687845  0.74489823  0.58422753  1
  Ca2+  Ca11  1  0.40986146  0.73246718  0.93061140  1
  Ca2+  Ca12  1  0.74641461  0.24858588  0.23114485  1
  Ca2+  Ca13  1  0.75335981  0.24486267  0.58741472  1
  Ca2+  Ca14  1  0.75072271  0.23918102  0.92432532  1
  Ca2+  Ca15  1  0.76271630  0.74934036  0.25412226  1
  Ca2+  Ca16  1  0.73660794  0.75187278  0.57745423  1
  Ca2+  Ca17  1  0.73379617  0.74853925  0.91571630  1
  Ca2+  Ca18  1  0.25107903  0.25471030  0.07905044  1
  Ca2+  Ca19  1  0.26255905  0.25668068  0.42091724  1
  Ca2+  Ca20  1  0.25743617  0.25945433  0.75431849  1
  Ca2+  Ca21  1  0.27550929  0.74831578  0.07583684  1
  Ca2+  Ca22  1  0.26405438  0.74656999  0.44012269  1
  Ca2+  Ca23  1  0.25867954  0.74648209  0.74083464  1
  Ca2+  Ca24  1  0.59005588  0.23886714  0.06523179  1
  Ca2+  Ca25  1  0.55542292  0.24927202  0.41881588  1
  Ca2+  Ca26  1  0.57675552  0.24637343  0.76709664  1
  Ca2+  Ca27  1  0.55337597  0.73137476  0.07619022  1
  Ca2+  Ca28  1  0.57475381  0.74752851  0.43129480  1
  Ca2+  Ca29  1  0.57494379  0.74256707  0.75376916  1
  Ca2+  Ca30  1  0.90490784  0.24573311  0.06981496  1
  Ca2+  Ca31  1  0.92383640  0.25452399  0.42240897  1
  Ca2+  Ca32  1  0.92145024  0.24796738  0.75767388  1
  Ca2+  Ca33  1  0.91351633  0.75204209  0.08992519  1
  Ca2+  Ca34  1  0.90418340  0.75655129  0.41560577  1
  Ca2+  Ca35  1  0.91360640  0.75961473  0.74526538  1
  Ca2+  Ca36  1  0.28370994  0.56275690  0.40173440  1
  Ca2+  Ca37  1  0.24371636  0.09421623  0.41750133  1
  Ca2+  Ca38  1  0.90361444  0.59807233  0.08558265  1
  Ca2+  Ca39  1  0.42052291  0.10009868  0.24056896  1
  Ca2+  Ca40  1  0.41844558  0.58644289  0.58372331  1
  Ca2+  Ca41  1  0.42903944  0.59393420  0.23626906  1
  Ca2+  Ca42  1  0.03631165  0.58318379  0.25180931  1
  Ca2+  Ca43  1  0.58553067  0.58156246  0.73446391  1
  Ca2+  Ca44  1  0.92317898  0.58119028  0.74637383  1
  Ca2+  Ca45  1  0.89920918  0.09415800  0.06940922  1
  Ca2+  Ca46  1  0.58118408  0.58743639  0.42238701  1
  Ca2+  Ca47  1  0.24645246  0.09662054  0.75420996  1
  Ca2+  Ca48  1  0.10261393  0.58659766  0.91696443  1
  Ca2+  Ca49  1  0.40713754  0.58685540  0.58292614  1
  Ca2+  Ca50  1  0.78671430  0.60042476  0.24234287  1
  Ca2+  Ca51  1  0.77551475  0.60075410  0.24655069  1
  Ca2+  Ca52  1  0.24350303  0.59890314  0.75469764  1
  Ca2+  Ca53  1  0.56905620  0.58752041  0.42102031  1
  Ca2+  Ca54  1  0.46396003  0.08882437  0.93104991  1
  Ca2+  Ca55  1  0.10880636  0.59087603  0.59224098  1
  Ca2+  Ca56  1  0.42182374  0.10647574  0.57535437  1
  Ca2+  Ca57  1  0.72117878  0.08430554  0.93762169  1
  Ca2+  Ca58  1  0.92123626  0.58602275  0.39093596  1
  Ca2+  Ca59  1  0.45668967  0.09295851  0.93545522  1
  Ca2+  Ca60  1  0.26929260  0.09119609  0.07485962  1
  Ca2+  Ca61  1  0.93763589  0.09804971  0.42115055  1
  Ca2+  Ca62  1  0.91503029  0.11031155  0.76272693  1
  Ca2+  Ca63  1  0.06003965  0.10645570  0.91589744  1
  Ca2+  Ca64  1  0.55369600  0.11319042  0.42000672  1
  Ca2+  Ca65  1  0.42351268  0.58571858  0.93658293  1
  Ca2+  Ca66  1  0.59530448  0.10463773  0.76391654  1
  Ca2+  Ca67  1  0.28054165  0.58646456  0.06676486  1
  Ca2+  Ca68  1  0.29004563  0.58709033  0.07036905  1
  Ca2+  Ca69  1  0.93526524  0.57853378  0.74840013  1
  Ca2+  Ca70  1  0.25212772  0.60183051  0.75917661  1
  Ca2+  Ca71  1  0.73494876  0.59154450  0.92887031  1
  Ca2+  Ca72  1  0.90999313  0.90543705  0.07148990  1
  Ca2+  Ca73  1  0.58951774  0.90022595  0.41765019  1
  Ca2+  Ca74  1  0.92645823  0.40515136  0.40500996  1
  Ca2+  Ca75  1  0.57655288  0.90029018  0.41767303  1
  Ca2+  Ca76  1  0.56558862  0.40962803  0.42394072  1
  Ca2+  Ca77  1  0.40273617  0.42122039  0.25622745  1
  Ca2+  Ca78  1  0.26341752  0.41390985  0.08039776  1
  Ca2+  Ca79  1  0.73456035  0.40535917  0.59378737  1
  Ca2+  Ca80  1  0.08606375  0.40031234  0.90661474  1
  Ca2+  Ca81  1  0.74576115  0.40572824  0.59451323  1
  Ca2+  Ca82  1  0.57893887  0.40655499  0.07255016  1
  Ca2+  Ca83  1  0.08287909  0.40352950  0.58959446  1
  Ca2+  Ca84  1  0.40564111  0.90656904  0.23951579  1
  Ca2+  Ca85  1  0.57963861  0.40605809  0.75062389  1
  Ca2+  Ca86  1  0.07376209  0.40996899  0.25205844  1
  Ca2+  Ca87  1  0.92087780  0.39984615  0.74475680  1
  Ca2+  Ca88  1  0.57747923  0.91026880  0.76564686  1
  Ca2+  Ca89  1  0.25885780  0.42036150  0.41045029  1
  Ca2+  Ca90  1  0.77024561  0.90182961  0.59101854  1
  Ca2+  Ca91  1  0.76649461  0.39890566  0.24248644  1
  Ca2+  Ca92  1  0.24051016  0.90932952  0.74380027  1
  Ca2+  Ca93  1  0.25280819  0.41350546  0.08105955  1
  Ca2+  Ca94  1  0.73633455  0.92214833  0.94155381  1
  Ca2+  Ca95  1  0.76647316  0.90258753  0.23065639  1
  Ca2+  Ca96  1  0.07056380  0.89982834  0.91947317  1
  Ca2+  Ca97  1  0.23094033  0.90152936  0.41663044  1
  Ca2+  Ca98  1  0.40851725  0.90700344  0.58782925  1
  Ca2+  Ca99  1  0.58872571  0.91000129  0.76352453  1
  Ca2+  Ca100  1  0.25331635  0.90943757  0.74437393  1
  Ca2+  Ca101  1  0.55868670  0.93535534  0.04398199  1
  Ca2+  Ca102  1  0.42152735  0.41115138  0.58390284  1
  Ca2+  Ca103  1  0.74653777  0.92374159  0.94009153  1
  Ca2+  Ca104  1  0.27307769  0.90502539  0.08455494  1
  Ca2+  Ca105  1  0.75371606  0.90366045  0.23072543  1
  Ca2+  Ca106  1  0.39596878  0.42550956  0.26135915  1
  Ca2+  Ca107  1  0.07100375  0.90753560  0.58406198  1
  Mn3.34+  Mn108  1  0.08017513  0.33338474  0.08280002  1
  Mn3.34+  Mn109  1  0.08892267  0.33440317  0.41713441  1
  Mn3.34+  Mn110  1  0.08706035  0.33937817  0.75266612  1
  Mn3.34+  Mn111  1  0.08599945  0.83272172  0.08356242  1
  Mn3.34+  Mn112  1  0.07370328  0.83761102  0.41365531  1
  Mn3.34+  Mn113  1  0.07987537  0.83146913  0.75433321  1
  Mn3.34+  Mn114  1  0.41866963  0.33327197  0.08485329  1
  Mn3.34+  Mn115  1  0.41334140  0.33905030  0.41869088  1
  Mn3.34+  Mn116  1  0.41542712  0.33550141  0.75182229  1
  Mn3.34+  Mn117  1  0.42243629  0.83465955  0.08060486  1
  Mn3.34+  Mn118  1  0.41215970  0.83053927  0.41327722  1
  Mn3.34+  Mn119  1  0.41573955  0.83099072  0.75477885  1
  Mn3.34+  Mn120  1  0.75085049  0.33488995  0.07678457  1
  Mn3.34+  Mn121  1  0.74814391  0.33442380  0.41383965  1
  Mn3.34+  Mn122  1  0.75000338  0.33215805  0.76050552  1
  Mn3.34+  Mn123  1  0.74751179  0.82447480  0.08349019  1
  Mn3.34+  Mn124  1  0.75558049  0.83393117  0.41846702  1
  Mn3.34+  Mn125  1  0.75329322  0.83587389  0.75690204  1
  Mn3.34+  Mn126  1  0.24557378  0.33592351  0.24864224  1
  Mn3.34+  Mn127  1  0.25042749  0.33764252  0.58638392  1
  Mn3.34+  Mn128  1  0.25380623  0.33171828  0.91310424  1
  Mn3.34+  Mn129  1  0.24554495  0.83554216  0.24842419  1
  Mn3.34+  Mn130  1  0.24809297  0.83124952  0.57985025  1
  Mn3.34+  Mn131  1  0.25238679  0.83070500  0.91382369  1
  Mn3.34+  Mn132  1  0.58512450  0.33392030  0.24812823  1
  Mn3.34+  Mn133  1  0.58155252  0.33435524  0.58294517  1
  Mn3.34+  Mn134  1  0.58420425  0.33474021  0.91618749  1
  Mn3.34+  Mn135  1  0.58414997  0.82963246  0.24138072  1
  Mn3.34+  Mn136  1  0.58071112  0.83281492  0.58808593  1
  Mn3.34+  Mn137  1  0.57938415  0.82903515  0.91857747  1
  Mn3.34+  Mn138  1  0.91915446  0.33728277  0.24280933  1
  Mn3.34+  Mn139  1  0.91582699  0.33147848  0.58083401  1
  Mn3.34+  Mn140  1  0.91411307  0.32914858  0.91814351  1
  Mn3.34+  Mn141  1  0.93287721  0.84142083  0.25290179  1
  Mn3.34+  Mn142  1  0.92028275  0.83218910  0.58166748  1
  Mn3.34+  Mn143  1  0.91327431  0.82788194  0.91275740  1
  Mn3.34+  Mn144  1  0.08379396  0.66669314  0.08475184  1
  Mn3.34+  Mn145  1  0.23864590  0.16244657  0.24638723  1
  Mn3.34+  Mn146  1  0.90987685  0.67231904  0.91062449  1
  Mn3.34+  Mn147  1  0.24885029  0.16723899  0.24808564  1
  Mn3.34+  Mn148  1  0.74677660  0.67020922  0.41592026  1
  Mn3.34+  Mn149  1  0.08971345  0.67370165  0.41553887  1
  Mn3.34+  Mn150  1  0.74357995  0.16906989  0.41199958  1
  Mn3.34+  Mn151  1  0.07305359  0.66203362  0.08494005  1
  Mn3.34+  Mn152  1  0.75342226  0.16370107  0.41341846  1
  Mn3.34+  Mn153  1  0.74314783  0.15878149  0.08605648  1
  Mn3.34+  Mn154  1  0.41670771  0.16696812  0.75566112  1
  Mn3.34+  Mn155  1  0.75070108  0.16369476  0.75389627  1
  Mn3.34+  Mn156  1  0.58078760  0.17250744  0.24480814  1
  Mn3.34+  Mn157  1  0.90467106  0.66528962  0.57888419  1
  Mn3.34+  Mn158  1  0.08033973  0.66874391  0.75717096  1
  Mn3.34+  Mn159  1  0.58548905  0.67248979  0.24838706  1
  Mn3.34+  Mn160  1  0.25174228  0.16888481  0.58379651  1
  Mn3.34+  Mn161  1  0.24589279  0.65766409  0.25006793  1
  Mn3.34+  Mn162  1  0.41660150  0.66495818  0.42044500  1
  Mn3.34+  Mn163  1  0.08010960  0.66835117  0.41714628  1
  Mn3.34+  Mn164  1  0.08432088  0.16650429  0.75205926  1
  Mn3.34+  Mn165  1  0.57953639  0.66291019  0.91530425  1
  Mn3.34+  Mn166  1  0.41606845  0.66468375  0.75548719  1
  Mn3.34+  Mn167  1  0.91872125  0.16355094  0.58537364  1
  Mn3.34+  Mn168  1  0.74158590  0.67283428  0.08423929  1
  Mn3.34+  Mn169  1  0.58578545  0.66369745  0.58737788  1
  Mn3.34+  Mn170  1  0.91830189  0.65938981  0.57695768  1
  Mn3.34+  Mn171  1  0.07943435  0.17040354  0.08527520  1
  Mn3.34+  Mn172  1  0.07952939  0.16747296  0.41493173  1
  Mn3.34+  Mn173  1  0.25640252  0.66252142  0.25103380  1
  Mn3.34+  Mn174  1  0.42121603  0.16952285  0.08436499  1
  Mn3.34+  Mn175  1  0.58290268  0.17217052  0.58865580  1
  Mn3.34+  Mn176  1  0.74881884  0.66195395  0.75605247  1
  Mn3.34+  Mn177  1  0.24946679  0.16937436  0.91511330  1
  Mn3.34+  Mn178  1  0.24168342  0.16379608  0.58270468  1
  Mn3.34+  Mn179  1  0.91971724  0.16009553  0.24073055  1
  Mn3.34+  Mn180  1  0.25005757  -0.00229818  0.92409629  1
  Mn3.34+  Mn181  1  0.59438958  0.49992025  0.23764051  1
  Mn3.34+  Mn182  1  0.74412047  0.50006317  0.08270605  1
  Mn3.34+  Mn183  1  0.92109341  0.50242963  0.58320935  1
  Mn3.34+  Mn184  1  0.23226694  -0.00065464  0.26104343  1
  Mn3.34+  Mn185  1  0.58602528  0.00775018  0.59303455  1
  Mn3.34+  Mn186  1  0.77406397  -0.00118047  0.41439839  1
  Mn3.34+  Mn187  1  0.91340732  0.49603574  0.92349722  1
  Mn3.34+  Mn188  1  0.58006473  0.49912253  0.92843204  1
  Mn3.34+  Mn189  1  0.25510969  0.49321641  0.91815427  1
  Mn3.34+  Mn190  1  0.41302950  -0.00001603  0.75261262  1
  Mn3.34+  Mn191  1  0.41878070  0.00315342  0.40926029  1
  Mn3.34+  Mn192  1  0.76086962  -0.00322060  0.41711894  1
  Mn3.34+  Mn193  1  0.07824447  0.49789937  0.08105606  1
  Mn3.34+  Mn194  1  0.91688589  -0.00124612  0.91616517  1
  Mn3.34+  Mn195  1  0.58418570  0.50530166  0.23629819  1
  Mn3.34+  Mn196  1  0.26082661  0.00286429  0.92184831  1
  Mn3.34+  Mn197  1  0.74897340  0.50052745  0.42755182  1
  Mn3.34+  Mn198  1  0.41795126  0.49963805  0.75240733  1
  Mn3.34+  Mn199  1  0.24311095  -0.00128629  0.58742689  1
  Mn3.34+  Mn200  1  0.74833725  0.50127247  0.74577160  1
  Mn3.34+  Mn201  1  0.91806983  -0.00065503  0.59282316  1
  Mn3.34+  Mn202  1  0.07193434  -0.00003176  0.09753205  1
  Mn3.34+  Mn203  1  0.08577891  0.00541103  0.09953636  1
  Mn3.34+  Mn204  1  0.58951939  0.00318713  0.23962605  1
  Mn3.34+  Mn205  1  0.60083081  0.00249861  0.59145755  1
  Mn3.34+  Mn206  1  0.07682634  -0.00045358  0.75048269  1
  Mn3.34+  Mn207  1  0.76691727  0.00046228  0.74742282  1
  Mn3.34+  Mn208  1  0.08217173  0.00189311  0.40543207  1
  Mn3.34+  Mn209  1  0.75860740  0.50550879  0.42464305  1
  Mn3.34+  Mn210  1  0.59819548  0.00855336  0.23760846  1
  Mn3.34+  Mn211  1  0.08476453  0.50142364  0.41320093  1
  Mn3.34+  Mn212  1  0.24277700  0.49710640  0.60264195  1
  Mn3.34+  Mn213  1  0.40446551  -0.00317796  0.40910632  1
  Mn3.34+  Mn214  1  0.92847224  0.00055293  0.25691071  1
  Mn3.34+  Mn215  1  0.90352567  0.49140302  0.92596531  1
  O2-  O216  1  -0.00209081  0.16028793  0.01259921  1
  O2-  O217  1  -0.00687889  0.17462684  0.33454823  1
  O2-  O218  1  0.00147367  0.17431339  0.67036885  1
  O2-  O219  1  -0.00131666  0.65677173  -0.01083795  1
  O2-  O220  1  0.00159336  0.66594463  0.33360061  1
  O2-  O221  1  0.00118780  0.65753917  0.66395365  1
  O2-  O222  1  0.34356297  0.14832195  -0.01257981  1
  O2-  O223  1  0.32584879  0.14879457  0.32662816  1
  O2-  O224  1  0.33315001  0.14947688  0.66723590  1
  O2-  O225  1  0.32969890  0.66038925  -0.00547717  1
  O2-  O226  1  0.34028213  0.64246803  0.33328701  1
  O2-  O227  1  0.33836507  0.64663011  0.67015599  1
  O2-  O228  1  0.66779151  0.16198050  0.00595103  1
  O2-  O229  1  0.66141604  0.15089088  0.33499244  1
  O2-  O230  1  0.66911550  0.17640065  0.66962960  1
  O2-  O231  1  0.66691168  0.66652631  -0.00365181  1
  O2-  O232  1  0.67334445  0.65283163  0.32733391  1
  O2-  O233  1  0.66909445  0.66751683  0.67078539  1
  O2-  O234  1  0.16794644  0.15030234  0.00061055  1
  O2-  O235  1  0.16231415  0.15271426  0.33212831  1
  O2-  O236  1  0.16923478  0.16330056  0.66939751  1
  O2-  O237  1  0.16629875  0.65018679  0.00926545  1
  O2-  O238  1  0.16949189  0.64868088  0.33637016  1
  O2-  O239  1  0.16348971  0.66322485  0.67716181  1
  O2-  O240  1  0.50095915  0.16785156  0.00739081  1
  O2-  O241  1  0.49742926  0.16546330  0.32322100  1
  O2-  O242  1  0.50305519  0.14939808  0.67369114  1
  O2-  O243  1  0.50051902  0.65630347  -0.00942973  1
  O2-  O244  1  0.51378533  0.65667626  0.34433807  1
  O2-  O245  1  0.49831097  0.64753654  0.66734003  1
  O2-  O246  1  0.82308353  0.16088978  0.00336847  1
  O2-  O247  1  0.83611776  0.16207005  0.33107878  1
  O2-  O248  1  0.83463521  0.16958149  0.66736717  1
  O2-  O249  1  0.83206845  0.67549842  0.00067291  1
  O2-  O250  1  0.83369496  0.66397373  0.33788074  1
  O2-  O251  1  0.84115094  0.65069480  0.68053157  1
  O2-  O252  1  0.00707598  0.34341072  -0.00786429  1
  O2-  O253  1  0.00119475  0.33233152  0.33143341  1
  O2-  O254  1  0.00118133  0.33415073  0.66546262  1
  O2-  O255  1  -0.00713616  0.83666214  0.00027118  1
  O2-  O256  1  -0.00209429  0.80051753  0.33393903  1
  O2-  O257  1  0.00688913  0.82550760  0.66480401  1
  O2-  O258  1  0.32860399  0.34698292  0.00638007  1
  O2-  O259  1  0.33029212  0.35091458  0.33289531  1
  O2-  O260  1  0.33790567  0.34637797  0.66197760  1
  O2-  O261  1  0.32962178  0.83380304  0.00049657  1
  O2-  O262  1  0.32965004  0.85091326  0.33433834  1
  O2-  O263  1  0.33023761  0.84709213  0.66883755  1
  O2-  O264  1  0.66185893  0.34343580  0.00350903  1
  O2-  O265  1  0.66458448  0.35872010  0.33412958  1
  O2-  O266  1  0.66776096  0.33695783  0.66834174  1
  O2-  O267  1  0.67326535  0.83626134  -0.00632887  1
  O2-  O268  1  0.66937958  0.84895403  0.32909884  1
  O2-  O269  1  0.66754426  0.85334345  0.67247958  1
  O2-  O270  1  0.17027945  0.34910796  0.00656259  1
  O2-  O271  1  0.16631576  0.35585429  0.33245663  1
  O2-  O272  1  0.16125987  0.33068986  0.66542808  1
  O2-  O273  1  0.16345753  0.84017229  -0.00928823  1
  O2-  O274  1  0.16089982  0.83043294  0.33426926  1
  O2-  O275  1  0.16537770  0.84248020  0.66808518  1
  O2-  O276  1  0.49914139  0.34324769  0.00297047  1
  O2-  O277  1  0.49304795  0.35382026  0.32920325  1
  O2-  O278  1  0.49989149  0.34829380  0.66147391  1
  O2-  O279  1  0.50727679  0.84410076  0.00348883  1
  O2-  O280  1  0.50499896  0.84373098  0.32955810  1
  O2-  O281  1  0.49963149  0.85535573  0.67035446  1
  O2-  O282  1  0.83487806  0.33892670  -0.00052940  1
  O2-  O283  1  0.83972919  0.33394795  0.33375574  1
  O2-  O284  1  0.82805582  0.33665355  0.66315522  1
  O2-  O285  1  0.83217584  0.82103889  0.00075083  1
  O2-  O286  1  0.83667058  0.84013692  0.32489972  1
  O2-  O287  1  0.82793249  0.82891601  0.66892545  1
  O2-  O288  1  0.00072672  0.19196428  0.16872404  1
  O2-  O289  1  -0.00165654  0.17928040  0.49523800  1
  O2-  O290  1  0.00655668  0.17984204  0.82862174  1
  O2-  O291  1  -0.00513384  0.68185818  0.16230049  1
  O2-  O292  1  0.00025793  0.69181786  0.49662866  1
  O2-  O293  1  -0.00926596  0.69115072  0.82781761  1
  O2-  O294  1  0.32940020  0.18072473  0.16460991  1
  O2-  O295  1  0.32896052  0.17670127  0.50293833  1
  O2-  O296  1  0.32679238  0.18143345  0.82702327  1
  O2-  O297  1  0.32963489  0.67483393  0.16403911  1
  O2-  O298  1  0.34280924  0.66868479  0.50276651  1
  O2-  O299  1  0.32761628  0.67938784  0.82141666  1
  O2-  O300  1  0.66401702  0.18340378  0.16822473  1
  O2-  O301  1  0.66213149  0.18029299  0.49600158  1
  O2-  O302  1  0.67204988  0.17899960  0.82739575  1
  O2-  O303  1  0.66543452  0.69538949  0.16921464  1
  O2-  O304  1  0.65668288  0.67692587  0.49141161  1
  O2-  O305  1  0.66660454  0.67777076  0.83331284  1
  O2-  O306  1  0.16875536  0.18493741  0.16403904  1
  O2-  O307  1  0.16776731  0.17827406  0.49544436  1
  O2-  O308  1  0.16883090  0.18592102  0.83116741  1
  O2-  O309  1  0.15832043  0.68466377  0.17579670  1
  O2-  O310  1  0.16403526  0.68335212  0.49965287  1
  O2-  O311  1  0.16191268  0.67886559  0.83266015  1
  O2-  O312  1  0.49461139  0.19007108  0.16952357  1
  O2-  O313  1  0.49928526  0.17918614  0.51112550  1
  O2-  O314  1  0.49358534  0.17221458  0.83551645  1
  O2-  O315  1  0.49560736  0.68543295  0.18797004  1
  O2-  O316  1  0.49800881  0.67922216  0.50378031  1
  O2-  O317  1  0.50191420  0.67275666  0.82991401  1
  O2-  O318  1  0.83857190  0.18222800  0.16657710  1
  O2-  O319  1  0.83395372  0.17715122  0.49365870  1
  O2-  O320  1  0.83062973  0.18537013  0.82068294  1
  O2-  O321  1  0.82474129  0.68253264  0.16493334  1
  O2-  O322  1  0.82928001  0.68077480  0.49535463  1
  O2-  O323  1  0.82849238  0.69169663  0.83309497  1
  O2-  O324  1  0.00455394  0.31915275  0.17023682  1
  O2-  O325  1  -0.00162363  0.32875733  0.49817262  1
  O2-  O326  1  0.00392865  0.31735830  0.82787436  1
  O2-  O327  1  0.00041470  0.81627168  0.16564899  1
  O2-  O328  1  0.00348511  0.81425738  0.50007582  1
  O2-  O329  1  0.00391645  0.81263464  0.83942547  1
  O2-  O330  1  0.33051521  0.32076689  0.17091144  1
  O2-  O331  1  0.33273081  0.32934123  0.50128680  1
  O2-  O332  1  0.33789168  0.31870425  0.83573345  1
  O2-  O333  1  0.33535354  0.82436020  0.16660469  1
  O2-  O334  1  0.33565341  0.82703413  0.50462689  1
  O2-  O335  1  0.32731596  0.81514026  0.82662487  1
  O2-  O336  1  0.66801146  0.32440721  0.17155515  1
  O2-  O337  1  0.67305976  0.32676765  0.50860406  1
  O2-  O338  1  0.66469443  0.31927980  0.83115473  1
  O2-  O339  1  0.67685820  0.81432891  0.17505280  1
  O2-  O340  1  0.65885609  0.82321906  0.49754209  1
  O2-  O341  1  0.66135436  0.81381194  0.82518173  1
  O2-  O342  1  0.16884754  0.32245957  0.16612978  1
  O2-  O343  1  0.16484818  0.32548568  0.50422877  1
  O2-  O344  1  0.16304692  0.31726225  0.83703138  1
  O2-  O345  1  0.17512226  0.81631715  0.15755196  1
  O2-  O346  1  0.16798359  0.81700359  0.49709795  1
  O2-  O347  1  0.16944911  0.80957554  0.82837968  1
  O2-  O348  1  0.49560153  0.32367302  0.17197333  1
  O2-  O349  1  0.50209558  0.32882005  0.49744832  1
  O2-  O350  1  0.50471265  0.32519708  0.82555872  1
  O2-  O351  1  0.49900234  0.81726965  0.16890462  1
  O2-  O352  1  0.50076995  0.82416445  0.49428643  1
  O2-  O353  1  0.50796082  0.82744576  0.82441741  1
  O2-  O354  1  0.83258670  0.32126406  0.17084539  1
  O2-  O355  1  0.82985220  0.32874362  0.50427317  1
  O2-  O356  1  0.84012191  0.31743939  0.82653083  1
  O2-  O357  1  0.83283079  0.81447594  0.16759688  1
  O2-  O358  1  0.82808750  0.82029838  0.50563680  1
  O2-  O359  1  0.82928404  0.80847746  0.83680440  1
  O2-  O360  1  0.08268759  0.08606943  0.11491557  1
  O2-  O361  1  0.08279658  0.08301311  0.43677259  1
  O2-  O362  1  0.08568237  0.07951441  0.77901280  1
  O2-  O363  1  0.06677903  0.58055429  0.12052707  1
  O2-  O364  1  0.07462583  0.58133584  0.45075135  1
  O2-  O365  1  0.06419334  0.58421514  0.78767586  1
  O2-  O366  1  0.41484958  0.08979422  0.10637953  1
  O2-  O367  1  0.41450125  0.08068480  0.44402063  1
  O2-  O368  1  0.40252060  0.08026523  0.78639479  1
  O2-  O369  1  0.40195418  0.56461095  0.11771014  1
  O2-  O370  1  0.43267505  0.57958801  0.44635029  1
  O2-  O371  1  0.40018135  0.57812553  0.79325909  1
  O2-  O372  1  0.75688257  0.08251292  0.10025053  1
  O2-  O373  1  0.75405883  0.08080034  0.44355244  1
  O2-  O374  1  0.75518166  0.08265942  0.78130852  1
  O2-  O375  1  0.74946710  0.58201119  0.11521897  1
  O2-  O376  1  0.73277615  0.58620445  0.44258141  1
  O2-  O377  1  0.76515091  0.57561694  0.79395312  1
  O2-  O378  1  0.24894032  0.07943617  0.21069733  1
  O2-  O379  1  0.25649577  0.07979220  0.55536720  1
  O2-  O380  1  0.23776484  0.08220577  0.88657568  1
  O2-  O381  1  0.24364901  0.57893572  0.21158307  1
  O2-  O382  1  0.25751895  0.56355386  0.54067398  1
  O2-  O383  1  0.24095146  0.57012749  0.88340267  1
  O2-  O384  1  0.56758173  0.08820411  0.22406604  1
  O2-  O385  1  0.58155738  0.08588194  0.55678637  1
  O2-  O386  1  0.57115469  0.05928293  0.87310032  1
  O2-  O387  1  0.59712120  0.58646144  0.21614446  1
  O2-  O388  1  0.56717422  0.58027995  0.55445128  1
  O2-  O389  1  0.58701642  0.57455764  0.88197765  1
  O2-  O390  1  0.92697728  0.07724956  0.20973440  1
  O2-  O391  1  0.91658275  0.07872172  0.55851109  1
  O2-  O392  1  0.92661098  0.07367762  0.88636198  1
  O2-  O393  1  0.90742645  0.57499237  0.21438185  1
  O2-  O394  1  0.91313060  0.58159107  0.53358272  1
  O2-  O395  1  0.90737588  0.57859971  0.88109711  1
  O2-  O396  1  0.10030569  0.41822295  0.11561577  1
  O2-  O397  1  0.07283554  0.42193731  0.44181520  1
  O2-  O398  1  0.06916541  0.41771271  0.76588912  1
  O2-  O399  1  0.07536377  0.91732258  0.10422823  1
  O2-  O400  1  0.08848277  0.92237655  0.44725198  1
  O2-  O401  1  0.09908159  0.91893198  0.78554318  1
  O2-  O402  1  0.40095071  0.41716632  0.11874895  1
  O2-  O403  1  0.41894205  0.42233814  0.44238562  1
  O2-  O404  1  0.43045372  0.42024198  0.76168030  1
  O2-  O405  1  0.42142043  0.91694088  0.10743573  1
  O2-  O406  1  0.43352835  0.91859574  0.44610781  1
  O2-  O407  1  0.40767147  0.91771423  0.78279071  1
  O2-  O408  1  0.73522169  0.42041152  0.11185556  1
  O2-  O409  1  0.76490675  0.41967613  0.44698375  1
  O2-  O410  1  0.75632965  0.41964286  0.74984991  1
  O2-  O411  1  0.76359765  0.91443882  0.09784337  1
  O2-  O412  1  0.73281777  0.91959088  0.45488167  1
  O2-  O413  1  0.73874689  0.92231327  0.80040569  1
  O2-  O414  1  0.25587728  0.41907186  0.21837956  1
  O2-  O415  1  0.23767722  0.42435446  0.55645849  1
  O2-  O416  1  0.23247476  0.41557444  0.90054748  1
  O2-  O417  1  0.25237431  0.91916872  0.21900105  1
  O2-  O418  1  0.24087645  0.91742894  0.55618289  1
  O2-  O419  1  0.24002792  0.92012571  0.87858470  1
  O2-  O420  1  0.57640966  0.41875242  0.21549628  1
  O2-  O421  1  0.60051044  0.41863205  0.56175822  1
  O2-  O422  1  0.58748368  0.42561300  0.88873449  1
  O2-  O423  1  0.61148233  0.92180434  0.20792782  1
  O2-  O424  1  0.58297974  0.92440069  0.54760871  1
  O2-  O425  1  0.60030898  0.91164611  0.89703738  1
  O2-  O426  1  0.92001960  0.41623194  0.24586396  1
  O2-  O427  1  0.91022821  0.41870025  0.56870822  1
  O2-  O428  1  0.92318562  0.41495777  0.88119270  1
  O2-  O429  1  0.90486757  0.92046384  0.20677859  1
  O2-  O430  1  0.92064149  0.91676978  0.55965431  1
  O2-  O431  1  0.90565798  0.91640500  0.90085661  1
  O2-  O432  1  -0.00400884  -0.00068544  0.00671660  1
  O2-  O433  1  -0.02741755  0.00742433  0.36501564  1
  O2-  O434  1  0.01373548  -0.00864519  0.65388654  1
  O2-  O435  1  0.01503613  0.50864140  -0.02012892  1
  O2-  O436  1  0.00106157  0.50486725  0.34117760  1
  O2-  O437  1  0.00604261  0.52136510  0.65473976  1
  O2-  O438  1  0.33638034  0.01020879  0.00586975  1
  O2-  O439  1  0.34923727  0.00354286  0.30698565  1
  O2-  O440  1  0.33526918  -0.01558276  0.66427951  1
  O2-  O441  1  0.33164692  0.49995259  -0.00271437  1
  O2-  O442  1  0.34119482  0.49259682  0.32334901  1
  O2-  O443  1  0.33619411  0.51373747  0.66427061  1
  O2-  O444  1  0.66758306  -0.00703276  -0.01099653  1
  O2-  O445  1  0.65846395  -0.00710346  0.34678393  1
  O2-  O446  1  0.65511595  -0.00999940  0.69332047  1
  O2-  O447  1  0.66851859  0.50783785  -0.00721629  1
  O2-  O448  1  0.65527558  0.49806958  0.34804090  1
  O2-  O449  1  0.66206561  0.49715329  0.67950100  1
  O2-  O450  1  0.16961886  -0.00426257  0.01318030  1
  O2-  O451  1  0.19868512  0.00026366  0.38058954  1
  O2-  O452  1  0.18181895  -0.00638261  0.69238196  1
  O2-  O453  1  0.18082483  0.51447683  0.01780333  1
  O2-  O454  1  0.17809194  0.50156886  0.36015487  1
  O2-  O455  1  0.17707486  0.52851734  0.67851784  1
  O2-  O456  1  0.50356931  0.01237588  -0.00383344  1
  O2-  O457  1  0.50503142  -0.01572685  0.32441146  1
  O2-  O458  1  0.50137888  -0.01200285  0.67293910  1
  O2-  O459  1  0.49969686  0.50162155  -0.00812009  1
  O2-  O460  1  0.50497184  0.51296377  0.32218663  1
  O2-  O461  1  0.49072956  0.51787989  0.67108599  1
  O2-  O462  1  0.82777652  0.00119667  -0.01877566  1
  O2-  O463  1  0.81278913  -0.01672969  0.30689067  1
  O2-  O464  1  0.81429674  -0.00946006  0.63928650  1
  O2-  O465  1  0.83678905  0.52068007  0.01312502  1
  O2-  O466  1  0.82730411  0.51802051  0.33357083  1
  O2-  O467  1  0.84833757  0.50785609  0.68548277  1
  O2-  O468  1  0.08343700  0.74830985  0.05596139  1
  O2-  O469  1  0.41217290  0.25867980  0.39939952  1
  O2-  O470  1  0.74819469  0.25296255  0.06922123  1
  O2-  O471  1  0.91445711  0.25036686  0.58508864  1
  O2-  O472  1  0.42344589  0.74786818  0.72248200  1
  O2-  O473  1  0.41801068  0.24934558  0.72428491  1
  O2-  O474  1  0.74186385  0.75065873  0.39540063  1
  O2-  O475  1  0.25729252  0.74408138  0.27767787  1
  O2-  O476  1  0.90579735  0.74563269  0.60306584  1
  O2-  O477  1  0.58058697  0.74886940  0.60638898  1
  O2-  O478  1  0.41039917  0.74643356  0.39094022  1
  O2-  O479  1  0.41643531  0.75313130  0.06673271  1
  O2-  O480  1  0.09439319  0.25179369  0.40058058  1
  O2-  O481  1  0.25719211  0.75334629  0.60059630  1
  O2-  O482  1  0.57958061  0.25620546  0.92693159  1
  O2-  O483  1  0.25537665  0.24958347  0.94281600  1
  O2-  O484  1  0.24391874  0.25119863  0.28003843  1
  O2-  O485  1  0.09498616  0.25153697  0.05753895  1
  O2-  O486  1  0.40404384  0.25283593  0.05936524  1
  O2-  O487  1  0.57209136  0.74735778  0.93229014  1
  O2-  O488  1  0.57290092  0.25316458  0.60288784  1
  O2-  O489  1  0.91989649  0.25180732  0.93253957  1
  O2-  O490  1  0.58891701  0.25449625  0.28069802  1
  O2-  O491  1  0.25864150  0.25161560  0.60272244  1
  O2-  O492  1  0.74546260  0.25160262  0.39688531  1
