# generated using pymatgen
data_Ca108Mn108O277
_symmetry_space_group_name_H-M   'P 1'
_cell_length_a   16.02238267
_cell_length_b   22.30219850
_cell_length_c   16.38673510
_cell_angle_alpha   89.99989940
_cell_angle_beta   90.00022006
_cell_angle_gamma   89.99746061
_symmetry_Int_Tables_number   1
_chemical_formula_structural   Ca108Mn108O277
_chemical_formula_sum   'Ca108 Mn108 O277'
_cell_volume   5855.54347511
_cell_formula_units_Z   1
loop_
 _symmetry_equiv_pos_site_id
 _symmetry_equiv_pos_as_xyz
  1  'x, y, z'
loop_
 _atom_type_symbol
 _atom_type_oxidation_number
  Ca2+  2.0
  Mn3.34+  3.34
  O2-  -2.0
loop_
 _atom_site_type_symbol
 _atom_site_label
 _atom_site_symmetry_multiplicity
 _atom_site_fract_x
 _atom_site_fract_y
 _atom_site_fract_z
 _atom_site_occupancy
  Ca2+  Ca0  1  0.07173094  0.26085616  0.24744126  1
  Ca2+  Ca1  1  0.08492767  0.25697478  0.60277499  1
  Ca2+  Ca2  1  0.09561931  0.24448037  0.90048003  1
  Ca2+  Ca3  1  0.07461094  0.74661706  0.25383164  1
  Ca2+  Ca4  1  0.06429708  0.73353811  0.57574631  1
  Ca2+  Ca5  1  0.09055855  0.74832730  0.92081755  1
  Ca2+  Ca6  1  0.41327144  0.26242981  0.24569276  1
  Ca2+  Ca7  1  0.42401446  0.26200520  0.57389723  1
  Ca2+  Ca8  1  0.39176760  0.25257306  0.92687610  1
  Ca2+  Ca9  1  0.41770553  0.73990764  0.25005267  1
  Ca2+  Ca10  1  0.40714353  0.76002039  0.57458347  1
  Ca2+  Ca11  1  0.40296204  0.74407778  0.92346858  1
  Ca2+  Ca12  1  0.75958461  0.25132186  0.23996888  1
  Ca2+  Ca13  1  0.73932902  0.25188887  0.57938743  1
  Ca2+  Ca14  1  0.75650982  0.25103308  0.93564053  1
  Ca2+  Ca15  1  0.76172673  0.74429698  0.26272766  1
  Ca2+  Ca16  1  0.76698056  0.74686910  0.57510876  1
  Ca2+  Ca17  1  0.76073214  0.75401390  0.90949871  1
  Ca2+  Ca18  1  0.25206771  0.24263709  0.05839887  1
  Ca2+  Ca19  1  0.25051570  0.26740400  0.41621469  1
  Ca2+  Ca20  1  0.23295748  0.25009442  0.77407853  1
  Ca2+  Ca21  1  0.24144272  0.73911812  0.07337220  1
  Ca2+  Ca22  1  0.24682008  0.75071190  0.42520075  1
  Ca2+  Ca23  1  0.24510445  0.74322886  0.76416260  1
  Ca2+  Ca24  1  0.59599775  0.26049246  0.09016723  1
  Ca2+  Ca25  1  0.58643455  0.25001316  0.42256088  1
  Ca2+  Ca26  1  0.59374039  0.25572170  0.74244290  1
  Ca2+  Ca27  1  0.57996146  0.75604387  0.08162674  1
  Ca2+  Ca28  1  0.60577919  0.73835106  0.41673943  1
  Ca2+  Ca29  1  0.59321652  0.75977543  0.75360821  1
  Ca2+  Ca30  1  0.89816348  0.24644609  0.08920170  1
  Ca2+  Ca31  1  0.90725725  0.26172203  0.41079246  1
  Ca2+  Ca32  1  0.93350840  0.25023432  0.75111548  1
  Ca2+  Ca33  1  0.92176264  0.74551090  0.08365611  1
  Ca2+  Ca34  1  0.90388041  0.75049254  0.42969630  1
  Ca2+  Ca35  1  0.90685618  0.74261848  0.73743378  1
  Ca2+  Ca36  1  0.11100979  0.10906783  0.91792301  1
  Ca2+  Ca37  1  0.23795355  0.07162561  0.39507158  1
  Ca2+  Ca38  1  0.61502804  0.58668366  0.75041917  1
  Ca2+  Ca39  1  0.22758495  0.06786386  0.39970666  1
  Ca2+  Ca40  1  0.41171072  0.59442732  0.57089505  1
  Ca2+  Ca41  1  0.90085609  0.08645882  0.41817209  1
  Ca2+  Ca42  1  0.39893548  0.59468441  0.57086682  1
  Ca2+  Ca43  1  0.12161678  0.59777933  0.90950467  1
  Ca2+  Ca44  1  0.59389258  0.07704342  0.73593981  1
  Ca2+  Ca45  1  0.09287270  0.07715537  0.24513825  1
  Ca2+  Ca46  1  0.60002529  0.08416739  0.41622164  1
  Ca2+  Ca47  1  0.38360542  0.09126636  0.93157547  1
  Ca2+  Ca48  1  0.41854203  0.07718945  0.24905755  1
  Ca2+  Ca49  1  0.76664338  0.60669949  0.25881660  1
  Ca2+  Ca50  1  0.91954216  0.10416455  0.75616382  1
  Ca2+  Ca51  1  0.91157756  0.59745270  0.73653155  1
  Ca2+  Ca52  1  0.06895629  0.60190175  0.24872564  1
  Ca2+  Ca53  1  0.24858561  0.59378125  0.41014178  1
  Ca2+  Ca54  1  0.60511105  0.08008481  0.74015326  1
  Ca2+  Ca55  1  0.90566746  0.61357098  0.41764073  1
  Ca2+  Ca56  1  0.75507317  0.09489279  0.24722544  1
  Ca2+  Ca57  1  0.87760898  0.09726692  0.08129952  1
  Ca2+  Ca58  1  0.60915176  0.07372713  0.08267354  1
  Ca2+  Ca59  1  0.75847675  0.61562769  0.57322541  1
  Ca2+  Ca60  1  0.22568554  0.10741845  0.76863843  1
  Ca2+  Ca61  1  0.91453527  0.60673832  0.10002558  1
  Ca2+  Ca62  1  0.76354310  0.08652195  0.93549518  1
  Ca2+  Ca63  1  0.23773432  0.59531800  0.41179951  1
  Ca2+  Ca64  1  0.89762150  0.61774510  0.42096124  1
  Ca2+  Ca65  1  0.62077608  0.07644732  0.08671646  1
  Ca2+  Ca66  1  0.08033654  0.07713159  0.24578304  1
  Ca2+  Ca67  1  0.43307365  0.08790901  0.58518883  1
  Ca2+  Ca68  1  0.06380314  0.09166658  0.59646411  1
  Ca2+  Ca69  1  0.56614193  0.60902026  0.09249583  1
  Ca2+  Ca70  1  0.92992751  0.10633747  0.75753903  1
  Ca2+  Ca71  1  0.13122286  0.59616823  0.91073970  1
  Ca2+  Ca72  1  0.57837397  0.40519161  0.41515693  1
  Ca2+  Ca73  1  0.40965452  0.41125700  0.92519826  1
  Ca2+  Ca74  1  0.07881531  0.41293762  0.25724137  1
  Ca2+  Ca75  1  0.89920113  0.40843816  0.08422364  1
  Ca2+  Ca76  1  0.58950188  0.90117705  0.41048439  1
  Ca2+  Ca77  1  0.24141919  0.41501277  0.41920776  1
  Ca2+  Ca78  1  0.91216005  0.41327208  0.74583119  1
  Ca2+  Ca79  1  0.42553409  0.90514412  0.24432599  1
  Ca2+  Ca80  1  0.23089327  0.41495298  0.75129118  1
  Ca2+  Ca81  1  0.61393616  0.40829615  0.75716210  1
  Ca2+  Ca82  1  0.39559168  0.41530967  0.58492709  1
  Ca2+  Ca83  1  0.09495927  0.41892675  0.59265249  1
  Ca2+  Ca84  1  0.25300229  0.41755060  0.07017970  1
  Ca2+  Ca85  1  0.90203913  0.90871753  0.08029327  1
  Ca2+  Ca86  1  0.09931110  0.41704776  0.91071978  1
  Ca2+  Ca87  1  0.10346852  0.91269175  0.26451079  1
  Ca2+  Ca88  1  0.24253716  0.41785130  0.06897506  1
  Ca2+  Ca89  1  0.41208147  0.41005627  0.24978115  1
  Ca2+  Ca90  1  0.60194474  0.41078883  0.75610116  1
  Ca2+  Ca91  1  0.92082211  0.90035050  0.41958275  1
  Ca2+  Ca92  1  0.24239255  0.90007672  0.41041582  1
  Ca2+  Ca93  1  0.91353966  0.90211878  0.75186171  1
  Ca2+  Ca94  1  0.59130692  0.40536249  0.41565676  1
  Ca2+  Ca95  1  0.90343629  0.89954209  0.75442377  1
  Ca2+  Ca96  1  0.75553814  0.40698870  0.24145646  1
  Ca2+  Ca97  1  0.41300865  0.90498095  0.24446272  1
  Ca2+  Ca98  1  0.92459205  0.41062197  0.74785033  1
  Ca2+  Ca99  1  0.25260652  0.89146035  0.75485925  1
  Ca2+  Ca100  1  0.08732237  0.90330967  0.92079073  1
  Ca2+  Ca101  1  0.08017052  0.89664766  0.56922497  1
  Ca2+  Ca102  1  0.74128585  0.41576469  0.94613832  1
  Ca2+  Ca103  1  0.41227086  0.90104330  0.91568298  1
  Ca2+  Ca104  1  0.91439465  0.90710894  0.07997816  1
  Ca2+  Ca105  1  0.42078753  0.89592404  0.91382464  1
  Ca2+  Ca106  1  0.74249925  0.89816039  0.58015588  1
  Ca2+  Ca107  1  0.71960499  0.91449599  0.24882974  1
  Mn3.34+  Mn108  1  0.08082666  0.33404225  0.08382383  1
  Mn3.34+  Mn109  1  0.07794575  0.33668300  0.42137445  1
  Mn3.34+  Mn110  1  0.08195068  0.33455825  0.75205457  1
  Mn3.34+  Mn111  1  0.08675649  0.83245085  0.09008258  1
  Mn3.34+  Mn112  1  0.08324535  0.83260889  0.41471797  1
  Mn3.34+  Mn113  1  0.08377274  0.82507748  0.74922521  1
  Mn3.34+  Mn114  1  0.42128093  0.33580598  0.08483711  1
  Mn3.34+  Mn115  1  0.41319060  0.33511836  0.41592295  1
  Mn3.34+  Mn116  1  0.41637190  0.33502881  0.75050276  1
  Mn3.34+  Mn117  1  0.41393667  0.82929504  0.08557097  1
  Mn3.34+  Mn118  1  0.41902038  0.82724782  0.41954438  1
  Mn3.34+  Mn119  1  0.42294518  0.83561654  0.74232349  1
  Mn3.34+  Mn120  1  0.74798065  0.33386027  0.08623431  1
  Mn3.34+  Mn121  1  0.75442422  0.33318018  0.41824359  1
  Mn3.34+  Mn122  1  0.75752220  0.32898719  0.75767183  1
  Mn3.34+  Mn123  1  0.74281985  0.83974207  0.08628177  1
  Mn3.34+  Mn124  1  0.74951890  0.83156886  0.41522019  1
  Mn3.34+  Mn125  1  0.74179945  0.83224038  0.75066523  1
  Mn3.34+  Mn126  1  0.24587704  0.33682573  0.24650959  1
  Mn3.34+  Mn127  1  0.24713928  0.34012491  0.58487236  1
  Mn3.34+  Mn128  1  0.25019644  0.33842764  0.91162707  1
  Mn3.34+  Mn129  1  0.25165405  0.83577809  0.24337363  1
  Mn3.34+  Mn130  1  0.24959157  0.82775503  0.58346351  1
  Mn3.34+  Mn131  1  0.24699981  0.82885084  0.92149705  1
  Mn3.34+  Mn132  1  0.58458010  0.33465580  0.24652769  1
  Mn3.34+  Mn133  1  0.58605869  0.33403691  0.58408003  1
  Mn3.34+  Mn134  1  0.58182160  0.33429174  0.91750206  1
  Mn3.34+  Mn135  1  0.58296188  0.83302423  0.24429501  1
  Mn3.34+  Mn136  1  0.58030538  0.83589276  0.57998892  1
  Mn3.34+  Mn137  1  0.58993619  0.83442847  0.91894176  1
  Mn3.34+  Mn138  1  0.91720090  0.33619104  0.25073288  1
  Mn3.34+  Mn139  1  0.91468229  0.32995099  0.57867649  1
  Mn3.34+  Mn140  1  0.91905985  0.33106455  0.91822818  1
  Mn3.34+  Mn141  1  0.91430765  0.82727291  0.24768531  1
  Mn3.34+  Mn142  1  0.91683679  0.83231521  0.58068072  1
  Mn3.34+  Mn143  1  0.91637091  0.83071249  0.91754283  1
  Mn3.34+  Mn144  1  0.42238435  0.16946636  0.75101025  1
  Mn3.34+  Mn145  1  0.25691498  0.17019351  0.58481470  1
  Mn3.34+  Mn146  1  0.74975906  0.17057755  0.75165061  1
  Mn3.34+  Mn147  1  0.07971821  0.16465241  0.42290593  1
  Mn3.34+  Mn148  1  0.08281362  0.66793261  0.08674317  1
  Mn3.34+  Mn149  1  0.58442532  0.67175899  0.24702373  1
  Mn3.34+  Mn150  1  0.24349514  0.16427065  0.58166806  1
  Mn3.34+  Mn151  1  0.75352851  0.16816555  0.41888629  1
  Mn3.34+  Mn152  1  0.58100211  0.66048820  0.91753757  1
  Mn3.34+  Mn153  1  0.08100077  0.66913882  0.41537804  1
  Mn3.34+  Mn154  1  0.07789877  0.16584791  0.08415852  1
  Mn3.34+  Mn155  1  0.06907658  0.16985755  0.42015242  1
  Mn3.34+  Mn156  1  0.59105976  0.66556101  0.91866880  1
  Mn3.34+  Mn157  1  0.91524685  0.16884615  0.24680265  1
  Mn3.34+  Mn158  1  0.42187244  0.66898040  0.41059974  1
  Mn3.34+  Mn159  1  0.58729984  0.16578872  0.57783882  1
  Mn3.34+  Mn160  1  0.41614774  0.16658513  0.08281569  1
  Mn3.34+  Mn161  1  0.91793061  0.66781389  0.91449802  1
  Mn3.34+  Mn162  1  0.58780614  0.16069216  0.24908249  1
  Mn3.34+  Mn163  1  0.90717811  0.16693366  0.58076953  1
  Mn3.34+  Mn164  1  0.24592380  0.17142695  0.24387213  1
  Mn3.34+  Mn165  1  0.25392901  0.66492851  0.23777830  1
  Mn3.34+  Mn166  1  0.58432606  0.16644967  0.91342486  1
  Mn3.34+  Mn167  1  0.40598318  0.66268254  0.75579922  1
  Mn3.34+  Mn168  1  0.41730770  0.16790350  0.41793459  1
  Mn3.34+  Mn169  1  0.58429621  0.17100126  0.92383374  1
  Mn3.34+  Mn170  1  0.58130841  0.67350344  0.58589410  1
  Mn3.34+  Mn171  1  0.41035844  0.16243391  0.75440994  1
  Mn3.34+  Mn172  1  0.75393228  0.66489632  0.75154406  1
  Mn3.34+  Mn173  1  0.08135061  0.65646670  0.74870649  1
  Mn3.34+  Mn174  1  0.75196293  0.66133105  0.08957631  1
  Mn3.34+  Mn175  1  0.25773027  0.16406362  0.24143357  1
  Mn3.34+  Mn176  1  0.57404426  0.16695333  0.25136577  1
  Mn3.34+  Mn177  1  0.91661809  0.17010876  0.91940292  1
  Mn3.34+  Mn178  1  0.41533245  0.66833865  0.75435298  1
  Mn3.34+  Mn179  1  0.23771615  0.66196222  0.58558046  1
  Mn3.34+  Mn180  1  0.58425264  -0.00221641  0.58632153  1
  Mn3.34+  Mn181  1  0.09411535  -0.00264837  0.75669353  1
  Mn3.34+  Mn182  1  0.24867120  -0.00517277  0.58874110  1
  Mn3.34+  Mn183  1  0.41805876  0.50010919  0.41217369  1
  Mn3.34+  Mn184  1  0.43023445  -0.00503231  0.42022229  1
  Mn3.34+  Mn185  1  0.41916064  -0.00098053  0.42122231  1
  Mn3.34+  Mn186  1  0.58757296  0.50169665  0.93852463  1
  Mn3.34+  Mn187  1  0.90332098  -0.00378847  0.24753310  1
  Mn3.34+  Mn188  1  0.41958873  0.00048409  0.75257834  1
  Mn3.34+  Mn189  1  0.90888997  0.49710457  0.58256091  1
  Mn3.34+  Mn190  1  0.59215859  0.49996352  0.58605746  1
  Mn3.34+  Mn191  1  0.26356133  -0.00116014  0.58474468  1
  Mn3.34+  Mn192  1  0.41459535  0.50471823  0.06894411  1
  Mn3.34+  Mn193  1  0.58840357  0.50194668  0.24285119  1
  Mn3.34+  Mn194  1  0.24828265  0.50266801  0.25440115  1
  Mn3.34+  Mn195  1  0.91430800  0.00043516  0.24801506  1
  Mn3.34+  Mn196  1  0.91018435  0.50438074  0.92314588  1
  Mn3.34+  Mn197  1  0.91655149  0.49949070  0.25788092  1
  Mn3.34+  Mn198  1  0.07616961  0.50022183  0.41615779  1
  Mn3.34+  Mn199  1  0.59185013  -0.00379513  0.92232389  1
  Mn3.34+  Mn200  1  0.74343167  0.00036908  0.41857774  1
  Mn3.34+  Mn201  1  0.40178260  0.50002772  0.75592406  1
  Mn3.34+  Mn202  1  0.60397514  0.50414739  0.58883185  1
  Mn3.34+  Mn203  1  0.24687336  -0.00531360  0.92943828  1
  Mn3.34+  Mn204  1  0.90622554  0.00150779  0.59094562  1
  Mn3.34+  Mn205  1  0.57795636  0.50679890  0.24377431  1
  Mn3.34+  Mn206  1  0.75608545  0.49574229  0.41458631  1
  Mn3.34+  Mn207  1  0.91908952  0.50208741  0.58113604  1
  Mn3.34+  Mn208  1  0.91634033  0.00014385  0.93019799  1
  Mn3.34+  Mn209  1  0.75390783  -0.00072244  0.75514607  1
  Mn3.34+  Mn210  1  0.07820185  0.00158210  0.75590656  1
  Mn3.34+  Mn211  1  0.41538620  0.00144464  0.07372373  1
  Mn3.34+  Mn212  1  0.09386519  -0.00548207  0.07283532  1
  Mn3.34+  Mn213  1  0.39051884  0.50543721  0.75406068  1
  Mn3.34+  Mn214  1  0.90115051  0.51043010  0.92682560  1
  Mn3.34+  Mn215  1  0.08714030  0.50421803  0.08024650  1
  O2-  O216  1  -0.00619337  0.17123058  0.00493707  1
  O2-  O217  1  0.00214320  0.14264032  0.32666514  1
  O2-  O218  1  -0.01293336  0.16612971  0.66476688  1
  O2-  O219  1  0.00381000  0.64800722  -0.00454920  1
  O2-  O220  1  0.00274923  0.66134648  0.33574609  1
  O2-  O221  1  0.00181916  0.67691059  0.68027155  1
  O2-  O222  1  0.33735512  0.16429966  0.00608017  1
  O2-  O223  1  0.32646790  0.14088630  0.33920959  1
  O2-  O224  1  0.33189814  0.13789906  0.66446409  1
  O2-  O225  1  0.33643962  0.67989084  0.00515083  1
  O2-  O226  1  0.32893117  0.65984564  0.33317420  1
  O2-  O227  1  0.33124796  0.64985381  0.66262606  1
  O2-  O228  1  0.66539822  0.15354126  0.00196899  1
  O2-  O229  1  0.66702705  0.15036909  0.33350292  1
  O2-  O230  1  0.65890826  0.15464937  0.67719975  1
  O2-  O231  1  0.66585733  0.66674202  0.00663297  1
  O2-  O232  1  0.66839533  0.67741144  0.31778041  1
  O2-  O233  1  0.65695968  0.66811251  0.67557714  1
  O2-  O234  1  0.15317223  0.18076717  0.00626951  1
  O2-  O235  1  0.16459853  0.14686023  0.33253171  1
  O2-  O236  1  0.16148948  0.15395986  0.65716630  1
  O2-  O237  1  0.16443188  0.66143590  0.00577268  1
  O2-  O238  1  0.17108761  0.66632076  0.33398503  1
  O2-  O239  1  0.16129608  0.67716961  0.66924003  1
  O2-  O240  1  0.50209535  0.15189085  0.00185808  1
  O2-  O241  1  0.50074100  0.14159138  0.33302022  1
  O2-  O242  1  0.50124630  0.14824304  0.67352507  1
  O2-  O243  1  0.49970039  0.66691310  -0.00344592  1
  O2-  O244  1  0.50605636  0.68023668  0.33451110  1
  O2-  O245  1  0.48963475  0.65786137  0.66645475  1
  O2-  O246  1  0.83152442  0.16908274  -0.00650335  1
  O2-  O247  1  0.83742218  0.15247451  0.33447531  1
  O2-  O248  1  0.83146445  0.15508121  0.67143460  1
  O2-  O249  1  0.83462797  0.66892614  0.00562267  1
  O2-  O250  1  0.84208584  0.67176977  0.32950776  1
  O2-  O251  1  0.82907525  0.66623957  0.67113530  1
  O2-  O252  1  0.00279335  0.32021781  -0.00212015  1
  O2-  O253  1  0.00242515  0.34310593  0.32929517  1
  O2-  O254  1  -0.00069450  0.33711379  0.66630679  1
  O2-  O255  1  -0.00182745  0.85036191  0.00332895  1
  O2-  O256  1  0.00207284  0.83739132  0.32834740  1
  O2-  O257  1  -0.00318011  0.84543397  0.66913627  1
  O2-  O258  1  0.32992572  0.34805391  0.00156306  1
  O2-  O259  1  0.33134488  0.35123047  0.33412154  1
  O2-  O260  1  0.33182101  0.35160051  0.66860296  1
  O2-  O261  1  0.33692742  0.83826137  -0.00244230  1
  O2-  O262  1  0.33662453  0.83797133  0.32857896  1
  O2-  O263  1  0.33077052  0.83900739  0.66629299  1
  O2-  O264  1  0.66647209  0.33124569  -0.00187276  1
  O2-  O265  1  0.66338397  0.34819379  0.33291387  1
  O2-  O266  1  0.67003917  0.34371846  0.67312806  1
  O2-  O267  1  0.67180625  0.81583956  0.00326067  1
  O2-  O268  1  0.66457635  0.83683480  0.33106648  1
  O2-  O269  1  0.66820613  0.82906112  0.65935310  1
  O2-  O270  1  0.16797809  0.34709815  0.00180706  1
  O2-  O271  1  0.16640557  0.34952213  0.33354880  1
  O2-  O272  1  0.16327517  0.34739621  0.66842426  1
  O2-  O273  1  0.16157365  0.84162571  -0.00076443  1
  O2-  O274  1  0.17235336  0.83430189  0.33229370  1
  O2-  O275  1  0.16394559  0.83044271  0.66553675  1
  O2-  O276  1  0.49361566  0.33024151  -0.00905446  1
  O2-  O277  1  0.49950539  0.34832243  0.33205710  1
  O2-  O278  1  0.50418824  0.35536621  0.66823105  1
  O2-  O279  1  0.49349519  0.83052422  -0.00084249  1
  O2-  O280  1  0.49912245  0.83240395  0.32799254  1
  O2-  O281  1  0.50404733  0.81506055  0.66084003  1
  O2-  O282  1  0.83447746  0.33689338  -0.00058149  1
  O2-  O283  1  0.83007386  0.34316982  0.32786972  1
  O2-  O284  1  0.84462786  0.33811444  0.67972015  1
  O2-  O285  1  0.83480719  0.83872940  0.00521059  1
  O2-  O286  1  0.83420127  0.84154957  0.33295607  1
  O2-  O287  1  0.83467706  0.84186059  0.66460213  1
  O2-  O288  1  -0.00036812  0.18384468  0.16973175  1
  O2-  O289  1  -0.00024405  0.18870555  0.51139736  1
  O2-  O290  1  -0.00752691  0.17839259  0.83682658  1
  O2-  O291  1  -0.00017980  0.67949166  0.16337118  1
  O2-  O292  1  -0.00276254  0.67334055  0.48825645  1
  O2-  O293  1  0.00277305  0.68141600  0.83380328  1
  O2-  O294  1  0.34791472  0.17779747  0.17540393  1
  O2-  O295  1  0.33623068  0.18129218  0.50649633  1
  O2-  O296  1  0.33343969  0.17757407  0.83192562  1
  O2-  O297  1  0.32621531  0.69419040  0.16824231  1
  O2-  O298  1  0.33184705  0.66792482  0.49515542  1
  O2-  O299  1  0.33250191  0.67599371  0.83664032  1
  O2-  O300  1  0.66373764  0.17626042  0.16950097  1
  O2-  O301  1  0.66671438  0.18110774  0.49246609  1
  O2-  O302  1  0.66916421  0.18885511  0.83863199  1
  O2-  O303  1  0.66791717  0.68975814  0.15935333  1
  O2-  O304  1  0.66469934  0.68701881  0.51787388  1
  O2-  O305  1  0.66828779  0.67411056  0.83676924  1
  O2-  O306  1  0.15853821  0.18480527  0.16960479  1
  O2-  O307  1  0.17846720  0.18401946  0.48863259  1
  O2-  O308  1  0.16707854  0.17548277  0.83570847  1
  O2-  O309  1  0.16003540  0.68402915  0.17343558  1
  O2-  O310  1  0.17039687  0.67272324  0.49345660  1
  O2-  O311  1  0.15410480  0.68156785  0.82860161  1
  O2-  O312  1  0.50378708  0.18173718  0.16320480  1
  O2-  O313  1  0.49692897  0.18157728  0.50345325  1
  O2-  O314  1  0.50131703  0.19337471  0.84007521  1
  O2-  O315  1  0.51037164  0.69122104  0.16728460  1
  O2-  O316  1  0.48867650  0.67934653  0.51061811  1
  O2-  O317  1  0.50936988  0.67850723  0.82555264  1
  O2-  O318  1  0.83336366  0.17522180  0.17426866  1
  O2-  O319  1  0.83487246  0.18719990  0.49576639  1
  O2-  O320  1  0.83790754  0.17896174  0.82707574  1
  O2-  O321  1  0.82876212  0.68270452  0.16098212  1
  O2-  O322  1  0.83418081  0.67735079  0.49612452  1
  O2-  O323  1  0.83782476  0.68201900  0.83247003  1
  O2-  O324  1  -0.00369477  0.32134379  0.16291009  1
  O2-  O325  1  -0.00074934  0.30982780  0.50381144  1
  O2-  O326  1  -0.00406686  0.32060375  0.83166797  1
  O2-  O327  1  -0.00577586  0.81697157  0.16290349  1
  O2-  O328  1  -0.00135244  0.82549297  0.49686204  1
  O2-  O329  1  -0.00256644  0.82429766  0.82844575  1
  O2-  O330  1  0.33220652  0.33131202  0.16558570  1
  O2-  O331  1  0.33373889  0.32647331  0.50214905  1
  O2-  O332  1  0.33599869  0.32354682  0.83438468  1
  O2-  O333  1  0.33716131  0.81581989  0.17107148  1
  O2-  O334  1  0.32606467  0.83077500  0.49243636  1
  O2-  O335  1  0.33410377  0.82647487  0.84034149  1
  O2-  O336  1  0.67213718  0.32140771  0.17523607  1
  O2-  O337  1  0.66061959  0.32112748  0.49298656  1
  O2-  O338  1  0.66616326  0.31807449  0.83418103  1
  O2-  O339  1  0.66884405  0.81784343  0.17140497  1
  O2-  O340  1  0.66808328  0.82149176  0.49893555  1
  O2-  O341  1  0.66859046  0.82481432  0.83609576  1
  O2-  O342  1  0.16424752  0.31356208  0.16293131  1
  O2-  O343  1  0.16545848  0.32235842  0.50113665  1
  O2-  O344  1  0.16339166  0.33330884  0.83408325  1
  O2-  O345  1  0.16240895  0.81672929  0.17497442  1
  O2-  O346  1  0.16429737  0.82275078  0.49967134  1
  O2-  O347  1  0.16714229  0.81720147  0.83271566  1
  O2-  O348  1  0.50005569  0.32124134  0.17014242  1
  O2-  O349  1  0.50300187  0.32493249  0.49279499  1
  O2-  O350  1  0.50895737  0.32076306  0.82550163  1
  O2-  O351  1  0.49518262  0.81491534  0.17085947  1
  O2-  O352  1  0.50580252  0.81292936  0.49333693  1
  O2-  O353  1  0.49462878  0.82780346  0.83571088  1
  O2-  O354  1  0.83559551  0.32453480  0.16707596  1
  O2-  O355  1  0.82855919  0.31169062  0.50541169  1
  O2-  O356  1  0.83735782  0.30896120  0.83784472  1
  O2-  O357  1  0.83519095  0.80956541  0.16472163  1
  O2-  O358  1  0.83337786  0.82995106  0.49944727  1
  O2-  O359  1  0.83922460  0.82603507  0.82736559  1
  O2-  O360  1  0.08016340  0.07685106  0.11260328  1
  O2-  O361  1  0.09745615  0.08142277  0.45955022  1
  O2-  O362  1  0.06741231  0.08231794  0.77861388  1
  O2-  O363  1  0.07348208  0.58205614  0.11238950  1
  O2-  O364  1  0.09741053  0.58270048  0.42860503  1
  O2-  O365  1  0.07070809  0.58096803  0.77965799  1
  O2-  O366  1  0.42237458  0.08096865  0.11216285  1
  O2-  O367  1  0.41590084  0.07978512  0.45316552  1
  O2-  O368  1  0.43321197  0.08457336  0.79627716  1
  O2-  O369  1  0.44102786  0.56610241  0.12309903  1
  O2-  O370  1  0.41359628  0.58232847  0.43576869  1
  O2-  O371  1  0.43400427  0.58210574  0.78037031  1
  O2-  O372  1  0.74654258  0.06824961  0.12304932  1
  O2-  O373  1  0.75180629  0.08219591  0.44313147  1
  O2-  O374  1  0.73920197  0.08209010  0.78787310  1
  O2-  O375  1  0.74864771  0.58616129  0.11886774  1
  O2-  O376  1  0.77203435  0.57203157  0.44749366  1
  O2-  O377  1  0.75310070  0.58593664  0.75566633  1
  O2-  O378  1  0.23607520  0.08378961  0.22072721  1
  O2-  O379  1  0.25681732  0.07743445  0.53652922  1
  O2-  O380  1  0.24998663  0.07054777  0.89017198  1
  O2-  O381  1  0.23199089  0.58227015  0.24357519  1
  O2-  O382  1  0.26549106  0.57727411  0.54372634  1
  O2-  O383  1  0.24274311  0.56655490  0.88874507  1
  O2-  O384  1  0.57923824  0.07868808  0.21718077  1
  O2-  O385  1  0.57688076  0.08031670  0.55101557  1
  O2-  O386  1  0.58587743  0.07846818  0.87347470  1
  O2-  O387  1  0.59363425  0.58813773  0.22318926  1
  O2-  O388  1  0.57437201  0.58457910  0.56508013  1
  O2-  O389  1  0.58324242  0.57756047  0.88773065  1
  O2-  O390  1  0.92031348  0.08144523  0.21211565  1
  O2-  O391  1  0.92654458  0.08057950  0.55047667  1
  O2-  O392  1  0.90897975  0.07755444  0.88838749  1
  O2-  O393  1  0.91425837  0.57484761  0.22743810  1
  O2-  O394  1  0.90704166  0.58307072  0.56515908  1
  O2-  O395  1  0.91646738  0.58530146  0.87898230  1
  O2-  O396  1  0.09816267  0.42411836  0.11579293  1
  O2-  O397  1  0.08340616  0.42074163  0.45156419  1
  O2-  O398  1  0.06105677  0.41846395  0.77544573  1
  O2-  O399  1  0.07394510  0.91725927  0.12386254  1
  O2-  O400  1  0.08665866  0.91472244  0.42814003  1
  O2-  O401  1  0.09223619  0.91566086  0.77519557  1
  O2-  O402  1  0.40831975  0.42939790  0.11384971  1
  O2-  O403  1  0.42885326  0.42047560  0.44841284  1
  O2-  O404  1  0.42531003  0.42303155  0.79001226  1
  O2-  O405  1  0.41583848  0.92122534  0.11257495  1
  O2-  O406  1  0.43081653  0.91201376  0.42639492  1
  O2-  O407  1  0.40199207  0.91888276  0.77933356  1
  O2-  O408  1  0.75639799  0.41413374  0.10360017  1
  O2-  O409  1  0.72987062  0.41763747  0.44171097  1
  O2-  O410  1  0.75149627  0.41075122  0.78990302  1
  O2-  O411  1  0.77388657  0.91901906  0.12368864  1
  O2-  O412  1  0.74768890  0.91945509  0.43952334  1
  O2-  O413  1  0.76550603  0.91696000  0.75512135  1
  O2-  O414  1  0.24466410  0.42619850  0.20866490  1
  O2-  O415  1  0.24663507  0.41944697  0.55919389  1
  O2-  O416  1  0.25102208  0.42032772  0.89376425  1
  O2-  O417  1  0.26991755  0.91627815  0.24269050  1
  O2-  O418  1  0.23248498  0.91496407  0.56644317  1
  O2-  O419  1  0.24903730  0.91607837  0.89096267  1
  O2-  O420  1  0.58327794  0.41927289  0.22042357  1
  O2-  O421  1  0.58313667  0.42106989  0.54900075  1
  O2-  O422  1  0.58942956  0.42593055  0.88839187  1
  O2-  O423  1  0.56794804  0.91364047  0.23515924  1
  O2-  O424  1  0.59692641  0.92064250  0.54751232  1
  O2-  O425  1  0.56074050  0.91857525  0.90520070  1
  O2-  O426  1  0.92041689  0.42066577  0.21990185  1
  O2-  O427  1  0.92188509  0.41630469  0.56560484  1
  O2-  O428  1  0.91298498  0.42292186  0.88180504  1
  O2-  O429  1  0.91412399  0.91560634  0.21741629  1
  O2-  O430  1  0.91744517  0.91923983  0.56043978  1
  O2-  O431  1  0.92361965  0.92089449  0.88820853  1
  O2-  O432  1  -0.01349601  -0.01424239  0.01984217  1
  O2-  O433  1  0.00477005  0.01175848  0.31926195  1
  O2-  O434  1  0.01490861  -0.00056042  0.65492678  1
  O2-  O435  1  0.00270853  0.49226386  -0.00292022  1
  O2-  O436  1  0.01414090  0.50189057  0.31418118  1
  O2-  O437  1  0.00974199  0.49589451  0.65120858  1
  O2-  O438  1  0.35982320  -0.00997769  -0.03504151  1
  O2-  O439  1  0.32704602  0.00931520  0.34597000  1
  O2-  O440  1  0.33396499  0.01248050  0.67189498  1
  O2-  O441  1  0.32837982  0.48991983  0.01056619  1
  O2-  O442  1  0.32678338  0.49329912  0.34297066  1
  O2-  O443  1  0.33886623  0.50195298  0.65392224  1
  O2-  O444  1  0.67472000  0.02050593  -0.01218078  1
  O2-  O445  1  0.66147052  -0.00059940  0.34664068  1
  O2-  O446  1  0.66847988  0.00600338  0.67379202  1
  O2-  O447  1  0.67411843  0.50005522  -0.00491671  1
  O2-  O448  1  0.66311834  0.49726022  0.33566820  1
  O2-  O449  1  0.65263402  0.49217314  0.69340721  1
  O2-  O450  1  0.13645991  -0.00007894  -0.04020163  1
  O2-  O451  1  0.15947008  0.01446350  0.32037872  1
  O2-  O452  1  0.16915416  0.02171594  0.66786329  1
  O2-  O453  1  0.16469398  0.49206671  0.00327869  1
  O2-  O454  1  0.17396982  0.49488014  0.34976069  1
  O2-  O455  1  0.17057197  0.48273666  0.67054586  1
  O2-  O456  1  0.51492710  0.01790133  0.01190714  1
  O2-  O457  1  0.49020549  0.00393706  0.32262091  1
  O2-  O458  1  0.50357890  0.02132934  0.67057198  1
  O2-  O459  1  0.48647136  0.48993916  -0.01251789  1
  O2-  O460  1  0.50009534  0.48470531  0.33000724  1
  O2-  O461  1  0.49388561  0.49746286  0.66436978  1
  O2-  O462  1  0.83832840  0.00574190  0.00202424  1
  O2-  O463  1  0.83748381  0.00386914  0.34521039  1
  O2-  O464  1  0.86527320  0.00757725  0.71113322  1
  O2-  O465  1  0.83473757  0.48754239  0.01215860  1
  O2-  O466  1  0.82351275  0.50008338  0.31974360  1
  O2-  O467  1  0.85208836  0.49285383  0.68506611  1
  O2-  O468  1  0.74795025  0.25342110  0.07562913  1
  O2-  O469  1  0.41273694  0.24710612  0.71399214  1
  O2-  O470  1  0.07990540  0.75088221  0.05935568  1
  O2-  O471  1  0.08694873  0.75036575  0.40200129  1
  O2-  O472  1  0.91716927  0.75432020  0.59271684  1
  O2-  O473  1  0.75498304  0.75433914  0.40660558  1
  O2-  O474  1  0.40484281  0.74963047  0.73729634  1
  O2-  O475  1  0.57999600  0.24966235  0.60557804  1
  O2-  O476  1  0.58082115  0.24873413  0.27838936  1
  O2-  O477  1  0.25055398  0.75040981  0.93233965  1
  O2-  O478  1  0.39680529  0.74898595  0.40457241  1
  O2-  O479  1  0.26282461  0.74683862  0.58843011  1
  O2-  O480  1  0.75022990  0.75176458  0.74291439  1
  O2-  O481  1  0.74484168  0.24906387  0.72009439  1
  O2-  O482  1  0.91715286  0.25042086  0.27314031  1
  O2-  O483  1  0.08909082  0.25030908  0.38595620  1
  O2-  O484  1  0.24847041  0.25801413  0.92437441  1
  O2-  O485  1  0.08981633  0.25508228  0.73923168  1
  O2-  O486  1  0.26334380  0.24840770  0.27860697  1
  O2-  O487  1  0.92564029  0.74992000  0.93949342  1
  O2-  O488  1  0.41179701  0.25162319  0.38986180  1
  O2-  O489  1  0.41002463  0.25024983  0.06890464  1
  O2-  O490  1  0.24733839  0.25371601  0.60869918  1
  O2-  O491  1  0.74572174  0.24922421  0.38629733  1
  O2-  O492  1  0.57897935  0.74941501  0.91979422  1
