# generated using pymatgen
data_Ca108Mn108O277
_symmetry_space_group_name_H-M   'P 1'
_cell_length_a   16.02235167
_cell_length_b   22.30050478
_cell_length_c   16.38451454
_cell_angle_alpha   89.99667460
_cell_angle_beta   90.00012707
_cell_angle_gamma   90.00063569
_symmetry_Int_Tables_number   1
_chemical_formula_structural   Ca108Mn108O277
_chemical_formula_sum   'Ca108 Mn108 O277'
_cell_volume   5854.29402487
_cell_formula_units_Z   1
loop_
 _symmetry_equiv_pos_site_id
 _symmetry_equiv_pos_as_xyz
  1  'x, y, z'
loop_
 _atom_type_symbol
 _atom_type_oxidation_number
  Ca2+  2.0
  Mn3.34+  3.34
  O2-  -2.0
loop_
 _atom_site_type_symbol
 _atom_site_label
 _atom_site_symmetry_multiplicity
 _atom_site_fract_x
 _atom_site_fract_y
 _atom_site_fract_z
 _atom_site_occupancy
  Ca2+  Ca0  1  0.06707039  0.23835425  0.25238056  1
  Ca2+  Ca1  1  0.06662697  0.25271773  0.58265802  1
  Ca2+  Ca2  1  0.08752163  0.24941514  0.91877951  1
  Ca2+  Ca3  1  0.09975494  0.74862745  0.22633466  1
  Ca2+  Ca4  1  0.10810345  0.75358433  0.59019411  1
  Ca2+  Ca5  1  0.09379816  0.74372734  0.93671557  1
  Ca2+  Ca6  1  0.42233826  0.25082105  0.24314087  1
  Ca2+  Ca7  1  0.44406301  0.24588893  0.59280512  1
  Ca2+  Ca8  1  0.41648055  0.25424416  0.91891849  1
  Ca2+  Ca9  1  0.39424242  0.75381309  0.23519553  1
  Ca2+  Ca10  1  0.40027260  0.74376910  0.59608184  1
  Ca2+  Ca11  1  0.41264680  0.75524691  0.91434765  1
  Ca2+  Ca12  1  0.76974135  0.23774475  0.24902280  1
  Ca2+  Ca13  1  0.74486332  0.25133754  0.58769635  1
  Ca2+  Ca14  1  0.74640027  0.25712736  0.91304101  1
  Ca2+  Ca15  1  0.74288188  0.77014186  0.25319419  1
  Ca2+  Ca16  1  0.73727760  0.74494529  0.60613187  1
  Ca2+  Ca17  1  0.73899110  0.75376123  0.89801103  1
  Ca2+  Ca18  1  0.25154579  0.24198538  0.09431461  1
  Ca2+  Ca19  1  0.23933382  0.25336047  0.40289394  1
  Ca2+  Ca20  1  0.25482830  0.24933503  0.75891831  1
  Ca2+  Ca21  1  0.24322966  0.74869802  0.08524880  1
  Ca2+  Ca22  1  0.25476140  0.74622782  0.41268017  1
  Ca2+  Ca23  1  0.26802443  0.72809232  0.74054906  1
  Ca2+  Ca24  1  0.57161167  0.24864278  0.09264468  1
  Ca2+  Ca25  1  0.58545673  0.25684654  0.42143501  1
  Ca2+  Ca26  1  0.59039701  0.22955519  0.73063915  1
  Ca2+  Ca27  1  0.56853884  0.75756476  0.07039923  1
  Ca2+  Ca28  1  0.58802003  0.76499530  0.41630183  1
  Ca2+  Ca29  1  0.57588351  0.74735185  0.76037861  1
  Ca2+  Ca30  1  0.92892995  0.24584438  0.10112701  1
  Ca2+  Ca31  1  0.92528577  0.25329502  0.41208707  1
  Ca2+  Ca32  1  0.91388428  0.23406864  0.74316918  1
  Ca2+  Ca33  1  0.93794999  0.75617425  0.08354156  1
  Ca2+  Ca34  1  0.91477129  0.76485093  0.41293359  1
  Ca2+  Ca35  1  0.90332476  0.74944870  0.75656415  1
  Ca2+  Ca36  1  0.05656215  0.08820476  0.63966914  1
  Ca2+  Ca37  1  0.57633537  0.60178676  0.75606846  1
  Ca2+  Ca38  1  0.94088867  0.55012751  0.39440586  1
  Ca2+  Ca39  1  0.75227967  0.61486542  0.90267049  1
  Ca2+  Ca40  1  0.26898644  0.59960633  0.41596084  1
  Ca2+  Ca41  1  0.92973655  0.09565908  0.08375372  1
  Ca2+  Ca42  1  0.75804965  0.58345734  0.24736610  1
  Ca2+  Ca43  1  0.75195260  0.58133094  0.60978776  1
  Ca2+  Ca44  1  0.73164046  0.10196033  0.61482688  1
  Ca2+  Ca45  1  0.40235754  0.59446709  0.60945253  1
  Ca2+  Ca46  1  0.39208029  0.59595836  0.60869406  1
  Ca2+  Ca47  1  0.45579294  0.09262454  0.59175707  1
  Ca2+  Ca48  1  0.76401969  0.10342132  0.88697921  1
  Ca2+  Ca49  1  0.72166013  0.10364214  0.61234513  1
  Ca2+  Ca50  1  0.23821574  0.61429228  0.09284440  1
  Ca2+  Ca51  1  0.43819687  0.07381532  0.25783809  1
  Ca2+  Ca52  1  0.05543789  0.08220537  0.89225380  1
  Ca2+  Ca53  1  0.40992077  0.60929063  0.88665593  1
  Ca2+  Ca54  1  0.91496802  0.09185043  0.40321175  1
  Ca2+  Ca55  1  0.58547004  0.08163981  0.40511494  1
  Ca2+  Ca56  1  0.56449480  0.57467032  0.41398288  1
  Ca2+  Ca57  1  0.06667636  0.08721472  0.64220306  1
  Ca2+  Ca58  1  0.07444198  0.09326939  0.24408921  1
  Ca2+  Ca59  1  0.08841517  0.60413073  0.24185643  1
  Ca2+  Ca60  1  0.93475104  0.61062353  0.08665422  1
  Ca2+  Ca61  1  0.92464442  0.60839077  0.08327582  1
  Ca2+  Ca62  1  0.10626123  0.59748522  0.60331652  1
  Ca2+  Ca63  1  0.77040565  0.58096517  0.24677275  1
  Ca2+  Ca64  1  0.55399980  0.57551048  0.41332734  1
  Ca2+  Ca65  1  0.58506729  0.60440337  0.75168129  1
  Ca2+  Ca66  1  0.91954442  0.09525473  0.08620710  1
  Ca2+  Ca67  1  0.77570290  0.10296970  0.88477971  1
  Ca2+  Ca68  1  0.90433807  0.59687384  0.75312896  1
  Ca2+  Ca69  1  0.23015469  0.09555571  0.75067064  1
  Ca2+  Ca70  1  0.39264563  0.60589900  0.24677799  1
  Ca2+  Ca71  1  0.25648410  0.08156435  0.39629084  1
  Ca2+  Ca72  1  0.06145439  0.42410600  0.28991609  1
  Ca2+  Ca73  1  0.75209774  0.90934599  0.57776010  1
  Ca2+  Ca74  1  0.05040481  0.41880583  0.57156434  1
  Ca2+  Ca75  1  0.41597259  0.90808953  0.58319961  1
  Ca2+  Ca76  1  0.25431412  0.40269265  0.08379521  1
  Ca2+  Ca77  1  0.58809880  0.90250880  0.75512108  1
  Ca2+  Ca78  1  0.42815333  0.90962277  0.58181969  1
  Ca2+  Ca79  1  0.23752193  0.39546823  0.74579800  1
  Ca2+  Ca80  1  0.76790811  0.40689045  0.57786565  1
  Ca2+  Ca81  1  0.23641970  0.89597727  0.75301465  1
  Ca2+  Ca82  1  0.26626580  0.40203654  0.08427370  1
  Ca2+  Ca83  1  0.90050211  0.91004882  0.40957537  1
  Ca2+  Ca84  1  0.43013994  0.40975630  0.58195897  1
  Ca2+  Ca85  1  0.41799214  0.41161861  0.58460654  1
  Ca2+  Ca86  1  0.25024102  0.40578063  0.41873120  1
  Ca2+  Ca87  1  0.75871910  0.41063238  0.26026103  1
  Ca2+  Ca88  1  0.57712889  0.40376186  0.74324164  1
  Ca2+  Ca89  1  0.57782501  0.90131974  0.75288974  1
  Ca2+  Ca90  1  0.94698288  0.92892491  0.06049955  1
  Ca2+  Ca91  1  0.41747595  0.40626593  0.90701712  1
  Ca2+  Ca92  1  0.58655964  0.40104083  0.08625819  1
  Ca2+  Ca93  1  0.58972517  0.40279984  0.74329439  1
  Ca2+  Ca94  1  0.58439056  0.92419240  0.37976384  1
  Ca2+  Ca95  1  0.92977223  0.91528003  0.76727855  1
  Ca2+  Ca96  1  0.90313568  0.39909832  0.08554339  1
  Ca2+  Ca97  1  0.94003183  0.91518874  0.76966540  1
  Ca2+  Ca98  1  0.05107429  0.42684106  0.28693762  1
  Ca2+  Ca99  1  0.74737992  0.40926788  0.25984325  1
  Ca2+  Ca100  1  0.24763224  0.90227439  0.09160363  1
  Ca2+  Ca101  1  0.42532649  0.41367445  0.26968674  1
  Ca2+  Ca102  1  0.26363140  0.90511092  0.40447601  1
  Ca2+  Ca103  1  0.91948974  0.41261046  0.72439557  1
  Ca2+  Ca104  1  0.91595372  0.39934172  0.08504817  1
  Ca2+  Ca105  1  0.27189503  0.91025630  0.40412366  1
  Ca2+  Ca106  1  0.08118184  0.90529736  0.23833287  1
  Ca2+  Ca107  1  0.76367130  0.90884886  0.57845908  1
  Mn3.34+  Mn108  1  0.08495930  0.32956203  0.08246501  1
  Mn3.34+  Mn109  1  0.08333238  0.33449348  0.42283056  1
  Mn3.34+  Mn110  1  0.07900338  0.33118096  0.75327505  1
  Mn3.34+  Mn111  1  0.08392145  0.83745782  0.08081899  1
  Mn3.34+  Mn112  1  0.08140280  0.83203954  0.41682985  1
  Mn3.34+  Mn113  1  0.08375600  0.82987962  0.75588167  1
  Mn3.34+  Mn114  1  0.42124388  0.33214847  0.08377843  1
  Mn3.34+  Mn115  1  0.41642918  0.33655010  0.41898658  1
  Mn3.34+  Mn116  1  0.41611840  0.33294285  0.75251781  1
  Mn3.34+  Mn117  1  0.41556361  0.83844097  0.08222728  1
  Mn3.34+  Mn118  1  0.42369657  0.83619002  0.41378487  1
  Mn3.34+  Mn119  1  0.41284714  0.83271777  0.75596309  1
  Mn3.34+  Mn120  1  0.74790918  0.32517239  0.08436312  1
  Mn3.34+  Mn121  1  0.75209034  0.33426634  0.41923785  1
  Mn3.34+  Mn122  1  0.75426083  0.33155338  0.75421198  1
  Mn3.34+  Mn123  1  0.75226161  0.82904405  0.08129869  1
  Mn3.34+  Mn124  1  0.74803127  0.83848595  0.41312234  1
  Mn3.34+  Mn125  1  0.75416400  0.83277907  0.75388560  1
  Mn3.34+  Mn126  1  0.24893338  0.33051862  0.25161096  1
  Mn3.34+  Mn127  1  0.24857464  0.32400108  0.58269139  1
  Mn3.34+  Mn128  1  0.24509087  0.33379019  0.91286850  1
  Mn3.34+  Mn129  1  0.24904792  0.83178717  0.24685190  1
  Mn3.34+  Mn130  1  0.24823176  0.83080204  0.58165074  1
  Mn3.34+  Mn131  1  0.24858185  0.83304011  0.91801726  1
  Mn3.34+  Mn132  1  0.58475108  0.32988735  0.25490775  1
  Mn3.34+  Mn133  1  0.58925980  0.32947990  0.57769766  1
  Mn3.34+  Mn134  1  0.58577991  0.33239487  0.91607393  1
  Mn3.34+  Mn135  1  0.57999706  0.84068395  0.23727904  1
  Mn3.34+  Mn136  1  0.58353334  0.83025916  0.57840609  1
  Mn3.34+  Mn137  1  0.58355979  0.83548017  0.92568464  1
  Mn3.34+  Mn138  1  0.91771846  0.32871613  0.25344943  1
  Mn3.34+  Mn139  1  0.91424867  0.33293680  0.57988158  1
  Mn3.34+  Mn140  1  0.91755722  0.32669920  0.90847056  1
  Mn3.34+  Mn141  1  0.91331563  0.83949891  0.24126868  1
  Mn3.34+  Mn142  1  0.92755616  0.83271007  0.58262172  1
  Mn3.34+  Mn143  1  0.91314451  0.83869469  0.92361214  1
  Mn3.34+  Mn144  1  0.74322956  0.15673923  0.41378698  1
  Mn3.34+  Mn145  1  0.58379584  0.16624872  0.91845182  1
  Mn3.34+  Mn146  1  0.07682230  0.66639065  0.42051816  1
  Mn3.34+  Mn147  1  0.91779879  0.16882574  0.58086490  1
  Mn3.34+  Mn148  1  0.58279053  0.66833428  0.57983130  1
  Mn3.34+  Mn149  1  0.91572517  0.67220155  0.24971960  1
  Mn3.34+  Mn150  1  0.24744666  0.16361469  0.92159425  1
  Mn3.34+  Mn151  1  0.91973722  0.66722257  0.58422310  1
  Mn3.34+  Mn152  1  0.75570518  0.16438986  0.41482452  1
  Mn3.34+  Mn153  1  0.74846332  0.66801684  0.42229838  1
  Mn3.34+  Mn154  1  0.24275712  0.17758559  0.58176249  1
  Mn3.34+  Mn155  1  0.25953381  0.15825575  0.92039843  1
  Mn3.34+  Mn156  1  0.08715622  0.66381632  0.76509677  1
  Mn3.34+  Mn157  1  0.41436598  0.16771892  0.41630622  1
  Mn3.34+  Mn158  1  0.08753118  0.16210390  0.08648725  1
  Mn3.34+  Mn159  1  0.08887470  0.65821349  0.42119060  1
  Mn3.34+  Mn160  1  0.58056411  0.67122634  0.91890320  1
  Mn3.34+  Mn161  1  0.58867212  0.66841186  0.24126212  1
  Mn3.34+  Mn162  1  0.25025146  0.16281168  0.24565409  1
  Mn3.34+  Mn163  1  0.41847492  0.66717937  0.42339102  1
  Mn3.34+  Mn164  1  0.75980234  0.66383917  0.42342108  1
  Mn3.34+  Mn165  1  0.08292057  0.16681110  0.41680265  1
  Mn3.34+  Mn166  1  0.41611972  0.15758857  0.09025742  1
  Mn3.34+  Mn167  1  0.24893108  0.67104750  0.91490169  1
  Mn3.34+  Mn168  1  0.92165607  0.67338300  0.91247428  1
  Mn3.34+  Mn169  1  0.57434220  0.16047005  0.91719311  1
  Mn3.34+  Mn170  1  0.75185597  0.67415723  0.07964220  1
  Mn3.34+  Mn171  1  0.57814970  0.66312433  0.23931025  1
  Mn3.34+  Mn172  1  0.41770421  0.16551917  0.75032465  1
  Mn3.34+  Mn173  1  0.91994997  0.65545615  0.57876620  1
  Mn3.34+  Mn174  1  0.42412136  0.16236837  0.41728283  1
  Mn3.34+  Mn175  1  0.25143069  0.17129778  0.58067704  1
  Mn3.34+  Mn176  1  0.58805314  0.15998204  0.23898460  1
  Mn3.34+  Mn177  1  0.74806549  0.16760346  0.08625419  1
  Mn3.34+  Mn178  1  0.92284076  0.17201970  0.91306031  1
  Mn3.34+  Mn179  1  0.41163569  0.66711288  0.07729535  1
  Mn3.34+  Mn180  1  0.75417183  0.50024785  0.41768452  1
  Mn3.34+  Mn181  1  0.73891190  -0.00617206  0.09396067  1
  Mn3.34+  Mn182  1  0.41675938  -0.00316568  0.09107071  1
  Mn3.34+  Mn183  1  0.24745121  0.50380699  0.25238027  1
  Mn3.34+  Mn184  1  0.58214676  -0.00365671  0.92793124  1
  Mn3.34+  Mn185  1  0.25240749  -0.00025121  0.93494915  1
  Mn3.34+  Mn186  1  0.57624155  0.50147489  0.24701285  1
  Mn3.34+  Mn187  1  0.91010339  0.49422072  0.91064483  1
  Mn3.34+  Mn188  1  0.75097571  0.00089229  0.09499610  1
  Mn3.34+  Mn189  1  0.25889898  -0.00001997  0.25224242  1
  Mn3.34+  Mn190  1  0.41931639  0.00361732  0.74887336  1
  Mn3.34+  Mn191  1  0.07459698  0.50065096  0.74773276  1
  Mn3.34+  Mn192  1  0.57111289  0.00405472  0.92791188  1
  Mn3.34+  Mn193  1  0.90289124  -0.00201581  0.26660764  1
  Mn3.34+  Mn194  1  0.25084837  0.50133898  0.90577863  1
  Mn3.34+  Mn195  1  0.58473805  -0.00262640  0.57184969  1
  Mn3.34+  Mn196  1  0.26224986  0.50003830  0.24697528  1
  Mn3.34+  Mn197  1  0.24206655  0.49530608  0.58287381  1
  Mn3.34+  Mn198  1  0.07705004  0.50357660  0.08673892  1
  Mn3.34+  Mn199  1  0.75015017  -0.00224854  0.74647193  1
  Mn3.34+  Mn200  1  0.23933160  0.50679992  0.90753881  1
  Mn3.34+  Mn201  1  0.23699882  0.00328751  0.58206960  1
  Mn3.34+  Mn202  1  0.91989065  0.00082150  0.58308077  1
  Mn3.34+  Mn203  1  0.24021716  -0.00669143  0.93385061  1
  Mn3.34+  Mn204  1  0.58722921  0.49949050  0.58210038  1
  Mn3.34+  Mn205  1  0.59249550  0.49720079  0.92087440  1
  Mn3.34+  Mn206  1  0.57873148  0.50356407  0.92217374  1
  Mn3.34+  Mn207  1  0.41669027  0.50286929  0.08127624  1
  Mn3.34+  Mn208  1  0.75258480  0.49871694  0.75090041  1
  Mn3.34+  Mn209  1  0.09107144  0.49826665  0.09171240  1
  Mn3.34+  Mn210  1  0.07413339  -0.00217219  0.42359288  1
  Mn3.34+  Mn211  1  0.24088869  0.50048540  0.57273015  1
  Mn3.34+  Mn212  1  0.25128725  -0.00211381  0.58612088  1
  Mn3.34+  Mn213  1  0.75132725  0.50163922  0.08349506  1
  Mn3.34+  Mn214  1  0.08669475  0.00203575  0.42413825  1
  Mn3.34+  Mn215  1  0.92339750  0.50055379  0.90872727  1
  O2-  O216  1  -0.00396008  0.16729322  0.00484572  1
  O2-  O217  1  0.00784180  0.15168658  0.33833684  1
  O2-  O218  1  -0.00144262  0.17395041  0.66210545  1
  O2-  O219  1  -0.00688542  0.67378495  0.00107998  1
  O2-  O220  1  -0.00784460  0.65531829  0.34240937  1
  O2-  O221  1  -0.00646089  0.67195729  0.67258774  1
  O2-  O222  1  0.33367741  0.15862524  0.00490845  1
  O2-  O223  1  0.33577318  0.15430466  0.33401120  1
  O2-  O224  1  0.32702675  0.16645726  0.66803893  1
  O2-  O225  1  0.33147772  0.65128803  -0.00178156  1
  O2-  O226  1  0.34210256  0.66953407  0.34041485  1
  O2-  O227  1  0.33793908  0.66531866  0.66507180  1
  O2-  O228  1  0.67418615  0.16179453  -0.00689354  1
  O2-  O229  1  0.66469975  0.15884010  0.33357625  1
  O2-  O230  1  0.68233160  0.18139486  0.66615571  1
  O2-  O231  1  0.67248965  0.67475717  -0.00373804  1
  O2-  O232  1  0.66446514  0.63855979  0.33138310  1
  O2-  O233  1  0.66132185  0.65037678  0.65925759  1
  O2-  O234  1  0.16232847  0.15346882  -0.00407814  1
  O2-  O235  1  0.17089464  0.15277010  0.33758195  1
  O2-  O236  1  0.16191019  0.17143856  0.66431105  1
  O2-  O237  1  0.17243308  0.66527188  -0.00395415  1
  O2-  O238  1  0.16518524  0.64886418  0.34173801  1
  O2-  O239  1  0.15139302  0.67337522  0.67558660  1
  O2-  O240  1  0.50121620  0.15626551  0.00241682  1
  O2-  O241  1  0.50079228  0.15359926  0.32941691  1
  O2-  O242  1  0.49523393  0.16392890  0.67160016  1
  O2-  O243  1  0.49427625  0.66178724  -0.00673723  1
  O2-  O244  1  0.50388822  0.65094928  0.33577505  1
  O2-  O245  1  0.50233814  0.65449969  0.65713992  1
  O2-  O246  1  0.83265512  0.16554107  -0.00353614  1
  O2-  O247  1  0.83259081  0.15631206  0.33456587  1
  O2-  O248  1  0.83456556  0.16284473  0.65470706  1
  O2-  O249  1  0.83748265  0.66314144  0.00118940  1
  O2-  O250  1  0.82533342  0.65736151  0.32353256  1
  O2-  O251  1  0.83365201  0.66119641  0.66212233  1
  O2-  O252  1  -0.00747823  0.33475424  0.00455401  1
  O2-  O253  1  -0.00308164  0.34342013  0.33743572  1
  O2-  O254  1  0.00145045  0.33505613  0.66558310  1
  O2-  O255  1  -0.00519741  0.83313430  0.00372178  1
  O2-  O256  1  -0.00529558  0.83557797  0.33344735  1
  O2-  O257  1  -0.00134451  0.81128978  0.67213076  1
  O2-  O258  1  0.33646380  0.34986921  -0.00387384  1
  O2-  O259  1  0.33086572  0.34580547  0.33597657  1
  O2-  O260  1  0.33487925  0.34580584  0.66442695  1
  O2-  O261  1  0.32984034  0.84622637  0.00067426  1
  O2-  O262  1  0.33218277  0.83319995  0.33640514  1
  O2-  O263  1  0.33627264  0.85157192  0.66282893  1
  O2-  O264  1  0.66351855  0.33030855  0.00641838  1
  O2-  O265  1  0.67216079  0.34282035  0.33141534  1
  O2-  O266  1  0.66888617  0.33983439  0.66536705  1
  O2-  O267  1  0.67153683  0.81959820  -0.00168077  1
  O2-  O268  1  0.66407903  0.84235710  0.33643533  1
  O2-  O269  1  0.66900270  0.85292555  0.66250281  1
  O2-  O270  1  0.17143948  0.34754387  0.00406064  1
  O2-  O271  1  0.16199222  0.35075390  0.33135002  1
  O2-  O272  1  0.16978827  0.31273070  0.66948369  1
  O2-  O273  1  0.16996297  0.84307687  0.00321414  1
  O2-  O274  1  0.16689909  0.85204177  0.33410240  1
  O2-  O275  1  0.16519177  0.83411141  0.66826228  1
  O2-  O276  1  0.49985489  0.35138295  -0.00240922  1
  O2-  O277  1  0.49861306  0.34401619  0.33225817  1
  O2-  O278  1  0.50059248  0.33991243  0.66619331  1
  O2-  O279  1  0.49876330  0.83683273  -0.00029929  1
  O2-  O280  1  0.50358241  0.82871208  0.33619953  1
  O2-  O281  1  0.50279871  0.84770827  0.66401215  1
  O2-  O282  1  0.83616077  0.32160079  0.00392941  1
  O2-  O283  1  0.82897388  0.34198217  0.32755001  1
  O2-  O284  1  0.83144889  0.33283015  0.66695751  1
  O2-  O285  1  0.83494276  0.80340913  -0.00354203  1
  O2-  O286  1  0.83625391  0.83398736  0.33346020  1
  O2-  O287  1  0.83775641  0.84419604  0.66517413  1
  O2-  O288  1  0.00274521  0.17180929  0.16217274  1
  O2-  O289  1  0.00207651  0.17844467  0.49763673  1
  O2-  O290  1  0.00297612  0.18695904  0.84456938  1
  O2-  O291  1  -0.00228128  0.67893887  0.17616743  1
  O2-  O292  1  0.00534730  0.69051306  0.50751259  1
  O2-  O293  1  0.00111692  0.69370013  0.83261713  1
  O2-  O294  1  0.33550554  0.18101721  0.17101717  1
  O2-  O295  1  0.33225491  0.18829468  0.49985206  1
  O2-  O296  1  0.33337975  0.17855388  0.83522589  1
  O2-  O297  1  0.33350009  0.67727549  0.15823573  1
  O2-  O298  1  0.34061745  0.68161307  0.49664714  1
  O2-  O299  1  0.33603206  0.68417713  0.84429886  1
  O2-  O300  1  0.66869456  0.19184667  0.16322249  1
  O2-  O301  1  0.67276386  0.17562313  0.49797827  1
  O2-  O302  1  0.66994153  0.17914836  0.84298635  1
  O2-  O303  1  0.68336440  0.68177729  0.17420585  1
  O2-  O304  1  0.66477895  0.67882488  0.50077038  1
  O2-  O305  1  0.65861180  0.67294645  0.83283695  1
  O2-  O306  1  0.16283956  0.17362019  0.17244927  1
  O2-  O307  1  0.16673650  0.18877110  0.49779487  1
  O2-  O308  1  0.17544007  0.17797855  0.83597788  1
  O2-  O309  1  0.16636539  0.67621111  0.16750249  1
  O2-  O310  1  0.16566144  0.67193095  0.50018212  1
  O2-  O311  1  0.16762837  0.68888064  0.83454460  1
  O2-  O312  1  0.49842980  0.17776802  0.16775619  1
  O2-  O313  1  0.50017020  0.17567598  0.49859930  1
  O2-  O314  1  0.49850755  0.17626023  0.83382007  1
  O2-  O315  1  0.49276588  0.67992343  0.16597253  1
  O2-  O316  1  0.50830159  0.68598766  0.49348180  1
  O2-  O317  1  0.50678424  0.67240063  0.83134212  1
  O2-  O318  1  0.83644175  0.18086512  0.15097236  1
  O2-  O319  1  0.83745006  0.17192951  0.49330751  1
  O2-  O320  1  0.83387611  0.18680618  0.84350712  1
  O2-  O321  1  0.84155129  0.68780132  0.15749895  1
  O2-  O322  1  0.84065682  0.69952240  0.50779429  1
  O2-  O323  1  0.83708536  0.68418622  0.83975216  1
  O2-  O324  1  -0.00035110  0.32601369  0.16639906  1
  O2-  O325  1  0.00382275  0.32686903  0.50432666  1
  O2-  O326  1  -0.00065377  0.30590918  0.83119768  1
  O2-  O327  1  0.00326547  0.82242124  0.17125160  1
  O2-  O328  1  0.00332834  0.81014701  0.50140807  1
  O2-  O329  1  -0.00728502  0.82039700  0.82929746  1
  O2-  O330  1  0.32916440  0.32258841  0.16026561  1
  O2-  O331  1  0.33430157  0.31573224  0.50495619  1
  O2-  O332  1  0.33295282  0.32715482  0.83173963  1
  O2-  O333  1  0.32397740  0.82197201  0.16051648  1
  O2-  O334  1  0.33802465  0.82308028  0.49785517  1
  O2-  O335  1  0.32630721  0.82599610  0.82744093  1
  O2-  O336  1  0.67276493  0.32346324  0.17161992  1
  O2-  O337  1  0.67189332  0.32407611  0.50074981  1
  O2-  O338  1  0.66087767  0.31454871  0.82325138  1
  O2-  O339  1  0.66258919  0.81520133  0.16005839  1
  O2-  O340  1  0.67411568  0.82698823  0.50730839  1
  O2-  O341  1  0.66091792  0.83026780  0.82333554  1
  O2-  O342  1  0.17192427  0.33599517  0.16150319  1
  O2-  O343  1  0.16985734  0.31411043  0.49690012  1
  O2-  O344  1  0.16663594  0.31335053  0.82857159  1
  O2-  O345  1  0.16482205  0.83134084  0.16871775  1
  O2-  O346  1  0.17832442  0.82810496  0.48731224  1
  O2-  O347  1  0.16591792  0.81674400  0.83228232  1
  O2-  O348  1  0.50437137  0.32987036  0.16592421  1
  O2-  O349  1  0.49556011  0.32704939  0.50612000  1
  O2-  O350  1  0.49958525  0.32614224  0.83204276  1
  O2-  O351  1  0.49563913  0.81780753  0.16710691  1
  O2-  O352  1  0.49624145  0.81694519  0.50445221  1
  O2-  O353  1  0.50646438  0.82822146  0.82472482  1
  O2-  O354  1  0.83702199  0.32092372  0.16383404  1
  O2-  O355  1  0.83115585  0.32171969  0.50052254  1
  O2-  O356  1  0.83508656  0.30665597  0.82960311  1
  O2-  O357  1  0.83562230  0.80921640  0.16413524  1
  O2-  O358  1  0.83386495  0.82436291  0.50349405  1
  O2-  O359  1  0.83919314  0.82609661  0.83069888  1
  O2-  O360  1  0.06805775  0.08242095  0.10646473  1
  O2-  O361  1  0.09494384  0.08148353  0.45851425  1
  O2-  O362  1  0.09082607  0.08101157  0.76617610  1
  O2-  O363  1  0.07043720  0.58418033  0.10836562  1
  O2-  O364  1  0.07117197  0.58019394  0.45473301  1
  O2-  O365  1  0.05597162  0.58177169  0.76765432  1
  O2-  O366  1  0.41507097  0.07665910  0.12241383  1
  O2-  O367  1  0.40935185  0.08307046  0.45097966  1
  O2-  O368  1  0.39493867  0.08327827  0.75540776  1
  O2-  O369  1  0.40502735  0.58227000  0.11209883  1
  O2-  O370  1  0.42603152  0.58053592  0.46437319  1
  O2-  O371  1  0.45914894  0.56421875  0.77426059  1
  O2-  O372  1  0.74721048  0.08011016  0.11418044  1
  O2-  O373  1  0.75073454  0.07992083  0.45418457  1
  O2-  O374  1  0.74711760  0.07998535  0.75769698  1
  O2-  O375  1  0.76984524  0.58401146  0.11135962  1
  O2-  O376  1  0.75862021  0.58132751  0.46208729  1
  O2-  O377  1  0.74771010  0.57615184  0.77799241  1
  O2-  O378  1  0.25565133  0.08013014  0.23352418  1
  O2-  O379  1  0.25506869  0.08342969  0.54673399  1
  O2-  O380  1  0.25021665  0.07084861  0.87943040  1
  O2-  O381  1  0.24049373  0.58279159  0.23411156  1
  O2-  O382  1  0.25734556  0.58155187  0.55410179  1
  O2-  O383  1  0.25307798  0.58751332  0.88548793  1
  O2-  O384  1  0.57977417  0.08121029  0.23347127  1
  O2-  O385  1  0.59698051  0.07779871  0.55771042  1
  O2-  O386  1  0.60626801  0.07778684  0.88043005  1
  O2-  O387  1  0.59679206  0.58322945  0.20580420  1
  O2-  O388  1  0.58651839  0.58015371  0.54838437  1
  O2-  O389  1  0.59000211  0.58477211  0.89744663  1
  O2-  O390  1  0.91787491  0.06578229  0.21465838  1
  O2-  O391  1  0.93638532  0.08206783  0.56000374  1
  O2-  O392  1  0.91033580  0.09003255  0.89613164  1
  O2-  O393  1  0.90120486  0.58405811  0.21298795  1
  O2-  O394  1  0.91465554  0.57770526  0.54289281  1
  O2-  O395  1  0.90533427  0.58204633  0.89077274  1
  O2-  O396  1  0.06964956  0.41657784  0.10354074  1
  O2-  O397  1  0.08946383  0.41903131  0.43426815  1
  O2-  O398  1  0.09139768  0.41915804  0.76577594  1
  O2-  O399  1  0.08081791  0.91895463  0.10473213  1
  O2-  O400  1  0.06408672  0.91640672  0.43916861  1
  O2-  O401  1  0.07113517  0.91210043  0.76394869  1
  O2-  O402  1  0.40189483  0.42192872  0.12150836  1
  O2-  O403  1  0.39911236  0.41868800  0.45148888  1
  O2-  O404  1  0.43489438  0.41669951  0.76400618  1
  O2-  O405  1  0.39979349  0.91859893  0.11343758  1
  O2-  O406  1  0.40306439  0.92290406  0.45172406  1
  O2-  O407  1  0.44153367  0.92222558  0.76696979  1
  O2-  O408  1  0.76718525  0.41921719  0.12055203  1
  O2-  O409  1  0.75246096  0.41735824  0.43578049  1
  O2-  O410  1  0.73072860  0.41866803  0.76977726  1
  O2-  O411  1  0.76534681  0.91525608  0.09943869  1
  O2-  O412  1  0.75455138  0.91886229  0.44397424  1
  O2-  O413  1  0.76106825  0.91792587  0.76809570  1
  O2-  O414  1  0.26250544  0.42073677  0.22386815  1
  O2-  O415  1  0.23995215  0.41277572  0.56440330  1
  O2-  O416  1  0.24618469  0.41991313  0.87907541  1
  O2-  O417  1  0.24495263  0.91952324  0.23320671  1
  O2-  O418  1  0.25997224  0.91914110  0.54713663  1
  O2-  O419  1  0.24592739  0.92132088  0.88533129  1
  O2-  O420  1  0.60473786  0.41941066  0.22467355  1
  O2-  O421  1  0.57540443  0.41636438  0.58192258  1
  O2-  O422  1  0.58273922  0.41900120  0.87694125  1
  O2-  O423  1  0.58132937  0.91731212  0.23854543  1
  O2-  O424  1  0.56709845  0.91551209  0.54844813  1
  O2-  O425  1  0.58562395  0.91852237  0.88975209  1
  O2-  O426  1  0.91788632  0.41800931  0.21847257  1
  O2-  O427  1  0.91075220  0.41450439  0.57944104  1
  O2-  O428  1  0.91564233  0.41421780  0.88334088  1
  O2-  O429  1  0.92488098  0.92857101  0.21685824  1
  O2-  O430  1  0.90493565  0.92167232  0.55109899  1
  O2-  O431  1  0.92092109  0.92221174  0.90001594  1
  O2-  O432  1  -0.01491732  0.02000377  0.02165253  1
  O2-  O433  1  0.00137539  0.01111074  0.32866122  1
  O2-  O434  1  -0.00775663  -0.00339713  0.66520756  1
  O2-  O435  1  0.00315779  0.50129251  -0.00370378  1
  O2-  O436  1  0.01403889  0.51476724  0.29732294  1
  O2-  O437  1  -0.00420802  0.49414703  0.67611102  1
  O2-  O438  1  0.32558713  -0.00316903  0.01382355  1
  O2-  O439  1  0.31983793  -0.00448846  0.34867287  1
  O2-  O440  1  0.32923212  -0.01496774  0.67154245  1
  O2-  O441  1  0.33034048  0.48712900  -0.00378690  1
  O2-  O442  1  0.33686810  0.50335838  0.33194240  1
  O2-  O443  1  0.34976165  0.49422304  0.63169057  1
  O2-  O444  1  0.67138323  0.00414779  0.00180470  1
  O2-  O445  1  0.64973147  0.00699589  0.34721365  1
  O2-  O446  1  0.66740895  -0.01640106  0.65681393  1
  O2-  O447  1  0.66594360  0.49511291  0.00713418  1
  O2-  O448  1  0.66261946  0.51830443  0.33576963  1
  O2-  O449  1  0.65971464  0.50699665  0.67401136  1
  O2-  O450  1  0.14339861  0.00753993  -0.02417920  1
  O2-  O451  1  0.16074301  0.00101509  0.32952823  1
  O2-  O452  1  0.16502715  0.01655287  0.66731318  1
  O2-  O453  1  0.17377976  0.49394358  0.00764552  1
  O2-  O454  1  0.16612204  0.49868719  0.32517573  1
  O2-  O455  1  0.15850463  0.50735989  0.66258214  1
  O2-  O456  1  0.49695479  0.00109618  0.01185803  1
  O2-  O457  1  0.51231978  0.00916648  0.34381971  1
  O2-  O458  1  0.48788476  -0.00286191  0.64455350  1
  O2-  O459  1  0.49849124  0.48272367  0.00119119  1
  O2-  O460  1  0.49374475  0.51782333  0.32486054  1
  O2-  O461  1  0.49730563  0.50202885  0.64024636  1
  O2-  O462  1  0.83797550  0.01052837  0.02280772  1
  O2-  O463  1  0.84666026  0.00060621  0.35478829  1
  O2-  O464  1  0.82033989  -0.00173779  0.64634311  1
  O2-  O465  1  0.85056328  0.49354900  0.01468542  1
  O2-  O466  1  0.82028811  0.50296729  0.31396262  1
  O2-  O467  1  0.83206709  0.50394548  0.67674801  1
  O2-  O468  1  0.58495754  0.25260704  0.59038055  1
  O2-  O469  1  0.41159706  0.25051905  0.73492294  1
  O2-  O470  1  0.25648381  0.25176262  0.94254923  1
  O2-  O471  1  0.59058477  0.74709900  0.27422049  1
  O2-  O472  1  0.74535615  0.75503949  0.73876835  1
  O2-  O473  1  0.57451246  0.24944431  0.27026808  1
  O2-  O474  1  0.42101518  0.75649687  0.73374082  1
  O2-  O475  1  0.25210602  0.75385992  0.59611852  1
  O2-  O476  1  0.09601911  0.74590357  0.39249322  1
  O2-  O477  1  0.07973880  0.25059066  0.39172047  1
  O2-  O478  1  0.24486798  0.24745237  0.26641820  1
  O2-  O479  1  0.25710819  0.75304411  0.94327282  1
  O2-  O480  1  0.41443355  0.75112487  0.06287867  1
  O2-  O481  1  0.92046860  0.25026640  0.26712474  1
  O2-  O482  1  0.59236055  0.75010861  0.61018302  1
  O2-  O483  1  0.74062322  0.75096010  0.39415091  1
  O2-  O484  1  0.42095051  0.24963693  0.39173118  1
  O2-  O485  1  0.57657669  0.75282847  0.91925223  1
  O2-  O486  1  0.09112543  0.75545572  0.07726901  1
  O2-  O487  1  0.56852199  0.25024964  0.94005875  1
  O2-  O488  1  0.91367323  0.25038619  0.58740156  1
  O2-  O489  1  0.74950192  0.24693010  0.39611659  1
  O2-  O490  1  0.09586789  0.24902595  0.06915436  1
  O2-  O491  1  0.42040184  0.24998463  0.06450022  1
  O2-  O492  1  0.24250539  0.75405859  0.26550107  1
