# generated using pymatgen
data_Ca108Mn108O277
_symmetry_space_group_name_H-M   'P 1'
_cell_length_a   16.03552915
_cell_length_b   22.31735927
_cell_length_c   16.39575108
_cell_angle_alpha   89.99035901
_cell_angle_beta   90.00056362
_cell_angle_gamma   90.00041986
_symmetry_Int_Tables_number   1
_chemical_formula_structural   Ca108Mn108O277
_chemical_formula_sum   'Ca108 Mn108 O277'
_cell_volume   5867.55826009
_cell_formula_units_Z   1
loop_
 _symmetry_equiv_pos_site_id
 _symmetry_equiv_pos_as_xyz
  1  'x, y, z'
loop_
 _atom_type_symbol
 _atom_type_oxidation_number
  Ca2+  2.0
  Mn3.34+  3.34
  O2-  -2.0
loop_
 _atom_site_type_symbol
 _atom_site_label
 _atom_site_symmetry_multiplicity
 _atom_site_fract_x
 _atom_site_fract_y
 _atom_site_fract_z
 _atom_site_occupancy
  Ca2+  Ca0  1  0.08384082  0.22737682  0.25172057  1
  Ca2+  Ca1  1  0.08859262  0.25591782  0.58655281  1
  Ca2+  Ca2  1  0.08081143  0.25268910  0.91083079  1
  Ca2+  Ca3  1  0.08238050  0.75315828  0.22390960  1
  Ca2+  Ca4  1  0.07143785  0.75670213  0.58886699  1
  Ca2+  Ca5  1  0.08854579  0.73383291  0.93280067  1
  Ca2+  Ca6  1  0.41066477  0.24746501  0.25040864  1
  Ca2+  Ca7  1  0.41285517  0.25567850  0.57970111  1
  Ca2+  Ca8  1  0.41492776  0.25019277  0.92555017  1
  Ca2+  Ca9  1  0.41295448  0.75429362  0.23455303  1
  Ca2+  Ca10  1  0.42288246  0.75210410  0.57955066  1
  Ca2+  Ca11  1  0.40322275  0.74867047  0.93044389  1
  Ca2+  Ca12  1  0.75487177  0.25475171  0.24493340  1
  Ca2+  Ca13  1  0.74713562  0.25332503  0.58985249  1
  Ca2+  Ca14  1  0.75489950  0.25763597  0.90954906  1
  Ca2+  Ca15  1  0.75302955  0.75209664  0.25462719  1
  Ca2+  Ca16  1  0.75286652  0.74133714  0.58571103  1
  Ca2+  Ca17  1  0.76118397  0.75051284  0.91156670  1
  Ca2+  Ca18  1  0.25679307  0.23672897  0.11355771  1
  Ca2+  Ca19  1  0.25666558  0.24431438  0.40574437  1
  Ca2+  Ca20  1  0.24475898  0.26631179  0.74526312  1
  Ca2+  Ca21  1  0.24611250  0.75247752  0.08023720  1
  Ca2+  Ca22  1  0.26899927  0.74813530  0.41969699  1
  Ca2+  Ca23  1  0.24032037  0.76071930  0.75718725  1
  Ca2+  Ca24  1  0.57666626  0.24658793  0.08883557  1
  Ca2+  Ca25  1  0.58076453  0.25812748  0.41793267  1
  Ca2+  Ca26  1  0.58805134  0.25278612  0.74399344  1
  Ca2+  Ca27  1  0.55328891  0.74082439  0.08190754  1
  Ca2+  Ca28  1  0.57297925  0.73853802  0.42053770  1
  Ca2+  Ca29  1  0.59783049  0.74316636  0.74684622  1
  Ca2+  Ca30  1  0.92259619  0.25674081  0.09956999  1
  Ca2+  Ca31  1  0.91757917  0.24475122  0.40539895  1
  Ca2+  Ca32  1  0.91977788  0.26097052  0.75152703  1
  Ca2+  Ca33  1  0.93914755  0.74910043  0.07858598  1
  Ca2+  Ca34  1  0.90845658  0.75671251  0.42170155  1
  Ca2+  Ca35  1  0.92030843  0.74820504  0.75597781  1
  Ca2+  Ca36  1  0.93350981  0.08304814  0.73332865  1
  Ca2+  Ca37  1  0.43306430  0.59802696  0.93468633  1
  Ca2+  Ca38  1  0.42683131  0.59953968  0.56656156  1
  Ca2+  Ca39  1  0.58847031  0.59648731  0.74085081  1
  Ca2+  Ca40  1  0.94046767  0.09807933  0.39832309  1
  Ca2+  Ca41  1  0.43925926  0.07877144  0.57472845  1
  Ca2+  Ca42  1  0.08408427  0.60337097  0.24643954  1
  Ca2+  Ca43  1  0.11249352  0.07611371  0.60123677  1
  Ca2+  Ca44  1  0.41618234  0.59935763  0.56621039  1
  Ca2+  Ca45  1  0.72100406  0.08782234  0.59434629  1
  Ca2+  Ca46  1  0.26408025  0.58982428  0.74515522  1
  Ca2+  Ca47  1  0.10074805  0.58337535  0.60396426  1
  Ca2+  Ca48  1  0.91915253  0.60014974  0.41975092  1
  Ca2+  Ca49  1  0.74092119  0.59587780  0.89955119  1
  Ca2+  Ca50  1  0.12208681  0.07409727  0.59815283  1
  Ca2+  Ca51  1  0.26598774  0.60681534  0.08121455  1
  Ca2+  Ca52  1  0.10216400  0.06917185  0.91978372  1
  Ca2+  Ca53  1  0.73530501  0.09035064  0.93841904  1
  Ca2+  Ca54  1  0.90837045  0.60153394  0.74883558  1
  Ca2+  Ca55  1  0.74053147  0.59677597  0.60742893  1
  Ca2+  Ca56  1  0.09326525  0.58648718  0.60984963  1
  Ca2+  Ca57  1  0.43361858  0.60293610  0.24612019  1
  Ca2+  Ca58  1  0.92815897  0.59724336  0.42456639  1
  Ca2+  Ca59  1  0.75240151  0.59554551  0.89943143  1
  Ca2+  Ca60  1  0.94269506  0.08039723  0.73737534  1
  Ca2+  Ca61  1  0.25213026  0.58969067  0.74439315  1
  Ca2+  Ca62  1  0.94299074  0.60435998  0.07962087  1
  Ca2+  Ca63  1  0.42191919  0.07704348  0.93704180  1
  Ca2+  Ca64  1  0.38599601  0.09017489  0.25439812  1
  Ca2+  Ca65  1  0.72282628  0.08835961  0.93822707  1
  Ca2+  Ca66  1  0.72945730  0.59139376  0.25445849  1
  Ca2+  Ca67  1  0.10968088  0.06402262  0.92229212  1
  Ca2+  Ca68  1  0.37603426  0.09023002  0.25643997  1
  Ca2+  Ca69  1  0.24180508  0.09070741  0.39787706  1
  Ca2+  Ca70  1  0.75785328  0.10965248  0.22957227  1
  Ca2+  Ca71  1  0.91949289  0.10782326  0.10039107  1
  Ca2+  Ca72  1  0.58601961  0.39993792  0.08496920  1
  Ca2+  Ca73  1  0.43259783  0.40538360  0.90737005  1
  Ca2+  Ca74  1  0.41394344  0.42147737  0.60113114  1
  Ca2+  Ca75  1  0.42122718  0.40610092  0.90699532  1
  Ca2+  Ca76  1  0.41853797  0.40365454  0.25046440  1
  Ca2+  Ca77  1  0.27193112  0.92926363  0.38644760  1
  Ca2+  Ca78  1  0.73766011  0.40522367  0.23413139  1
  Ca2+  Ca79  1  0.56879494  0.90501769  0.74188372  1
  Ca2+  Ca80  1  0.74352088  0.89395105  0.24118409  1
  Ca2+  Ca81  1  0.25472383  0.91979471  0.08416568  1
  Ca2+  Ca82  1  0.41258865  0.91732253  0.57689017  1
  Ca2+  Ca83  1  0.09820311  0.90611993  0.25340339  1
  Ca2+  Ca84  1  0.92202815  0.39747491  0.41945998  1
  Ca2+  Ca85  1  0.57653071  0.89503869  0.07854846  1
  Ca2+  Ca86  1  0.93466284  0.39725958  0.42041996  1
  Ca2+  Ca87  1  0.28087137  0.93192045  0.39034580  1
  Ca2+  Ca88  1  0.91634609  0.90067484  0.08076901  1
  Ca2+  Ca89  1  0.07336735  0.40426328  0.90411711  1
  Ca2+  Ca90  1  0.09076426  0.39319614  0.25306745  1
  Ca2+  Ca91  1  0.73972797  0.89817283  0.58123687  1
  Ca2+  Ca92  1  0.57429701  0.41425082  0.73940823  1
  Ca2+  Ca93  1  0.92125281  0.40749506  0.75298785  1
  Ca2+  Ca94  1  0.74880044  0.41903210  0.93837826  1
  Ca2+  Ca95  1  0.72827143  0.89744069  0.57953894  1
  Ca2+  Ca96  1  0.74181611  0.90448839  0.92496080  1
  Ca2+  Ca97  1  0.08449766  0.40319585  0.90239873  1
  Ca2+  Ca98  1  0.25365948  0.39861648  0.09024915  1
  Ca2+  Ca99  1  0.39940648  0.91755315  0.92158060  1
  Ca2+  Ca100  1  0.09809568  0.90991056  0.91374461  1
  Ca2+  Ca101  1  0.73142108  0.40486591  0.58803275  1
  Ca2+  Ca102  1  0.22401657  0.93801782  0.73838345  1
  Ca2+  Ca103  1  0.42354847  0.91868211  0.57593008  1
  Ca2+  Ca104  1  0.09724113  0.91508268  0.59568478  1
  Ca2+  Ca105  1  0.92984350  0.90134325  0.42024570  1
  Ca2+  Ca106  1  0.25805605  0.40044063  0.41810971  1
  Ca2+  Ca107  1  0.93726863  0.91225280  0.74512838  1
  Mn3.34+  Mn108  1  0.08540399  0.32700363  0.08521833  1
  Mn3.34+  Mn109  1  0.09119364  0.33063334  0.42315159  1
  Mn3.34+  Mn110  1  0.08655109  0.33932221  0.73968114  1
  Mn3.34+  Mn111  1  0.08683725  0.83869613  0.08027435  1
  Mn3.34+  Mn112  1  0.09057594  0.83350086  0.42213273  1
  Mn3.34+  Mn113  1  0.08506291  0.83607688  0.75350532  1
  Mn3.34+  Mn114  1  0.41856107  0.33189578  0.08642813  1
  Mn3.34+  Mn115  1  0.42145270  0.34195776  0.42178623  1
  Mn3.34+  Mn116  1  0.41393391  0.33444640  0.74606072  1
  Mn3.34+  Mn117  1  0.41167202  0.83465067  0.08270577  1
  Mn3.34+  Mn118  1  0.43216898  0.84286147  0.40513707  1
  Mn3.34+  Mn119  1  0.41093357  0.83512509  0.75448710  1
  Mn3.34+  Mn120  1  0.74950562  0.33828905  0.08368823  1
  Mn3.34+  Mn121  1  0.74525376  0.33651548  0.41616277  1
  Mn3.34+  Mn122  1  0.74952530  0.33602115  0.75226343  1
  Mn3.34+  Mn123  1  0.74702988  0.82838770  0.08130946  1
  Mn3.34+  Mn124  1  0.74499366  0.82932072  0.41350512  1
  Mn3.34+  Mn125  1  0.74874075  0.83283254  0.75717872  1
  Mn3.34+  Mn126  1  0.25254304  0.32925996  0.25122171  1
  Mn3.34+  Mn127  1  0.25239408  0.33333971  0.58198038  1
  Mn3.34+  Mn128  1  0.25086484  0.33226957  0.91691778  1
  Mn3.34+  Mn129  1  0.25373838  0.83968059  0.24781522  1
  Mn3.34+  Mn130  1  0.25352975  0.83380911  0.57749627  1
  Mn3.34+  Mn131  1  0.24972618  0.83940375  0.91313928  1
  Mn3.34+  Mn132  1  0.58299077  0.33135892  0.25355591  1
  Mn3.34+  Mn133  1  0.57980306  0.33304946  0.57982942  1
  Mn3.34+  Mn134  1  0.58869381  0.32949708  0.91280381  1
  Mn3.34+  Mn135  1  0.57705055  0.83109388  0.24833625  1
  Mn3.34+  Mn136  1  0.57688355  0.82985280  0.57902632  1
  Mn3.34+  Mn137  1  0.57798341  0.82987788  0.90854123  1
  Mn3.34+  Mn138  1  0.91729310  0.32950026  0.24688238  1
  Mn3.34+  Mn139  1  0.91599683  0.32693366  0.58589697  1
  Mn3.34+  Mn140  1  0.91419825  0.33574756  0.92279682  1
  Mn3.34+  Mn141  1  0.91867602  0.83167253  0.25010156  1
  Mn3.34+  Mn142  1  0.91704412  0.83626496  0.58420040  1
  Mn3.34+  Mn143  1  0.91756024  0.83403568  0.91220341  1
  Mn3.34+  Mn144  1  0.58268241  0.66954419  0.58157760  1
  Mn3.34+  Mn145  1  0.74026603  0.16363596  0.41953677  1
  Mn3.34+  Mn146  1  0.58194738  0.67215785  0.91029294  1
  Mn3.34+  Mn147  1  0.75296591  0.66455338  0.08621839  1
  Mn3.34+  Mn148  1  0.92493792  0.16615444  0.91234082  1
  Mn3.34+  Mn149  1  0.91725137  0.66985464  0.25109100  1
  Mn3.34+  Mn150  1  0.08877797  0.66816324  0.42603686  1
  Mn3.34+  Mn151  1  0.08725476  0.16788277  0.42730800  1
  Mn3.34+  Mn152  1  0.74253753  0.17407237  0.08396842  1
  Mn3.34+  Mn153  1  0.58192231  0.16683342  0.24899459  1
  Mn3.34+  Mn154  1  0.24962696  0.67193402  0.91782481  1
  Mn3.34+  Mn155  1  0.92144522  0.66807004  0.91441629  1
  Mn3.34+  Mn156  1  0.58014796  0.16641734  0.57913476  1
  Mn3.34+  Mn157  1  0.08713297  0.67018535  0.75630465  1
  Mn3.34+  Mn158  1  0.40912282  0.16337518  0.74662523  1
  Mn3.34+  Mn159  1  0.09291043  0.16794245  0.74821391  1
  Mn3.34+  Mn160  1  0.75050494  0.16859482  0.41814241  1
  Mn3.34+  Mn161  1  0.25876037  0.16645331  0.57854213  1
  Mn3.34+  Mn162  1  0.73947174  0.65849163  0.08825573  1
  Mn3.34+  Mn163  1  0.74460875  0.66704096  0.41937643  1
  Mn3.34+  Mn164  1  0.24677302  0.66936664  0.25623342  1
  Mn3.34+  Mn165  1  0.08705835  0.16274359  0.08934100  1
  Mn3.34+  Mn166  1  0.57829287  0.17084025  0.91137571  1
  Mn3.34+  Mn167  1  0.42229574  0.15856832  0.42245813  1
  Mn3.34+  Mn168  1  0.42297958  0.15837423  0.74961630  1
  Mn3.34+  Mn169  1  0.58011760  0.66741725  0.25352952  1
  Mn3.34+  Mn170  1  0.25058726  0.67161457  0.57679211  1
  Mn3.34+  Mn171  1  0.91488271  0.67192980  0.58575022  1
  Mn3.34+  Mn172  1  0.91359786  0.16123718  0.91151079  1
  Mn3.34+  Mn173  1  0.25849538  0.15918594  0.92008151  1
  Mn3.34+  Mn174  1  0.41625655  0.66311562  0.75723750  1
  Mn3.34+  Mn175  1  0.91858778  0.16467048  0.57781315  1
  Mn3.34+  Mn176  1  0.74579340  0.16898989  0.74939090  1
  Mn3.34+  Mn177  1  0.25977083  0.66370433  0.25700769  1
  Mn3.34+  Mn178  1  0.42171611  0.16347502  0.08798221  1
  Mn3.34+  Mn179  1  0.24846410  0.16426196  0.92270303  1
  Mn3.34+  Mn180  1  0.25161453  0.49863157  0.58521705  1
  Mn3.34+  Mn181  1  0.42015414  -0.00205928  0.07710238  1
  Mn3.34+  Mn182  1  0.92645749  0.50378307  0.24878446  1
  Mn3.34+  Mn183  1  0.58016356  0.50323396  0.91429759  1
  Mn3.34+  Mn184  1  0.74038851  -0.00080567  0.74970543  1
  Mn3.34+  Mn185  1  0.92259530  0.50013272  0.59230427  1
  Mn3.34+  Mn186  1  0.92011459  0.50550081  0.91835616  1
  Mn3.34+  Mn187  1  0.56806005  -0.00051283  0.24354433  1
  Mn3.34+  Mn188  1  0.72559328  0.49783475  0.41096254  1
  Mn3.34+  Mn189  1  0.73150246  0.00380457  0.41802657  1
  Mn3.34+  Mn190  1  0.91491869  0.00313962  0.24904461  1
  Mn3.34+  Mn191  1  0.57756621  0.00529406  0.24418619  1
  Mn3.34+  Mn192  1  0.74290216  -0.00088050  0.08053089  1
  Mn3.34+  Mn193  1  0.07990613  -0.00074185  0.42503250  1
  Mn3.34+  Mn194  1  0.25606020  0.50675567  0.91322917  1
  Mn3.34+  Mn195  1  0.90979656  0.49342651  0.59340904  1
  Mn3.34+  Mn196  1  0.74192467  0.49413940  0.74933478  1
  Mn3.34+  Mn197  1  0.92631968  -0.00127604  0.24954321  1
  Mn3.34+  Mn198  1  0.91362584  0.00427788  0.57569021  1
  Mn3.34+  Mn199  1  0.07581243  0.49234649  0.08793934  1
  Mn3.34+  Mn200  1  0.42018016  0.49909184  0.07979482  1
  Mn3.34+  Mn201  1  0.91051408  -0.00560689  0.92261221  1
  Mn3.34+  Mn202  1  0.08672790  0.00179047  0.08217320  1
  Mn3.34+  Mn203  1  0.73620423  0.50575994  0.41223110  1
  Mn3.34+  Mn204  1  0.24279989  0.50096531  0.91112603  1
  Mn3.34+  Mn205  1  0.41614895  0.00128442  0.73760529  1
  Mn3.34+  Mn206  1  0.10111439  0.50400960  0.40600103  1
  Mn3.34+  Mn207  1  0.41784608  0.49530261  0.39431962  1
  Mn3.34+  Mn208  1  0.57594941  0.50061217  0.24222062  1
  Mn3.34+  Mn209  1  0.08829417  0.49966916  0.08865228  1
  Mn3.34+  Mn210  1  0.58093953  0.50031819  0.57973018  1
  Mn3.34+  Mn211  1  0.24205779  0.49780512  0.25857465  1
  Mn3.34+  Mn212  1  0.72974450  0.00417951  0.74501598  1
  Mn3.34+  Mn213  1  0.58034393  -0.00332963  0.90769473  1
  Mn3.34+  Mn214  1  0.91521503  0.49803379  0.24762155  1
  Mn3.34+  Mn215  1  0.74210988  -0.00052585  0.41685814  1
  O2-  O216  1  0.00933094  0.13729809  -0.01549653  1
  O2-  O217  1  0.00676274  0.17642431  0.34824756  1
  O2-  O218  1  0.01253490  0.14136993  0.65100292  1
  O2-  O219  1  -0.00183643  0.66526988  -0.00468691  1
  O2-  O220  1  0.00257262  0.65444082  0.33883299  1
  O2-  O221  1  0.00596795  0.65107380  0.66002979  1
  O2-  O222  1  0.33992510  0.14469173  0.00050425  1
  O2-  O223  1  0.34190651  0.16706758  0.34379744  1
  O2-  O224  1  0.34560689  0.13882704  0.65753466  1
  O2-  O225  1  0.33615621  0.65671684  -0.01479883  1
  O2-  O226  1  0.34108482  0.66599689  0.33080645  1
  O2-  O227  1  0.33364588  0.65851482  0.66517888  1
  O2-  O228  1  0.66765444  0.17993118  -0.00652685  1
  O2-  O229  1  0.66924554  0.14780358  0.33041816  1
  O2-  O230  1  0.67006370  0.16305839  0.66299962  1
  O2-  O231  1  0.66677653  0.65386045  -0.00337345  1
  O2-  O232  1  0.67103474  0.66877584  0.32987938  1
  O2-  O233  1  0.66160571  0.66546885  0.66540407  1
  O2-  O234  1  0.16558868  0.13879267  0.00146005  1
  O2-  O235  1  0.16677472  0.17474181  0.35233091  1
  O2-  O236  1  0.17727877  0.15155908  0.67003096  1
  O2-  O237  1  0.17695803  0.65867689  -0.00256001  1
  O2-  O238  1  0.16913474  0.65791393  0.34063521  1
  O2-  O239  1  0.17326798  0.66483001  0.66633610  1
  O2-  O240  1  0.49694843  0.16874136  -0.00673931  1
  O2-  O241  1  0.49342880  0.15500573  0.32740680  1
  O2-  O242  1  0.50134036  0.15286746  0.66539928  1
  O2-  O243  1  0.50047579  0.68005430  -0.01516752  1
  O2-  O244  1  0.50628022  0.67544059  0.33060718  1
  O2-  O245  1  0.49363401  0.65277894  0.66644724  1
  O2-  O246  1  0.82892637  0.15323584  -0.00254355  1
  O2-  O247  1  0.83047324  0.14639565  0.34385451  1
  O2-  O248  1  0.83834840  0.13525349  0.67042516  1
  O2-  O249  1  0.83078338  0.64234959  0.00126842  1
  O2-  O250  1  0.83172953  0.64060600  0.33445816  1
  O2-  O251  1  0.83491334  0.66200921  0.66192421  1
  O2-  O252  1  0.00438413  0.35049767  0.00120420  1
  O2-  O253  1  0.00035122  0.33443784  0.33856807  1
  O2-  O254  1  -0.00846822  0.34042170  0.67186720  1
  O2-  O255  1  0.00315155  0.85327314  -0.00626221  1
  O2-  O256  1  0.01156925  0.84031130  0.32980849  1
  O2-  O257  1  0.00617286  0.85050082  0.65990423  1
  O2-  O258  1  0.34016848  0.35511776  -0.00341437  1
  O2-  O259  1  0.33750427  0.34188562  0.33375347  1
  O2-  O260  1  0.33457662  0.34874589  0.66345171  1
  O2-  O261  1  0.33061683  0.85326532  0.00025446  1
  O2-  O262  1  0.33931941  0.84358834  0.33392452  1
  O2-  O263  1  0.33299835  0.81608949  0.66592794  1
  O2-  O264  1  0.66485065  0.31990568  0.00160385  1
  O2-  O265  1  0.66930631  0.34986175  0.32905566  1
  O2-  O266  1  0.66049831  0.34504926  0.67354887  1
  O2-  O267  1  0.66055535  0.83575653  -0.00378354  1
  O2-  O268  1  0.66764103  0.82926722  0.32445179  1
  O2-  O269  1  0.66287533  0.83666120  0.67266412  1
  O2-  O270  1  0.16537019  0.35391757  -0.00414424  1
  O2-  O271  1  0.17155782  0.33834142  0.33640293  1
  O2-  O272  1  0.16752191  0.33951928  0.66102814  1
  O2-  O273  1  0.17324215  0.85623240  0.00485226  1
  O2-  O274  1  0.17948393  0.84981942  0.34714499  1
  O2-  O275  1  0.17482766  0.84484293  0.66918187  1
  O2-  O276  1  0.50150536  0.34248095  -0.00339924  1
  O2-  O277  1  0.49520764  0.33464802  0.33117433  1
  O2-  O278  1  0.49845055  0.34683663  0.66450965  1
  O2-  O279  1  0.49332658  0.83725142  -0.00880743  1
  O2-  O280  1  0.50049342  0.80213136  0.32915251  1
  O2-  O281  1  0.48609470  0.84694353  0.65865644  1
  O2-  O282  1  0.82432957  0.33732966  -0.00395447  1
  O2-  O283  1  0.83240696  0.35808257  0.33202122  1
  O2-  O284  1  0.82733074  0.35717112  0.66682329  1
  O2-  O285  1  0.83254027  0.84682228  -0.00318889  1
  O2-  O286  1  0.83762257  0.85310985  0.33585210  1
  O2-  O287  1  0.82716826  0.85252785  0.67156018  1
  O2-  O288  1  -0.00133247  0.18177145  0.15039568  1
  O2-  O289  1  -0.00271695  0.18954827  0.50257833  1
  O2-  O290  1  -0.00891826  0.18170015  0.81450550  1
  O2-  O291  1  -0.00443870  0.68260295  0.17480202  1
  O2-  O292  1  -0.00607820  0.68479162  0.49407828  1
  O2-  O293  1  -0.00422656  0.67655641  0.82498936  1
  O2-  O294  1  0.34585291  0.16912578  0.17063851  1
  O2-  O295  1  0.33942885  0.18697550  0.49791655  1
  O2-  O296  1  0.33379178  0.18358412  0.83327811  1
  O2-  O297  1  0.32892598  0.67647533  0.16934327  1
  O2-  O298  1  0.33878436  0.68175739  0.50988094  1
  O2-  O299  1  0.33034869  0.69146086  0.82243191  1
  O2-  O300  1  0.66867464  0.18977818  0.17068546  1
  O2-  O301  1  0.66600262  0.18818224  0.49890003  1
  O2-  O302  1  0.66607363  0.18784460  0.83827937  1
  O2-  O303  1  0.66711457  0.68648227  0.17055513  1
  O2-  O304  1  0.66885265  0.68304460  0.50523047  1
  O2-  O305  1  0.67187373  0.67969050  0.84158875  1
  O2-  O306  1  0.16175229  0.17529745  0.16316178  1
  O2-  O307  1  0.16563811  0.18666270  0.51271515  1
  O2-  O308  1  0.16171290  0.18165297  0.84719439  1
  O2-  O309  1  0.16863755  0.67588177  0.17698582  1
  O2-  O310  1  0.16238098  0.69389759  0.50680607  1
  O2-  O311  1  0.17045667  0.68613811  0.82914372  1
  O2-  O312  1  0.50152092  0.18473501  0.16960582  1
  O2-  O313  1  0.49970810  0.18872555  0.49731791  1
  O2-  O314  1  0.49626917  0.18875164  0.82872610  1
  O2-  O315  1  0.50242283  0.68470671  0.18002836  1
  O2-  O316  1  0.49580763  0.67869536  0.50841936  1
  O2-  O317  1  0.50435160  0.68608708  0.82211784  1
  O2-  O318  1  0.82703716  0.18653311  0.15325276  1
  O2-  O319  1  0.82804689  0.18613949  0.50334759  1
  O2-  O320  1  0.83062297  0.18243920  0.83412895  1
  O2-  O321  1  0.83140219  0.68037287  0.16904477  1
  O2-  O322  1  0.83827789  0.67712802  0.49424216  1
  O2-  O323  1  0.83173993  0.67538151  0.84075092  1
  O2-  O324  1  0.01082848  0.31520431  0.17621121  1
  O2-  O325  1  -0.00067828  0.31417818  0.49332539  1
  O2-  O326  1  0.00208593  0.32445415  0.84146541  1
  O2-  O327  1  -0.00380020  0.82238234  0.16023695  1
  O2-  O328  1  -0.00427707  0.81811785  0.49316745  1
  O2-  O329  1  -0.00592365  0.82368371  0.82571946  1
  O2-  O330  1  0.33713308  0.32735670  0.16750756  1
  O2-  O331  1  0.33318345  0.31908985  0.49312651  1
  O2-  O332  1  0.34016009  0.32277927  0.84109011  1
  O2-  O333  1  0.32437357  0.82791255  0.16064765  1
  O2-  O334  1  0.33787447  0.81009695  0.50180390  1
  O2-  O335  1  0.33536917  0.81712795  0.83762757  1
  O2-  O336  1  0.66745111  0.31898634  0.16359118  1
  O2-  O337  1  0.67153228  0.32023877  0.50611966  1
  O2-  O338  1  0.66739912  0.31290259  0.83196458  1
  O2-  O339  1  0.66461086  0.81411320  0.16517213  1
  O2-  O340  1  0.67000018  0.81513603  0.51144463  1
  O2-  O341  1  0.66892185  0.80700478  0.83542346  1
  O2-  O342  1  0.17451483  0.31793442  0.16230094  1
  O2-  O343  1  0.17437661  0.31306502  0.49705899  1
  O2-  O344  1  0.15933596  0.32317730  0.83883959  1
  O2-  O345  1  0.16325113  0.82786890  0.17350423  1
  O2-  O346  1  0.16585464  0.80992567  0.50617862  1
  O2-  O347  1  0.15819516  0.81960449  0.84193888  1
  O2-  O348  1  0.50239135  0.31830683  0.16473376  1
  O2-  O349  1  0.49906618  0.31622606  0.50018885  1
  O2-  O350  1  0.49844059  0.31770981  0.83868545  1
  O2-  O351  1  0.50166179  0.81945977  0.15981676  1
  O2-  O352  1  0.49843490  0.82082822  0.49679228  1
  O2-  O353  1  0.50439564  0.81058633  0.81999402  1
  O2-  O354  1  0.82969277  0.32712492  0.16594288  1
  O2-  O355  1  0.83973581  0.32291973  0.49225437  1
  O2-  O356  1  0.83814598  0.32742793  0.83110481  1
  O2-  O357  1  0.83095297  0.82301742  0.16773234  1
  O2-  O358  1  0.82608958  0.82395868  0.50864467  1
  O2-  O359  1  0.83429957  0.81254450  0.82899798  1
  O2-  O360  1  0.06606629  0.07833500  0.11335120  1
  O2-  O361  1  0.08104353  0.07993234  0.45800024  1
  O2-  O362  1  0.06887606  0.08021081  0.78907930  1
  O2-  O363  1  0.07303308  0.57649064  0.12117934  1
  O2-  O364  1  0.06059806  0.57713592  0.47112392  1
  O2-  O365  1  0.11163190  0.58904114  0.75827673  1
  O2-  O366  1  0.42879673  0.07524989  0.11901316  1
  O2-  O367  1  0.40787048  0.08321009  0.44359209  1
  O2-  O368  1  0.41896824  0.07579079  0.79481231  1
  O2-  O369  1  0.40159640  0.57292262  0.11441797  1
  O2-  O370  1  0.42128590  0.56485736  0.44238390  1
  O2-  O371  1  0.39517657  0.58267886  0.79503878  1
  O2-  O372  1  0.73895112  0.08346726  0.09369941  1
  O2-  O373  1  0.75225194  0.08109922  0.46283437  1
  O2-  O374  1  0.73916306  0.07868021  0.80207664  1
  O2-  O375  1  0.75211071  0.58010632  0.12176020  1
  O2-  O376  1  0.74801011  0.57874638  0.46133553  1
  O2-  O377  1  0.74089446  0.57580667  0.76655042  1
  O2-  O378  1  0.25205180  0.06812719  0.25541784  1
  O2-  O379  1  0.24375921  0.08668362  0.54337968  1
  O2-  O380  1  0.24536366  0.07952800  0.88612774  1
  O2-  O381  1  0.24866675  0.58113465  0.22852061  1
  O2-  O382  1  0.22589187  0.57813664  0.54528649  1
  O2-  O383  1  0.25035958  0.58685734  0.88096092  1
  O2-  O384  1  0.60055398  0.08401497  0.21245068  1
  O2-  O385  1  0.58378342  0.08848421  0.55312069  1
  O2-  O386  1  0.59126884  0.08128578  0.90025212  1
  O2-  O387  1  0.58328035  0.58368721  0.23079587  1
  O2-  O388  1  0.57556905  0.58365428  0.56185125  1
  O2-  O389  1  0.58062948  0.58210216  0.87848621  1
  O2-  O390  1  0.90048762  0.08328804  0.22875791  1
  O2-  O391  1  0.91497236  0.08448570  0.53554428  1
  O2-  O392  1  0.90826100  0.07632386  0.87094082  1
  O2-  O393  1  0.92332307  0.58361624  0.21749732  1
  O2-  O394  1  0.89964305  0.57897036  0.55263801  1
  O2-  O395  1  0.90983307  0.58366020  0.88268436  1
  O2-  O396  1  0.09656356  0.41483558  0.12001376  1
  O2-  O397  1  0.06999088  0.42033632  0.43315191  1
  O2-  O398  1  0.06874487  0.41939387  0.77254368  1
  O2-  O399  1  0.07715996  0.92413474  0.11878616  1
  O2-  O400  1  0.07294077  0.92108627  0.45809953  1
  O2-  O401  1  0.08231385  0.91829178  0.77394149  1
  O2-  O402  1  0.43028203  0.41917757  0.11197436  1
  O2-  O403  1  0.41376935  0.42884827  0.45755406  1
  O2-  O404  1  0.42998298  0.41834210  0.77511609  1
  O2-  O405  1  0.42937391  0.92078615  0.10757224  1
  O2-  O406  1  0.41001798  0.92446443  0.44215082  1
  O2-  O407  1  0.42993964  0.92593195  0.78594474  1
  O2-  O408  1  0.72867789  0.41821869  0.09144882  1
  O2-  O409  1  0.76356318  0.42537441  0.45655707  1
  O2-  O410  1  0.73245693  0.41735429  0.79071321  1
  O2-  O411  1  0.74170144  0.91641534  0.10408138  1
  O2-  O412  1  0.73919358  0.91723043  0.44653580  1
  O2-  O413  1  0.73025838  0.92003392  0.78702629  1
  O2-  O414  1  0.24822855  0.41837340  0.22462429  1
  O2-  O415  1  0.25922676  0.42040762  0.55292863  1
  O2-  O416  1  0.24035164  0.42255842  0.87768715  1
  O2-  O417  1  0.24308775  0.92077216  0.23993691  1
  O2-  O418  1  0.27233468  0.91519773  0.53221877  1
  O2-  O419  1  0.25256013  0.91686996  0.87665727  1
  O2-  O420  1  0.58262307  0.41806244  0.21861058  1
  O2-  O421  1  0.58598720  0.41867365  0.56073879  1
  O2-  O422  1  0.57546765  0.42067622  0.88767592  1
  O2-  O423  1  0.59483283  0.91995995  0.21472149  1
  O2-  O424  1  0.58793424  0.91103835  0.56621829  1
  O2-  O425  1  0.58655792  0.91674429  0.87976271  1
  O2-  O426  1  0.93336145  0.41673141  0.23379676  1
  O2-  O427  1  0.92316332  0.41697064  0.55078537  1
  O2-  O428  1  0.93130128  0.42438128  0.89060285  1
  O2-  O429  1  0.92268405  0.91771502  0.21891241  1
  O2-  O430  1  0.89591331  0.92061001  0.55569332  1
  O2-  O431  1  0.89933813  0.91624837  0.87895892  1
  O2-  O432  1  0.01233101  0.00248483  -0.01615141  1
  O2-  O433  1  -0.01246835  -0.00121091  0.35182852  1
  O2-  O434  1  0.00427314  0.01463578  0.65431314  1
  O2-  O435  1  -0.00012992  0.50410231  0.00035912  1
  O2-  O436  1  -0.02299024  0.51353466  0.35940868  1
  O2-  O437  1  0.00626380  0.52134834  0.66379554  1
  O2-  O438  1  0.33685604  -0.00540886  0.00926389  1
  O2-  O439  1  0.32408260  0.01757878  0.34314622  1
  O2-  O440  1  0.33845549  -0.02433334  0.66609053  1
  O2-  O441  1  0.32455719  0.48959863  0.00779418  1
  O2-  O442  1  0.31598797  0.48137543  0.34706695  1
  O2-  O443  1  0.33957182  0.53136932  0.64277794  1
  O2-  O444  1  0.68427933  -0.00467002  -0.02977135  1
  O2-  O445  1  0.65747560  -0.00265233  0.32911163  1
  O2-  O446  1  0.69837843  -0.00996595  0.63238313  1
  O2-  O447  1  0.67670972  0.50906142  -0.03681883  1
  O2-  O448  1  0.67547060  0.49699216  0.30566649  1
  O2-  O449  1  0.67857238  0.50062800  0.64806637  1
  O2-  O450  1  0.16417399  -0.00763138  -0.00195904  1
  O2-  O451  1  0.16965186  -0.00429045  0.36630096  1
  O2-  O452  1  0.16315166  -0.00794611  0.64159647  1
  O2-  O453  1  0.16498682  0.49677851  -0.00009239  1
  O2-  O454  1  0.12328151  0.49999783  0.28015147  1
  O2-  O455  1  0.18191896  0.51473734  0.66931428  1
  O2-  O456  1  0.49351721  -0.00676894  -0.01338589  1
  O2-  O457  1  0.46813022  0.01518087  0.29125492  1
  O2-  O458  1  0.49227050  -0.00972794  0.65559043  1
  O2-  O459  1  0.47909160  0.49630512  -0.02701549  1
  O2-  O460  1  0.46837855  0.50047857  0.29162470  1
  O2-  O461  1  0.49430781  0.50340589  0.64665719  1
  O2-  O462  1  0.83736892  0.01339792  0.01092197  1
  O2-  O463  1  0.82615830  -0.00672297  0.33223994  1
  O2-  O464  1  0.85096769  0.00518268  0.70063675  1
  O2-  O465  1  0.81497464  0.50732925  -0.05076012  1
  O2-  O466  1  0.82699381  0.50927323  0.33162003  1
  O2-  O467  1  0.84768876  0.49396122  0.69327026  1
  O2-  O468  1  0.90664411  0.74957227  0.28219718  1
  O2-  O469  1  0.90642889  0.24340600  0.61785749  1
  O2-  O470  1  0.08552704  0.24603495  0.04884221  1
  O2-  O471  1  0.91619211  0.75429060  0.61357048  1
  O2-  O472  1  0.57021825  0.74987873  0.60996913  1
  O2-  O473  1  0.26002011  0.25150473  0.26206576  1
  O2-  O474  1  0.24806998  0.75447669  0.94341706  1
  O2-  O475  1  0.91560065  0.75161393  0.94081568  1
  O2-  O476  1  0.09052489  0.75941758  0.06660975  1
  O2-  O477  1  0.26227450  0.24961431  0.61234337  1
  O2-  O478  1  0.40631059  0.24976399  0.06386798  1
  O2-  O479  1  0.76357842  0.25487594  0.72627158  1
  O2-  O480  1  0.24899027  0.75265603  0.27395035  1
  O2-  O481  1  0.90052498  0.25361122  0.26803902  1
  O2-  O482  1  0.07747213  0.75247208  0.72584235  1
  O2-  O483  1  0.75199536  0.25050473  0.38417715  1
  O2-  O484  1  0.76614271  0.74873862  0.39511631  1
  O2-  O485  1  0.58350204  0.25200512  0.60805876  1
  O2-  O486  1  0.75942701  0.74313695  0.05231398  1
  O2-  O487  1  0.40848156  0.24769714  0.72051102  1
  O2-  O488  1  0.08690220  0.25058635  0.72644255  1
  O2-  O489  1  0.58850304  0.24833790  0.28045069  1
  O2-  O490  1  0.25592118  0.24417232  0.95380750  1
  O2-  O491  1  0.40180810  0.75636408  0.07017285  1
  O2-  O492  1  0.92183104  0.24833849  0.94786873  1
