# generated using pymatgen
data_Ca108Mn108O277
_symmetry_space_group_name_H-M   'P 1'
_cell_length_a   16.02865264
_cell_length_b   22.30811848
_cell_length_c   16.39062153
_cell_angle_alpha   89.99422161
_cell_angle_beta   89.99506942
_cell_angle_gamma   90.00192120
_symmetry_Int_Tables_number   1
_chemical_formula_structural   Ca108Mn108O277
_chemical_formula_sum   'Ca108 Mn108 O277'
_cell_volume   5860.77944294
_cell_formula_units_Z   1
loop_
 _symmetry_equiv_pos_site_id
 _symmetry_equiv_pos_as_xyz
  1  'x, y, z'
loop_
 _atom_type_symbol
 _atom_type_oxidation_number
  Ca2+  2.0
  Mn3.34+  3.34
  O2-  -2.0
loop_
 _atom_site_type_symbol
 _atom_site_label
 _atom_site_symmetry_multiplicity
 _atom_site_fract_x
 _atom_site_fract_y
 _atom_site_fract_z
 _atom_site_occupancy
  Ca2+  Ca0  1  0.08362459  0.25205477  0.26707925  1
  Ca2+  Ca1  1  0.07706534  0.25081422  0.56421239  1
  Ca2+  Ca2  1  0.10739919  0.24871952  0.92230767  1
  Ca2+  Ca3  1  0.07810772  0.75309035  0.24881396  1
  Ca2+  Ca4  1  0.07085626  0.75057544  0.58157116  1
  Ca2+  Ca5  1  0.07310133  0.75884968  0.91501853  1
  Ca2+  Ca6  1  0.40276026  0.25193407  0.25327545  1
  Ca2+  Ca7  1  0.40624432  0.24705702  0.58233848  1
  Ca2+  Ca8  1  0.40457017  0.22781349  0.92057824  1
  Ca2+  Ca9  1  0.40848258  0.75672666  0.23357536  1
  Ca2+  Ca10  1  0.41002015  0.76357596  0.59342467  1
  Ca2+  Ca11  1  0.42117165  0.76204374  0.91720328  1
  Ca2+  Ca12  1  0.76226961  0.24383484  0.25342779  1
  Ca2+  Ca13  1  0.77136212  0.23962481  0.58269732  1
  Ca2+  Ca14  1  0.74017409  0.23604336  0.89168350  1
  Ca2+  Ca15  1  0.76668835  0.76040059  0.25581770  1
  Ca2+  Ca16  1  0.76617212  0.76174246  0.59062249  1
  Ca2+  Ca17  1  0.75231425  0.76227367  0.90840996  1
  Ca2+  Ca18  1  0.26827090  0.21995835  0.08156709  1
  Ca2+  Ca19  1  0.23942213  0.24866613  0.41920198  1
  Ca2+  Ca20  1  0.25709981  0.24054764  0.74487520  1
  Ca2+  Ca21  1  0.25720603  0.76032242  0.08456383  1
  Ca2+  Ca22  1  0.23012124  0.75988683  0.41051132  1
  Ca2+  Ca23  1  0.24959999  0.75613352  0.76012456  1
  Ca2+  Ca24  1  0.57015353  0.22524776  0.08862770  1
  Ca2+  Ca25  1  0.57954472  0.24138193  0.41784258  1
  Ca2+  Ca26  1  0.59122160  0.24177534  0.74234801  1
  Ca2+  Ca27  1  0.57777241  0.77525135  0.07395654  1
  Ca2+  Ca28  1  0.60155956  0.75999869  0.41280190  1
  Ca2+  Ca29  1  0.58533255  0.75682399  0.76530852  1
  Ca2+  Ca30  1  0.92172555  0.23755910  0.10180215  1
  Ca2+  Ca31  1  0.92426490  0.24885953  0.42830766  1
  Ca2+  Ca32  1  0.90704692  0.24421012  0.72281839  1
  Ca2+  Ca33  1  0.92056125  0.76444730  0.07971850  1
  Ca2+  Ca34  1  0.92041686  0.75004337  0.42061546  1
  Ca2+  Ca35  1  0.90908424  0.74933792  0.75103150  1
  Ca2+  Ca36  1  0.74935837  0.59567432  0.90411969  1
  Ca2+  Ca37  1  0.40211220  0.60184983  0.91324065  1
  Ca2+  Ca38  1  0.08023482  0.58976455  0.25200288  1
  Ca2+  Ca39  1  0.08736478  0.07586605  0.95724241  1
  Ca2+  Ca40  1  0.24483415  0.10139266  0.42747085  1
  Ca2+  Ca41  1  0.76277530  0.59232086  0.26044048  1
  Ca2+  Ca42  1  0.24799464  0.57901961  0.40399454  1
  Ca2+  Ca43  1  0.57070095  0.08323717  0.40741004  1
  Ca2+  Ca44  1  0.41977609  0.09944724  0.25755873  1
  Ca2+  Ca45  1  0.57732100  0.59088508  0.07412169  1
  Ca2+  Ca46  1  0.08714295  0.60760020  0.91092640  1
  Ca2+  Ca47  1  0.40484232  0.08246334  0.58730904  1
  Ca2+  Ca48  1  0.92552188  0.11398691  0.42757652  1
  Ca2+  Ca49  1  0.74712032  0.10399328  0.20518918  1
  Ca2+  Ca50  1  0.58098564  0.59301462  0.40579768  1
  Ca2+  Ca51  1  0.61175123  0.09145424  0.76239764  1
  Ca2+  Ca52  1  0.40592705  0.57511643  0.59702091  1
  Ca2+  Ca53  1  0.06044113  0.57585514  0.59519513  1
  Ca2+  Ca54  1  0.87050550  0.09996236  0.74618508  1
  Ca2+  Ca55  1  0.40262608  0.59259606  0.25092964  1
  Ca2+  Ca56  1  0.23177965  0.59992678  0.07391634  1
  Ca2+  Ca57  1  0.08832605  0.09957205  0.23896992  1
  Ca2+  Ca58  1  0.41537180  0.59285028  0.25225119  1
  Ca2+  Ca59  1  0.92533519  0.59098663  0.41680161  1
  Ca2+  Ca60  1  0.86074601  0.09702515  0.74718678  1
  Ca2+  Ca61  1  0.94152426  0.59379779  0.07884877  1
  Ca2+  Ca62  1  0.78091281  0.59170593  0.59330303  1
  Ca2+  Ca63  1  0.58416454  0.59333082  0.75664382  1
  Ca2+  Ca64  1  0.05013829  0.57617357  0.59661842  1
  Ca2+  Ca65  1  0.60154791  0.08965689  0.76222013  1
  Ca2+  Ca66  1  0.07919284  0.10173630  0.24301283  1
  Ca2+  Ca67  1  0.27702963  0.07626470  0.73196148  1
  Ca2+  Ca68  1  0.74864371  0.10520305  0.57919981  1
  Ca2+  Ca69  1  0.58962053  0.58935369  0.07584921  1
  Ca2+  Ca70  1  0.73153296  0.08685642  0.94988520  1
  Ca2+  Ca71  1  0.06831442  0.11773306  0.57781045  1
  Ca2+  Ca72  1  0.40455262  0.92929419  0.59517287  1
  Ca2+  Ca73  1  0.74855174  0.39730675  0.91645734  1
  Ca2+  Ca74  1  0.24913062  0.40708927  0.73791718  1
  Ca2+  Ca75  1  0.75576796  0.39201946  0.24091244  1
  Ca2+  Ca76  1  0.06698698  0.40629277  0.58631956  1
  Ca2+  Ca77  1  0.57440647  0.38727733  0.42103783  1
  Ca2+  Ca78  1  0.41545653  0.92983389  0.59557410  1
  Ca2+  Ca79  1  0.58355914  0.39383503  0.08644923  1
  Ca2+  Ca80  1  0.08481926  0.90805811  0.24050058  1
  Ca2+  Ca81  1  0.23767951  0.40723978  0.73845939  1
  Ca2+  Ca82  1  0.88963063  0.90925094  0.75489784  1
  Ca2+  Ca83  1  0.58701417  0.91553917  0.40751936  1
  Ca2+  Ca84  1  0.59642497  0.39295217  0.08583562  1
  Ca2+  Ca85  1  0.10047135  0.90828766  0.59291228  1
  Ca2+  Ca86  1  0.41640323  0.39838750  0.90844772  1
  Ca2+  Ca87  1  0.90123403  0.90596407  0.40655614  1
  Ca2+  Ca88  1  0.92565236  0.40315557  0.42273059  1
  Ca2+  Ca89  1  0.42753923  0.91509245  0.25817711  1
  Ca2+  Ca90  1  0.74720812  0.91386098  0.24894885  1
  Ca2+  Ca91  1  0.76090880  0.39605240  0.91458439  1
  Ca2+  Ca92  1  0.08261084  0.39701445  0.91247242  1
  Ca2+  Ca93  1  0.26983636  0.91960590  0.40965111  1
  Ca2+  Ca94  1  0.40246951  0.41561329  0.28505735  1
  Ca2+  Ca95  1  0.77197541  0.40169482  0.58338256  1
  Ca2+  Ca96  1  0.58186775  0.40115598  0.75643935  1
  Ca2+  Ca97  1  0.59450050  0.40283163  0.75486585  1
  Ca2+  Ca98  1  0.23761093  0.39821293  0.09107950  1
  Ca2+  Ca99  1  0.27158129  0.92201770  0.74024136  1
  Ca2+  Ca100  1  0.59670578  0.91791003  0.74883496  1
  Ca2+  Ca101  1  0.11186834  0.91214393  0.59052516  1
  Ca2+  Ca102  1  0.92152680  0.39272712  0.08907415  1
  Ca2+  Ca103  1  0.41663054  0.91477109  0.25755341  1
  Ca2+  Ca104  1  0.43024509  0.91690438  0.90057435  1
  Ca2+  Ca105  1  0.22700489  0.39629733  0.09338948  1
  Ca2+  Ca106  1  0.73362787  0.92452105  0.92755848  1
  Ca2+  Ca107  1  0.91925288  0.92232482  0.07479824  1
  Mn3.34+  Mn108  1  0.07806596  0.32498326  0.08793330  1
  Mn3.34+  Mn109  1  0.08657488  0.33424521  0.41616167  1
  Mn3.34+  Mn110  1  0.07677400  0.32941636  0.75198635  1
  Mn3.34+  Mn111  1  0.09172391  0.84889311  0.07574809  1
  Mn3.34+  Mn112  1  0.08181667  0.83483521  0.41488497  1
  Mn3.34+  Mn113  1  0.08332625  0.83192403  0.75775868  1
  Mn3.34+  Mn114  1  0.41447702  0.32797138  0.08492694  1
  Mn3.34+  Mn115  1  0.41139646  0.33152913  0.42187049  1
  Mn3.34+  Mn116  1  0.41757468  0.32824722  0.74586787  1
  Mn3.34+  Mn117  1  0.41317058  0.84488009  0.07764875  1
  Mn3.34+  Mn118  1  0.41984720  0.83390233  0.42353126  1
  Mn3.34+  Mn119  1  0.41829073  0.83646795  0.75266124  1
  Mn3.34+  Mn120  1  0.75443090  0.31145769  0.08306141  1
  Mn3.34+  Mn121  1  0.75059365  0.32649824  0.41777122  1
  Mn3.34+  Mn122  1  0.75567983  0.32789540  0.74560536  1
  Mn3.34+  Mn123  1  0.75262078  0.84220557  0.08373560  1
  Mn3.34+  Mn124  1  0.75095527  0.83604348  0.42092941  1
  Mn3.34+  Mn125  1  0.74660346  0.83688158  0.75116324  1
  Mn3.34+  Mn126  1  0.24613661  0.33122228  0.25815704  1
  Mn3.34+  Mn127  1  0.24961517  0.33069572  0.57868899  1
  Mn3.34+  Mn128  1  0.25236023  0.33135593  0.91384287  1
  Mn3.34+  Mn129  1  0.24671739  0.83675538  0.24536900  1
  Mn3.34+  Mn130  1  0.25269938  0.83129890  0.58008487  1
  Mn3.34+  Mn131  1  0.24079388  0.84589143  0.91916725  1
  Mn3.34+  Mn132  1  0.58346741  0.31879349  0.25018992  1
  Mn3.34+  Mn133  1  0.58480254  0.32880359  0.57957098  1
  Mn3.34+  Mn134  1  0.57879140  0.31617289  0.91662555  1
  Mn3.34+  Mn135  1  0.58717512  0.83288883  0.24533775  1
  Mn3.34+  Mn136  1  0.58655490  0.83938702  0.58022125  1
  Mn3.34+  Mn137  1  0.58563151  0.84260931  0.91657281  1
  Mn3.34+  Mn138  1  0.91996110  0.33173971  0.25602453  1
  Mn3.34+  Mn139  1  0.91926159  0.33273594  0.58179729  1
  Mn3.34+  Mn140  1  0.92024462  0.32305614  0.91407050  1
  Mn3.34+  Mn141  1  0.91934278  0.83575743  0.24487928  1
  Mn3.34+  Mn142  1  0.91641661  0.83570555  0.58192831  1
  Mn3.34+  Mn143  1  0.91732806  0.83857779  0.91561630  1
  Mn3.34+  Mn144  1  0.08039505  0.66795375  0.75269825  1
  Mn3.34+  Mn145  1  0.58491327  0.16459978  0.25246919  1
  Mn3.34+  Mn146  1  0.58186735  0.67067456  0.91276865  1
  Mn3.34+  Mn147  1  0.08968481  0.16467224  0.08552714  1
  Mn3.34+  Mn148  1  0.41333332  0.66914977  0.75446101  1
  Mn3.34+  Mn149  1  0.41510151  0.16444757  0.42298661  1
  Mn3.34+  Mn150  1  0.24403536  0.67051392  0.24706580  1
  Mn3.34+  Mn151  1  0.92574997  0.16990989  0.92297614  1
  Mn3.34+  Mn152  1  0.58796026  0.67959196  0.24772891  1
  Mn3.34+  Mn153  1  0.08527055  0.16217859  0.76007669  1
  Mn3.34+  Mn154  1  0.58239492  0.67583521  0.58688115  1
  Mn3.34+  Mn155  1  0.59107041  0.66985284  0.58406234  1
  Mn3.34+  Mn156  1  0.74971666  0.67374443  0.08058556  1
  Mn3.34+  Mn157  1  0.91694994  0.66958585  0.58361727  1
  Mn3.34+  Mn158  1  0.91465446  0.16558409  0.92264127  1
  Mn3.34+  Mn159  1  0.25342989  0.65998734  0.58514908  1
  Mn3.34+  Mn160  1  0.41859390  0.67547303  0.42321303  1
  Mn3.34+  Mn161  1  0.25269592  0.16467420  0.25285717  1
  Mn3.34+  Mn162  1  0.24628628  0.67325871  0.91514241  1
  Mn3.34+  Mn163  1  0.75523328  0.66586140  0.75194477  1
  Mn3.34+  Mn164  1  0.91697484  0.67174417  0.91383082  1
  Mn3.34+  Mn165  1  0.57885433  0.15876708  0.92006620  1
  Mn3.34+  Mn166  1  0.42295634  0.16182014  0.75130288  1
  Mn3.34+  Mn167  1  0.25150216  0.15646288  0.91100419  1
  Mn3.34+  Mn168  1  0.24775128  0.16397173  0.58411481  1
  Mn3.34+  Mn169  1  0.57976664  0.16135801  0.57750964  1
  Mn3.34+  Mn170  1  0.08207288  0.67504955  0.08384492  1
  Mn3.34+  Mn171  1  0.08469793  0.66466134  0.41617590  1
  Mn3.34+  Mn172  1  0.41431880  0.67296205  0.08155657  1
  Mn3.34+  Mn173  1  0.92100892  0.66826277  0.25117172  1
  Mn3.34+  Mn174  1  0.75462590  0.67036550  0.41900301  1
  Mn3.34+  Mn175  1  0.74879231  0.16435301  0.41480037  1
  Mn3.34+  Mn176  1  0.91281353  0.16443071  0.24939040  1
  Mn3.34+  Mn177  1  0.76177040  0.66652869  0.08468460  1
  Mn3.34+  Mn178  1  0.24075580  0.66678246  0.58841065  1
  Mn3.34+  Mn179  1  0.41084537  0.66921627  0.42557754  1
  Mn3.34+  Mn180  1  0.41067198  0.49339308  0.08124097  1
  Mn3.34+  Mn181  1  0.91665659  0.00197907  0.92753456  1
  Mn3.34+  Mn182  1  0.07405315  0.50164467  0.74568614  1
  Mn3.34+  Mn183  1  0.08972856  0.00138660  0.76278025  1
  Mn3.34+  Mn184  1  0.43932229  0.00913955  0.06091046  1
  Mn3.34+  Mn185  1  0.57993276  0.49734260  0.58377816  1
  Mn3.34+  Mn186  1  0.24899984  0.49558262  0.58056686  1
  Mn3.34+  Mn187  1  0.91444478  -0.00530124  0.58411167  1
  Mn3.34+  Mn188  1  0.43102921  0.01496686  0.05917770  1
  Mn3.34+  Mn189  1  0.24628612  0.00077934  0.92855393  1
  Mn3.34+  Mn190  1  0.92123259  0.49795499  0.25217816  1
  Mn3.34+  Mn191  1  0.24436711  0.50154226  0.24696114  1
  Mn3.34+  Mn192  1  0.76126783  0.50182286  0.43006946  1
  Mn3.34+  Mn193  1  0.90246477  0.00034036  0.58244948  1
  Mn3.34+  Mn194  1  0.74729782  0.49594422  0.42954001  1
  Mn3.34+  Mn195  1  0.58842999  0.49457959  0.25537875  1
  Mn3.34+  Mn196  1  0.91157594  0.00158746  0.24541686  1
  Mn3.34+  Mn197  1  0.91578659  0.50461756  0.90062280  1
  Mn3.34+  Mn198  1  0.23934478  0.50158520  0.92095574  1
  Mn3.34+  Mn199  1  0.59445544  0.50313504  0.58626330  1
  Mn3.34+  Mn200  1  0.41274628  0.50259527  0.75236386  1
  Mn3.34+  Mn201  1  0.92637704  0.49869409  0.90182301  1
  Mn3.34+  Mn202  1  0.59450901  -0.00051434  0.59256754  1
  Mn3.34+  Mn203  1  0.74972394  0.00083691  0.41104005  1
  Mn3.34+  Mn204  1  0.07241849  -0.00208954  0.41210959  1
  Mn3.34+  Mn205  1  0.08939102  0.49402323  0.40411589  1
  Mn3.34+  Mn206  1  0.76020097  0.49865746  0.08584174  1
  Mn3.34+  Mn207  1  0.57638238  0.49891682  0.25571458  1
  Mn3.34+  Mn208  1  0.25145987  -0.00009649  0.24638953  1
  Mn3.34+  Mn209  1  0.58436003  0.00285584  0.24589178  1
  Mn3.34+  Mn210  1  0.07732149  -0.00462418  0.76299718  1
  Mn3.34+  Mn211  1  0.08181623  0.49764666  0.08715263  1
  Mn3.34+  Mn212  1  0.58631022  0.50112026  0.91921521  1
  Mn3.34+  Mn213  1  0.39750753  0.49615532  0.08073733  1
  Mn3.34+  Mn214  1  0.08543882  0.00493972  0.41348314  1
  Mn3.34+  Mn215  1  0.76903222  0.49796733  0.72976934  1
  O2-  O216  1  -0.00584036  0.15488808  0.01008807  1
  O2-  O217  1  -0.00094787  0.15000430  0.32436515  1
  O2-  O218  1  -0.00947101  0.15033374  0.69611469  1
  O2-  O219  1  0.00275606  0.66463123  -0.00241507  1
  O2-  O220  1  0.00375050  0.64996854  0.33091864  1
  O2-  O221  1  0.00258398  0.65566900  0.66246666  1
  O2-  O222  1  0.32727495  0.15234105  -0.01191789  1
  O2-  O223  1  0.33081129  0.14865857  0.33962592  1
  O2-  O224  1  0.33906453  0.15182640  0.66674648  1
  O2-  O225  1  0.32702496  0.66084147  0.00576504  1
  O2-  O226  1  0.33176123  0.64960394  0.33658332  1
  O2-  O227  1  0.33504346  0.64954512  0.66425780  1
  O2-  O228  1  0.66172331  0.18223779  -0.01323471  1
  O2-  O229  1  0.65727754  0.16277866  0.34144566  1
  O2-  O230  1  0.65472348  0.15359665  0.66270247  1
  O2-  O231  1  0.66810526  0.64750412  -0.00283656  1
  O2-  O232  1  0.66864209  0.65639378  0.33445815  1
  O2-  O233  1  0.67024129  0.64941795  0.66535996  1
  O2-  O234  1  0.16165377  0.15900248  -0.00707403  1
  O2-  O235  1  0.16617849  0.15260627  0.32910286  1
  O2-  O236  1  0.16492129  0.15847662  0.67147343  1
  O2-  O237  1  0.16400553  0.67627293  0.00014246  1
  O2-  O238  1  0.16824301  0.65080639  0.33364299  1
  O2-  O239  1  0.15976839  0.63990827  0.66172893  1
  O2-  O240  1  0.50314915  0.17956640  -0.01120204  1
  O2-  O241  1  0.50297858  0.16000946  0.34286343  1
  O2-  O242  1  0.50198669  0.17323513  0.66364339  1
  O2-  O243  1  0.49771680  0.64881360  -0.00044596  1
  O2-  O244  1  0.49596729  0.66662024  0.33083875  1
  O2-  O245  1  0.50104766  0.65354713  0.66483613  1
  O2-  O246  1  0.83531687  0.19736598  -0.00696263  1
  O2-  O247  1  0.82542270  0.14509853  0.32570185  1
  O2-  O248  1  0.82391864  0.16101752  0.66130732  1
  O2-  O249  1  0.83699590  0.64071613  0.00432726  1
  O2-  O250  1  0.84069255  0.64970165  0.33851067  1
  O2-  O251  1  0.83744345  0.66384522  0.66745434  1
  O2-  O252  1  0.00044753  0.33997830  -0.00290611  1
  O2-  O253  1  0.00033585  0.34551125  0.33510860  1
  O2-  O254  1  0.00538634  0.32917119  0.66223480  1
  O2-  O255  1  0.00077836  0.83457821  0.00204158  1
  O2-  O256  1  -0.00106530  0.85538365  0.33160824  1
  O2-  O257  1  0.00566002  0.85659159  0.66150886  1
  O2-  O258  1  0.33118632  0.35952467  0.00330398  1
  O2-  O259  1  0.33435068  0.34033905  0.33113896  1
  O2-  O260  1  0.33450860  0.34828180  0.66855925  1
  O2-  O261  1  0.32812109  0.83412578  -0.00654558  1
  O2-  O262  1  0.34130730  0.84766498  0.33231181  1
  O2-  O263  1  0.34011338  0.84927850  0.65587779  1
  O2-  O264  1  0.66942228  0.32932980  -0.00485221  1
  O2-  O265  1  0.66780904  0.33687146  0.33087488  1
  O2-  O266  1  0.66945883  0.34858767  0.66538728  1
  O2-  O267  1  0.66876735  0.84441149  -0.00095657  1
  O2-  O268  1  0.66260328  0.83988333  0.33554749  1
  O2-  O269  1  0.65650841  0.82895046  0.67263988  1
  O2-  O270  1  0.16594596  0.34405097  -0.00490773  1
  O2-  O271  1  0.16523737  0.33830516  0.33363430  1
  O2-  O272  1  0.16731641  0.33192080  0.67653459  1
  O2-  O273  1  0.16730484  0.80857364  -0.00043331  1
  O2-  O274  1  0.17152400  0.85057623  0.33785305  1
  O2-  O275  1  0.17677434  0.84989133  0.67383977  1
  O2-  O276  1  0.50237700  0.34606831  0.00094393  1
  O2-  O277  1  0.50191223  0.32471655  0.32946504  1
  O2-  O278  1  0.51304908  0.33203410  0.67483053  1
  O2-  O279  1  0.49490261  0.84780451  -0.00725504  1
  O2-  O280  1  0.50037341  0.82601635  0.33353163  1
  O2-  O281  1  0.49715271  0.85019065  0.65673782  1
  O2-  O282  1  0.83609034  0.33625408  0.00004288  1
  O2-  O283  1  0.83395907  0.34969106  0.33762071  1
  O2-  O284  1  0.83885951  0.33839811  0.66869625  1
  O2-  O285  1  0.83552607  0.85648303  -0.00075337  1
  O2-  O286  1  0.82661522  0.84839154  0.32444305  1
  O2-  O287  1  0.83441449  0.84192723  0.66664949  1
  O2-  O288  1  0.00932965  0.17899822  0.17613897  1
  O2-  O289  1  -0.00243699  0.18335151  0.50257431  1
  O2-  O290  1  0.00832819  0.18911230  0.84871058  1
  O2-  O291  1  -0.00391991  0.68640428  0.16101804  1
  O2-  O292  1  0.00152926  0.67661507  0.49966073  1
  O2-  O293  1  -0.00177631  0.68788979  0.83498463  1
  O2-  O294  1  0.33704055  0.17388142  0.18344226  1
  O2-  O295  1  0.33070624  0.17699820  0.50090011  1
  O2-  O296  1  0.32995021  0.16637820  0.82444298  1
  O2-  O297  1  0.33862400  0.67750302  0.17338368  1
  O2-  O298  1  0.32699788  0.69326667  0.50304269  1
  O2-  O299  1  0.33407803  0.68868040  0.84484717  1
  O2-  O300  1  0.66446347  0.18840731  0.18309426  1
  O2-  O301  1  0.66926028  0.18230713  0.50383935  1
  O2-  O302  1  0.64939342  0.17873423  0.83121738  1
  O2-  O303  1  0.66190319  0.68608839  0.15350845  1
  O2-  O304  1  0.66754322  0.68991380  0.50146818  1
  O2-  O305  1  0.66332421  0.67845761  0.83075252  1
  O2-  O306  1  0.16527977  0.17944786  0.17251397  1
  O2-  O307  1  0.16978939  0.17841506  0.50848257  1
  O2-  O308  1  0.16983554  0.18930501  0.82916126  1
  O2-  O309  1  0.16579389  0.68764660  0.16224064  1
  O2-  O310  1  0.16887025  0.68065429  0.50035932  1
  O2-  O311  1  0.16182800  0.68627287  0.83606950  1
  O2-  O312  1  0.50050762  0.19044668  0.19467356  1
  O2-  O313  1  0.49787928  0.18488896  0.50238997  1
  O2-  O314  1  0.50131874  0.18382899  0.83157347  1
  O2-  O315  1  0.49772145  0.67404095  0.16420022  1
  O2-  O316  1  0.50296740  0.69630818  0.50370181  1
  O2-  O317  1  0.49927887  0.68342862  0.83614586  1
  O2-  O318  1  0.83344697  0.18059186  0.17111852  1
  O2-  O319  1  0.82955829  0.17308262  0.48810481  1
  O2-  O320  1  0.84619565  0.18168565  0.83316631  1
  O2-  O321  1  0.82775929  0.68135231  0.17867644  1
  O2-  O322  1  0.83540404  0.68320435  0.50350843  1
  O2-  O323  1  0.82475348  0.67758842  0.84480421  1
  O2-  O324  1  -0.00587076  0.31759438  0.16502446  1
  O2-  O325  1  -0.00105295  0.32631536  0.49726764  1
  O2-  O326  1  0.00238349  0.30797359  0.83640523  1
  O2-  O327  1  0.00365570  0.81855989  0.17000357  1
  O2-  O328  1  0.00286994  0.82296033  0.50194291  1
  O2-  O329  1  -0.00827851  0.81811022  0.82532847  1
  O2-  O330  1  0.32990233  0.33070526  0.16284726  1
  O2-  O331  1  0.32952882  0.32125346  0.50003289  1
  O2-  O332  1  0.33140362  0.33630071  0.82716821  1
  O2-  O333  1  0.33777218  0.82959037  0.17041275  1
  O2-  O334  1  0.32867903  0.81072930  0.49316878  1
  O2-  O335  1  0.33278178  0.82428902  0.82932836  1
  O2-  O336  1  0.66368531  0.31188511  0.16190544  1
  O2-  O337  1  0.66635989  0.31014432  0.49897538  1
  O2-  O338  1  0.66243124  0.31946139  0.82926158  1
  O2-  O339  1  0.67275287  0.81441414  0.17021142  1
  O2-  O340  1  0.67000256  0.81547378  0.50504968  1
  O2-  O341  1  0.66581428  0.82060692  0.83459188  1
  O2-  O342  1  0.17067531  0.32049158  0.16132077  1
  O2-  O343  1  0.16131588  0.32245087  0.50721841  1
  O2-  O344  1  0.16741409  0.32144110  0.83291121  1
  O2-  O345  1  0.16414525  0.82052763  0.16858034  1
  O2-  O346  1  0.16024249  0.81851764  0.51124826  1
  O2-  O347  1  0.16511923  0.81603477  0.83709876  1
  O2-  O348  1  0.50620816  0.31678300  0.15914021  1
  O2-  O349  1  0.50176412  0.31180131  0.50055419  1
  O2-  O350  1  0.49854766  0.31942892  0.83420307  1
  O2-  O351  1  0.49853141  0.82133973  0.17259971  1
  O2-  O352  1  0.50320561  0.80941221  0.49923912  1
  O2-  O353  1  0.50090668  0.82398887  0.83247836  1
  O2-  O354  1  0.83286718  0.31501002  0.16971669  1
  O2-  O355  1  0.83258716  0.32269384  0.49941950  1
  O2-  O356  1  0.82377148  0.31710785  0.84345984  1
  O2-  O357  1  0.83755902  0.81827996  0.16464254  1
  O2-  O358  1  0.84207963  0.82013734  0.49252253  1
  O2-  O359  1  0.83363105  0.82584105  0.83023120  1
  O2-  O360  1  0.08892518  0.08451955  0.10596880  1
  O2-  O361  1  0.07254881  0.08004185  0.45264659  1
  O2-  O362  1  0.08276735  0.07790341  0.80284880  1
  O2-  O363  1  0.08635300  0.58142011  0.10998639  1
  O2-  O364  1  0.09255527  0.57105581  0.46236327  1
  O2-  O365  1  0.07234757  0.58085398  0.78010394  1
  O2-  O366  1  0.42205693  0.07569820  0.12953917  1
  O2-  O367  1  0.42499735  0.08384289  0.44689154  1
  O2-  O368  1  0.45449639  0.08431672  0.75839128  1
  O2-  O369  1  0.41678711  0.57848313  0.11669880  1
  O2-  O370  1  0.42213696  0.58659959  0.45998762  1
  O2-  O371  1  0.42432000  0.58423601  0.78251175  1
  O2-  O372  1  0.73739133  0.06835204  0.08323906  1
  O2-  O373  1  0.74016218  0.07963084  0.44439604  1
  O2-  O374  1  0.74362492  0.07855047  0.80087874  1
  O2-  O375  1  0.73232803  0.58291968  0.12194072  1
  O2-  O376  1  0.74625316  0.58325126  0.45727221  1
  O2-  O377  1  0.74769901  0.57984195  0.77208762  1
  O2-  O378  1  0.22765311  0.07946248  0.22749966  1
  O2-  O379  1  0.24915500  0.08337574  0.56396511  1
  O2-  O380  1  0.23643057  0.07136036  0.87657189  1
  O2-  O381  1  0.25983799  0.58275632  0.21042804  1
  O2-  O382  1  0.26575408  0.57777003  0.54292792  1
  O2-  O383  1  0.23612241  0.58349207  0.91091911  1
  O2-  O384  1  0.59308063  0.08417127  0.22822444  1
  O2-  O385  1  0.59166163  0.07291703  0.54450526  1
  O2-  O386  1  0.59126612  0.08192528  0.90114137  1
  O2-  O387  1  0.57781328  0.57927366  0.20883150  1
  O2-  O388  1  0.58243054  0.58318368  0.54235923  1
  O2-  O389  1  0.58546743  0.58415072  0.89123990  1
  O2-  O390  1  0.92569808  0.08142879  0.21733518  1
  O2-  O391  1  0.91907170  0.07879506  0.55582665  1
  O2-  O392  1  0.92141450  0.07974504  0.88119037  1
  O2-  O393  1  0.91890911  0.58091071  0.21267560  1
  O2-  O394  1  0.92057451  0.58573568  0.55613101  1
  O2-  O395  1  0.93094465  0.58604909  0.89202122  1
  O2-  O396  1  0.08489523  0.41340892  0.10136765  1
  O2-  O397  1  0.07308281  0.42055944  0.44835770  1
  O2-  O398  1  0.10083985  0.42232143  0.77564972  1
  O2-  O399  1  0.06301463  0.92279080  0.11093468  1
  O2-  O400  1  0.08662199  0.92102849  0.45773686  1
  O2-  O401  1  0.08276337  0.91552665  0.78682648  1
  O2-  O402  1  0.44199572  0.41789836  0.11984298  1
  O2-  O403  1  0.43859585  0.41192759  0.41874205  1
  O2-  O404  1  0.44603735  0.42066012  0.77648783  1
  O2-  O405  1  0.42077714  0.93762382  0.12401047  1
  O2-  O406  1  0.41383037  0.91957782  0.45638780  1
  O2-  O407  1  0.42044575  0.91834390  0.76382683  1
  O2-  O408  1  0.73554029  0.41286271  0.10106195  1
  O2-  O409  1  0.73945579  0.41415615  0.44438965  1
  O2-  O410  1  0.73868213  0.41903521  0.78517886  1
  O2-  O411  1  0.76126493  0.91857275  0.11427341  1
  O2-  O412  1  0.74272251  0.91989601  0.44262702  1
  O2-  O413  1  0.74336561  0.91548437  0.77535386  1
  O2-  O414  1  0.25469245  0.41948004  0.22398933  1
  O2-  O415  1  0.22297279  0.41542015  0.59143257  1
  O2-  O416  1  0.24198422  0.42289410  0.87923933  1
  O2-  O417  1  0.24743815  0.91931003  0.22084415  1
  O2-  O418  1  0.24783806  0.91403788  0.54890271  1
  O2-  O419  1  0.26303589  0.93081988  0.87689425  1
  O2-  O420  1  0.59752446  0.41506548  0.21905165  1
  O2-  O421  1  0.59341338  0.41834257  0.55084346  1
  O2-  O422  1  0.60449175  0.41728970  0.89206201  1
  O2-  O423  1  0.57163365  0.92001025  0.23253511  1
  O2-  O424  1  0.57049025  0.92697029  0.54276739  1
  O2-  O425  1  0.58892853  0.91898490  0.88358425  1
  O2-  O426  1  0.90083977  0.41751415  0.21902696  1
  O2-  O427  1  0.91732120  0.41418641  0.55792728  1
  O2-  O428  1  0.90554817  0.41643307  0.88978350  1
  O2-  O429  1  0.91386397  0.91986613  0.21590571  1
  O2-  O430  1  0.91530754  0.91787747  0.54450926  1
  O2-  O431  1  0.91871320  0.92705124  0.88737306  1
  O2-  O432  1  -0.00997241  0.00298624  0.00042969  1
  O2-  O433  1  0.01509915  -0.00184645  0.30988949  1
  O2-  O434  1  0.00922394  -0.00711509  0.65945424  1
  O2-  O435  1  -0.00263251  0.50300752  0.00030821  1
  O2-  O436  1  -0.00631087  0.51342172  0.34452028  1
  O2-  O437  1  0.00240951  0.49464301  0.65944500  1
  O2-  O438  1  0.33911912  -0.00213253  -0.00675610  1
  O2-  O439  1  0.34150178  -0.01122020  0.31126087  1
  O2-  O440  1  0.33695563  -0.00187493  0.65663715  1
  O2-  O441  1  0.34959196  0.49809447  -0.02780971  1
  O2-  O442  1  0.34776848  0.51080033  0.29998696  1
  O2-  O443  1  0.32210229  0.49112024  0.67801473  1
  O2-  O444  1  0.67896299  0.00305153  0.00350637  1
  O2-  O445  1  0.65634439  -0.00556519  0.34069189  1
  O2-  O446  1  0.65204325  0.01023695  0.68535602  1
  O2-  O447  1  0.65359325  0.50633751  0.02450991  1
  O2-  O448  1  0.66456700  0.51632555  0.34244760  1
  O2-  O449  1  0.64122355  0.49254838  0.69600453  1
  O2-  O450  1  0.15806183  -0.00758932  -0.01910449  1
  O2-  O451  1  0.17949242  -0.00752752  0.34527017  1
  O2-  O452  1  0.16877348  -0.01570946  0.67715614  1
  O2-  O453  1  0.19262615  0.49249809  0.03343932  1
  O2-  O454  1  0.16233266  0.52225824  0.32449027  1
  O2-  O455  1  0.15642077  0.51357522  0.65145794  1
  O2-  O456  1  0.50301358  -0.01770614  -0.02079086  1
  O2-  O457  1  0.49307437  0.00017009  0.31030896  1
  O2-  O458  1  0.49813111  0.00061793  0.64289916  1
  O2-  O459  1  0.50510618  0.50953658  0.01229030  1
  O2-  O460  1  0.49865148  0.53069161  0.32801271  1
  O2-  O461  1  0.49164727  0.51408594  0.65886073  1
  O2-  O462  1  0.82101259  0.00135312  -0.02666364  1
  O2-  O463  1  0.83970661  -0.01092935  0.33808657  1
  O2-  O464  1  0.83957697  0.00952198  0.68125258  1
  O2-  O465  1  0.81763140  0.49809039  -0.02585939  1
  O2-  O466  1  0.82633731  0.50844569  0.33028635  1
  O2-  O467  1  0.78802222  0.49683567  0.60922450  1
  O2-  O468  1  0.41740524  0.75128756  0.72621204  1
  O2-  O469  1  0.40480368  0.25252030  0.06027141  1
  O2-  O470  1  0.25094950  0.24849517  0.27435366  1
  O2-  O471  1  0.91839450  0.25074668  0.58800711  1
  O2-  O472  1  0.75688908  0.75173418  0.39111695  1
  O2-  O473  1  0.08278607  0.75226026  0.38983978  1
  O2-  O474  1  0.08081763  0.24706291  0.05872583  1
  O2-  O475  1  0.76204951  0.24758895  0.39005095  1
  O2-  O476  1  0.58310630  0.75094862  0.94088484  1
  O2-  O477  1  0.08219409  0.25452161  0.40584152  1
  O2-  O478  1  0.25088748  0.74886042  0.62046369  1
  O2-  O479  1  0.25742411  0.75293654  0.27487323  1
  O2-  O480  1  0.91901026  0.75218245  0.28079713  1
  O2-  O481  1  0.42053172  0.75235306  0.06408667  1
  O2-  O482  1  0.40184441  0.24916249  0.73191884  1
  O2-  O483  1  0.74714584  0.25128218  0.72771957  1
  O2-  O484  1  0.40205265  0.24757241  0.39612425  1
  O2-  O485  1  0.26036462  0.25101270  0.93671997  1
  O2-  O486  1  0.75335175  0.74849234  0.73259563  1
  O2-  O487  1  0.91783309  0.24850594  0.28115453  1
  O2-  O488  1  0.25961048  0.25030936  0.60664046  1
  O2-  O489  1  0.76435941  0.75320556  0.04853809  1
  O2-  O490  1  0.08616224  0.75124923  0.71915144  1
  O2-  O491  1  0.92377624  0.75315915  0.60726369  1
  O2-  O492  1  0.90372383  0.75187212  0.94102129  1
