# generated using pymatgen
data_Ca108Mn108O277
_symmetry_space_group_name_H-M   'P 1'
_cell_length_a   16.03623925
_cell_length_b   22.31853826
_cell_length_c   16.39771032
_cell_angle_alpha   89.99180922
_cell_angle_beta   89.99890705
_cell_angle_gamma   89.99686314
_symmetry_Int_Tables_number   1
_chemical_formula_structural   Ca108Mn108O277
_chemical_formula_sum   'Ca108 Mn108 O277'
_cell_volume   5868.82931733
_cell_formula_units_Z   1
loop_
 _symmetry_equiv_pos_site_id
 _symmetry_equiv_pos_as_xyz
  1  'x, y, z'
loop_
 _atom_type_symbol
 _atom_type_oxidation_number
  Ca2+  2.0
  Mn3.34+  3.34
  O2-  -2.0
loop_
 _atom_site_type_symbol
 _atom_site_label
 _atom_site_symmetry_multiplicity
 _atom_site_fract_x
 _atom_site_fract_y
 _atom_site_fract_z
 _atom_site_occupancy
  Ca2+  Ca0  1  0.10139202  0.26511119  0.24829119  1
  Ca2+  Ca1  1  0.08536468  0.26181125  0.57338845  1
  Ca2+  Ca2  1  0.06454842  0.25794633  0.91770978  1
  Ca2+  Ca3  1  0.09327736  0.74946148  0.24987444  1
  Ca2+  Ca4  1  0.08458577  0.74003531  0.54799736  1
  Ca2+  Ca5  1  0.07959435  0.75791788  0.93025066  1
  Ca2+  Ca6  1  0.40446818  0.23786096  0.25446250  1
  Ca2+  Ca7  1  0.42792042  0.23830418  0.56839906  1
  Ca2+  Ca8  1  0.42521058  0.25129848  0.93162598  1
  Ca2+  Ca9  1  0.39658405  0.75597406  0.24229397  1
  Ca2+  Ca10  1  0.41676199  0.75839190  0.58996957  1
  Ca2+  Ca11  1  0.41035212  0.75325621  0.92347684  1
  Ca2+  Ca12  1  0.74543360  0.26383581  0.25328780  1
  Ca2+  Ca13  1  0.73342542  0.25418642  0.58295501  1
  Ca2+  Ca14  1  0.76689847  0.24536228  0.91036510  1
  Ca2+  Ca15  1  0.74859723  0.74864419  0.24023451  1
  Ca2+  Ca16  1  0.75180607  0.75715567  0.57683872  1
  Ca2+  Ca17  1  0.76580533  0.75628474  0.92852366  1
  Ca2+  Ca18  1  0.28059509  0.24251902  0.10794359  1
  Ca2+  Ca19  1  0.27762538  0.23531244  0.40746965  1
  Ca2+  Ca20  1  0.26505403  0.25692831  0.74372451  1
  Ca2+  Ca21  1  0.24430801  0.74668065  0.10584383  1
  Ca2+  Ca22  1  0.22805448  0.74938982  0.38938641  1
  Ca2+  Ca23  1  0.24656260  0.74294454  0.74727678  1
  Ca2+  Ca24  1  0.56170116  0.25162204  0.08088315  1
  Ca2+  Ca25  1  0.56842481  0.22917684  0.43212255  1
  Ca2+  Ca26  1  0.58987466  0.24510289  0.73828956  1
  Ca2+  Ca27  1  0.57691844  0.74483426  0.09715158  1
  Ca2+  Ca28  1  0.58252275  0.76067223  0.40880409  1
  Ca2+  Ca29  1  0.57296961  0.75070469  0.74500802  1
  Ca2+  Ca30  1  0.91379916  0.25480679  0.07256632  1
  Ca2+  Ca31  1  0.90841914  0.25911695  0.42237013  1
  Ca2+  Ca32  1  0.89999531  0.25734845  0.75854282  1
  Ca2+  Ca33  1  0.93817302  0.72511419  0.09076150  1
  Ca2+  Ca34  1  0.93378709  0.74616876  0.39824899  1
  Ca2+  Ca35  1  0.94202357  0.74092386  0.75606634  1
  Ca2+  Ca36  1  0.40186939  0.60358273  0.21468244  1
  Ca2+  Ca37  1  0.68624789  0.09403740  0.58337945  1
  Ca2+  Ca38  1  0.29674473  0.10409479  0.09795552  1
  Ca2+  Ca39  1  0.59005442  0.57742928  0.38825620  1
  Ca2+  Ca40  1  0.06630669  0.08809794  0.91681980  1
  Ca2+  Ca41  1  0.90889442  0.09316564  0.75659385  1
  Ca2+  Ca42  1  0.18924922  0.58247122  0.74223526  1
  Ca2+  Ca43  1  0.67546870  0.09170618  0.57895899  1
  Ca2+  Ca44  1  0.57619890  0.57717725  0.38935090  1
  Ca2+  Ca45  1  0.74292266  0.57428591  0.60828432  1
  Ca2+  Ca46  1  0.42487282  0.60017235  0.61523334  1
  Ca2+  Ca47  1  0.42196947  0.57661584  0.98194358  1
  Ca2+  Ca48  1  0.11783419  0.08730897  0.25684997  1
  Ca2+  Ca49  1  0.89700757  0.09010532  0.05592698  1
  Ca2+  Ca50  1  0.24641480  0.60356162  0.10836726  1
  Ca2+  Ca51  1  0.90596662  0.09092483  0.42310692  1
  Ca2+  Ca52  1  0.80650523  0.60323931  0.23869870  1
  Ca2+  Ca53  1  0.09412708  0.08581148  0.59196133  1
  Ca2+  Ca54  1  0.75960184  0.57962152  0.93861214  1
  Ca2+  Ca55  1  0.96564641  0.57532690  0.74677353  1
  Ca2+  Ca56  1  0.28440209  0.08943434  0.41591169  1
  Ca2+  Ca57  1  0.06270559  0.59892943  0.92668696  1
  Ca2+  Ca58  1  0.12848498  0.08630462  0.25304152  1
  Ca2+  Ca59  1  0.89932067  0.09650605  0.76023408  1
  Ca2+  Ca60  1  0.07914367  0.08780941  0.91673612  1
  Ca2+  Ca61  1  0.57765163  0.59470009  0.74525242  1
  Ca2+  Ca62  1  0.22363008  0.58888309  0.35684459  1
  Ca2+  Ca63  1  0.07436946  0.60861775  0.22764340  1
  Ca2+  Ca64  1  0.45805841  0.08217529  0.55857477  1
  Ca2+  Ca65  1  0.40776451  0.09527686  0.26870733  1
  Ca2+  Ca66  1  0.41183533  0.60511743  0.21643564  1
  Ca2+  Ca67  1  0.07092362  0.59477447  0.93093626  1
  Ca2+  Ca68  1  0.55774857  0.10101390  0.07777397  1
  Ca2+  Ca69  1  0.41897808  0.09947686  0.93738122  1
  Ca2+  Ca70  1  0.74732207  0.10147618  0.92212240  1
  Ca2+  Ca71  1  0.94478928  0.59863210  0.37728436  1
  Ca2+  Ca72  1  0.91777691  0.40963855  0.40925040  1
  Ca2+  Ca73  1  0.26862300  0.42140130  0.07594764  1
  Ca2+  Ca74  1  0.76818110  0.42148011  0.25454040  1
  Ca2+  Ca75  1  0.60367466  0.41426844  0.74247050  1
  Ca2+  Ca76  1  0.58886882  0.40689796  0.41013003  1
  Ca2+  Ca77  1  0.25453531  0.41473626  0.40732594  1
  Ca2+  Ca78  1  0.25291356  0.89719002  0.75118735  1
  Ca2+  Ca79  1  0.07867139  0.42333871  0.60988689  1
  Ca2+  Ca80  1  0.90025308  0.42282187  0.74109954  1
  Ca2+  Ca81  1  0.08604758  0.41990452  0.91254096  1
  Ca2+  Ca82  1  0.42376436  0.42289538  0.24512459  1
  Ca2+  Ca83  1  0.26477080  0.89766935  0.75145273  1
  Ca2+  Ca84  1  0.24356594  0.41475945  0.40936519  1
  Ca2+  Ca85  1  0.58293328  0.91273452  0.72357465  1
  Ca2+  Ca86  1  0.07019291  0.42067117  0.60487044  1
  Ca2+  Ca87  1  0.42520592  0.91031805  0.58640520  1
  Ca2+  Ca88  1  0.91329834  0.88877426  0.08586630  1
  Ca2+  Ca89  1  0.40858666  0.40974664  0.58705885  1
  Ca2+  Ca90  1  0.75344557  0.40979729  0.91281322  1
  Ca2+  Ca91  1  0.73273135  0.90519703  0.58895929  1
  Ca2+  Ca92  1  0.41451571  0.42520375  0.24878849  1
  Ca2+  Ca93  1  0.25828329  0.41886934  0.07698268  1
  Ca2+  Ca94  1  0.56633939  0.42050648  0.07671161  1
  Ca2+  Ca95  1  0.90377279  0.89056282  0.08953929  1
  Ca2+  Ca96  1  0.57890561  0.91853960  0.42110786  1
  Ca2+  Ca97  1  0.90435983  0.89823027  0.74696994  1
  Ca2+  Ca98  1  0.74198490  0.40959010  0.91255671  1
  Ca2+  Ca99  1  0.08643168  0.89812643  0.58103612  1
  Ca2+  Ca100  1  0.58125104  0.41250303  0.41076231  1
  Ca2+  Ca101  1  0.91111296  0.41263296  0.08483560  1
  Ca2+  Ca102  1  0.23833513  0.41326777  0.74505274  1
  Ca2+  Ca103  1  0.06474785  0.42240240  0.25250476  1
  Ca2+  Ca104  1  0.74670007  0.90549318  0.91548993  1
  Ca2+  Ca105  1  0.09768022  0.89794273  0.57950692  1
  Ca2+  Ca106  1  0.42124862  0.40950027  0.58638938  1
  Ca2+  Ca107  1  0.56918806  0.92086923  0.42331090  1
  Mn3.34+  Mn108  1  0.08373137  0.33929859  0.08154412  1
  Mn3.34+  Mn109  1  0.08117814  0.33697965  0.41403515  1
  Mn3.34+  Mn110  1  0.08150340  0.33611612  0.75588878  1
  Mn3.34+  Mn111  1  0.08690879  0.82876331  0.08588392  1
  Mn3.34+  Mn112  1  0.08224368  0.83722142  0.40444711  1
  Mn3.34+  Mn113  1  0.08480105  0.83306994  0.75672410  1
  Mn3.34+  Mn114  1  0.41803501  0.33459159  0.08267098  1
  Mn3.34+  Mn115  1  0.41666830  0.33234414  0.41501486  1
  Mn3.34+  Mn116  1  0.41929985  0.33224757  0.75879467  1
  Mn3.34+  Mn117  1  0.41772548  0.83673521  0.08574133  1
  Mn3.34+  Mn118  1  0.40713511  0.84366561  0.40940409  1
  Mn3.34+  Mn119  1  0.42250504  0.83303776  0.76045613  1
  Mn3.34+  Mn120  1  0.74561663  0.33794730  0.08726144  1
  Mn3.34+  Mn121  1  0.75168862  0.33289500  0.41798559  1
  Mn3.34+  Mn122  1  0.74950298  0.33633975  0.74728076  1
  Mn3.34+  Mn123  1  0.73575199  0.83178122  0.08682670  1
  Mn3.34+  Mn124  1  0.75805289  0.84345720  0.40995626  1
  Mn3.34+  Mn125  1  0.74533651  0.82758411  0.75400426  1
  Mn3.34+  Mn126  1  0.25136183  0.33856027  0.24445975  1
  Mn3.34+  Mn127  1  0.25132635  0.33020023  0.58045219  1
  Mn3.34+  Mn128  1  0.25091182  0.33527643  0.91316161  1
  Mn3.34+  Mn129  1  0.24841717  0.84141960  0.24406542  1
  Mn3.34+  Mn130  1  0.25663063  0.83131270  0.57410875  1
  Mn3.34+  Mn131  1  0.24883463  0.83352099  0.92933141  1
  Mn3.34+  Mn132  1  0.58364320  0.33936731  0.24226288  1
  Mn3.34+  Mn133  1  0.58410009  0.33490505  0.58268726  1
  Mn3.34+  Mn134  1  0.57976234  0.33431826  0.91339653  1
  Mn3.34+  Mn135  1  0.57906083  0.83330401  0.24568498  1
  Mn3.34+  Mn136  1  0.58298411  0.82741577  0.57894811  1
  Mn3.34+  Mn137  1  0.57776964  0.83262613  0.91953161  1
  Mn3.34+  Mn138  1  0.91734063  0.33560734  0.24564666  1
  Mn3.34+  Mn139  1  0.90999505  0.33389210  0.58433505  1
  Mn3.34+  Mn140  1  0.91801907  0.33647120  0.91552726  1
  Mn3.34+  Mn141  1  0.91082029  0.82808533  0.25154456  1
  Mn3.34+  Mn142  1  0.91182922  0.82958218  0.57910179  1
  Mn3.34+  Mn143  1  0.91835751  0.83149995  0.91155421  1
  Mn3.34+  Mn144  1  0.91406189  0.67041313  0.91855798  1
  Mn3.34+  Mn145  1  0.59879172  0.16363426  0.25136121  1
  Mn3.34+  Mn146  1  0.58630203  0.66604265  0.24488218  1
  Mn3.34+  Mn147  1  0.25136425  0.66595112  0.91113884  1
  Mn3.34+  Mn148  1  0.58146512  0.66265128  0.91919263  1
  Mn3.34+  Mn149  1  0.58501208  0.17142039  0.91506868  1
  Mn3.34+  Mn150  1  0.41040093  0.66715940  0.42432714  1
  Mn3.34+  Mn151  1  0.26239373  0.66349477  0.90802956  1
  Mn3.34+  Mn152  1  0.25087038  0.17031790  0.91050349  1
  Mn3.34+  Mn153  1  0.08042903  0.16375701  0.08647839  1
  Mn3.34+  Mn154  1  0.91439853  0.16835893  0.24839866  1
  Mn3.34+  Mn155  1  0.42263957  0.15727495  0.75143627  1
  Mn3.34+  Mn156  1  0.58570243  0.17058574  0.25309746  1
  Mn3.34+  Mn157  1  0.25035397  0.66513195  0.58290320  1
  Mn3.34+  Mn158  1  0.42219667  0.67483121  0.42161015  1
  Mn3.34+  Mn159  1  0.91092895  0.66338747  0.57854022  1
  Mn3.34+  Mn160  1  0.08907176  0.16210753  0.42429056  1
  Mn3.34+  Mn161  1  0.08264351  0.17793129  0.74672366  1
  Mn3.34+  Mn162  1  0.74464271  0.16623477  0.08583963  1
  Mn3.34+  Mn163  1  0.75010253  0.65840600  0.76006277  1
  Mn3.34+  Mn164  1  0.09234892  0.17251689  0.08443233  1
  Mn3.34+  Mn165  1  0.25733163  0.16466671  0.58105826  1
  Mn3.34+  Mn166  1  0.41263711  0.16223886  0.74918925  1
  Mn3.34+  Mn167  1  0.90031059  0.16217053  0.24570502  1
  Mn3.34+  Mn168  1  0.74423013  0.16767451  0.75194659  1
  Mn3.34+  Mn169  1  0.07592408  0.16836245  0.41986476  1
  Mn3.34+  Mn170  1  0.58916184  0.67048623  0.57437127  1
  Mn3.34+  Mn171  1  0.24047691  0.65993395  0.58140507  1
  Mn3.34+  Mn172  1  0.75001848  0.16768527  0.42237389  1
  Mn3.34+  Mn173  1  0.58114613  0.67462100  0.91836510  1
  Mn3.34+  Mn174  1  0.91037116  0.17119356  0.58466052  1
  Mn3.34+  Mn175  1  0.75167291  0.66760762  0.08513534  1
  Mn3.34+  Mn176  1  0.09370133  0.17232883  0.74826648  1
  Mn3.34+  Mn177  1  0.92321294  0.65556468  0.57674255  1
  Mn3.34+  Mn178  1  0.75853661  0.66356615  0.75639837  1
  Mn3.34+  Mn179  1  0.75030711  0.66888770  0.41754850  1
  Mn3.34+  Mn180  1  0.91510342  0.50194263  0.91349439  1
  Mn3.34+  Mn181  1  0.57251491  -0.00400634  0.91374810  1
  Mn3.34+  Mn182  1  0.42099322  0.49769872  0.76641226  1
  Mn3.34+  Mn183  1  0.58882537  0.50245467  0.59230735  1
  Mn3.34+  Mn184  1  0.73755167  0.00103850  0.74822124  1
  Mn3.34+  Mn185  1  0.92515871  -0.01057453  0.92825002  1
  Mn3.34+  Mn186  1  0.90344321  -0.00115394  0.58678259  1
  Mn3.34+  Mn187  1  0.91495887  -0.00339147  0.25715999  1
  Mn3.34+  Mn188  1  0.10671943  -0.00888818  0.08677261  1
  Mn3.34+  Mn189  1  0.74488750  -0.00295375  0.08116743  1
  Mn3.34+  Mn190  1  0.27042670  0.00262038  0.91015457  1
  Mn3.34+  Mn191  1  0.40737633  0.50468757  0.76594295  1
  Mn3.34+  Mn192  1  0.58972828  -0.00607955  0.24462439  1
  Mn3.34+  Mn193  1  0.57718482  0.49896340  0.92003881  1
  Mn3.34+  Mn194  1  0.25509646  0.00119340  0.58492761  1
  Mn3.34+  Mn195  1  0.25319194  0.50047560  0.91594876  1
  Mn3.34+  Mn196  1  0.77461172  0.50687585  0.42581300  1
  Mn3.34+  Mn197  1  0.41652874  -0.00551779  0.08436017  1
  Mn3.34+  Mn198  1  0.74548335  0.00447848  0.41712212  1
  Mn3.34+  Mn199  1  0.41849511  0.00092310  0.74423533  1
  Mn3.34+  Mn200  1  0.91509887  0.00374655  0.58472291  1
  Mn3.34+  Mn201  1  0.09902379  0.00225167  0.74023654  1
  Mn3.34+  Mn202  1  0.57710272  0.00059975  0.24607249  1
  Mn3.34+  Mn203  1  0.08010575  0.50223240  0.07878803  1
  Mn3.34+  Mn204  1  0.11421746  -0.01308029  0.09537977  1
  Mn3.34+  Mn205  1  0.74734142  0.50335475  0.08215379  1
  Mn3.34+  Mn206  1  0.08309450  -0.00202690  0.40695758  1
  Mn3.34+  Mn207  1  0.26032628  -0.01563912  0.26949290  1
  Mn3.34+  Mn208  1  0.90761069  0.50138004  0.59344550  1
  Mn3.34+  Mn209  1  0.24592688  0.50371908  0.58449359  1
  Mn3.34+  Mn210  1  0.25721413  0.00513985  0.90950690  1
  Mn3.34+  Mn211  1  0.40528990  0.50706273  0.42062314  1
  Mn3.34+  Mn212  1  0.58212552  0.00137712  0.91133063  1
  Mn3.34+  Mn213  1  0.07921044  0.50192645  0.40865598  1
  Mn3.34+  Mn214  1  0.90264919  0.00342412  0.25931959  1
  Mn3.34+  Mn215  1  0.76425782  0.50229300  0.42690425  1
  O2-  O216  1  0.00269569  0.15066764  0.00186949  1
  O2-  O217  1  0.00465917  0.13731937  0.32260795  1
  O2-  O218  1  -0.00253630  0.14956838  0.67096551  1
  O2-  O219  1  -0.01033306  0.65722277  0.00054394  1
  O2-  O220  1  0.00632045  0.67702486  0.31866739  1
  O2-  O221  1  -0.00386295  0.65251021  0.66391949  1
  O2-  O222  1  0.32651457  0.16942800  -0.00747000  1
  O2-  O223  1  0.33000720  0.16195623  0.32948512  1
  O2-  O224  1  0.32937147  0.14503606  0.67340623  1
  O2-  O225  1  0.33652180  0.65983346  -0.00778422  1
  O2-  O226  1  0.33539610  0.65037610  0.34343108  1
  O2-  O227  1  0.31676910  0.65207178  0.67265341  1
  O2-  O228  1  0.65955899  0.15803099  0.00495902  1
  O2-  O229  1  0.67237048  0.15388773  0.33486704  1
  O2-  O230  1  0.66021261  0.16220358  0.67697204  1
  O2-  O231  1  0.66517758  0.65037994  -0.00435601  1
  O2-  O232  1  0.67270450  0.64567827  0.33098336  1
  O2-  O233  1  0.67306831  0.66970928  0.66300681  1
  O2-  O234  1  0.16453237  0.15147814  -0.00857128  1
  O2-  O235  1  0.17165284  0.14820247  0.34734648  1
  O2-  O236  1  0.16275133  0.16357650  0.65969652  1
  O2-  O237  1  0.17646860  0.64224848  -0.01143889  1
  O2-  O238  1  0.15414824  0.66714370  0.31515236  1
  O2-  O239  1  0.15726186  0.66745558  0.66032312  1
  O2-  O240  1  0.50063724  0.16382957  -0.00938851  1
  O2-  O241  1  0.50657484  0.15324307  0.32728643  1
  O2-  O242  1  0.49552776  0.14511111  0.66844268  1
  O2-  O243  1  0.50032143  0.67831907  -0.00035930  1
  O2-  O244  1  0.50724293  0.66292954  0.34357202  1
  O2-  O245  1  0.50851053  0.67660879  0.65718733  1
  O2-  O246  1  0.82217475  0.16908426  0.00361578  1
  O2-  O247  1  0.83635987  0.15013954  0.33977572  1
  O2-  O248  1  0.82190914  0.14317316  0.66453943  1
  O2-  O249  1  0.82247965  0.66085499  -0.01031442  1
  O2-  O250  1  0.83687215  0.66867871  0.34608045  1
  O2-  O251  1  0.83486956  0.64459045  0.66387092  1
  O2-  O252  1  -0.00086488  0.35802527  -0.00324546  1
  O2-  O253  1  -0.00037644  0.35193736  0.33165651  1
  O2-  O254  1  0.00108017  0.34748620  0.66744561  1
  O2-  O255  1  -0.00453856  0.84615284  -0.00274447  1
  O2-  O256  1  -0.00451308  0.82715919  0.32808013  1
  O2-  O257  1  0.00141376  0.84594164  0.67136253  1
  O2-  O258  1  0.32323816  0.34065581  0.00948903  1
  O2-  O259  1  0.33495183  0.35550656  0.33177612  1
  O2-  O260  1  0.33018756  0.35122754  0.67211731  1
  O2-  O261  1  0.34058862  0.82441365  0.00055576  1
  O2-  O262  1  0.33449872  0.84911544  0.32584759  1
  O2-  O263  1  0.33967481  0.83890124  0.66788559  1
  O2-  O264  1  0.66694356  0.35313882  0.00020645  1
  O2-  O265  1  0.67158635  0.35876299  0.32263249  1
  O2-  O266  1  0.66767892  0.34398938  0.66460623  1
  O2-  O267  1  0.66638466  0.84452485  -0.00678152  1
  O2-  O268  1  0.65958464  0.85039658  0.34403433  1
  O2-  O269  1  0.66233575  0.82050818  0.66735674  1
  O2-  O270  1  0.16511180  0.35401653  -0.00477685  1
  O2-  O271  1  0.16238137  0.36128506  0.32446813  1
  O2-  O272  1  0.15987232  0.34140030  0.66208385  1
  O2-  O273  1  0.16009066  0.84767645  -0.00188744  1
  O2-  O274  1  0.16861568  0.84466121  0.33336361  1
  O2-  O275  1  0.16973179  0.83401174  0.66700897  1
  O2-  O276  1  0.50047722  0.34746629  0.00141195  1
  O2-  O277  1  0.49743797  0.35805543  0.33153731  1
  O2-  O278  1  0.50259414  0.35712191  0.66786213  1
  O2-  O279  1  0.50289702  0.80811238  0.00543409  1
  O2-  O280  1  0.50658973  0.84679230  0.34273997  1
  O2-  O281  1  0.50173213  0.82785502  0.66898770  1
  O2-  O282  1  0.83034088  0.34982421  0.00001695  1
  O2-  O283  1  0.83442036  0.34642281  0.33186657  1
  O2-  O284  1  0.83892310  0.34715561  0.67545557  1
  O2-  O285  1  0.82987878  0.84387801  -0.00970661  1
  O2-  O286  1  0.82755200  0.80432633  0.33053500  1
  O2-  O287  1  0.82382963  0.83836097  0.66182880  1
  O2-  O288  1  -0.00557552  0.18335456  0.16553739  1
  O2-  O289  1  0.00039343  0.18713979  0.50117878  1
  O2-  O290  1  0.00604465  0.18129979  0.83139474  1
  O2-  O291  1  -0.00831221  0.68569250  0.19967155  1
  O2-  O292  1  -0.00857449  0.67367580  0.49095985  1
  O2-  O293  1  0.00617718  0.67408362  0.84652591  1
  O2-  O294  1  0.33707551  0.16907413  0.18331305  1
  O2-  O295  1  0.33623170  0.17033020  0.50528401  1
  O2-  O296  1  0.33856056  0.18358708  0.83320857  1
  O2-  O297  1  0.33876706  0.68076189  0.16095921  1
  O2-  O298  1  0.35142466  0.67860875  0.52261679  1
  O2-  O299  1  0.33362958  0.69070741  0.83343955  1
  O2-  O300  1  0.66760603  0.19177821  0.16744946  1
  O2-  O301  1  0.67395669  0.17882948  0.50325688  1
  O2-  O302  1  0.67659904  0.18441808  0.84267785  1
  O2-  O303  1  0.66767534  0.67448170  0.16733104  1
  O2-  O304  1  0.66411629  0.69556960  0.49151803  1
  O2-  O305  1  0.66345981  0.69102345  0.83650265  1
  O2-  O306  1  0.16339136  0.17360690  0.17610444  1
  O2-  O307  1  0.16930360  0.19019103  0.50356233  1
  O2-  O308  1  0.16910354  0.19601168  0.83043006  1
  O2-  O309  1  0.16806570  0.67476688  0.17455354  1
  O2-  O310  1  0.18272638  0.67604287  0.48850834  1
  O2-  O311  1  0.17050367  0.67011919  0.83118842  1
  O2-  O312  1  0.51038623  0.17868047  0.16936818  1
  O2-  O313  1  0.49817403  0.16711693  0.50630609  1
  O2-  O314  1  0.50160906  0.18417193  0.82972151  1
  O2-  O315  1  0.49959792  0.68132432  0.17922604  1
  O2-  O316  1  0.50163599  0.69246288  0.49916040  1
  O2-  O317  1  0.50540008  0.68969824  0.83748585  1
  O2-  O318  1  0.82945313  0.19334800  0.16257755  1
  O2-  O319  1  0.83693553  0.18793688  0.49763217  1
  O2-  O320  1  0.83851810  0.17356789  0.82182917  1
  O2-  O321  1  0.82798489  0.68514664  0.16084146  1
  O2-  O322  1  0.82721875  0.68610032  0.50675007  1
  O2-  O323  1  0.83981012  0.69397450  0.82961686  1
  O2-  O324  1  0.00420418  0.32179569  0.16768384  1
  O2-  O325  1  -0.00216042  0.32351561  0.49881956  1
  O2-  O326  1  -0.00346333  0.31763586  0.82838254  1
  O2-  O327  1  -0.01339645  0.81525603  0.15704266  1
  O2-  O328  1  0.00674127  0.82457808  0.51341820  1
  O2-  O329  1  0.00194805  0.81302458  0.83283718  1
  O2-  O330  1  0.34077422  0.32113114  0.17449844  1
  O2-  O331  1  0.33378512  0.32094396  0.49561616  1
  O2-  O332  1  0.33537396  0.30735199  0.84242414  1
  O2-  O333  1  0.33304451  0.82089589  0.15741840  1
  O2-  O334  1  0.34449107  0.82816551  0.50661252  1
  O2-  O335  1  0.32787134  0.81717429  0.82457480  1
  O2-  O336  1  0.66095951  0.31585391  0.16071478  1
  O2-  O337  1  0.65161324  0.32908495  0.48350553  1
  O2-  O338  1  0.67435398  0.32358415  0.84005836  1
  O2-  O339  1  0.66243816  0.81580291  0.16861982  1
  O2-  O340  1  0.66760355  0.81601412  0.50309833  1
  O2-  O341  1  0.66854105  0.80758447  0.83711188  1
  O2-  O342  1  0.17778825  0.32461563  0.15441996  1
  O2-  O343  1  0.16858605  0.33030755  0.49332437  1
  O2-  O344  1  0.16593286  0.31254191  0.83008515  1
  O2-  O345  1  0.16197573  0.82262325  0.16729180  1
  O2-  O346  1  0.16539520  0.82481846  0.50532113  1
  O2-  O347  1  0.17471498  0.81604075  0.82507605  1
  O2-  O348  1  0.49575292  0.32518706  0.17085674  1
  O2-  O349  1  0.49246275  0.33021901  0.50372243  1
  O2-  O350  1  0.51200995  0.31736879  0.82387226  1
  O2-  O351  1  0.49448476  0.81120391  0.17019719  1
  O2-  O352  1  0.50294869  0.81238080  0.50377892  1
  O2-  O353  1  0.50007654  0.80838807  0.83734779  1
  O2-  O354  1  0.83391845  0.31637951  0.16197032  1
  O2-  O355  1  0.82809200  0.31658061  0.50586761  1
  O2-  O356  1  0.82764433  0.32537719  0.83995933  1
  O2-  O357  1  0.83223096  0.81719287  0.15846107  1
  O2-  O358  1  0.83463959  0.81671501  0.49544216  1
  O2-  O359  1  0.83864120  0.81663718  0.82443238  1
  O2-  O360  1  0.08029959  0.07633200  0.12480576  1
  O2-  O361  1  0.06517400  0.08053706  0.45785876  1
  O2-  O362  1  0.07659595  0.08329772  0.78224361  1
  O2-  O363  1  0.09879248  0.57856099  0.09650133  1
  O2-  O364  1  0.08109690  0.57519103  0.43151386  1
  O2-  O365  1  0.08299420  0.55319751  0.81180844  1
  O2-  O366  1  0.42735124  0.06583274  0.13484064  1
  O2-  O367  1  0.41621518  0.07164362  0.43064492  1
  O2-  O368  1  0.41238076  0.07523379  0.80193929  1
  O2-  O369  1  0.38982505  0.56204188  0.10339274  1
  O2-  O370  1  0.44362794  0.58620109  0.45418875  1
  O2-  O371  1  0.43803701  0.58324879  0.76538835  1
  O2-  O372  1  0.74799326  0.07886673  0.10071982  1
  O2-  O373  1  0.76370038  0.08379086  0.46550622  1
  O2-  O374  1  0.75751727  0.08016019  0.78611061  1
  O2-  O375  1  0.75986985  0.58298272  0.10630231  1
  O2-  O376  1  0.73457522  0.58283303  0.46319253  1
  O2-  O377  1  0.73055327  0.58151864  0.80441415  1
  O2-  O378  1  0.22282306  0.03879910  0.18050745  1
  O2-  O379  1  0.23706290  0.08124267  0.55015266  1
  O2-  O380  1  0.22475598  0.08164457  0.87258330  1
  O2-  O381  1  0.27812753  0.57001458  0.23359866  1
  O2-  O382  1  0.26917749  0.58147451  0.54480270  1
  O2-  O383  1  0.26964961  0.58032441  0.87522120  1
  O2-  O384  1  0.59363026  0.07933245  0.20990145  1
  O2-  O385  1  0.58118741  0.04863811  0.52275522  1
  O2-  O386  1  0.58900947  0.08457131  0.88942871  1
  O2-  O387  1  0.55054987  0.58254656  0.25227889  1
  O2-  O388  1  0.58679028  0.57994343  0.54325419  1
  O2-  O389  1  0.56932562  0.57941765  0.88676021  1
  O2-  O390  1  0.90634507  0.07795262  0.19713338  1
  O2-  O391  1  0.91963479  0.08391243  0.55572634  1
  O2-  O392  1  0.93255689  0.07157882  0.88439324  1
  O2-  O393  1  0.94130629  0.58027684  0.23935890  1
  O2-  O394  1  0.89559570  0.57555816  0.53373887  1
  O2-  O395  1  0.91206377  0.58425063  0.88555209  1
  O2-  O396  1  0.08349242  0.42397972  0.11728376  1
  O2-  O397  1  0.09360168  0.43523941  0.47130953  1
  O2-  O398  1  0.08514591  0.41387455  0.77227730  1
  O2-  O399  1  0.05033137  0.91522241  0.11466054  1
  O2-  O400  1  0.07308707  0.91973968  0.45068833  1
  O2-  O401  1  0.11581234  0.91969609  0.76303623  1
  O2-  O402  1  0.40556878  0.42007192  0.11135526  1
  O2-  O403  1  0.40561059  0.42198686  0.45450090  1
  O2-  O404  1  0.40494962  0.41827912  0.79088643  1
  O2-  O405  1  0.42683155  0.91519002  0.09691584  1
  O2-  O406  1  0.43912751  0.91887078  0.45362544  1
  O2-  O407  1  0.40641091  0.92141918  0.78211439  1
  O2-  O408  1  0.75272215  0.42535340  0.11998753  1
  O2-  O409  1  0.76812909  0.41895725  0.44573235  1
  O2-  O410  1  0.74937957  0.41869045  0.77757824  1
  O2-  O411  1  0.76711645  0.91525130  0.10239255  1
  O2-  O412  1  0.72381418  0.92326310  0.45595317  1
  O2-  O413  1  0.73298859  0.91863424  0.77070261  1
  O2-  O414  1  0.26882944  0.42169497  0.21117560  1
  O2-  O415  1  0.27006673  0.42155130  0.54665378  1
  O2-  O416  1  0.23693034  0.42333788  0.87899762  1
  O2-  O417  1  0.24268314  0.92319614  0.20621323  1
  O2-  O418  1  0.24221059  0.91544368  0.57192317  1
  O2-  O419  1  0.25906839  0.91906799  0.88640377  1
  O2-  O420  1  0.56565562  0.42230035  0.21759173  1
  O2-  O421  1  0.56132966  0.42661810  0.54533706  1
  O2-  O422  1  0.59893549  0.42105593  0.88162283  1
  O2-  O423  1  0.58225832  0.91677776  0.21104274  1
  O2-  O424  1  0.58298525  0.90851718  0.56578626  1
  O2-  O425  1  0.58232921  0.91832951  0.86878717  1
  O2-  O426  1  0.91277741  0.41562140  0.22078844  1
  O2-  O427  1  0.93022749  0.42428409  0.54998577  1
  O2-  O428  1  0.91002953  0.42157288  0.87892989  1
  O2-  O429  1  0.90477165  0.91919248  0.22062710  1
  O2-  O430  1  0.90717309  0.91685075  0.56880067  1
  O2-  O431  1  0.90444938  0.91405652  0.88001067  1
  O2-  O432  1  0.01235970  0.01954413  0.00692579  1
  O2-  O433  1  0.01963608  0.02056924  0.30232631  1
  O2-  O434  1  -0.00393533  0.01593273  0.67268889  1
  O2-  O435  1  0.01416874  0.50364749  -0.02148735  1
  O2-  O436  1  -0.00413759  0.48645131  0.34691859  1
  O2-  O437  1  -0.00525498  0.49147945  0.66580617  1
  O2-  O438  1  0.33335957  0.02596534  0.00411482  1
  O2-  O439  1  0.34123917  0.01657715  0.32210969  1
  O2-  O440  1  0.31571065  -0.01444018  0.68492619  1
  O2-  O441  1  0.32989516  0.48906348  -0.01217197  1
  O2-  O442  1  0.33600337  0.47663161  0.33645238  1
  O2-  O443  1  0.33202668  0.49358081  0.67272309  1
  O2-  O444  1  0.68355682  -0.00640270  -0.02641825  1
  O2-  O445  1  0.66850426  -0.00430566  0.33038691  1
  O2-  O446  1  0.69197885  -0.00062766  0.64315337  1
  O2-  O447  1  0.67229377  0.49404633  -0.01335644  1
  O2-  O448  1  0.65779059  0.49292806  0.36768528  1
  O2-  O449  1  0.65287794  0.51781637  0.68118508  1
  O2-  O450  1  0.16360451  0.00817590  -0.01687517  1
  O2-  O451  1  0.18272699  0.02137264  0.34249847  1
  O2-  O452  1  0.14027073  -0.00556161  0.62219160  1
  O2-  O453  1  0.17320218  0.48779806  0.00508757  1
  O2-  O454  1  0.16752891  0.48900717  0.34599192  1
  O2-  O455  1  0.16524492  0.48377974  0.66484504  1
  O2-  O456  1  0.49983069  0.01813286  0.00185989  1
  O2-  O457  1  0.50836671  -0.01407998  0.33403020  1
  O2-  O458  1  0.49372054  -0.01620887  0.66725320  1
  O2-  O459  1  0.50525417  0.49375350  -0.00441168  1
  O2-  O460  1  0.50585424  0.48756764  0.35832743  1
  O2-  O461  1  0.49173061  0.49563476  0.66434554  1
  O2-  O462  1  0.84721580  -0.00201986  0.01950776  1
  O2-  O463  1  0.85738521  0.00521054  0.36531326  1
  O2-  O464  1  0.85184273  0.00092844  0.69945631  1
  O2-  O465  1  0.82628957  0.48729179  -0.01077882  1
  O2-  O466  1  0.82473546  0.51168232  0.32168037  1
  O2-  O467  1  0.84069206  0.51629276  0.67734177  1
  O2-  O468  1  0.41837251  0.25537989  0.06784987  1
  O2-  O469  1  0.73148680  0.74964786  0.05960167  1
  O2-  O470  1  0.75451107  0.25084103  0.72558607  1
  O2-  O471  1  0.57898802  0.25634140  0.59690595  1
  O2-  O472  1  0.07147479  0.25410375  0.05414276  1
  O2-  O473  1  0.42363752  0.25490972  0.39348022  1
  O2-  O474  1  0.08615404  0.75713927  0.40757855  1
  O2-  O475  1  0.91850292  0.25868943  0.93827364  1
  O2-  O476  1  0.75215022  0.25039598  0.38956233  1
  O2-  O477  1  0.39938268  0.75407996  0.39054675  1
  O2-  O478  1  0.25165075  0.75975952  0.25902479  1
  O2-  O479  1  0.92264032  0.24932401  0.28340617  1
  O2-  O480  1  0.92000132  0.74554877  0.61240331  1
  O2-  O481  1  0.23396328  0.74593269  0.94395115  1
  O2-  O482  1  0.58762124  0.25419405  0.28418068  1
  O2-  O483  1  0.91820680  0.75179315  0.94669748  1
  O2-  O484  1  0.41832133  0.24693825  0.71456203  1
  O2-  O485  1  0.08090702  0.24805096  0.38364598  1
  O2-  O486  1  0.26143942  0.24856751  0.60682470  1
  O2-  O487  1  0.08957441  0.75019351  0.06666192  1
  O2-  O488  1  0.92529984  0.25018347  0.61861084  1
  O2-  O489  1  0.24318182  0.26191341  0.27542499  1
  O2-  O490  1  0.25962397  0.74916312  0.60222679  1
  O2-  O491  1  0.59747946  0.74992811  0.27472645  1
  O2-  O492  1  0.58218953  0.25400067  0.94278365  1
