# generated using pymatgen
data_Ca108Mn108O277
_symmetry_space_group_name_H-M   'P 1'
_cell_length_a   16.02066135
_cell_length_b   22.29676874
_cell_length_c   16.38339633
_cell_angle_alpha   89.99966605
_cell_angle_beta   90.00276276
_cell_angle_gamma   89.99562871
_symmetry_Int_Tables_number   1
_chemical_formula_structural   Ca108Mn108O277
_chemical_formula_sum   'Ca108 Mn108 O277'
_cell_volume   5852.29628995
_cell_formula_units_Z   1
loop_
 _symmetry_equiv_pos_site_id
 _symmetry_equiv_pos_as_xyz
  1  'x, y, z'
loop_
 _atom_type_symbol
 _atom_type_oxidation_number
  Ca2+  2.0
  Mn3.34+  3.34
  O2-  -2.0
loop_
 _atom_site_type_symbol
 _atom_site_label
 _atom_site_symmetry_multiplicity
 _atom_site_fract_x
 _atom_site_fract_y
 _atom_site_fract_z
 _atom_site_occupancy
  Ca2+  Ca0  1  0.06254133  0.25302147  0.24479510  1
  Ca2+  Ca1  1  0.08114637  0.25560131  0.60645181  1
  Ca2+  Ca2  1  0.08474645  0.24960438  0.89783199  1
  Ca2+  Ca3  1  0.08015604  0.74667169  0.26165432  1
  Ca2+  Ca4  1  0.07538860  0.74749043  0.58346672  1
  Ca2+  Ca5  1  0.10490027  0.74705785  0.89786708  1
  Ca2+  Ca6  1  0.42364933  0.25235789  0.23315199  1
  Ca2+  Ca7  1  0.43240212  0.25822103  0.57800233  1
  Ca2+  Ca8  1  0.40271063  0.25801842  0.92884133  1
  Ca2+  Ca9  1  0.42131878  0.74290608  0.25909910  1
  Ca2+  Ca10  1  0.41022663  0.74821310  0.57332179  1
  Ca2+  Ca11  1  0.39107611  0.74269001  0.91427151  1
  Ca2+  Ca12  1  0.76069075  0.23993170  0.23359392  1
  Ca2+  Ca13  1  0.73947680  0.25360314  0.58967146  1
  Ca2+  Ca14  1  0.75496393  0.25829819  0.92388279  1
  Ca2+  Ca15  1  0.75422069  0.74279302  0.27296476  1
  Ca2+  Ca16  1  0.76579057  0.75018551  0.57157848  1
  Ca2+  Ca17  1  0.74452056  0.76518180  0.92489211  1
  Ca2+  Ca18  1  0.26124529  0.25094847  0.07116290  1
  Ca2+  Ca19  1  0.25885206  0.26618590  0.40674581  1
  Ca2+  Ca20  1  0.22784239  0.24460170  0.78405596  1
  Ca2+  Ca21  1  0.24731130  0.74735446  0.07092467  1
  Ca2+  Ca22  1  0.24685596  0.73777387  0.42247489  1
  Ca2+  Ca23  1  0.23164083  0.74403956  0.74784281  1
  Ca2+  Ca24  1  0.59483597  0.25866182  0.08539195  1
  Ca2+  Ca25  1  0.59552489  0.26277615  0.40974835  1
  Ca2+  Ca26  1  0.60684338  0.25598028  0.74768534  1
  Ca2+  Ca27  1  0.58189865  0.75228693  0.09592577  1
  Ca2+  Ca28  1  0.59558786  0.72196619  0.42068627  1
  Ca2+  Ca29  1  0.57365171  0.74547310  0.74138786  1
  Ca2+  Ca30  1  0.89703635  0.25746683  0.08277674  1
  Ca2+  Ca31  1  0.90185974  0.25702125  0.39773715  1
  Ca2+  Ca32  1  0.91348682  0.24529478  0.76909594  1
  Ca2+  Ca33  1  0.92143458  0.75724566  0.10302401  1
  Ca2+  Ca34  1  0.91422356  0.72896659  0.42973824  1
  Ca2+  Ca35  1  0.94658816  0.73797764  0.72449140  1
  Ca2+  Ca36  1  0.76253047  0.10390019  0.90413593  1
  Ca2+  Ca37  1  0.60124408  0.09069045  0.74697018  1
  Ca2+  Ca38  1  0.07597092  0.60207321  0.57487511  1
  Ca2+  Ca39  1  0.06561854  0.60315713  0.57458189  1
  Ca2+  Ca40  1  0.90885278  0.09430509  0.39950304  1
  Ca2+  Ca41  1  0.07772776  0.08667421  0.61866056  1
  Ca2+  Ca42  1  0.42329373  0.07381122  0.60901323  1
  Ca2+  Ca43  1  0.24356242  0.08715906  0.40936402  1
  Ca2+  Ca44  1  0.10204882  0.60061012  0.90329193  1
  Ca2+  Ca45  1  0.07355591  0.09781270  0.25359747  1
  Ca2+  Ca46  1  0.75821061  0.08629446  0.60134766  1
  Ca2+  Ca47  1  0.75310663  0.61225564  0.56508935  1
  Ca2+  Ca48  1  0.93665879  0.59167023  0.73169586  1
  Ca2+  Ca49  1  0.37042345  0.07705821  0.92212245  1
  Ca2+  Ca50  1  0.11279397  0.09838103  0.89576426  1
  Ca2+  Ca51  1  0.56325781  0.59587911  0.07504716  1
  Ca2+  Ca52  1  0.59677788  0.10144541  0.08994086  1
  Ca2+  Ca53  1  0.24250121  0.61023688  0.75586026  1
  Ca2+  Ca54  1  0.91686395  0.09826904  0.39115536  1
  Ca2+  Ca55  1  0.75237964  0.59893568  0.28276509  1
  Ca2+  Ca56  1  0.42581906  0.08716483  0.23489040  1
  Ca2+  Ca57  1  0.26036651  0.08234777  0.06602431  1
  Ca2+  Ca58  1  0.91783915  0.09853889  0.75611919  1
  Ca2+  Ca59  1  0.24040124  0.09824440  0.76149661  1
  Ca2+  Ca60  1  0.11294780  0.57452289  0.28499068  1
  Ca2+  Ca61  1  0.41600575  0.08521163  0.23040041  1
  Ca2+  Ca62  1  0.25606971  0.08632688  0.41054964  1
  Ca2+  Ca63  1  0.89042832  0.10944676  0.10861164  1
  Ca2+  Ca64  1  0.10080120  0.09907697  0.89846811  1
  Ca2+  Ca65  1  0.94439018  0.56362966  0.06280516  1
  Ca2+  Ca66  1  0.75128437  0.57262845  0.92188079  1
  Ca2+  Ca67  1  0.74789564  0.09014296  0.60644066  1
  Ca2+  Ca68  1  0.43569163  0.60893728  0.58346002  1
  Ca2+  Ca69  1  0.57368713  0.59347760  0.07247021  1
  Ca2+  Ca70  1  0.88426148  0.11317973  0.10198112  1
  Ca2+  Ca71  1  0.43460471  0.07271143  0.61110190  1
  Ca2+  Ca72  1  0.75741758  0.39831962  0.58752918  1
  Ca2+  Ca73  1  0.91844372  0.40910413  0.75131017  1
  Ca2+  Ca74  1  0.09048425  0.41274685  0.25763273  1
  Ca2+  Ca75  1  0.08862188  0.89483742  0.24494123  1
  Ca2+  Ca76  1  0.92668805  0.91446895  0.73203899  1
  Ca2+  Ca77  1  0.40207900  0.40776434  0.24909777  1
  Ca2+  Ca78  1  0.58201295  0.89607976  0.42497679  1
  Ca2+  Ca79  1  0.56349303  0.90711847  0.75244342  1
  Ca2+  Ca80  1  0.41319092  0.40825452  0.24875957  1
  Ca2+  Ca81  1  0.09913625  0.41531783  0.25283985  1
  Ca2+  Ca82  1  0.41300252  0.90751479  0.59155773  1
  Ca2+  Ca83  1  0.40543578  0.40839839  0.59066365  1
  Ca2+  Ca84  1  0.24788913  0.41124925  0.08759091  1
  Ca2+  Ca85  1  0.26937075  0.92302604  0.05806569  1
  Ca2+  Ca86  1  0.24990573  0.89177975  0.42080747  1
  Ca2+  Ca87  1  0.91553495  0.91356949  0.73202798  1
  Ca2+  Ca88  1  0.76051164  0.90456235  0.59119633  1
  Ca2+  Ca89  1  0.57211572  0.89921796  0.42199804  1
  Ca2+  Ca90  1  0.07897989  0.41289071  0.58032375  1
  Ca2+  Ca91  1  0.55451395  0.91004667  0.07361477  1
  Ca2+  Ca92  1  0.23740331  0.42798751  0.40212052  1
  Ca2+  Ca93  1  0.91983331  0.89543549  0.43020433  1
  Ca2+  Ca94  1  0.06003497  0.42301067  0.93073653  1
  Ca2+  Ca95  1  0.90966862  0.41390857  0.07284851  1
  Ca2+  Ca96  1  0.56181991  0.90402531  0.07979075  1
  Ca2+  Ca97  1  0.40929001  0.90571590  0.24766008  1
  Ca2+  Ca98  1  0.41786368  0.40818708  0.59059571  1
  Ca2+  Ca99  1  0.90685937  0.40787644  0.75210731  1
  Ca2+  Ca100  1  0.07051842  0.42352937  0.93024248  1
  Ca2+  Ca101  1  0.92549921  0.90150490  0.08267877  1
  Ca2+  Ca102  1  0.25616593  0.39825209  0.74646247  1
  Ca2+  Ca103  1  0.09366155  0.90956111  0.92053301  1
  Ca2+  Ca104  1  0.57592819  0.90858805  0.75051206  1
  Ca2+  Ca105  1  0.26186439  0.91222984  0.75890343  1
  Ca2+  Ca106  1  0.27293060  0.91107147  0.75934290  1
  Ca2+  Ca107  1  0.75287581  0.89758293  0.24544515  1
  Mn3.34+  Mn108  1  0.08390988  0.33932941  0.08629682  1
  Mn3.34+  Mn109  1  0.08076200  0.33610189  0.42333359  1
  Mn3.34+  Mn110  1  0.08416401  0.33391627  0.75193849  1
  Mn3.34+  Mn111  1  0.08839213  0.83197922  0.08217458  1
  Mn3.34+  Mn112  1  0.08342629  0.82687987  0.41833677  1
  Mn3.34+  Mn113  1  0.08555080  0.83295564  0.74891130  1
  Mn3.34+  Mn114  1  0.42375368  0.33720814  0.07744843  1
  Mn3.34+  Mn115  1  0.41908713  0.34098737  0.41807472  1
  Mn3.34+  Mn116  1  0.42309390  0.33356798  0.75993972  1
  Mn3.34+  Mn117  1  0.40810483  0.83136710  0.08586528  1
  Mn3.34+  Mn118  1  0.41333474  0.82824761  0.41835598  1
  Mn3.34+  Mn119  1  0.41516152  0.82614204  0.75239034  1
  Mn3.34+  Mn120  1  0.74474477  0.33617492  0.08386855  1
  Mn3.34+  Mn121  1  0.75001644  0.33508065  0.41195684  1
  Mn3.34+  Mn122  1  0.74698907  0.33111722  0.75454511  1
  Mn3.34+  Mn123  1  0.75150902  0.83222466  0.08149691  1
  Mn3.34+  Mn124  1  0.75198803  0.82891091  0.41859167  1
  Mn3.34+  Mn125  1  0.75113681  0.82744396  0.75654357  1
  Mn3.34+  Mn126  1  0.24841080  0.33071585  0.24741819  1
  Mn3.34+  Mn127  1  0.24698352  0.33062320  0.57918878  1
  Mn3.34+  Mn128  1  0.25142943  0.33590570  0.91832201  1
  Mn3.34+  Mn129  1  0.25134004  0.83027814  0.24521808  1
  Mn3.34+  Mn130  1  0.24528791  0.83238728  0.58407500  1
  Mn3.34+  Mn131  1  0.25115229  0.83388792  0.91743177  1
  Mn3.34+  Mn132  1  0.58939135  0.33307312  0.24793345  1
  Mn3.34+  Mn133  1  0.58683888  0.33503928  0.58291288  1
  Mn3.34+  Mn134  1  0.58502053  0.33966344  0.91642342  1
  Mn3.34+  Mn135  1  0.58214240  0.83230669  0.24734604  1
  Mn3.34+  Mn136  1  0.58535682  0.82225400  0.58358709  1
  Mn3.34+  Mn137  1  0.57738142  0.82943146  0.91474837  1
  Mn3.34+  Mn138  1  0.90996097  0.33283916  0.24774903  1
  Mn3.34+  Mn139  1  0.91803084  0.33187514  0.57609806  1
  Mn3.34+  Mn140  1  0.91314285  0.33562231  0.91827349  1
  Mn3.34+  Mn141  1  0.91817678  0.83301031  0.25251506  1
  Mn3.34+  Mn142  1  0.92023014  0.83260404  0.58058580  1
  Mn3.34+  Mn143  1  0.91836309  0.83343009  0.91164982  1
  Mn3.34+  Mn144  1  0.58988945  0.16308123  0.91697967  1
  Mn3.34+  Mn145  1  0.91481497  0.16837473  0.57807090  1
  Mn3.34+  Mn146  1  0.08037345  0.17039247  0.08204936  1
  Mn3.34+  Mn147  1  0.92036905  0.66372104  0.90989929  1
  Mn3.34+  Mn148  1  0.73667322  0.66376539  0.75133193  1
  Mn3.34+  Mn149  1  0.08514084  0.17816030  0.41614240  1
  Mn3.34+  Mn150  1  0.25160765  0.16856637  0.24661503  1
  Mn3.34+  Mn151  1  0.57163263  0.66215445  0.90620367  1
  Mn3.34+  Mn152  1  0.74691810  0.66870458  0.75275028  1
  Mn3.34+  Mn153  1  0.41677260  0.66338699  0.75026925  1
  Mn3.34+  Mn154  1  0.57731352  0.66628958  0.25388796  1
  Mn3.34+  Mn155  1  0.40622042  0.66513332  0.09168972  1
  Mn3.34+  Mn156  1  0.58740884  0.16754597  0.58213722  1
  Mn3.34+  Mn157  1  0.08698180  0.66152680  0.41391742  1
  Mn3.34+  Mn158  1  0.41280578  0.16937702  0.75554867  1
  Mn3.34+  Mn159  1  0.92107841  0.66523307  0.25466247  1
  Mn3.34+  Mn160  1  0.91242402  0.67032043  0.91174806  1
  Mn3.34+  Mn161  1  0.74687207  0.66422116  0.08664009  1
  Mn3.34+  Mn162  1  0.43458124  0.16355972  0.41755010  1
  Mn3.34+  Mn163  1  0.42319416  0.16781979  0.41654551  1
  Mn3.34+  Mn164  1  0.08499536  0.66307346  0.09060570  1
  Mn3.34+  Mn165  1  0.42170074  0.17539515  0.75438380  1
  Mn3.34+  Mn166  1  0.58889914  0.16838350  0.24675784  1
  Mn3.34+  Mn167  1  0.41470217  0.16510150  0.07935765  1
  Mn3.34+  Mn168  1  0.75771005  0.65900888  0.08732295  1
  Mn3.34+  Mn169  1  0.92325105  0.17482341  0.57993276  1
  Mn3.34+  Mn170  1  0.41740309  0.66333322  0.41898426  1
  Mn3.34+  Mn171  1  0.09488553  0.65800005  0.09136729  1
  Mn3.34+  Mn172  1  0.57970546  0.16796077  0.91711229  1
  Mn3.34+  Mn173  1  0.24215828  0.17559194  0.58478085  1
  Mn3.34+  Mn174  1  0.91796964  0.16744516  0.91449247  1
  Mn3.34+  Mn175  1  0.09053963  0.16555410  0.08411989  1
  Mn3.34+  Mn176  1  0.25071994  0.66564006  0.58079928  1
  Mn3.34+  Mn177  1  0.74088333  0.16973068  0.41260140  1
  Mn3.34+  Mn178  1  0.25927449  0.65537157  0.25158449  1
  Mn3.34+  Mn179  1  0.25155036  0.17683579  0.57807166  1
  Mn3.34+  Mn180  1  0.91165620  0.49996411  0.58600516  1
  Mn3.34+  Mn181  1  0.74906153  0.49499802  0.07634397  1
  Mn3.34+  Mn182  1  0.41989786  0.00004118  0.41275437  1
  Mn3.34+  Mn183  1  0.27216620  0.50309661  0.92040933  1
  Mn3.34+  Mn184  1  0.07652744  -0.00006199  0.43530761  1
  Mn3.34+  Mn185  1  0.58673560  0.00004985  0.24890731  1
  Mn3.34+  Mn186  1  0.58991197  0.49556392  0.25101003  1
  Mn3.34+  Mn187  1  0.75282618  -0.00158422  0.08553341  1
  Mn3.34+  Mn188  1  0.58916734  -0.00064011  0.57734689  1
  Mn3.34+  Mn189  1  0.74167405  0.00375959  0.41807330  1
  Mn3.34+  Mn190  1  0.91869371  0.50336815  0.25575794  1
  Mn3.34+  Mn191  1  0.08220964  -0.00298152  0.74118827  1
  Mn3.34+  Mn192  1  0.08755631  -0.00523254  0.43355825  1
  Mn3.34+  Mn193  1  0.41606570  0.50197882  0.08033620  1
  Mn3.34+  Mn194  1  0.74203381  0.00286444  0.08717383  1
  Mn3.34+  Mn195  1  0.75677154  0.49863128  0.42515414  1
  Mn3.34+  Mn196  1  0.08628994  -0.00124853  0.07923412  1
  Mn3.34+  Mn197  1  0.24338300  -0.00245499  0.58153706  1
  Mn3.34+  Mn198  1  0.57799540  0.49626513  0.92092493  1
  Mn3.34+  Mn199  1  0.74091477  0.49964448  0.42349724  1
  Mn3.34+  Mn200  1  0.91775902  -0.00064710  0.91952939  1
  Mn3.34+  Mn201  1  0.56929564  0.00030604  0.92491666  1
  Mn3.34+  Mn202  1  0.25736864  0.50346673  0.91577644  1
  Mn3.34+  Mn203  1  0.90903091  0.49762084  0.25589992  1
  Mn3.34+  Mn204  1  0.74492673  0.49892669  0.74901684  1
  Mn3.34+  Mn205  1  0.57987264  0.50090074  0.25049232  1
  Mn3.34+  Mn206  1  0.75192781  -0.00113873  0.75076738  1
  Mn3.34+  Mn207  1  0.09145562  0.49989676  0.74164896  1
  Mn3.34+  Mn208  1  0.40250710  0.50803652  0.40086980  1
  Mn3.34+  Mn209  1  0.57830466  0.50664043  0.57710984  1
  Mn3.34+  Mn210  1  0.25235029  0.50322937  0.58143241  1
  Mn3.34+  Mn211  1  0.59335366  0.50344235  0.57610484  1
  Mn3.34+  Mn212  1  0.75231606  -0.00165999  0.41870054  1
  Mn3.34+  Mn213  1  0.91980826  -0.00165184  0.24983737  1
  Mn3.34+  Mn214  1  0.24407024  0.00014880  0.24504886  1
  Mn3.34+  Mn215  1  0.41604833  0.50205992  0.74880007  1
  O2-  O216  1  0.00124814  0.14405094  0.00125947  1
  O2-  O217  1  0.00386430  0.16176357  0.33953334  1
  O2-  O218  1  -0.00198629  0.16442739  0.66464241  1
  O2-  O219  1  -0.00359407  0.65542210  0.00135761  1
  O2-  O220  1  0.01123767  0.65657773  0.32413518  1
  O2-  O221  1  0.00467599  0.65884763  0.66162311  1
  O2-  O222  1  0.33401963  0.16098272  0.00491471  1
  O2-  O223  1  0.33551974  0.14477788  0.33520569  1
  O2-  O224  1  0.34052594  0.16634661  0.65853194  1
  O2-  O225  1  0.33999959  0.68521178  0.01246891  1
  O2-  O226  1  0.33003798  0.67438276  0.33185610  1
  O2-  O227  1  0.33513779  0.65710136  0.66334075  1
  O2-  O228  1  0.67022485  0.15237424  -0.00671448  1
  O2-  O229  1  0.65701089  0.16580753  0.33903917  1
  O2-  O230  1  0.66590926  0.15419366  0.66184051  1
  O2-  O231  1  0.66636016  0.65557728  -0.00423857  1
  O2-  O232  1  0.66337723  0.66384183  0.32352920  1
  O2-  O233  1  0.66966715  0.69055350  0.66745416  1
  O2-  O234  1  0.16751144  0.15220351  0.00398520  1
  O2-  O235  1  0.16906523  0.15487131  0.33727194  1
  O2-  O236  1  0.16571104  0.16154628  0.66292445  1
  O2-  O237  1  0.16232946  0.65851366  0.00265510  1
  O2-  O238  1  0.17318949  0.67134143  0.32746305  1
  O2-  O239  1  0.16744942  0.65564864  0.65544206  1
  O2-  O240  1  0.50196284  0.15131377  -0.00129088  1
  O2-  O241  1  0.49374858  0.14764004  0.31990017  1
  O2-  O242  1  0.50320894  0.15972759  0.67175812  1
  O2-  O243  1  0.50482659  0.67346833  0.00664948  1
  O2-  O244  1  0.49726233  0.66510766  0.33284454  1
  O2-  O245  1  0.48423715  0.69084183  0.66908417  1
  O2-  O246  1  0.83909179  0.15697311  -0.00372936  1
  O2-  O247  1  0.82823574  0.16220143  0.34224834  1
  O2-  O248  1  0.83522136  0.15711490  0.66106477  1
  O2-  O249  1  0.83040891  0.66208358  -0.00760421  1
  O2-  O250  1  0.84035641  0.66655901  0.32825130  1
  O2-  O251  1  0.82946628  0.66071079  0.67579045  1
  O2-  O252  1  -0.00076221  0.34989167  0.00211873  1
  O2-  O253  1  0.00929095  0.33784234  0.33114907  1
  O2-  O254  1  0.00061477  0.34281905  0.66681030  1
  O2-  O255  1  0.00240138  0.84098124  -0.00225802  1
  O2-  O256  1  0.00197863  0.84413428  0.33156010  1
  O2-  O257  1  -0.00164986  0.84312394  0.66909032  1
  O2-  O258  1  0.32681551  0.34002255  0.00689998  1
  O2-  O259  1  0.32755066  0.34949684  0.33743261  1
  O2-  O260  1  0.33437836  0.32621568  0.66115879  1
  O2-  O261  1  0.33020501  0.83233659  0.00358034  1
  O2-  O262  1  0.33361486  0.84081026  0.33257148  1
  O2-  O263  1  0.33464032  0.84179507  0.66856715  1
  O2-  O264  1  0.66484522  0.33691503  -0.00034532  1
  O2-  O265  1  0.66149391  0.33572822  0.33726024  1
  O2-  O266  1  0.67069189  0.34062178  0.66418746  1
  O2-  O267  1  0.65663038  0.83615635  0.00094189  1
  O2-  O268  1  0.66525957  0.84902036  0.33437309  1
  O2-  O269  1  0.66466853  0.83170246  0.67039952  1
  O2-  O270  1  0.16274629  0.35861003  -0.00327269  1
  O2-  O271  1  0.16514828  0.33603687  0.33524317  1
  O2-  O272  1  0.16451286  0.34218351  0.66341597  1
  O2-  O273  1  0.17092560  0.84725779  0.00138082  1
  O2-  O274  1  0.16871469  0.83424450  0.33091572  1
  O2-  O275  1  0.17720898  0.85336900  0.67815683  1
  O2-  O276  1  0.49780328  0.33218498  -0.00517801  1
  O2-  O277  1  0.49118512  0.34746905  0.32682456  1
  O2-  O278  1  0.49350675  0.33456977  0.66222479  1
  O2-  O279  1  0.49954882  0.82585039  0.00656884  1
  O2-  O280  1  0.49905993  0.84680791  0.33178117  1
  O2-  O281  1  0.50122578  0.82826018  0.66723390  1
  O2-  O282  1  0.83539931  0.34066902  0.00028724  1
  O2-  O283  1  0.83416413  0.33603650  0.33513855  1
  O2-  O284  1  0.84112511  0.33740448  0.66748225  1
  O2-  O285  1  0.84133975  0.82641693  0.00252532  1
  O2-  O286  1  0.83285624  0.84511658  0.33574531  1
  O2-  O287  1  0.83598332  0.83887731  0.67207034  1
  O2-  O288  1  0.00172376  0.17412016  0.16289052  1
  O2-  O289  1  0.00245795  0.18779475  0.49890171  1
  O2-  O290  1  0.00264967  0.17022132  0.84137265  1
  O2-  O291  1  0.00109773  0.67685461  0.16385445  1
  O2-  O292  1  0.01077009  0.67363415  0.49539333  1
  O2-  O293  1  0.00318684  0.67903309  0.83532872  1
  O2-  O294  1  0.34280124  0.17303874  0.17424740  1
  O2-  O295  1  0.32646199  0.18672798  0.49161309  1
  O2-  O296  1  0.33223249  0.18072180  0.83385247  1
  O2-  O297  1  0.33228047  0.68863055  0.17400192  1
  O2-  O298  1  0.33495993  0.67773887  0.50148227  1
  O2-  O299  1  0.33435328  0.68944392  0.81102947  1
  O2-  O300  1  0.65827498  0.17978252  0.16640766  1
  O2-  O301  1  0.67600064  0.17003675  0.51117592  1
  O2-  O302  1  0.66251076  0.17247211  0.83116043  1
  O2-  O303  1  0.65580973  0.67124096  0.16020309  1
  O2-  O304  1  0.67732503  0.68683937  0.51577733  1
  O2-  O305  1  0.66460023  0.69075170  0.83460586  1
  O2-  O306  1  0.16141709  0.18367749  0.17217852  1
  O2-  O307  1  0.16701319  0.19113265  0.49507499  1
  O2-  O308  1  0.16446551  0.17016121  0.83746573  1
  O2-  O309  1  0.17309969  0.68178396  0.17280007  1
  O2-  O310  1  0.16417186  0.67765715  0.50379319  1
  O2-  O311  1  0.16753905  0.67522707  0.83095768  1
  O2-  O312  1  0.49814700  0.16913059  0.16586915  1
  O2-  O313  1  0.49036061  0.17360314  0.51829228  1
  O2-  O314  1  0.50259359  0.18249983  0.83715137  1
  O2-  O315  1  0.50152174  0.68047197  0.16066299  1
  O2-  O316  1  0.49274425  0.68007865  0.49947666  1
  O2-  O317  1  0.49248534  0.68989086  0.83236121  1
  O2-  O318  1  0.84034471  0.18642073  0.15881762  1
  O2-  O319  1  0.83406780  0.18320247  0.49963105  1
  O2-  O320  1  0.83967729  0.17582525  0.83740327  1
  O2-  O321  1  0.83584285  0.67998057  0.16827606  1
  O2-  O322  1  0.82688722  0.67844047  0.50398100  1
  O2-  O323  1  0.82905684  0.69059260  0.83256575  1
  O2-  O324  1  0.00457091  0.32617782  0.16756963  1
  O2-  O325  1  0.00188704  0.30712439  0.50093918  1
  O2-  O326  1  -0.00134487  0.32834391  0.83184102  1
  O2-  O327  1  0.00006004  0.82817309  0.16598068  1
  O2-  O328  1  -0.00373068  0.82246957  0.49449891  1
  O2-  O329  1  0.00062673  0.81862130  0.83007040  1
  O2-  O330  1  0.33594599  0.32855543  0.17326484  1
  O2-  O331  1  0.33626571  0.31878984  0.50395943  1
  O2-  O332  1  0.32969126  0.31668223  0.82869637  1
  O2-  O333  1  0.33544778  0.81004545  0.16979381  1
  O2-  O334  1  0.33439260  0.82485556  0.50262105  1
  O2-  O335  1  0.32620673  0.82456543  0.82592945  1
  O2-  O336  1  0.66911212  0.31846666  0.17068393  1
  O2-  O337  1  0.66990685  0.32626285  0.50593129  1
  O2-  O338  1  0.67004705  0.32048825  0.83653571  1
  O2-  O339  1  0.66250858  0.83297541  0.16238835  1
  O2-  O340  1  0.66175853  0.82439612  0.49568979  1
  O2-  O341  1  0.66072161  0.81375232  0.83129211  1
  O2-  O342  1  0.16619020  0.31911506  0.16730830  1
  O2-  O343  1  0.16448581  0.30880035  0.50074173  1
  O2-  O344  1  0.16446953  0.33340387  0.83460101  1
  O2-  O345  1  0.16362120  0.81528276  0.17075854  1
  O2-  O346  1  0.17030967  0.82093481  0.49624659  1
  O2-  O347  1  0.16690535  0.83148177  0.83208812  1
  O2-  O348  1  0.49474851  0.32761107  0.16957037  1
  O2-  O349  1  0.49726740  0.32820834  0.50453866  1
  O2-  O350  1  0.50084253  0.30508698  0.83041709  1
  O2-  O351  1  0.49785822  0.82014502  0.16386574  1
  O2-  O352  1  0.50401060  0.82186971  0.49844057  1
  O2-  O353  1  0.50222669  0.81503043  0.82766475  1
  O2-  O354  1  0.83723077  0.32754722  0.16104568  1
  O2-  O355  1  0.83040948  0.31365529  0.50739671  1
  O2-  O356  1  0.84168977  0.32585405  0.82764762  1
  O2-  O357  1  0.83320267  0.82589248  0.17118553  1
  O2-  O358  1  0.83070228  0.82754676  0.50321969  1
  O2-  O359  1  0.83488970  0.80846122  0.83297450  1
  O2-  O360  1  0.08765443  0.07858915  0.11837287  1
  O2-  O361  1  0.09034999  0.08138875  0.46376119  1
  O2-  O362  1  0.08194434  0.07602472  0.76692988  1
  O2-  O363  1  0.07954074  0.57813373  0.11367041  1
  O2-  O364  1  0.09138226  0.58208970  0.43614084  1
  O2-  O365  1  0.08743468  0.57440885  0.77203320  1
  O2-  O366  1  0.41040458  0.08105564  0.10100472  1
  O2-  O367  1  0.39205143  0.07791988  0.46866420  1
  O2-  O368  1  0.41460582  0.08150316  0.76262178  1
  O2-  O369  1  0.43117262  0.58166091  0.11072510  1
  O2-  O370  1  0.41855055  0.57999012  0.44988630  1
  O2-  O371  1  0.40793557  0.58291799  0.77288646  1
  O2-  O372  1  0.74922104  0.08357351  0.11258306  1
  O2-  O373  1  0.76270436  0.08321874  0.45427241  1
  O2-  O374  1  0.75191614  0.07698275  0.77184286  1
  O2-  O375  1  0.74576767  0.57488783  0.12006312  1
  O2-  O376  1  0.74831396  0.58187409  0.43599152  1
  O2-  O377  1  0.74693685  0.58105623  0.78404013  1
  O2-  O378  1  0.24991370  0.08407487  0.21726638  1
  O2-  O379  1  0.24128437  0.08240386  0.54731755  1
  O2-  O380  1  0.23658031  0.06600041  0.88475554  1
  O2-  O381  1  0.25025474  0.58184572  0.23676714  1
  O2-  O382  1  0.24275921  0.58190339  0.56216001  1
  O2-  O383  1  0.24591742  0.58193920  0.88804239  1
  O2-  O384  1  0.57158021  0.08012905  0.22064594  1
  O2-  O385  1  0.57249173  0.08220940  0.56623769  1
  O2-  O386  1  0.57859163  0.07980467  0.88408059  1
  O2-  O387  1  0.58794680  0.58038807  0.21267032  1
  O2-  O388  1  0.58984972  0.58722568  0.56799174  1
  O2-  O389  1  0.59371592  0.57653274  0.89376980  1
  O2-  O390  1  0.93143798  0.07887769  0.22762111  1
  O2-  O391  1  0.91355957  0.08128979  0.53783843  1
  O2-  O392  1  0.91644423  0.07942383  0.89031891  1
  O2-  O393  1  0.90602764  0.58153995  0.21604739  1
  O2-  O394  1  0.92896323  0.57679186  0.56762226  1
  O2-  O395  1  0.90334225  0.58239693  0.88121271  1
  O2-  O396  1  0.09218700  0.42061871  0.11608977  1
  O2-  O397  1  0.09586915  0.41405298  0.44513111  1
  O2-  O398  1  0.07533752  0.42216821  0.77932544  1
  O2-  O399  1  0.08251066  0.91919403  0.10838672  1
  O2-  O400  1  0.08422804  0.91301084  0.42738365  1
  O2-  O401  1  0.06904127  0.91925694  0.77708483  1
  O2-  O402  1  0.40545071  0.42187281  0.11319041  1
  O2-  O403  1  0.40989641  0.43011633  0.45795002  1
  O2-  O404  1  0.40237000  0.41853221  0.74807157  1
  O2-  O405  1  0.42093347  0.91525279  0.11164066  1
  O2-  O406  1  0.43062773  0.91637282  0.44478143  1
  O2-  O407  1  0.42645759  0.91667939  0.75915391  1
  O2-  O408  1  0.76177270  0.42054468  0.10641289  1
  O2-  O409  1  0.75514741  0.41715249  0.44750175  1
  O2-  O410  1  0.76958645  0.41797257  0.76107113  1
  O2-  O411  1  0.75493828  0.91643089  0.10155516  1
  O2-  O412  1  0.74382530  0.91765219  0.44968836  1
  O2-  O413  1  0.73940194  0.91679845  0.76330044  1
  O2-  O414  1  0.24160320  0.41245197  0.22488205  1
  O2-  O415  1  0.26595308  0.42067679  0.55577386  1
  O2-  O416  1  0.26075044  0.42225646  0.88171795  1
  O2-  O417  1  0.25315877  0.91842631  0.21943334  1
  O2-  O418  1  0.25998233  0.91664232  0.55845976  1
  O2-  O419  1  0.24482463  0.91919632  0.89059580  1
  O2-  O420  1  0.57388927  0.41595366  0.22287704  1
  O2-  O421  1  0.56696848  0.42083930  0.56588161  1
  O2-  O422  1  0.57661883  0.41888217  0.88748977  1
  O2-  O423  1  0.57685774  0.91974665  0.21389556  1
  O2-  O424  1  0.58831203  0.91654565  0.55989545  1
  O2-  O425  1  0.57692409  0.92110638  0.88563637  1
  O2-  O426  1  0.92767285  0.41832491  0.22265705  1
  O2-  O427  1  0.91799358  0.41914496  0.56551665  1
  O2-  O428  1  0.92766813  0.41990421  0.88500058  1
  O2-  O429  1  0.91539949  0.91740752  0.22678387  1
  O2-  O430  1  0.90467277  0.91693459  0.57183697  1
  O2-  O431  1  0.91856351  0.92241748  0.87356186  1
  O2-  O432  1  0.00593622  -0.00600874  -0.00386241  1
  O2-  O433  1  0.00033383  0.01342961  0.34345230  1
  O2-  O434  1  -0.02072921  0.00374101  0.69584734  1
  O2-  O435  1  -0.00036161  0.49096675  -0.00328548  1
  O2-  O436  1  0.02201137  0.49716768  0.30247885  1
  O2-  O437  1  -0.00362042  0.49421578  0.67505090  1
  O2-  O438  1  0.32712951  0.00688066  0.01165704  1
  O2-  O439  1  0.32957636  0.01853297  0.33248312  1
  O2-  O440  1  0.34336523  0.00223860  0.64162931  1
  O2-  O441  1  0.31475370  0.49777621  0.02372280  1
  O2-  O442  1  0.33515407  0.47662647  0.32562445  1
  O2-  O443  1  0.33663150  0.49595277  0.65739048  1
  O2-  O444  1  0.66617009  0.00599991  -0.00136689  1
  O2-  O445  1  0.66033796  -0.01762446  0.33832674  1
  O2-  O446  1  0.66593235  0.01037086  0.66764890  1
  O2-  O447  1  0.66830337  0.51476666  0.00168479  1
  O2-  O448  1  0.66818762  0.50792307  0.33577645  1
  O2-  O449  1  0.67521824  0.49734610  0.65241004  1
  O2-  O450  1  0.17006890  0.00083653  0.01367645  1
  O2-  O451  1  0.16695914  0.01390792  0.34402015  1
  O2-  O452  1  0.18261668  0.00435575  0.68545527  1
  O2-  O453  1  0.15747836  0.49574134  -0.03052286  1
  O2-  O454  1  0.16617894  0.48447906  0.31509239  1
  O2-  O455  1  0.15769190  0.48942202  0.64867364  1
  O2-  O456  1  0.51120240  -0.00960938  0.01672180  1
  O2-  O457  1  0.48701344  -0.00195220  0.31162719  1
  O2-  O458  1  0.50353882  -0.00508346  0.65641563  1
  O2-  O459  1  0.51239718  0.50969344  0.01843344  1
  O2-  O460  1  0.49042085  0.49153239  0.32421964  1
  O2-  O461  1  0.49443035  0.50303823  0.65464158  1
  O2-  O462  1  0.84095209  0.00636152  0.00899128  1
  O2-  O463  1  0.83984838  0.01046955  0.34111683  1
  O2-  O464  1  0.82475418  0.00580621  0.66433230  1
  O2-  O465  1  0.83692458  0.50763836  0.01738457  1
  O2-  O466  1  0.82943887  0.50555142  0.33839698  1
  O2-  O467  1  0.84370794  0.50278857  0.68481568  1
  O2-  O468  1  0.59033510  0.75139158  0.26182741  1
  O2-  O469  1  0.23744095  0.25833949  0.93415672  1
  O2-  O470  1  0.24303052  0.75382539  0.92555445  1
  O2-  O471  1  0.74324228  0.25126356  0.40600218  1
  O2-  O472  1  0.08086884  0.74532647  0.06584584  1
  O2-  O473  1  0.91933050  0.25471179  0.26006976  1
  O2-  O474  1  0.24957218  0.75032914  0.60358841  1
  O2-  O475  1  0.92535833  0.25138805  0.93397938  1
  O2-  O476  1  0.75170777  0.25369544  0.73449912  1
  O2-  O477  1  0.09069561  0.75553507  0.72846980  1
  O2-  O478  1  0.92401865  0.75065845  0.26013366  1
  O2-  O479  1  0.74978974  0.75148575  0.40669386  1
  O2-  O480  1  0.26247830  0.24884519  0.27209953  1
  O2-  O481  1  0.41449041  0.74964235  0.40056347  1
  O2-  O482  1  0.08422490  0.25557524  0.74386282  1
  O2-  O483  1  0.58577927  0.24983057  0.59809110  1
  O2-  O484  1  0.08222392  0.74815259  0.39978724  1
  O2-  O485  1  0.08649010  0.25411819  0.05651711  1
  O2-  O486  1  0.56819213  0.25024824  0.26827613  1
  O2-  O487  1  0.58943756  0.24952725  0.93893475  1
  O2-  O488  1  0.91896707  0.75214890  0.59058447  1
  O2-  O489  1  0.42123811  0.25310413  0.39497115  1
  O2-  O490  1  0.74248359  0.74853916  0.07094416  1
  O2-  O491  1  0.74823423  0.25596222  0.06718082  1
  O2-  O492  1  0.41341662  0.25029379  0.07298074  1
