# generated using pymatgen
data_Ca108Mn108O277
_symmetry_space_group_name_H-M   'P 1'
_cell_length_a   16.02979649
_cell_length_b   22.30942160
_cell_length_c   16.38957525
_cell_angle_alpha   90.00309722
_cell_angle_beta   90.00117503
_cell_angle_gamma   89.99471886
_symmetry_Int_Tables_number   1
_chemical_formula_structural   Ca108Mn108O277
_chemical_formula_sum   'Ca108 Mn108 O277'
_cell_volume   5861.16591537
_cell_formula_units_Z   1
loop_
 _symmetry_equiv_pos_site_id
 _symmetry_equiv_pos_as_xyz
  1  'x, y, z'
loop_
 _atom_type_symbol
 _atom_type_oxidation_number
  Ca2+  2.0
  Mn3.34+  3.34
  O2-  -2.0
loop_
 _atom_site_type_symbol
 _atom_site_label
 _atom_site_symmetry_multiplicity
 _atom_site_fract_x
 _atom_site_fract_y
 _atom_site_fract_z
 _atom_site_occupancy
  Ca2+  Ca0  1  0.07756833  0.24805139  0.23318342  1
  Ca2+  Ca1  1  0.07137722  0.23927534  0.58532777  1
  Ca2+  Ca2  1  0.07222036  0.23405201  0.92442216  1
  Ca2+  Ca3  1  0.08487720  0.74660362  0.26125475  1
  Ca2+  Ca4  1  0.07355809  0.74786203  0.57941168  1
  Ca2+  Ca5  1  0.08655487  0.75730079  0.90572131  1
  Ca2+  Ca6  1  0.41327707  0.25702880  0.25044968  1
  Ca2+  Ca7  1  0.42209991  0.26149283  0.59039453  1
  Ca2+  Ca8  1  0.41277150  0.23932246  0.90868913  1
  Ca2+  Ca9  1  0.42636910  0.75652583  0.24925499  1
  Ca2+  Ca10  1  0.42760749  0.73960114  0.59538313  1
  Ca2+  Ca11  1  0.42888263  0.74983794  0.90282013  1
  Ca2+  Ca12  1  0.76095761  0.26752810  0.24673311  1
  Ca2+  Ca13  1  0.75226880  0.25094648  0.59435578  1
  Ca2+  Ca14  1  0.76652401  0.24631339  0.90576874  1
  Ca2+  Ca15  1  0.73922954  0.75760413  0.25154086  1
  Ca2+  Ca16  1  0.75363293  0.74531338  0.59130952  1
  Ca2+  Ca17  1  0.72986481  0.74015299  0.90805409  1
  Ca2+  Ca18  1  0.22375765  0.23596993  0.07280918  1
  Ca2+  Ca19  1  0.24130677  0.26179967  0.40699771  1
  Ca2+  Ca20  1  0.25076045  0.24673812  0.76360177  1
  Ca2+  Ca21  1  0.24754214  0.75251115  0.07737290  1
  Ca2+  Ca22  1  0.22233330  0.74789357  0.41796348  1
  Ca2+  Ca23  1  0.25089591  0.74985053  0.75850620  1
  Ca2+  Ca24  1  0.58771598  0.25377945  0.07408344  1
  Ca2+  Ca25  1  0.58515259  0.26145084  0.42433472  1
  Ca2+  Ca26  1  0.59113571  0.25678174  0.75049055  1
  Ca2+  Ca27  1  0.58153749  0.75442989  0.06690669  1
  Ca2+  Ca28  1  0.58031627  0.75522933  0.42184443  1
  Ca2+  Ca29  1  0.58069217  0.74531303  0.76459027  1
  Ca2+  Ca30  1  0.93767542  0.25017002  0.06928244  1
  Ca2+  Ca31  1  0.92171522  0.25939289  0.41234973  1
  Ca2+  Ca32  1  0.91770497  0.24830945  0.76028186  1
  Ca2+  Ca33  1  0.91920789  0.76057281  0.07426752  1
  Ca2+  Ca34  1  0.93683426  0.74549709  0.42644144  1
  Ca2+  Ca35  1  0.91524799  0.75603407  0.74873759  1
  Ca2+  Ca36  1  0.59158245  0.60560825  0.06755276  1
  Ca2+  Ca37  1  0.74673403  0.58955892  0.25496727  1
  Ca2+  Ca38  1  0.94799492  0.10686434  0.76818999  1
  Ca2+  Ca39  1  0.74196325  0.58952289  0.60285709  1
  Ca2+  Ca40  1  0.23610633  0.57861513  0.06802742  1
  Ca2+  Ca41  1  0.22967537  0.57303903  0.06602066  1
  Ca2+  Ca42  1  0.56177047  0.08085582  0.05816974  1
  Ca2+  Ca43  1  0.93576258  0.11160915  0.41770571  1
  Ca2+  Ca44  1  0.96135562  0.09081752  0.07319815  1
  Ca2+  Ca45  1  0.58686856  0.60995590  0.75585448  1
  Ca2+  Ca46  1  0.39297747  0.08364391  0.23248537  1
  Ca2+  Ca47  1  0.94426316  0.10937245  0.42314365  1
  Ca2+  Ca48  1  0.41784308  0.60774291  0.91305984  1
  Ca2+  Ca49  1  0.09711160  0.58074008  0.25257378  1
  Ca2+  Ca50  1  0.09921512  0.57516276  0.92510456  1
  Ca2+  Ca51  1  0.58745791  0.60330310  0.42100258  1
  Ca2+  Ca52  1  0.76540721  0.08376176  0.26984625  1
  Ca2+  Ca53  1  0.09291787  0.10492776  0.23832126  1
  Ca2+  Ca54  1  0.08373968  0.60116253  0.57861829  1
  Ca2+  Ca55  1  0.57876608  0.60723182  0.06681162  1
  Ca2+  Ca56  1  0.39818577  0.58457857  0.25655071  1
  Ca2+  Ca57  1  0.75169037  0.09899021  0.58446498  1
  Ca2+  Ca58  1  0.10164633  0.08275333  0.93196910  1
  Ca2+  Ca59  1  0.75937080  0.58809066  0.25361411  1
  Ca2+  Ca60  1  0.94495003  0.59130397  0.41791813  1
  Ca2+  Ca61  1  0.95531011  0.09544975  0.06827974  1
  Ca2+  Ca62  1  0.41894919  0.08539553  0.59816377  1
  Ca2+  Ca63  1  0.21845363  0.59745870  0.40754656  1
  Ca2+  Ca64  1  0.24501089  0.59966170  0.76071807  1
  Ca2+  Ca65  1  0.90146923  0.58731985  0.74185488  1
  Ca2+  Ca66  1  0.20353590  0.10058890  0.41005411  1
  Ca2+  Ca67  1  0.38321547  0.07234863  0.94000699  1
  Ca2+  Ca68  1  0.58829643  0.10172797  0.75873659  1
  Ca2+  Ca69  1  0.20621401  0.09320427  0.75995631  1
  Ca2+  Ca70  1  0.40461865  0.08031744  0.23450659  1
  Ca2+  Ca71  1  0.73100409  0.58936105  0.60329514  1
  Ca2+  Ca72  1  0.40662104  0.90656538  0.58452803  1
  Ca2+  Ca73  1  0.75535324  0.90101459  0.91418096  1
  Ca2+  Ca74  1  0.39451354  0.41403423  0.26664508  1
  Ca2+  Ca75  1  0.92129388  0.41474593  0.38805928  1
  Ca2+  Ca76  1  0.93410829  0.91240322  0.06905867  1
  Ca2+  Ca77  1  0.40605785  0.91892923  0.92555018  1
  Ca2+  Ca78  1  0.08397672  0.41464698  0.92579257  1
  Ca2+  Ca79  1  0.57271136  0.91309672  0.07323111  1
  Ca2+  Ca80  1  0.08410148  0.40950725  0.24260382  1
  Ca2+  Ca81  1  0.74636841  0.41054607  0.61343815  1
  Ca2+  Ca82  1  0.74147580  0.41637636  0.60913760  1
  Ca2+  Ca83  1  0.75968630  0.90546496  0.58627579  1
  Ca2+  Ca84  1  0.23691068  0.94076108  0.04464777  1
  Ca2+  Ca85  1  0.91833717  0.90820197  0.41072114  1
  Ca2+  Ca86  1  0.09388842  0.91165127  0.60214804  1
  Ca2+  Ca87  1  0.41219342  0.39502206  0.91566575  1
  Ca2+  Ca88  1  0.07068260  0.40142960  0.58471155  1
  Ca2+  Ca89  1  0.24172676  0.39990079  0.75852965  1
  Ca2+  Ca90  1  0.40739745  0.91153671  0.25555842  1
  Ca2+  Ca91  1  0.75110429  0.91082329  0.25818655  1
  Ca2+  Ca92  1  0.07949464  0.91472607  0.24749541  1
  Ca2+  Ca93  1  0.39469027  0.90445149  0.58182841  1
  Ca2+  Ca94  1  0.22236491  0.42036255  0.07686454  1
  Ca2+  Ca95  1  0.58353230  0.39254403  0.09144284  1
  Ca2+  Ca96  1  0.56202219  0.91742900  0.07689560  1
  Ca2+  Ca97  1  0.23106331  0.93654643  0.05035615  1
  Ca2+  Ca98  1  0.23660301  0.91356977  0.76867475  1
  Ca2+  Ca99  1  0.40015798  0.39506469  0.91491387  1
  Ca2+  Ca100  1  0.58040206  0.91140074  0.40134042  1
  Ca2+  Ca101  1  0.22476755  0.91634481  0.76871068  1
  Ca2+  Ca102  1  0.09210453  0.91451683  0.24869574  1
  Ca2+  Ca103  1  0.58792592  0.90415674  0.75395092  1
  Ca2+  Ca104  1  0.74678282  0.90549053  0.58687025  1
  Ca2+  Ca105  1  0.93327287  0.40847461  0.09020065  1
  Ca2+  Ca106  1  0.40525109  0.41284439  0.26630464  1
  Ca2+  Ca107  1  0.08334326  0.40074202  0.58440800  1
  Mn3.34+  Mn108  1  0.08315147  0.33491180  0.08197256  1
  Mn3.34+  Mn109  1  0.08698685  0.33578888  0.41541031  1
  Mn3.34+  Mn110  1  0.07704278  0.33495330  0.75814785  1
  Mn3.34+  Mn111  1  0.08700978  0.83480759  0.08526032  1
  Mn3.34+  Mn112  1  0.08429229  0.83470282  0.42033371  1
  Mn3.34+  Mn113  1  0.07669187  0.83292578  0.75017405  1
  Mn3.34+  Mn114  1  0.41246945  0.32645292  0.08652167  1
  Mn3.34+  Mn115  1  0.41638490  0.33630669  0.42378089  1
  Mn3.34+  Mn116  1  0.41895002  0.32983151  0.74350772  1
  Mn3.34+  Mn117  1  0.41017485  0.83808045  0.08795527  1
  Mn3.34+  Mn118  1  0.41155195  0.83300970  0.41550345  1
  Mn3.34+  Mn119  1  0.41460113  0.83736212  0.75543641  1
  Mn3.34+  Mn120  1  0.75426204  0.33515021  0.07926435  1
  Mn3.34+  Mn121  1  0.74968981  0.33550606  0.42012785  1
  Mn3.34+  Mn122  1  0.75319378  0.33873031  0.76047067  1
  Mn3.34+  Mn123  1  0.75175789  0.83552125  0.08691777  1
  Mn3.34+  Mn124  1  0.75040022  0.83068786  0.41920297  1
  Mn3.34+  Mn125  1  0.75518987  0.83343009  0.75576464  1
  Mn3.34+  Mn126  1  0.24758853  0.33393052  0.24476986  1
  Mn3.34+  Mn127  1  0.25424958  0.33165589  0.58189262  1
  Mn3.34+  Mn128  1  0.24291522  0.33084562  0.91669183  1
  Mn3.34+  Mn129  1  0.24922386  0.83130326  0.24439880  1
  Mn3.34+  Mn130  1  0.24556267  0.82896301  0.58191019  1
  Mn3.34+  Mn131  1  0.24837978  0.83181390  0.91924713  1
  Mn3.34+  Mn132  1  0.58579304  0.33463007  0.25300806  1
  Mn3.34+  Mn133  1  0.58230853  0.33154330  0.58403068  1
  Mn3.34+  Mn134  1  0.59010534  0.32950984  0.91333012  1
  Mn3.34+  Mn135  1  0.58169354  0.83093704  0.24570678  1
  Mn3.34+  Mn136  1  0.58332189  0.82919341  0.58304446  1
  Mn3.34+  Mn137  1  0.58314806  0.83433699  0.91361546  1
  Mn3.34+  Mn138  1  0.91688057  0.33698839  0.24580622  1
  Mn3.34+  Mn139  1  0.91348129  0.33047563  0.58114895  1
  Mn3.34+  Mn140  1  0.91550805  0.33445421  0.91557730  1
  Mn3.34+  Mn141  1  0.91592145  0.83289026  0.24734957  1
  Mn3.34+  Mn142  1  0.92024388  0.83253834  0.58349932  1
  Mn3.34+  Mn143  1  0.92022350  0.83498665  0.91291729  1
  Mn3.34+  Mn144  1  0.41387280  0.16324852  0.07984156  1
  Mn3.34+  Mn145  1  0.08313593  0.66305492  0.08662010  1
  Mn3.34+  Mn146  1  0.42488618  0.15835001  0.42332021  1
  Mn3.34+  Mn147  1  0.40797415  0.66777901  0.42194591  1
  Mn3.34+  Mn148  1  0.24774954  0.66689849  0.91509318  1
  Mn3.34+  Mn149  1  0.58284196  0.16706769  0.91216987  1
  Mn3.34+  Mn150  1  0.90922871  0.65807706  0.91894763  1
  Mn3.34+  Mn151  1  0.92557080  0.66302080  0.23988617  1
  Mn3.34+  Mn152  1  0.75638826  0.16592284  0.75531324  1
  Mn3.34+  Mn153  1  0.74642394  0.16489531  0.08018789  1
  Mn3.34+  Mn154  1  0.24850426  0.16778691  0.58712041  1
  Mn3.34+  Mn155  1  0.92250619  0.66454196  0.91819488  1
  Mn3.34+  Mn156  1  0.25016967  0.66654371  0.24044211  1
  Mn3.34+  Mn157  1  0.75343588  0.67394862  0.08636703  1
  Mn3.34+  Mn158  1  0.74801817  0.66785064  0.75061155  1
  Mn3.34+  Mn159  1  0.58094908  0.66879624  0.24714087  1
  Mn3.34+  Mn160  1  0.41218941  0.16455070  0.42032425  1
  Mn3.34+  Mn161  1  0.57682173  0.16730886  0.24824333  1
  Mn3.34+  Mn162  1  0.24517956  0.16386757  0.91540699  1
  Mn3.34+  Mn163  1  0.91658627  0.66857191  0.24361884  1
  Mn3.34+  Mn164  1  0.23758578  0.16375702  0.58571027  1
  Mn3.34+  Mn165  1  0.41856093  0.67116229  0.74778954  1
  Mn3.34+  Mn166  1  0.41047662  0.67328183  0.08850693  1
  Mn3.34+  Mn167  1  0.41643927  0.16278204  0.75480491  1
  Mn3.34+  Mn168  1  0.75202922  0.67089901  0.42266683  1
  Mn3.34+  Mn169  1  0.08138665  0.66539429  0.74995314  1
  Mn3.34+  Mn170  1  0.41788908  0.66228080  0.42326912  1
  Mn3.34+  Mn171  1  0.74642418  0.16704259  0.42148224  1
  Mn3.34+  Mn172  1  0.91848186  0.66632657  0.58132806  1
  Mn3.34+  Mn173  1  0.58432842  0.16986085  0.58433275  1
  Mn3.34+  Mn174  1  0.91585290  0.17052643  0.24593279  1
  Mn3.34+  Mn175  1  0.75543306  0.15928587  0.08387127  1
  Mn3.34+  Mn176  1  0.91689663  0.17158419  0.58815593  1
  Mn3.34+  Mn177  1  0.58985685  0.16109159  0.24647834  1
  Mn3.34+  Mn178  1  0.24992999  0.66678955  0.58453586  1
  Mn3.34+  Mn179  1  0.24608967  0.17281336  0.24683121  1
  Mn3.34+  Mn180  1  0.57905165  0.50156487  0.25041707  1
  Mn3.34+  Mn181  1  0.56610514  0.49955400  0.57382484  1
  Mn3.34+  Mn182  1  0.74394678  0.49656450  0.41434885  1
  Mn3.34+  Mn183  1  0.41676991  0.50171539  0.08827322  1
  Mn3.34+  Mn184  1  0.74937308  0.00005656  0.41365209  1
  Mn3.34+  Mn185  1  0.08227188  0.50204592  0.74560635  1
  Mn3.34+  Mn186  1  0.58471759  0.00203929  0.91730994  1
  Mn3.34+  Mn187  1  0.75592227  0.49708767  0.07974803  1
  Mn3.34+  Mn188  1  0.58521193  -0.00086082  0.24912075  1
  Mn3.34+  Mn189  1  0.40540257  -0.00018485  0.40612148  1
  Mn3.34+  Mn190  1  0.41073207  0.00433295  0.74331765  1
  Mn3.34+  Mn191  1  0.93420051  0.00796349  0.60134956  1
  Mn3.34+  Mn192  1  0.92301597  -0.00519584  0.92929889  1
  Mn3.34+  Mn193  1  0.42323485  0.49812596  0.75561862  1
  Mn3.34+  Mn194  1  0.74995320  0.00014911  0.08148650  1
  Mn3.34+  Mn195  1  0.75423486  0.50240095  0.41741006  1
  Mn3.34+  Mn196  1  0.92039786  0.00092391  0.24843852  1
  Mn3.34+  Mn197  1  0.59356485  0.00666524  0.57544856  1
  Mn3.34+  Mn198  1  0.58702065  0.50061402  0.90468425  1
  Mn3.34+  Mn199  1  0.60041747  0.49467735  0.90711208  1
  Mn3.34+  Mn200  1  0.41271907  0.50339598  0.40998347  1
  Mn3.34+  Mn201  1  0.40917353  0.50315033  0.75315145  1
  Mn3.34+  Mn202  1  0.92758538  0.00106672  0.59759889  1
  Mn3.34+  Mn203  1  0.55844120  0.49274080  0.57501160  1
  Mn3.34+  Mn204  1  0.26332621  0.49496456  0.57619939  1
  Mn3.34+  Mn205  1  0.92294944  0.49434627  0.91518235  1
  Mn3.34+  Mn206  1  0.24021501  0.00234965  0.23967442  1
  Mn3.34+  Mn207  1  0.08849288  0.49609854  0.39902223  1
  Mn3.34+  Mn208  1  0.08503185  -0.00586264  0.41676348  1
  Mn3.34+  Mn209  1  0.92172595  0.49985889  0.57821629  1
  Mn3.34+  Mn210  1  0.42734023  0.49730957  0.08938193  1
  Mn3.34+  Mn211  1  0.24175606  0.00128298  0.58795490  1
  Mn3.34+  Mn212  1  0.75517239  0.00106829  0.75080094  1
  Mn3.34+  Mn213  1  0.76823174  0.50098545  0.08251515  1
  Mn3.34+  Mn214  1  0.57975612  0.00023526  0.57372921  1
  Mn3.34+  Mn215  1  0.25132289  0.50232123  0.57704557  1
  O2-  O216  1  0.01210671  0.15564818  -0.00838592  1
  O2-  O217  1  0.00157039  0.16244023  0.32176879  1
  O2-  O218  1  -0.00418931  0.16976540  0.66370080  1
  O2-  O219  1  0.00346383  0.65627204  -0.00090513  1
  O2-  O220  1  0.00623579  0.64363848  0.31723916  1
  O2-  O221  1  -0.00477874  0.64573608  0.66916851  1
  O2-  O222  1  0.33576546  0.16793634  -0.00031775  1
  O2-  O223  1  0.33345315  0.14314538  0.33870543  1
  O2-  O224  1  0.32369595  0.14066115  0.66926708  1
  O2-  O225  1  0.32277995  0.65170654  0.01355871  1
  O2-  O226  1  0.32770881  0.65347418  0.33898531  1
  O2-  O227  1  0.32580306  0.67176783  0.67256455  1
  O2-  O228  1  0.66481305  0.14783697  0.00168985  1
  O2-  O229  1  0.67243081  0.15906292  0.32753303  1
  O2-  O230  1  0.66678824  0.15649368  0.66292967  1
  O2-  O231  1  0.66729824  0.67342794  0.01225548  1
  O2-  O232  1  0.67359846  0.65479779  0.33097852  1
  O2-  O233  1  0.67087444  0.66884223  0.66406268  1
  O2-  O234  1  0.16969652  0.16102776  -0.00667585  1
  O2-  O235  1  0.16837345  0.17206503  0.32797325  1
  O2-  O236  1  0.16093099  0.16992776  0.66705680  1
  O2-  O237  1  0.16375049  0.65677195  0.00127493  1
  O2-  O238  1  0.16956630  0.66536977  0.31882590  1
  O2-  O239  1  0.16642705  0.65365733  0.66944776  1
  O2-  O240  1  0.49593890  0.16347939  -0.00348519  1
  O2-  O241  1  0.49270549  0.13651170  0.32529090  1
  O2-  O242  1  0.49911241  0.14871865  0.66692310  1
  O2-  O243  1  0.48840997  0.66560885  0.00388657  1
  O2-  O244  1  0.49323554  0.64647225  0.32875271  1
  O2-  O245  1  0.50278648  0.67244805  0.67493826  1
  O2-  O246  1  0.84530185  0.14684999  0.01643775  1
  O2-  O247  1  0.83951374  0.15659759  0.34167120  1
  O2-  O248  1  0.83337144  0.14989885  0.66626194  1
  O2-  O249  1  0.83303125  0.67146602  0.00383692  1
  O2-  O250  1  0.83547062  0.65233866  0.33880750  1
  O2-  O251  1  0.83177212  0.65576516  0.66125381  1
  O2-  O252  1  0.00016680  0.34732973  0.00105205  1
  O2-  O253  1  0.00095930  0.33698255  0.33680116  1
  O2-  O254  1  0.00392803  0.33583628  0.66214010  1
  O2-  O255  1  0.00387625  0.83138179  0.00350774  1
  O2-  O256  1  0.00318959  0.85345925  0.32939918  1
  O2-  O257  1  0.00793099  0.84334530  0.65589494  1
  O2-  O258  1  0.33006352  0.34174174  0.00356988  1
  O2-  O259  1  0.33023314  0.34204894  0.33318229  1
  O2-  O260  1  0.32890857  0.35024216  0.66919921  1
  O2-  O261  1  0.33048387  0.84707464  0.00417202  1
  O2-  O262  1  0.33193599  0.83166002  0.32441857  1
  O2-  O263  1  0.32921631  0.84589576  0.67171133  1
  O2-  O264  1  0.66114717  0.34052139  0.00458207  1
  O2-  O265  1  0.67108198  0.32051156  0.33963157  1
  O2-  O266  1  0.66944725  0.33683997  0.66377732  1
  O2-  O267  1  0.66166664  0.84815735  0.00532123  1
  O2-  O268  1  0.66764187  0.83983649  0.33453164  1
  O2-  O269  1  0.66764526  0.84192128  0.66538213  1
  O2-  O270  1  0.16445987  0.34858797  -0.00269498  1
  O2-  O271  1  0.16071866  0.33559528  0.32527868  1
  O2-  O272  1  0.16119230  0.34018068  0.66634456  1
  O2-  O273  1  0.17235984  0.83815922  0.00778614  1
  O2-  O274  1  0.16211596  0.84272740  0.32581425  1
  O2-  O275  1  0.17336807  0.83582146  0.67225444  1
  O2-  O276  1  0.49269423  0.33993409  -0.00021542  1
  O2-  O277  1  0.49065277  0.34375123  0.32531466  1
  O2-  O278  1  0.50260641  0.34178310  0.66808469  1
  O2-  O279  1  0.49699083  0.84576207  0.00032576  1
  O2-  O280  1  0.49736772  0.84972054  0.32849023  1
  O2-  O281  1  0.49601250  0.84951406  0.66340109  1
  O2-  O282  1  0.83901165  0.35126825  0.00511106  1
  O2-  O283  1  0.83622763  0.33702999  0.33800452  1
  O2-  O284  1  0.83083001  0.34603777  0.65933888  1
  O2-  O285  1  0.83655356  0.84038780  0.00673753  1
  O2-  O286  1  0.83183194  0.84235292  0.33331187  1
  O2-  O287  1  0.83354433  0.84684253  0.66635318  1
  O2-  O288  1  -0.01240781  0.17379832  0.16046614  1
  O2-  O289  1  -0.01045866  0.18474354  0.49733164  1
  O2-  O290  1  0.01702643  0.17962706  0.82463434  1
  O2-  O291  1  0.00148482  0.69529496  0.15649056  1
  O2-  O292  1  -0.00070506  0.67132436  0.50464800  1
  O2-  O293  1  -0.00275425  0.67739284  0.83157204  1
  O2-  O294  1  0.34716635  0.17487166  0.17610173  1
  O2-  O295  1  0.33349752  0.17810786  0.51080441  1
  O2-  O296  1  0.33450246  0.17720437  0.83145459  1
  O2-  O297  1  0.34042637  0.69328468  0.17537192  1
  O2-  O298  1  0.33069539  0.69429477  0.50342828  1
  O2-  O299  1  0.33348935  0.67892161  0.83919619  1
  O2-  O300  1  0.66399747  0.18481204  0.15721733  1
  O2-  O301  1  0.66764491  0.18920844  0.50139796  1
  O2-  O302  1  0.66487981  0.17976149  0.83025892  1
  O2-  O303  1  0.67231634  0.68512568  0.16928374  1
  O2-  O304  1  0.67032035  0.69313030  0.48946567  1
  O2-  O305  1  0.66718456  0.67790978  0.82327240  1
  O2-  O306  1  0.16687162  0.18091951  0.17273212  1
  O2-  O307  1  0.17136155  0.18574742  0.49765937  1
  O2-  O308  1  0.17072513  0.17941087  0.83355394  1
  O2-  O309  1  0.16896088  0.69027800  0.15910546  1
  O2-  O310  1  0.16867025  0.68110780  0.51015024  1
  O2-  O311  1  0.16676290  0.68245387  0.83279897  1
  O2-  O312  1  0.50379961  0.18195382  0.15928013  1
  O2-  O313  1  0.49622813  0.18435630  0.50548446  1
  O2-  O314  1  0.50540473  0.18392827  0.82538232  1
  O2-  O315  1  0.50794577  0.68570314  0.15404620  1
  O2-  O316  1  0.50321401  0.68143907  0.49440892  1
  O2-  O317  1  0.49345466  0.67521338  0.83056863  1
  O2-  O318  1  0.81712627  0.17886370  0.17922287  1
  O2-  O319  1  0.83295621  0.18201643  0.49639756  1
  O2-  O320  1  0.83939951  0.17428861  0.82471549  1
  O2-  O321  1  0.82863794  0.68883399  0.17420145  1
  O2-  O322  1  0.83575463  0.68628822  0.50088250  1
  O2-  O323  1  0.83579846  0.67385991  0.83145882  1
  O2-  O324  1  0.00150146  0.32234638  0.16672472  1
  O2-  O325  1  0.00329143  0.31915866  0.50193654  1
  O2-  O326  1  0.00337993  0.31201721  0.83729176  1
  O2-  O327  1  0.00376294  0.82373418  0.16612877  1
  O2-  O328  1  -0.00717827  0.82391791  0.49349273  1
  O2-  O329  1  -0.00254805  0.81852044  0.82908307  1
  O2-  O330  1  0.33870052  0.31945188  0.17240238  1
  O2-  O331  1  0.33241947  0.31412154  0.49887325  1
  O2-  O332  1  0.33484387  0.32158207  0.83761293  1
  O2-  O333  1  0.33226811  0.81116806  0.16435143  1
  O2-  O334  1  0.33889916  0.81800120  0.51300563  1
  O2-  O335  1  0.32969946  0.82610818  0.83481881  1
  O2-  O336  1  0.66459638  0.31896374  0.16549505  1
  O2-  O337  1  0.67342670  0.31563374  0.50749139  1
  O2-  O338  1  0.66929855  0.31780146  0.83492442  1
  O2-  O339  1  0.66499376  0.81250524  0.16103734  1
  O2-  O340  1  0.67043598  0.81363740  0.50552816  1
  O2-  O341  1  0.66514759  0.82106862  0.83048201  1
  O2-  O342  1  0.16791533  0.32336213  0.16414744  1
  O2-  O343  1  0.16017457  0.31562933  0.50449872  1
  O2-  O344  1  0.16968895  0.31959197  0.82849457  1
  O2-  O345  1  0.16291582  0.80788732  0.16968724  1
  O2-  O346  1  0.16068023  0.81376192  0.50697661  1
  O2-  O347  1  0.16947118  0.82121588  0.83197393  1
  O2-  O348  1  0.50142579  0.31029560  0.15638467  1
  O2-  O349  1  0.50086287  0.31968144  0.50127788  1
  O2-  O350  1  0.49112676  0.32194232  0.84193100  1
  O2-  O351  1  0.50021960  0.81381424  0.15672089  1
  O2-  O352  1  0.50008584  0.81718720  0.50549879  1
  O2-  O353  1  0.50128873  0.82803215  0.82992884  1
  O2-  O354  1  0.83972675  0.32521888  0.15961701  1
  O2-  O355  1  0.83576061  0.31651859  0.49833775  1
  O2-  O356  1  0.83563702  0.32135628  0.83275781  1
  O2-  O357  1  0.83123446  0.81170765  0.16848966  1
  O2-  O358  1  0.82888040  0.82033582  0.50510644  1
  O2-  O359  1  0.82513644  0.81975081  0.84393359  1
  O2-  O360  1  0.05708258  0.05289247  0.13700838  1
  O2-  O361  1  0.06870740  0.07522806  0.43695323  1
  O2-  O362  1  0.07786400  0.07890930  0.79779637  1
  O2-  O363  1  0.09870362  0.58325746  0.11947561  1
  O2-  O364  1  0.08841458  0.56475238  0.45328395  1
  O2-  O365  1  0.08954495  0.58103481  0.78342629  1
  O2-  O366  1  0.42801654  0.07739407  0.10394484  1
  O2-  O367  1  0.41189073  0.07931196  0.45974757  1
  O2-  O368  1  0.42554344  0.08153015  0.78708148  1
  O2-  O369  1  0.43265192  0.58285844  0.11827303  1
  O2-  O370  1  0.40928197  0.58111323  0.45653797  1
  O2-  O371  1  0.40491496  0.58454768  0.77564874  1
  O2-  O372  1  0.74170504  0.07822697  0.12799353  1
  O2-  O373  1  0.76350998  0.07887150  0.44453195  1
  O2-  O374  1  0.73634917  0.08077808  0.76886699  1
  O2-  O375  1  0.73581566  0.58209487  0.12018735  1
  O2-  O376  1  0.73904233  0.58118401  0.46302408  1
  O2-  O377  1  0.74720480  0.58392485  0.74503645  1
  O2-  O378  1  0.25229366  0.08567863  0.22742806  1
  O2-  O379  1  0.24007764  0.08169812  0.54682304  1
  O2-  O380  1  0.25065339  0.08318308  0.89165601  1
  O2-  O381  1  0.26298460  0.58316315  0.20091848  1
  O2-  O382  1  0.25341974  0.58002117  0.54077995  1
  O2-  O383  1  0.24746145  0.58543049  0.89692676  1
  O2-  O384  1  0.57532009  0.08177388  0.20851139  1
  O2-  O385  1  0.58667486  0.08668945  0.55021955  1
  O2-  O386  1  0.57150586  0.08259614  0.89676464  1
  O2-  O387  1  0.59293671  0.58367304  0.20189092  1
  O2-  O388  1  0.59984425  0.57883882  0.54908937  1
  O2-  O389  1  0.57954095  0.58057212  0.89100880  1
  O2-  O390  1  0.90538756  0.08292425  0.22598365  1
  O2-  O391  1  0.90922358  0.08327842  0.55097686  1
  O2-  O392  1  0.93172520  0.06499883  0.89214669  1
  O2-  O393  1  0.89321540  0.58502937  0.21040538  1
  O2-  O394  1  0.90726351  0.58125151  0.55360461  1
  O2-  O395  1  0.91866458  0.57646045  0.88092493  1
  O2-  O396  1  0.07927013  0.41817544  0.10767218  1
  O2-  O397  1  0.07278596  0.42571219  0.45151893  1
  O2-  O398  1  0.09545057  0.42288148  0.77776346  1
  O2-  O399  1  0.10322875  0.91909990  0.11453388  1
  O2-  O400  1  0.08073801  0.91790514  0.45906326  1
  O2-  O401  1  0.09455251  0.91238912  0.76156010  1
  O2-  O402  1  0.42266870  0.41615727  0.11436514  1
  O2-  O403  1  0.41542182  0.42356806  0.41906395  1
  O2-  O404  1  0.41222657  0.41779142  0.78242847  1
  O2-  O405  1  0.43264841  0.92078322  0.12290082  1
  O2-  O406  1  0.42764935  0.92027826  0.45310149  1
  O2-  O407  1  0.40770910  0.92126191  0.77911342  1
  O2-  O408  1  0.73318391  0.41897031  0.11216540  1
  O2-  O409  1  0.75972029  0.42060529  0.46165146  1
  O2-  O410  1  0.74668454  0.41836406  0.75091711  1
  O2-  O411  1  0.74617746  0.92194966  0.11984283  1
  O2-  O412  1  0.74114694  0.92055644  0.45195945  1
  O2-  O413  1  0.74158054  0.91876948  0.77735238  1
  O2-  O414  1  0.26392441  0.41598541  0.21702839  1
  O2-  O415  1  0.22380959  0.41688860  0.55593182  1
  O2-  O416  1  0.26597143  0.41474482  0.89354045  1
  O2-  O417  1  0.23817661  0.92068334  0.20749431  1
  O2-  O418  1  0.25430781  0.91905302  0.56106744  1
  O2-  O419  1  0.24611314  0.91611376  0.90228912  1
  O2-  O420  1  0.55143226  0.42047422  0.22119339  1
  O2-  O421  1  0.59962677  0.41437397  0.55490062  1
  O2-  O422  1  0.57362024  0.41462793  0.89956932  1
  O2-  O423  1  0.59067385  0.91555526  0.21083282  1
  O2-  O424  1  0.60263243  0.91939479  0.54547441  1
  O2-  O425  1  0.59555071  0.92080828  0.88982710  1
  O2-  O426  1  0.93254161  0.41689092  0.23724829  1
  O2-  O427  1  0.93055009  0.41710858  0.55290513  1
  O2-  O428  1  0.93348130  0.41851288  0.88624703  1
  O2-  O429  1  0.92334017  0.92150998  0.20822892  1
  O2-  O430  1  0.89803247  0.92308080  0.54883253  1
  O2-  O431  1  0.90241761  0.92007390  0.89746479  1
  O2-  O432  1  -0.00062815  -0.00429437  0.00390565  1
  O2-  O433  1  0.00123506  -0.01828588  0.33161343  1
  O2-  O434  1  0.02655568  -0.00414477  0.66322790  1
  O2-  O435  1  0.01868147  0.50012671  -0.03613982  1
  O2-  O436  1  0.00137345  0.50521048  0.34044020  1
  O2-  O437  1  0.01960155  0.50005035  0.64026986  1
  O2-  O438  1  0.33508965  -0.01308904  -0.00347367  1
  O2-  O439  1  0.34499369  0.00061318  0.29565506  1
  O2-  O440  1  0.35675542  -0.00405099  0.62782271  1
  O2-  O441  1  0.33588853  0.50443909  0.00695954  1
  O2-  O442  1  0.34615418  0.50220346  0.31989269  1
  O2-  O443  1  0.33725341  0.49717738  0.66531085  1
  O2-  O444  1  0.64482004  -0.00498662  0.02912133  1
  O2-  O445  1  0.67855097  -0.00783265  0.32020139  1
  O2-  O446  1  0.66582092  -0.01234995  0.66711437  1
  O2-  O447  1  0.66466040  0.51613728  0.00485256  1
  O2-  O448  1  0.67328736  0.52289183  0.32472666  1
  O2-  O449  1  0.66822805  0.50068144  0.63827217  1
  O2-  O450  1  0.17199995  0.01373626  0.00140400  1
  O2-  O451  1  0.15573174  0.00055368  0.31893016  1
  O2-  O452  1  0.20367166  -0.00429234  0.69834873  1
  O2-  O453  1  0.17193363  0.50365847  0.01325539  1
  O2-  O454  1  0.16468578  0.50940554  0.32710820  1
  O2-  O455  1  0.17798549  0.50459638  0.67087548  1
  O2-  O456  1  0.49663104  -0.01145916  -0.01487182  1
  O2-  O457  1  0.49752486  -0.00757807  0.32528835  1
  O2-  O458  1  0.50497974  -0.00235604  0.66408636  1
  O2-  O459  1  0.50566795  0.50660412  -0.00210019  1
  O2-  O460  1  0.50171965  0.51898033  0.34103129  1
  O2-  O461  1  0.50534308  0.51461492  0.67719473  1
  O2-  O462  1  0.84285353  -0.00046516  0.01079331  1
  O2-  O463  1  0.83805559  -0.00884795  0.33488945  1
  O2-  O464  1  0.81759083  -0.00264813  0.64455774  1
  O2-  O465  1  0.85179284  0.49607808  0.00485806  1
  O2-  O466  1  0.83725842  0.52021590  0.33983068  1
  O2-  O467  1  0.81441377  0.50110858  0.61586897  1
  O2-  O468  1  0.57481736  0.24961665  0.61135525  1
  O2-  O469  1  0.26472602  0.25149741  0.27135185  1
  O2-  O470  1  0.08231573  0.25506878  0.06552422  1
  O2-  O471  1  0.92921701  0.74644595  0.28427000  1
  O2-  O472  1  0.57175131  0.24506343  0.27936988  1
  O2-  O473  1  0.26570537  0.24928624  0.61672292  1
  O2-  O474  1  0.41362298  0.75581154  0.73843701  1
  O2-  O475  1  0.40816094  0.24646047  0.72610978  1
  O2-  O476  1  0.42717507  0.74702661  0.38699315  1
  O2-  O477  1  0.25282734  0.74994650  0.93897976  1
  O2-  O478  1  0.76354476  0.75251170  0.73152818  1
  O2-  O479  1  0.91027785  0.25512312  0.93565365  1
  O2-  O480  1  0.75328793  0.24940224  0.73308857  1
  O2-  O481  1  0.92071043  0.74807815  0.93163924  1
  O2-  O482  1  0.91280141  0.25116557  0.26789697  1
  O2-  O483  1  0.42298587  0.24356548  0.38908578  1
  O2-  O484  1  0.92254186  0.74837660  0.60841664  1
  O2-  O485  1  0.25266217  0.25089833  0.93487364  1
  O2-  O486  1  0.75200561  0.24828389  0.05458377  1
  O2-  O487  1  0.90336567  0.25156060  0.61238999  1
  O2-  O488  1  0.58513635  0.24874337  0.93782117  1
  O2-  O489  1  0.57830332  0.74911528  0.28157687  1
  O2-  O490  1  0.57954291  0.75577871  0.92795012  1
  O2-  O491  1  0.07640384  0.74688692  0.72564043  1
  O2-  O492  1  0.07825450  0.75566711  0.39754493  1
