# generated using pymatgen
data_Ca108Mn108O277
_symmetry_space_group_name_H-M   'P 1'
_cell_length_a   16.02934071
_cell_length_b   22.30957192
_cell_length_c   16.39220085
_cell_angle_alpha   89.99960183
_cell_angle_beta   89.99505735
_cell_angle_gamma   90.00474663
_symmetry_Int_Tables_number   1
_chemical_formula_structural   Ca108Mn108O277
_chemical_formula_sum   'Ca108 Mn108 O277'
_cell_volume   5861.97768324
_cell_formula_units_Z   1
loop_
 _symmetry_equiv_pos_site_id
 _symmetry_equiv_pos_as_xyz
  1  'x, y, z'
loop_
 _atom_type_symbol
 _atom_type_oxidation_number
  Ca2+  2.0
  Mn3.34+  3.34
  O2-  -2.0
loop_
 _atom_site_type_symbol
 _atom_site_label
 _atom_site_symmetry_multiplicity
 _atom_site_fract_x
 _atom_site_fract_y
 _atom_site_fract_z
 _atom_site_occupancy
  Ca2+  Ca0  1  0.07670289  0.25127703  0.24894604  1
  Ca2+  Ca1  1  0.08585670  0.23623409  0.59366104  1
  Ca2+  Ca2  1  0.07156278  0.24011337  0.90526940  1
  Ca2+  Ca3  1  0.09432956  0.75594736  0.23877154  1
  Ca2+  Ca4  1  0.08070313  0.74682861  0.57093351  1
  Ca2+  Ca5  1  0.08133463  0.76035310  0.92865370  1
  Ca2+  Ca6  1  0.42535241  0.25169958  0.24316475  1
  Ca2+  Ca7  1  0.41457478  0.24466776  0.60628327  1
  Ca2+  Ca8  1  0.41046732  0.23839010  0.89068696  1
  Ca2+  Ca9  1  0.40908498  0.75177611  0.23420247  1
  Ca2+  Ca10  1  0.43718354  0.74882937  0.59097338  1
  Ca2+  Ca11  1  0.40867014  0.76307307  0.92780626  1
  Ca2+  Ca12  1  0.74543833  0.25199720  0.23358378  1
  Ca2+  Ca13  1  0.75307898  0.24688746  0.58990496  1
  Ca2+  Ca14  1  0.76170503  0.25246111  0.91455215  1
  Ca2+  Ca15  1  0.73867946  0.75580670  0.25284644  1
  Ca2+  Ca16  1  0.73594568  0.75263570  0.57975342  1
  Ca2+  Ca17  1  0.78333551  0.74849173  0.91201466  1
  Ca2+  Ca18  1  0.24894778  0.24459405  0.06617924  1
  Ca2+  Ca19  1  0.24323746  0.25029974  0.42979787  1
  Ca2+  Ca20  1  0.25968752  0.23111612  0.74777021  1
  Ca2+  Ca21  1  0.23728181  0.75897756  0.09258642  1
  Ca2+  Ca22  1  0.22083974  0.73926939  0.39208567  1
  Ca2+  Ca23  1  0.23816094  0.75944149  0.75821118  1
  Ca2+  Ca24  1  0.59330536  0.25554476  0.07979812  1
  Ca2+  Ca25  1  0.59643730  0.25009688  0.41367083  1
  Ca2+  Ca26  1  0.56770421  0.24448708  0.75018832  1
  Ca2+  Ca27  1  0.56842126  0.75556888  0.09944213  1
  Ca2+  Ca28  1  0.58745074  0.76306415  0.41284146  1
  Ca2+  Ca29  1  0.57873346  0.76398048  0.73953430  1
  Ca2+  Ca30  1  0.90964883  0.23770918  0.05759871  1
  Ca2+  Ca31  1  0.91724500  0.25601824  0.42436926  1
  Ca2+  Ca32  1  0.91974823  0.24062721  0.76598071  1
  Ca2+  Ca33  1  0.94873864  0.74527279  0.07114029  1
  Ca2+  Ca34  1  0.94276520  0.75130299  0.41359268  1
  Ca2+  Ca35  1  0.93429889  0.75589409  0.76495517  1
  Ca2+  Ca36  1  0.42302107  0.61858314  0.23162464  1
  Ca2+  Ca37  1  0.76469389  0.59573514  0.91691505  1
  Ca2+  Ca38  1  0.57328312  0.58425499  0.72954722  1
  Ca2+  Ca39  1  0.74617212  0.08941857  0.24633340  1
  Ca2+  Ca40  1  0.06996911  0.61477356  0.92026063  1
  Ca2+  Ca41  1  0.41535207  0.08137561  0.24452892  1
  Ca2+  Ca42  1  0.92200637  0.60461516  0.75520807  1
  Ca2+  Ca43  1  0.74697132  0.09522695  0.58556457  1
  Ca2+  Ca44  1  0.72475275  0.58952287  0.59014769  1
  Ca2+  Ca45  1  0.74234563  0.57851711  0.25708240  1
  Ca2+  Ca46  1  0.73725594  0.58946167  0.59181953  1
  Ca2+  Ca47  1  0.27066644  0.61886755  0.09953520  1
  Ca2+  Ca48  1  0.40873372  0.09035136  0.61654229  1
  Ca2+  Ca49  1  0.92967987  0.09277838  0.42351716  1
  Ca2+  Ca50  1  0.24683419  0.08139766  0.06144965  1
  Ca2+  Ca51  1  0.22541035  0.60112363  0.40648771  1
  Ca2+  Ca52  1  0.92787562  0.09522468  0.74763421  1
  Ca2+  Ca53  1  0.07823441  0.60960028  0.92438989  1
  Ca2+  Ca54  1  0.09081730  0.61537868  0.23575564  1
  Ca2+  Ca55  1  0.93701876  0.59954342  0.08548476  1
  Ca2+  Ca56  1  0.03993196  0.09426320  0.91515695  1
  Ca2+  Ca57  1  0.91248982  0.60155947  0.75243234  1
  Ca2+  Ca58  1  0.55772618  0.61151121  0.10263387  1
  Ca2+  Ca59  1  0.42806731  0.08075939  0.24519703  1
  Ca2+  Ca60  1  0.73331733  0.08968876  0.24564754  1
  Ca2+  Ca61  1  0.09800649  0.59907931  0.57945277  1
  Ca2+  Ca62  1  0.39769602  0.56952420  0.61014150  1
  Ca2+  Ca63  1  0.08186899  0.61213274  0.23854875  1
  Ca2+  Ca64  1  0.79576653  0.09000629  0.91543890  1
  Ca2+  Ca65  1  0.58015144  0.59379754  0.40770446  1
  Ca2+  Ca66  1  0.55946678  0.09314065  0.74394949  1
  Ca2+  Ca67  1  0.94122720  0.60059946  0.41411628  1
  Ca2+  Ca68  1  0.26103779  0.62127178  0.10201165  1
  Ca2+  Ca69  1  0.78802497  0.09144221  0.92209339  1
  Ca2+  Ca70  1  0.41116028  0.58754809  0.93328685  1
  Ca2+  Ca71  1  0.23954839  0.08678084  0.42470699  1
  Ca2+  Ca72  1  0.56593802  0.41383012  0.74476973  1
  Ca2+  Ca73  1  0.58516780  0.40327000  0.41187033  1
  Ca2+  Ca74  1  0.75108595  0.90320414  0.24152263  1
  Ca2+  Ca75  1  0.57853789  0.41355124  0.74545090  1
  Ca2+  Ca76  1  0.91897072  0.90537429  0.41145362  1
  Ca2+  Ca77  1  0.42884124  0.40746238  0.91504355  1
  Ca2+  Ca78  1  0.74961486  0.40826218  0.58217399  1
  Ca2+  Ca79  1  0.75917992  0.91310692  0.92803845  1
  Ca2+  Ca80  1  0.25020666  0.91957839  0.39303154  1
  Ca2+  Ca81  1  0.41716735  0.90401238  0.24851448  1
  Ca2+  Ca82  1  0.06643042  0.41020205  0.25092351  1
  Ca2+  Ca83  1  0.09196409  0.40524825  0.58432410  1
  Ca2+  Ca84  1  0.08763835  0.90616084  0.58236570  1
  Ca2+  Ca85  1  0.10399200  0.40697978  0.58387945  1
  Ca2+  Ca86  1  0.08097292  0.91422501  0.92023802  1
  Ca2+  Ca87  1  0.92210651  0.39958525  0.75156788  1
  Ca2+  Ca88  1  0.43110186  0.91024543  0.59879677  1
  Ca2+  Ca89  1  0.75135343  0.40723040  0.24961543  1
  Ca2+  Ca90  1  0.25170574  0.39923395  0.08620506  1
  Ca2+  Ca91  1  0.42088676  0.40006535  0.25347647  1
  Ca2+  Ca92  1  0.07643998  0.90622590  0.58180886  1
  Ca2+  Ca93  1  0.08465437  0.39463914  0.91379697  1
  Ca2+  Ca94  1  0.25651498  0.39568403  0.41940446  1
  Ca2+  Ca95  1  0.91702026  0.39997701  0.08601038  1
  Ca2+  Ca96  1  0.41975626  0.91007479  0.59862316  1
  Ca2+  Ca97  1  0.26870031  0.42620279  0.71485161  1
  Ca2+  Ca98  1  0.58408456  0.91121855  0.06615201  1
  Ca2+  Ca99  1  0.26107729  0.91928086  0.39199859  1
  Ca2+  Ca100  1  0.76196040  0.40929019  0.58102281  1
  Ca2+  Ca101  1  0.76250437  0.40794540  0.25067036  1
  Ca2+  Ca102  1  0.92349925  0.91161767  0.75588628  1
  Ca2+  Ca103  1  0.42092204  0.40184385  0.91443365  1
  Ca2+  Ca104  1  0.07886310  0.40732465  0.25069690  1
  Ca2+  Ca105  1  0.74671442  0.90110867  0.58651521  1
  Ca2+  Ca106  1  0.74937066  0.91007388  0.92852906  1
  Ca2+  Ca107  1  0.24234315  0.91538238  0.09676727  1
  Mn3.34+  Mn108  1  0.08363126  0.32610786  0.08187885  1
  Mn3.34+  Mn109  1  0.08226815  0.32470174  0.41973726  1
  Mn3.34+  Mn110  1  0.08822061  0.33122437  0.75177142  1
  Mn3.34+  Mn111  1  0.07881204  0.84150808  0.08692420  1
  Mn3.34+  Mn112  1  0.08343365  0.83510962  0.41045063  1
  Mn3.34+  Mn113  1  0.08777172  0.83774827  0.75434273  1
  Mn3.34+  Mn114  1  0.41880073  0.33299537  0.08397978  1
  Mn3.34+  Mn115  1  0.41892906  0.32549023  0.41975984  1
  Mn3.34+  Mn116  1  0.41360452  0.33444573  0.74783888  1
  Mn3.34+  Mn117  1  0.41489273  0.84406739  0.08211235  1
  Mn3.34+  Mn118  1  0.41652392  0.83235019  0.42023058  1
  Mn3.34+  Mn119  1  0.41398926  0.83404475  0.75951267  1
  Mn3.34+  Mn120  1  0.74894047  0.33768000  0.07610384  1
  Mn3.34+  Mn121  1  0.75484675  0.33338368  0.42027512  1
  Mn3.34+  Mn122  1  0.74830028  0.33286242  0.75305952  1
  Mn3.34+  Mn123  1  0.75393584  0.83240666  0.08740189  1
  Mn3.34+  Mn124  1  0.74980190  0.83630355  0.41582547  1
  Mn3.34+  Mn125  1  0.75022343  0.83110238  0.75243493  1
  Mn3.34+  Mn126  1  0.25030462  0.32383325  0.24616258  1
  Mn3.34+  Mn127  1  0.25713997  0.33056174  0.58341154  1
  Mn3.34+  Mn128  1  0.24911712  0.32891891  0.91189902  1
  Mn3.34+  Mn129  1  0.24933903  0.83618593  0.24600093  1
  Mn3.34+  Mn130  1  0.25346391  0.83164340  0.57726968  1
  Mn3.34+  Mn131  1  0.24867842  0.83922135  0.91817723  1
  Mn3.34+  Mn132  1  0.58379951  0.33154794  0.24599278  1
  Mn3.34+  Mn133  1  0.58099613  0.32945842  0.57901253  1
  Mn3.34+  Mn134  1  0.58962157  0.33219487  0.91564713  1
  Mn3.34+  Mn135  1  0.58144447  0.83158579  0.25164256  1
  Mn3.34+  Mn136  1  0.58496615  0.83164143  0.58181718  1
  Mn3.34+  Mn137  1  0.58460164  0.83436002  0.91271137  1
  Mn3.34+  Mn138  1  0.91732827  0.32965409  0.24781702  1
  Mn3.34+  Mn139  1  0.91953008  0.33002583  0.58431458  1
  Mn3.34+  Mn140  1  0.91510026  0.32925751  0.91450815  1
  Mn3.34+  Mn141  1  0.91689688  0.83253998  0.24503136  1
  Mn3.34+  Mn142  1  0.91387744  0.83152646  0.58386088  1
  Mn3.34+  Mn143  1  0.91994921  0.83620418  0.91822263  1
  Mn3.34+  Mn144  1  0.58216105  0.16790361  0.24549824  1
  Mn3.34+  Mn145  1  0.59059237  0.66937318  0.91194987  1
  Mn3.34+  Mn146  1  0.58543635  0.15982774  0.91841756  1
  Mn3.34+  Mn147  1  0.91717645  0.16451684  0.24617374  1
  Mn3.34+  Mn148  1  0.75203134  0.16741508  0.42107888  1
  Mn3.34+  Mn149  1  0.74726923  0.66450490  0.08954903  1
  Mn3.34+  Mn150  1  0.41774798  0.67684465  0.42097202  1
  Mn3.34+  Mn151  1  0.25070804  0.16091472  0.90909891  1
  Mn3.34+  Mn152  1  0.40302810  0.66533367  0.75054279  1
  Mn3.34+  Mn153  1  0.41477208  0.17149480  0.42153438  1
  Mn3.34+  Mn154  1  0.09165124  0.66974457  0.74619414  1
  Mn3.34+  Mn155  1  0.24186154  0.15869535  0.24217212  1
  Mn3.34+  Mn156  1  0.74764568  0.66155532  0.41623021  1
  Mn3.34+  Mn157  1  0.74821296  0.16858481  0.75027667  1
  Mn3.34+  Mn158  1  0.58627508  0.16792651  0.58113740  1
  Mn3.34+  Mn159  1  0.92123539  0.66876866  0.57906612  1
  Mn3.34+  Mn160  1  0.91912676  0.16792701  0.58477663  1
  Mn3.34+  Mn161  1  0.93107415  0.15798089  0.24499950  1
  Mn3.34+  Mn162  1  0.23027814  0.15742654  0.24270558  1
  Mn3.34+  Mn163  1  0.42463025  0.16632161  0.42365537  1
  Mn3.34+  Mn164  1  0.40990725  0.67068141  0.42379455  1
  Mn3.34+  Mn165  1  0.08448746  0.16521456  0.42286020  1
  Mn3.34+  Mn166  1  0.58131438  0.66358745  0.91025199  1
  Mn3.34+  Mn167  1  0.76100016  0.66817614  0.41356806  1
  Mn3.34+  Mn168  1  0.57583118  0.15431817  0.91782219  1
  Mn3.34+  Mn169  1  0.75788585  0.67185471  0.08741267  1
  Mn3.34+  Mn170  1  0.41292992  0.66008404  0.75013991  1
  Mn3.34+  Mn171  1  0.24791146  0.16500168  0.58922712  1
  Mn3.34+  Mn172  1  0.74997677  0.67169967  0.74820521  1
  Mn3.34+  Mn173  1  0.08121049  0.15855554  0.08197705  1
  Mn3.34+  Mn174  1  0.08741531  0.16185463  0.75040926  1
  Mn3.34+  Mn175  1  0.74742664  0.16486864  0.08241750  1
  Mn3.34+  Mn176  1  0.91842566  0.66979877  0.24936993  1
  Mn3.34+  Mn177  1  0.25004934  0.66177246  0.57701097  1
  Mn3.34+  Mn178  1  0.41375218  0.16177062  0.08037860  1
  Mn3.34+  Mn179  1  0.25205903  0.67236422  0.91531096  1
  Mn3.34+  Mn180  1  0.74650024  0.00211743  0.74557849  1
  Mn3.34+  Mn181  1  0.41601554  -0.00186772  0.74980234  1
  Mn3.34+  Mn182  1  0.40379266  0.49814912  0.42808961  1
  Mn3.34+  Mn183  1  0.57999083  0.00452925  0.57263291  1
  Mn3.34+  Mn184  1  0.93353813  -0.00619234  0.24954148  1
  Mn3.34+  Mn185  1  0.07872284  0.00236069  0.39815872  1
  Mn3.34+  Mn186  1  0.74803676  0.00088596  0.06922109  1
  Mn3.34+  Mn187  1  0.57998249  0.49964869  0.25828445  1
  Mn3.34+  Mn188  1  0.75572790  0.49889982  0.75148886  1
  Mn3.34+  Mn189  1  0.59305418  0.50141955  0.92643361  1
  Mn3.34+  Mn190  1  0.73583784  -0.00302086  0.74458546  1
  Mn3.34+  Mn191  1  0.58071494  -0.00430751  0.23613383  1
  Mn3.34+  Mn192  1  0.74750758  -0.00262102  0.41025399  1
  Mn3.34+  Mn193  1  0.25244093  0.49501960  0.24759897  1
  Mn3.34+  Mn194  1  0.90639022  0.49226519  0.92040359  1
  Mn3.34+  Mn195  1  0.73900967  0.50218965  0.07650985  1
  Mn3.34+  Mn196  1  0.77026511  0.49948581  0.40126628  1
  Mn3.34+  Mn197  1  0.07323753  0.49494300  0.41435227  1
  Mn3.34+  Mn198  1  0.08818980  0.49765946  0.08305658  1
  Mn3.34+  Mn199  1  0.23875273  0.50025593  0.90381816  1
  Mn3.34+  Mn200  1  0.25427095  -0.00187009  0.91659957  1
  Mn3.34+  Mn201  1  0.91999143  0.49899430  0.91911593  1
  Mn3.34+  Mn202  1  0.42525141  -0.00035862  0.05688255  1
  Mn3.34+  Mn203  1  0.73635949  0.00254270  0.41174371  1
  Mn3.34+  Mn204  1  0.25310210  0.50565928  0.90683480  1
  Mn3.34+  Mn205  1  0.41866017  0.49607564  0.07985505  1
  Mn3.34+  Mn206  1  0.43083425  -0.00072785  0.41318751  1
  Mn3.34+  Mn207  1  0.41466424  0.50235984  0.42753995  1
  Mn3.34+  Mn208  1  0.57195175  0.49549941  0.58059266  1
  Mn3.34+  Mn209  1  0.08351691  0.50040391  0.41563423  1
  Mn3.34+  Mn210  1  0.09337922  0.00110376  0.74127819  1
  Mn3.34+  Mn211  1  0.92056028  0.50125787  0.58195144  1
  Mn3.34+  Mn212  1  0.07587235  0.00100063  0.06761300  1
  Mn3.34+  Mn213  1  0.92247619  0.00318648  0.58632610  1
  Mn3.34+  Mn214  1  0.24980752  0.00211148  0.58958305  1
  Mn3.34+  Mn215  1  0.08670555  0.50032696  0.74400537  1
  O2-  O216  1  0.00958381  0.17505134  0.00090935  1
  O2-  O217  1  0.00321854  0.16645603  0.33684868  1
  O2-  O218  1  0.00151087  0.15696832  0.66391247  1
  O2-  O219  1  0.00039286  0.66051221  0.00189920  1
  O2-  O220  1  -0.00331293  0.66196743  0.32799195  1
  O2-  O221  1  0.00303803  0.64746270  0.66213851  1
  O2-  O222  1  0.32822081  0.16291574  0.00490758  1
  O2-  O223  1  0.33265478  0.17114185  0.33204964  1
  O2-  O224  1  0.33245130  0.16547617  0.65834607  1
  O2-  O225  1  0.33536640  0.66137562  -0.01032218  1
  O2-  O226  1  0.33067503  0.66051758  0.34315766  1
  O2-  O227  1  0.33174093  0.66420817  0.66017217  1
  O2-  O228  1  0.66696725  0.14630953  -0.00323345  1
  O2-  O229  1  0.67723760  0.16241489  0.32859794  1
  O2-  O230  1  0.66412089  0.15135106  0.66752896  1
  O2-  O231  1  0.67061417  0.65590459  0.00212739  1
  O2-  O232  1  0.67184161  0.64920448  0.33435539  1
  O2-  O233  1  0.66592561  0.65510343  0.67399540  1
  O2-  O234  1  0.16742236  0.16115902  0.00636257  1
  O2-  O235  1  0.16611108  0.19102266  0.33541257  1
  O2-  O236  1  0.16793784  0.15923914  0.66691916  1
  O2-  O237  1  0.17715794  0.64848990  -0.00440570  1
  O2-  O238  1  0.15860041  0.65805737  0.32980459  1
  O2-  O239  1  0.16991334  0.66829040  0.66114397  1
  O2-  O240  1  0.49915105  0.17795782  0.00354331  1
  O2-  O241  1  0.49605103  0.15854858  0.33028222  1
  O2-  O242  1  0.50291746  0.16064595  0.65482066  1
  O2-  O243  1  0.50035130  0.65285691  -0.01083465  1
  O2-  O244  1  0.49318074  0.65971350  0.33942500  1
  O2-  O245  1  0.48511905  0.64596679  0.66382679  1
  O2-  O246  1  0.82876018  0.16122075  0.00465339  1
  O2-  O247  1  0.83729415  0.14623709  0.33448377  1
  O2-  O248  1  0.83033425  0.15241656  0.66686246  1
  O2-  O249  1  0.83140447  0.66240139  0.00242692  1
  O2-  O250  1  0.83450919  0.64045013  0.33265211  1
  O2-  O251  1  0.82925780  0.65116908  0.65933086  1
  O2-  O252  1  0.00211486  0.33669101  -0.00095444  1
  O2-  O253  1  0.00825011  0.33445252  0.32692864  1
  O2-  O254  1  0.00671400  0.35242549  0.66269064  1
  O2-  O255  1  0.00335059  0.84911876  -0.00361587  1
  O2-  O256  1  -0.00360069  0.84461210  0.33572402  1
  O2-  O257  1  0.00130818  0.85138790  0.66806961  1
  O2-  O258  1  0.33538201  0.34536549  -0.00152494  1
  O2-  O259  1  0.33517851  0.32008167  0.33022228  1
  O2-  O260  1  0.33463718  0.34414728  0.66599276  1
  O2-  O261  1  0.32994279  0.83282330  0.00542048  1
  O2-  O262  1  0.33330538  0.83909825  0.33644531  1
  O2-  O263  1  0.34035978  0.83229766  0.65454193  1
  O2-  O264  1  0.66717090  0.33438751  -0.00235941  1
  O2-  O265  1  0.67146679  0.33960399  0.33572005  1
  O2-  O266  1  0.66656621  0.35291232  0.66094973  1
  O2-  O267  1  0.67336577  0.83699009  -0.00021125  1
  O2-  O268  1  0.66902033  0.84716632  0.32899056  1
  O2-  O269  1  0.67215379  0.83610685  0.66476759  1
  O2-  O270  1  0.17067043  0.33793791  0.00296545  1
  O2-  O271  1  0.16684482  0.33000848  0.33391485  1
  O2-  O272  1  0.17057001  0.34940150  0.66822569  1
  O2-  O273  1  0.16703878  0.85571746  0.00296824  1
  O2-  O274  1  0.17129484  0.84789826  0.33743255  1
  O2-  O275  1  0.16594911  0.84002223  0.66154060  1
  O2-  O276  1  0.49622254  0.33858841  -0.00411129  1
  O2-  O277  1  0.49893525  0.33586783  0.33099732  1
  O2-  O278  1  0.50392538  0.34568428  0.66879410  1
  O2-  O279  1  0.50245632  0.83491528  0.00612054  1
  O2-  O280  1  0.49438954  0.83508971  0.33339959  1
  O2-  O281  1  0.50112150  0.83860478  0.66439438  1
  O2-  O282  1  0.83933424  0.34033256  0.00220998  1
  O2-  O283  1  0.83192824  0.33991788  0.33129003  1
  O2-  O284  1  0.83187862  0.34953492  0.66562074  1
  O2-  O285  1  0.82821219  0.83525075  -0.00593232  1
  O2-  O286  1  0.82999085  0.84887510  0.33426481  1
  O2-  O287  1  0.83347466  0.84514112  0.66744220  1
  O2-  O288  1  -0.00090974  0.18695527  0.15944168  1
  O2-  O289  1  -0.00249542  0.18566908  0.49629155  1
  O2-  O290  1  0.00305120  0.17111825  0.82475192  1
  O2-  O291  1  -0.00035995  0.68459047  0.17412487  1
  O2-  O292  1  -0.00266294  0.67777854  0.50236563  1
  O2-  O293  1  0.00160233  0.66879139  0.82200443  1
  O2-  O294  1  0.32952952  0.19024710  0.16650518  1
  O2-  O295  1  0.33180555  0.18525957  0.50000317  1
  O2-  O296  1  0.32778511  0.17059186  0.83601379  1
  O2-  O297  1  0.34016153  0.68721370  0.15811865  1
  O2-  O298  1  0.33394638  0.69293041  0.50344575  1
  O2-  O299  1  0.33340658  0.68895536  0.83335470  1
  O2-  O300  1  0.66846009  0.17456882  0.16846348  1
  O2-  O301  1  0.67369137  0.18954141  0.50056961  1
  O2-  O302  1  0.66719179  0.18225335  0.83333357  1
  O2-  O303  1  0.66391767  0.68551238  0.15818010  1
  O2-  O304  1  0.67399306  0.67387228  0.50126222  1
  O2-  O305  1  0.67843696  0.68284775  0.84104915  1
  O2-  O306  1  0.16011562  0.19361025  0.16144563  1
  O2-  O307  1  0.16887533  0.17919235  0.49684750  1
  O2-  O308  1  0.16309921  0.17886465  0.83588114  1
  O2-  O309  1  0.16851174  0.67144371  0.16101102  1
  O2-  O310  1  0.17219076  0.67981369  0.50500726  1
  O2-  O311  1  0.15721467  0.68138737  0.84352790  1
  O2-  O312  1  0.48730747  0.17481041  0.17218293  1
  O2-  O313  1  0.50636182  0.19191593  0.49734687  1
  O2-  O314  1  0.50463195  0.17133601  0.83342983  1
  O2-  O315  1  0.49210588  0.68641876  0.16061290  1
  O2-  O316  1  0.50395370  0.69057740  0.49004963  1
  O2-  O317  1  0.50566012  0.68048068  0.81972692  1
  O2-  O318  1  0.82515303  0.17441888  0.17420660  1
  O2-  O319  1  0.83636252  0.18854448  0.49627838  1
  O2-  O320  1  0.82627137  0.17233353  0.83119103  1
  O2-  O321  1  0.83160751  0.68746327  0.17061855  1
  O2-  O322  1  0.83193340  0.68374260  0.50094689  1
  O2-  O323  1  0.84015518  0.68397295  0.81418419  1
  O2-  O324  1  0.00010585  0.31523983  0.16398783  1
  O2-  O325  1  0.00417588  0.31550734  0.50572394  1
  O2-  O326  1  0.00069467  0.32150338  0.82919746  1
  O2-  O327  1  -0.00058641  0.81732154  0.16812146  1
  O2-  O328  1  0.00430000  0.82786126  0.50410428  1
  O2-  O329  1  0.00121629  0.83307846  0.83283767  1
  O2-  O330  1  0.33169281  0.31328238  0.16174475  1
  O2-  O331  1  0.33209676  0.31315571  0.49635536  1
  O2-  O332  1  0.34241698  0.33155316  0.84199283  1
  O2-  O333  1  0.33326936  0.82587065  0.16462606  1
  O2-  O334  1  0.33143157  0.80897350  0.49542631  1
  O2-  O335  1  0.32961113  0.81802218  0.83453388  1
  O2-  O336  1  0.67481767  0.33057478  0.17299327  1
  O2-  O337  1  0.67221388  0.31717252  0.50115379  1
  O2-  O338  1  0.65348281  0.32552220  0.81692438  1
  O2-  O339  1  0.66625385  0.81884919  0.16372353  1
  O2-  O340  1  0.66994942  0.82361962  0.50184578  1
  O2-  O341  1  0.67265410  0.80842720  0.83479608  1
  O2-  O342  1  0.16423504  0.31194071  0.16644101  1
  O2-  O343  1  0.16366544  0.31633127  0.50401283  1
  O2-  O344  1  0.16299864  0.32065439  0.83777590  1
  O2-  O345  1  0.16910226  0.83527257  0.16367237  1
  O2-  O346  1  0.16118130  0.82565700  0.50462804  1
  O2-  O347  1  0.16119711  0.82040228  0.83956569  1
  O2-  O348  1  0.50043322  0.31587368  0.16393532  1
  O2-  O349  1  0.50906096  0.31439113  0.49064160  1
  O2-  O350  1  0.49777513  0.32625854  0.83530027  1
  O2-  O351  1  0.49279162  0.82392299  0.16975731  1
  O2-  O352  1  0.49575951  0.81989851  0.50417926  1
  O2-  O353  1  0.49915390  0.81973583  0.83569473  1
  O2-  O354  1  0.83083580  0.32761569  0.17204040  1
  O2-  O355  1  0.83092081  0.31780064  0.50654580  1
  O2-  O356  1  0.83496714  0.32409817  0.82697225  1
  O2-  O357  1  0.82893194  0.81303383  0.16957771  1
  O2-  O358  1  0.83395475  0.81818180  0.50141627  1
  O2-  O359  1  0.83666868  0.81645427  0.82781206  1
  O2-  O360  1  0.09446779  0.07100164  0.11427057  1
  O2-  O361  1  0.08086328  0.08003369  0.43766229  1
  O2-  O362  1  0.07758233  0.07820016  0.77772988  1
  O2-  O363  1  0.08650608  0.57607619  0.10649440  1
  O2-  O364  1  0.07661395  0.57893944  0.44934996  1
  O2-  O365  1  0.07957356  0.57927138  0.78439997  1
  O2-  O366  1  0.41250040  0.07171067  0.11061934  1
  O2-  O367  1  0.41418947  0.08138832  0.44865853  1
  O2-  O368  1  0.42271758  0.07494932  0.76293094  1
  O2-  O369  1  0.40421646  0.57620398  0.10501420  1
  O2-  O370  1  0.42081433  0.58457301  0.46210301  1
  O2-  O371  1  0.41629043  0.58201649  0.78776738  1
  O2-  O372  1  0.75014072  0.07680887  0.11331454  1
  O2-  O373  1  0.75622271  0.08023362  0.45229207  1
  O2-  O374  1  0.74123193  0.08231769  0.78216748  1
  O2-  O375  1  0.76190689  0.58035256  0.12531695  1
  O2-  O376  1  0.75848363  0.57917516  0.45621968  1
  O2-  O377  1  0.77516499  0.58007274  0.77959523  1
  O2-  O378  1  0.28038939  0.07657862  0.21860987  1
  O2-  O379  1  0.26239314  0.08203030  0.55857461  1
  O2-  O380  1  0.23564350  0.07832791  0.90810046  1
  O2-  O381  1  0.24878751  0.57404146  0.22365561  1
  O2-  O382  1  0.25719768  0.58385094  0.54648457  1
  O2-  O383  1  0.25444970  0.58594201  0.88159650  1
  O2-  O384  1  0.58274801  0.08108691  0.22662448  1
  O2-  O385  1  0.59160812  0.08543680  0.54947610  1
  O2-  O386  1  0.59703397  0.07812169  0.88087052  1
  O2-  O387  1  0.57815760  0.57411976  0.22368026  1
  O2-  O388  1  0.59640908  0.57077801  0.54335389  1
  O2-  O389  1  0.58973208  0.58325863  0.87055229  1
  O2-  O390  1  0.90873989  0.07822118  0.21805903  1
  O2-  O391  1  0.90369432  0.08377301  0.55565142  1
  O2-  O392  1  0.90760656  0.06503874  0.87102427  1
  O2-  O393  1  0.94104852  0.58885826  0.22146480  1
  O2-  O394  1  0.91025918  0.58261287  0.55045570  1
  O2-  O395  1  0.91017744  0.57877539  0.88629966  1
  O2-  O396  1  0.08590863  0.41708047  0.11544580  1
  O2-  O397  1  0.09085170  0.41467170  0.44778800  1
  O2-  O398  1  0.08131822  0.42020528  0.77882412  1
  O2-  O399  1  0.08318917  0.93064898  0.11197844  1
  O2-  O400  1  0.08942974  0.92381824  0.44567529  1
  O2-  O401  1  0.08379979  0.92286855  0.77945983  1
  O2-  O402  1  0.39979188  0.41979664  0.12151957  1
  O2-  O403  1  0.40987756  0.41417435  0.43368042  1
  O2-  O404  1  0.42960722  0.42162023  0.78062784  1
  O2-  O405  1  0.42031264  0.93199235  0.11572276  1
  O2-  O406  1  0.40203382  0.92155570  0.45703747  1
  O2-  O407  1  0.41248825  0.91537548  0.74476730  1
  O2-  O408  1  0.76876425  0.42608404  0.11670496  1
  O2-  O409  1  0.74002591  0.42219689  0.44996658  1
  O2-  O410  1  0.73753419  0.41769643  0.76576875  1
  O2-  O411  1  0.74078795  0.92406997  0.10522797  1
  O2-  O412  1  0.75865535  0.92091816  0.45388760  1
  O2-  O413  1  0.75073767  0.91915297  0.78876627  1
  O2-  O414  1  0.22724832  0.41441693  0.22695864  1
  O2-  O415  1  0.23778273  0.41212132  0.55122485  1
  O2-  O416  1  0.24934332  0.41781107  0.88823097  1
  O2-  O417  1  0.26926699  0.92008938  0.24438889  1
  O2-  O418  1  0.25212503  0.92446816  0.53964470  1
  O2-  O419  1  0.23841596  0.92061251  0.88887349  1
  O2-  O420  1  0.58741426  0.41729309  0.24088121  1
  O2-  O421  1  0.59841769  0.41622264  0.55194879  1
  O2-  O422  1  0.57004284  0.42191616  0.88091791  1
  O2-  O423  1  0.58569537  0.91653991  0.21242327  1
  O2-  O424  1  0.56673107  0.92064842  0.55867269  1
  O2-  O425  1  0.61087363  0.91192549  0.90301757  1
  O2-  O426  1  0.93069168  0.41085141  0.22250851  1
  O2-  O427  1  0.90815181  0.41719830  0.55897117  1
  O2-  O428  1  0.93076645  0.41433035  0.89031324  1
  O2-  O429  1  0.89818477  0.91508249  0.22532622  1
  O2-  O430  1  0.92627815  0.92117512  0.55142871  1
  O2-  O431  1  0.89111069  0.91602358  0.88875108  1
  O2-  O432  1  0.01449576  0.00237720  -0.01617493  1
  O2-  O433  1  -0.03298637  -0.00118545  0.37053960  1
  O2-  O434  1  -0.00359116  -0.01219188  0.67516986  1
  O2-  O435  1  -0.00341977  0.49919133  0.00878001  1
  O2-  O436  1  0.01612260  0.49301795  0.31295228  1
  O2-  O437  1  -0.02633693  0.50811888  0.69135643  1
  O2-  O438  1  0.32491522  -0.00462700  0.01406698  1
  O2-  O439  1  0.33494726  0.00371027  0.35915286  1
  O2-  O440  1  0.35075549  -0.00548259  0.64187683  1
  O2-  O441  1  0.32583655  0.49391643  -0.00167522  1
  O2-  O442  1  0.33792174  0.49268800  0.32916287  1
  O2-  O443  1  0.33185410  0.50046340  0.66636460  1
  O2-  O444  1  0.67178196  -0.00419583  -0.00397527  1
  O2-  O445  1  0.66594513  0.00504103  0.31617543  1
  O2-  O446  1  0.67603544  0.00119866  0.64398058  1
  O2-  O447  1  0.66629711  0.53614795  0.00447569  1
  O2-  O448  1  0.66248465  0.50665906  0.33922259  1
  O2-  O449  1  0.66172796  0.51009021  0.67292475  1
  O2-  O450  1  0.17218700  -0.00465509  0.01189298  1
  O2-  O451  1  0.18696622  0.00487098  0.36994243  1
  O2-  O452  1  0.14811024  -0.01230492  0.63683514  1
  O2-  O453  1  0.15773526  0.49851470  -0.01248472  1
  O2-  O454  1  0.17697356  0.49632483  0.34223133  1
  O2-  O455  1  0.14581671  0.48754380  0.64677883  1
  O2-  O456  1  0.51818346  -0.00409789  0.01429245  1
  O2-  O457  1  0.47560936  -0.00166385  0.29262258  1
  O2-  O458  1  0.50265446  0.00398167  0.66016767  1
  O2-  O459  1  0.47900249  0.49597313  -0.02612360  1
  O2-  O460  1  0.50419940  0.50266016  0.35038144  1
  O2-  O461  1  0.50538967  0.50046642  0.67027342  1
  O2-  O462  1  0.82325861  -0.00093845  -0.01252565  1
  O2-  O463  1  0.81769453  0.01302458  0.31544322  1
  O2-  O464  1  0.83460003  -0.00744794  0.66859373  1
  O2-  O465  1  0.83327011  0.51283545  0.00639213  1
  O2-  O466  1  0.81373836  0.49243948  0.29062683  1
  O2-  O467  1  0.80967087  0.50047903  0.63385653  1
  O2-  O468  1  0.07853600  0.75339393  0.72766401  1
  O2-  O469  1  0.58776093  0.75459682  0.27121388  1
  O2-  O470  1  0.74659141  0.24822348  0.07139584  1
  O2-  O471  1  0.74185689  0.74960137  0.39207869  1
  O2-  O472  1  0.92971644  0.75618347  0.92909405  1
  O2-  O473  1  0.59095554  0.24491587  0.93165733  1
  O2-  O474  1  0.91163064  0.25104054  0.92181405  1
  O2-  O475  1  0.57446129  0.74793388  0.94378930  1
  O2-  O476  1  0.24087608  0.75734601  0.25762952  1
  O2-  O477  1  0.42191025  0.74760272  0.73058925  1
  O2-  O478  1  0.91562737  0.25072841  0.61826885  1
  O2-  O479  1  0.59039792  0.25123742  0.61352592  1
  O2-  O480  1  0.90396201  0.75139296  0.28230575  1
  O2-  O481  1  0.08246836  0.24999526  0.72983305  1
  O2-  O482  1  0.90866637  0.24635014  0.27497385  1
  O2-  O483  1  0.58816620  0.24969463  0.26748583  1
  O2-  O484  1  0.25647691  0.24891425  0.92844316  1
  O2-  O485  1  0.58778401  0.75343294  0.60181678  1
  O2-  O486  1  0.92493714  0.74950302  0.61375862  1
  O2-  O487  1  0.24454057  0.25009317  0.60830953  1
  O2-  O488  1  0.74902159  0.25084150  0.72738523  1
  O2-  O489  1  0.24045524  0.75254522  0.94146899  1
  O2-  O490  1  0.41486941  0.25423727  0.74231201  1
  O2-  O491  1  0.08256821  0.75707922  0.39633485  1
  O2-  O492  1  0.09134445  0.76236923  0.06644283  1
