# generated using pymatgen
data_Ca108Mn108O277
_symmetry_space_group_name_H-M   'P 1'
_cell_length_a   16.01796136
_cell_length_b   22.29470445
_cell_length_c   16.38186324
_cell_angle_alpha   89.99594277
_cell_angle_beta   90.00204930
_cell_angle_gamma   90.00016587
_symmetry_Int_Tables_number   1
_chemical_formula_structural   Ca108Mn108O277
_chemical_formula_sum   'Ca108 Mn108 O277'
_cell_volume   5850.22077618
_cell_formula_units_Z   1
loop_
 _symmetry_equiv_pos_site_id
 _symmetry_equiv_pos_as_xyz
  1  'x, y, z'
loop_
 _atom_type_symbol
 _atom_type_oxidation_number
  Ca2+  2.0
  Mn3.34+  3.34
  O2-  -2.0
loop_
 _atom_site_type_symbol
 _atom_site_label
 _atom_site_symmetry_multiplicity
 _atom_site_fract_x
 _atom_site_fract_y
 _atom_site_fract_z
 _atom_site_occupancy
  Ca2+  Ca0  1  0.08089047  0.25107561  0.26711469  1
  Ca2+  Ca1  1  0.09531075  0.25635304  0.57207846  1
  Ca2+  Ca2  1  0.06511940  0.24939863  0.90872695  1
  Ca2+  Ca3  1  0.07705794  0.74942891  0.23212267  1
  Ca2+  Ca4  1  0.09455790  0.75620529  0.57798959  1
  Ca2+  Ca5  1  0.08000701  0.74757348  0.93423040  1
  Ca2+  Ca6  1  0.39717287  0.23522303  0.26624916  1
  Ca2+  Ca7  1  0.38654439  0.24990781  0.57669545  1
  Ca2+  Ca8  1  0.41183283  0.25751865  0.89891115  1
  Ca2+  Ca9  1  0.43033200  0.75713954  0.22907124  1
  Ca2+  Ca10  1  0.42295661  0.75099983  0.59182675  1
  Ca2+  Ca11  1  0.41590868  0.76106327  0.92458612  1
  Ca2+  Ca12  1  0.77216558  0.24097926  0.26803846  1
  Ca2+  Ca13  1  0.76676451  0.25881668  0.56248459  1
  Ca2+  Ca14  1  0.77236433  0.25271188  0.92218878  1
  Ca2+  Ca15  1  0.74198314  0.74949019  0.24729568  1
  Ca2+  Ca16  1  0.73530053  0.75233866  0.58798776  1
  Ca2+  Ca17  1  0.75524670  0.76209821  0.91980890  1
  Ca2+  Ca18  1  0.23724357  0.24670635  0.10750903  1
  Ca2+  Ca19  1  0.23237428  0.23634031  0.41984663  1
  Ca2+  Ca20  1  0.24121753  0.24116943  0.72255575  1
  Ca2+  Ca21  1  0.24973819  0.74590747  0.07118283  1
  Ca2+  Ca22  1  0.24934327  0.75231901  0.43039355  1
  Ca2+  Ca23  1  0.26840697  0.74838566  0.75084616  1
  Ca2+  Ca24  1  0.59000491  0.25714103  0.09309995  1
  Ca2+  Ca25  1  0.59523377  0.23673455  0.40340898  1
  Ca2+  Ca26  1  0.56742154  0.25872100  0.75103081  1
  Ca2+  Ca27  1  0.58046883  0.75382565  0.08533705  1
  Ca2+  Ca28  1  0.59207044  0.74785813  0.41814621  1
  Ca2+  Ca29  1  0.58129517  0.74960009  0.74191059  1
  Ca2+  Ca30  1  0.92867314  0.24719214  0.08952924  1
  Ca2+  Ca31  1  0.92801619  0.23789809  0.40817682  1
  Ca2+  Ca32  1  0.93529044  0.24870781  0.75056944  1
  Ca2+  Ca33  1  0.92615523  0.74294039  0.07590110  1
  Ca2+  Ca34  1  0.90430429  0.74790965  0.41013550  1
  Ca2+  Ca35  1  0.90179764  0.75392906  0.76326208  1
  Ca2+  Ca36  1  0.93515387  0.10981201  0.09230534  1
  Ca2+  Ca37  1  0.42271917  0.59528731  0.24619847  1
  Ca2+  Ca38  1  0.73340175  0.58747885  0.58602955  1
  Ca2+  Ca39  1  0.10087997  0.56752198  0.59567024  1
  Ca2+  Ca40  1  0.24849466  0.58775518  0.43195550  1
  Ca2+  Ca41  1  0.74694922  0.09984575  0.55789061  1
  Ca2+  Ca42  1  0.91829986  0.10328777  0.40326522  1
  Ca2+  Ca43  1  0.08792878  0.11569576  0.25201637  1
  Ca2+  Ca44  1  0.57240590  0.07255548  0.73752226  1
  Ca2+  Ca45  1  0.58054087  0.59327954  0.41594386  1
  Ca2+  Ca46  1  0.56896974  0.59881472  0.08644896  1
  Ca2+  Ca47  1  0.90861040  0.58147384  0.38911765  1
  Ca2+  Ca48  1  0.24665644  0.10296738  0.10299621  1
  Ca2+  Ca49  1  0.41719063  0.59323843  0.92172277  1
  Ca2+  Ca50  1  0.43216114  0.59775532  0.25002870  1
  Ca2+  Ca51  1  0.09684126  0.10969888  0.57234160  1
  Ca2+  Ca52  1  0.39104138  0.10136766  0.59291912  1
  Ca2+  Ca53  1  0.26106721  0.58720114  0.43410138  1
  Ca2+  Ca54  1  0.25173115  0.58404179  0.73197645  1
  Ca2+  Ca55  1  0.77395811  0.08865520  0.91258208  1
  Ca2+  Ca56  1  0.75972057  0.09925608  0.55834754  1
  Ca2+  Ca57  1  0.94194095  0.11360329  0.08645165  1
  Ca2+  Ca58  1  0.23983136  0.60649133  0.08277797  1
  Ca2+  Ca59  1  0.73530726  0.10143719  0.28192765  1
  Ca2+  Ca60  1  0.23556127  0.10313429  0.10129076  1
  Ca2+  Ca61  1  0.07891207  0.59797678  0.95226019  1
  Ca2+  Ca62  1  0.76046904  0.59554054  0.25506794  1
  Ca2+  Ca63  1  0.75204659  0.59662998  0.91301830  1
  Ca2+  Ca64  1  0.42691879  0.58920019  0.91774838  1
  Ca2+  Ca65  1  0.91355282  0.58601879  0.74939533  1
  Ca2+  Ca66  1  0.56020211  0.07134063  0.73968602  1
  Ca2+  Ca67  1  0.07917554  0.11903940  0.24858317  1
  Ca2+  Ca68  1  0.23640573  0.10909912  0.41317338  1
  Ca2+  Ca69  1  0.10303491  0.11328868  0.57861740  1
  Ca2+  Ca70  1  0.04946739  0.09982053  0.89973197  1
  Ca2+  Ca71  1  0.05917769  0.09757453  0.89717346  1
  Ca2+  Ca72  1  0.91717834  0.90057652  0.75460707  1
  Ca2+  Ca73  1  0.92442677  0.40484938  0.42015914  1
  Ca2+  Ca74  1  0.57318383  0.90986431  0.07120266  1
  Ca2+  Ca75  1  0.25339055  0.90176084  0.09145974  1
  Ca2+  Ca76  1  0.24658214  0.39494764  0.07995191  1
  Ca2+  Ca77  1  0.57398713  0.90656043  0.42193668  1
  Ca2+  Ca78  1  0.42837288  0.40954687  0.25593143  1
  Ca2+  Ca79  1  0.73263308  0.40540505  0.91127314  1
  Ca2+  Ca80  1  0.08125356  0.90439662  0.91121982  1
  Ca2+  Ca81  1  0.57514096  0.41153544  0.06390804  1
  Ca2+  Ca82  1  0.55805263  0.91301613  0.75235134  1
  Ca2+  Ca83  1  0.26477644  0.90126334  0.09222229  1
  Ca2+  Ca84  1  0.08559317  0.39757517  0.90747248  1
  Ca2+  Ca85  1  0.41694667  0.40907767  0.25507386  1
  Ca2+  Ca86  1  0.08429874  0.90653662  0.59300902  1
  Ca2+  Ca87  1  0.75489199  0.41217809  0.26152136  1
  Ca2+  Ca88  1  0.57568614  0.41319274  0.75277297  1
  Ca2+  Ca89  1  0.26904038  0.91179644  0.75442751  1
  Ca2+  Ca90  1  0.74800824  0.90133867  0.24949239  1
  Ca2+  Ca91  1  0.76743594  0.41318565  0.26159938  1
  Ca2+  Ca92  1  0.24631084  0.89806110  0.40814479  1
  Ca2+  Ca93  1  0.91425241  0.90486392  0.40501833  1
  Ca2+  Ca94  1  0.42824294  0.40488931  0.91264743  1
  Ca2+  Ca95  1  0.92688535  0.90505404  0.40427859  1
  Ca2+  Ca96  1  0.25080392  0.40703856  0.43737554  1
  Ca2+  Ca97  1  0.58614856  0.40711561  0.42499086  1
  Ca2+  Ca98  1  0.57331116  0.40806456  0.42669650  1
  Ca2+  Ca99  1  0.25741027  0.91275929  0.75309288  1
  Ca2+  Ca100  1  0.56799021  0.91321873  0.75631561  1
  Ca2+  Ca101  1  0.93191986  0.40724371  0.73929934  1
  Ca2+  Ca102  1  0.24184053  0.40477528  0.43286759  1
  Ca2+  Ca103  1  0.22915390  0.41978829  0.71612416  1
  Ca2+  Ca104  1  0.73613802  0.91070653  0.59404675  1
  Ca2+  Ca105  1  0.93568196  0.40533441  0.09516673  1
  Ca2+  Ca106  1  0.92351729  0.40602371  0.09204648  1
  Ca2+  Ca107  1  0.58675644  0.90643280  0.42182836  1
  Mn3.34+  Mn108  1  0.08672774  0.33237927  0.08628077  1
  Mn3.34+  Mn109  1  0.08119210  0.33381644  0.41804980  1
  Mn3.34+  Mn110  1  0.08574623  0.33569516  0.74783197  1
  Mn3.34+  Mn111  1  0.07991555  0.82756356  0.08440349  1
  Mn3.34+  Mn112  1  0.08262915  0.82747572  0.41278104  1
  Mn3.34+  Mn113  1  0.08601487  0.83710267  0.75408885  1
  Mn3.34+  Mn114  1  0.41686671  0.32764039  0.08425981  1
  Mn3.34+  Mn115  1  0.41791506  0.33267222  0.42309890  1
  Mn3.34+  Mn116  1  0.41088493  0.33640222  0.74528233  1
  Mn3.34+  Mn117  1  0.42024751  0.83130640  0.08069837  1
  Mn3.34+  Mn118  1  0.41623109  0.82771539  0.41428258  1
  Mn3.34+  Mn119  1  0.41654537  0.83232195  0.75418190  1
  Mn3.34+  Mn120  1  0.75020910  0.33403425  0.08458828  1
  Mn3.34+  Mn121  1  0.75225838  0.33041021  0.42206641  1
  Mn3.34+  Mn122  1  0.74939504  0.33338379  0.74610234  1
  Mn3.34+  Mn123  1  0.75167406  0.83087849  0.08292578  1
  Mn3.34+  Mn124  1  0.74974597  0.83127293  0.41857952  1
  Mn3.34+  Mn125  1  0.74814699  0.83451752  0.75376066  1
  Mn3.34+  Mn126  1  0.24667752  0.32962120  0.25291391  1
  Mn3.34+  Mn127  1  0.24842927  0.33598923  0.58551463  1
  Mn3.34+  Mn128  1  0.25066007  0.32984047  0.91203359  1
  Mn3.34+  Mn129  1  0.25095054  0.82771916  0.25042093  1
  Mn3.34+  Mn130  1  0.25526167  0.83120605  0.58115406  1
  Mn3.34+  Mn131  1  0.24959374  0.83262809  0.91479001  1
  Mn3.34+  Mn132  1  0.58465363  0.32698265  0.24691170  1
  Mn3.34+  Mn133  1  0.58490325  0.33422687  0.58728712  1
  Mn3.34+  Mn134  1  0.58479736  0.33356473  0.91271705  1
  Mn3.34+  Mn135  1  0.58185347  0.83849645  0.24479598  1
  Mn3.34+  Mn136  1  0.57876740  0.83593949  0.58290251  1
  Mn3.34+  Mn137  1  0.58561887  0.84136672  0.91657124  1
  Mn3.34+  Mn138  1  0.92192585  0.33205382  0.25319158  1
  Mn3.34+  Mn139  1  0.92027859  0.33502675  0.58285483  1
  Mn3.34+  Mn140  1  0.91494509  0.33063138  0.91426801  1
  Mn3.34+  Mn141  1  0.91690919  0.83010879  0.24030081  1
  Mn3.34+  Mn142  1  0.91666398  0.83077301  0.58404750  1
  Mn3.34+  Mn143  1  0.91422358  0.83649888  0.92232533  1
  Mn3.34+  Mn144  1  0.58142170  0.66981977  0.91525835  1
  Mn3.34+  Mn145  1  0.41770079  0.66220751  0.74454022  1
  Mn3.34+  Mn146  1  0.75622343  0.66928787  0.08730099  1
  Mn3.34+  Mn147  1  0.42038769  0.66427789  0.42397937  1
  Mn3.34+  Mn148  1  0.57994984  0.66586611  0.58470387  1
  Mn3.34+  Mn149  1  0.25272113  0.66679128  0.58316605  1
  Mn3.34+  Mn150  1  0.75673055  0.17604004  0.75256745  1
  Mn3.34+  Mn151  1  0.08946478  0.66729706  0.75367722  1
  Mn3.34+  Mn152  1  0.74802914  0.16771858  0.09028406  1
  Mn3.34+  Mn153  1  0.91377457  0.67058104  0.91887954  1
  Mn3.34+  Mn154  1  0.42619105  0.16505303  0.09167323  1
  Mn3.34+  Mn155  1  0.25917891  0.16007938  0.91077818  1
  Mn3.34+  Mn156  1  0.24290208  0.67929863  0.25033935  1
  Mn3.34+  Mn157  1  0.74958109  0.66493505  0.74838148  1
  Mn3.34+  Mn158  1  0.25503899  0.67995296  0.25286939  1
  Mn3.34+  Mn159  1  0.58223996  0.15153881  0.91701080  1
  Mn3.34+  Mn160  1  0.07889709  0.66373186  0.41450220  1
  Mn3.34+  Mn161  1  0.92091941  0.66026985  0.24459858  1
  Mn3.34+  Mn162  1  0.43541417  0.15905557  0.09540717  1
  Mn3.34+  Mn163  1  0.91098473  0.65824077  0.57691346  1
  Mn3.34+  Mn164  1  0.59005977  0.66361759  0.91390527  1
  Mn3.34+  Mn165  1  0.91939621  0.17130683  0.58041779  1
  Mn3.34+  Mn166  1  0.74729983  0.66566703  0.41599806  1
  Mn3.34+  Mn167  1  0.57457329  0.17231818  0.57859223  1
  Mn3.34+  Mn168  1  0.08083900  0.16572574  0.74693615  1
  Mn3.34+  Mn169  1  0.24755794  0.16669997  0.91190198  1
  Mn3.34+  Mn170  1  0.74686899  0.17079430  0.75404121  1
  Mn3.34+  Mn171  1  0.58718767  0.67044579  0.24868058  1
  Mn3.34+  Mn172  1  0.73764016  0.16282306  0.09187622  1
  Mn3.34+  Mn173  1  0.92338091  0.66530936  0.57821079  1
  Mn3.34+  Mn174  1  0.25281602  0.66869546  0.91423799  1
  Mn3.34+  Mn175  1  0.58561597  0.16893280  0.58046105  1
  Mn3.34+  Mn176  1  0.41476921  0.16857655  0.41429671  1
  Mn3.34+  Mn177  1  0.08105936  0.66099414  0.75589067  1
  Mn3.34+  Mn178  1  0.57100198  0.15461052  0.91901652  1
  Mn3.34+  Mn179  1  0.41173438  0.16763129  0.74832090  1
  Mn3.34+  Mn180  1  0.91615670  0.00263179  0.58781177  1
  Mn3.34+  Mn181  1  0.74652186  0.50038848  0.74170861  1
  Mn3.34+  Mn182  1  0.23659885  0.50214087  0.90927383  1
  Mn3.34+  Mn183  1  0.41929946  0.49917698  0.07824283  1
  Mn3.34+  Mn184  1  0.08171866  -0.00206122  0.41098241  1
  Mn3.34+  Mn185  1  0.26404440  -0.00053968  0.58117737  1
  Mn3.34+  Mn186  1  0.07251200  -0.00995733  0.08733391  1
  Mn3.34+  Mn187  1  0.24743125  -0.00265064  0.25905597  1
  Mn3.34+  Mn188  1  0.41234489  0.49819453  0.73156483  1
  Mn3.34+  Mn189  1  0.24333205  0.50098820  0.24309543  1
  Mn3.34+  Mn190  1  0.75091000  -0.00081080  0.75340566  1
  Mn3.34+  Mn191  1  0.91650925  0.49803619  0.90973201  1
  Mn3.34+  Mn192  1  0.92728357  0.50304320  0.91108861  1
  Mn3.34+  Mn193  1  0.58595124  0.50028583  0.24542106  1
  Mn3.34+  Mn194  1  0.08331164  -0.00476962  0.08860439  1
  Mn3.34+  Mn195  1  0.74879834  -0.00114638  0.41043104  1
  Mn3.34+  Mn196  1  0.91204155  -0.00315838  0.91388674  1
  Mn3.34+  Mn197  1  0.24946414  -0.00541013  0.58495696  1
  Mn3.34+  Mn198  1  0.91798150  -0.00359139  0.25109198  1
  Mn3.34+  Mn199  1  0.42286945  0.00636089  0.41718736  1
  Mn3.34+  Mn200  1  0.23189791  0.49673150  0.24609757  1
  Mn3.34+  Mn201  1  0.57547252  0.50447918  0.59439333  1
  Mn3.34+  Mn202  1  0.75027570  0.50671551  0.08262972  1
  Mn3.34+  Mn203  1  0.92737340  -0.00089518  0.58879309  1
  Mn3.34+  Mn204  1  0.75074731  0.49917800  0.41744744  1
  Mn3.34+  Mn205  1  0.41304271  0.00117891  0.41927427  1
  Mn3.34+  Mn206  1  0.24745963  0.49740649  0.90831953  1
  Mn3.34+  Mn207  1  0.08543900  0.50538462  0.09126619  1
  Mn3.34+  Mn208  1  0.73917013  -0.00634675  0.07597987  1
  Mn3.34+  Mn209  1  0.74921504  -0.00112677  0.07815094  1
  Mn3.34+  Mn210  1  0.07680393  0.49909097  0.40647391  1
  Mn3.34+  Mn211  1  0.42059932  -0.00213938  0.07216755  1
  Mn3.34+  Mn212  1  0.92434251  0.49794893  0.59507980  1
  Mn3.34+  Mn213  1  0.73869711  0.50317759  0.08015746  1
  Mn3.34+  Mn214  1  0.26773500  -0.00117753  0.92295565  1
  Mn3.34+  Mn215  1  0.58339032  0.00304803  0.25351019  1
  O2-  O216  1  0.00482973  0.15887374  -0.00342818  1
  O2-  O217  1  -0.00370437  0.16250639  0.33275350  1
  O2-  O218  1  0.00121221  0.15843351  0.66185600  1
  O2-  O219  1  -0.00424084  0.66883833  -0.00856292  1
  O2-  O220  1  -0.00566758  0.68022272  0.33473388  1
  O2-  O221  1  0.00014590  0.65710481  0.66949714  1
  O2-  O222  1  0.33812995  0.16199943  0.01018534  1
  O2-  O223  1  0.33424693  0.16042260  0.34200707  1
  O2-  O224  1  0.33794897  0.16991437  0.66817150  1
  O2-  O225  1  0.33167932  0.64804880  -0.00821451  1
  O2-  O226  1  0.33445640  0.67201997  0.33495052  1
  O2-  O227  1  0.32531571  0.65977068  0.67186348  1
  O2-  O228  1  0.66639965  0.16925405  -0.00078769  1
  O2-  O229  1  0.67092192  0.18161196  0.32271207  1
  O2-  O230  1  0.66532915  0.17629815  0.66924091  1
  O2-  O231  1  0.66547309  0.65054835  0.00419158  1
  O2-  O232  1  0.66586759  0.65295564  0.33456000  1
  O2-  O233  1  0.67333414  0.66078236  0.65918687  1
  O2-  O234  1  0.17365654  0.15721807  -0.00048601  1
  O2-  O235  1  0.16153724  0.16565902  0.33180269  1
  O2-  O236  1  0.16171578  0.16502073  0.66674880  1
  O2-  O237  1  0.17220998  0.66539037  -0.00852919  1
  O2-  O238  1  0.16811900  0.67230569  0.33729021  1
  O2-  O239  1  0.15943586  0.66283228  0.66133595  1
  O2-  O240  1  0.50062910  0.19274995  0.00300957  1
  O2-  O241  1  0.49943595  0.17886423  0.33764508  1
  O2-  O242  1  0.50407707  0.16862527  0.66924293  1
  O2-  O243  1  0.49836327  0.65791362  -0.00328944  1
  O2-  O244  1  0.49854876  0.66048461  0.33428333  1
  O2-  O245  1  0.49946112  0.66968265  0.66455111  1
  O2-  O246  1  0.82663878  0.15002054  0.00919409  1
  O2-  O247  1  0.83361807  0.16380637  0.33454242  1
  O2-  O248  1  0.82676796  0.16117107  0.66130063  1
  O2-  O249  1  0.82675251  0.66063793  -0.00643236  1
  O2-  O250  1  0.83270906  0.66725859  0.33297760  1
  O2-  O251  1  0.83727714  0.64978506  0.66651268  1
  O2-  O252  1  0.00084793  0.34159840  0.00179268  1
  O2-  O253  1  -0.00003525  0.34256668  0.33536641  1
  O2-  O254  1  -0.00261850  0.33728713  0.67060535  1
  O2-  O255  1  0.00808212  0.83810231  -0.00716862  1
  O2-  O256  1  -0.00730239  0.82124245  0.33550653  1
  O2-  O257  1  0.00523240  0.83360006  0.66670585  1
  O2-  O258  1  0.33636937  0.33917366  0.00059805  1
  O2-  O259  1  0.33451168  0.35122074  0.33287338  1
  O2-  O260  1  0.32856422  0.33927131  0.66911406  1
  O2-  O261  1  0.32960075  0.84267575  0.00270939  1
  O2-  O262  1  0.33295423  0.80999774  0.33270990  1
  O2-  O263  1  0.32831075  0.84206089  0.67443488  1
  O2-  O264  1  0.66470040  0.33641685  0.00082624  1
  O2-  O265  1  0.66505615  0.34375248  0.33106223  1
  O2-  O266  1  0.66770084  0.30712018  0.66573736  1
  O2-  O267  1  0.66263652  0.83930672  0.00634945  1
  O2-  O268  1  0.66408583  0.84852761  0.33793377  1
  O2-  O269  1  0.66198812  0.84528184  0.66974917  1
  O2-  O270  1  0.16620111  0.33056344  0.00155495  1
  O2-  O271  1  0.17494380  0.34673452  0.34159398  1
  O2-  O272  1  0.16719069  0.33552680  0.66735275  1
  O2-  O273  1  0.17105543  0.84517125  0.00147612  1
  O2-  O274  1  0.16947461  0.81455024  0.33479955  1
  O2-  O275  1  0.16818209  0.83969186  0.66789869  1
  O2-  O276  1  0.50226950  0.32552413  -0.00073036  1
  O2-  O277  1  0.50193358  0.33797685  0.33058005  1
  O2-  O278  1  0.50682476  0.33494604  0.67370158  1
  O2-  O279  1  0.50111625  0.83872544  -0.00055979  1
  O2-  O280  1  0.50499616  0.83566724  0.33763647  1
  O2-  O281  1  0.50053763  0.83919839  0.67178665  1
  O2-  O282  1  0.83483748  0.35611277  0.00279891  1
  O2-  O283  1  0.83174896  0.34663663  0.33205521  1
  O2-  O284  1  0.83696531  0.33078645  0.67170665  1
  O2-  O285  1  0.83427485  0.83132528  0.00373751  1
  O2-  O286  1  0.83314362  0.83366190  0.33495829  1
  O2-  O287  1  0.83200002  0.84580226  0.66522604  1
  O2-  O288  1  0.00596833  0.17755954  0.16176761  1
  O2-  O289  1  -0.00117713  0.16892571  0.50523469  1
  O2-  O290  1  0.00381009  0.17780564  0.83141483  1
  O2-  O291  1  -0.00959968  0.68494680  0.17397128  1
  O2-  O292  1  0.00197503  0.68388430  0.49769707  1
  O2-  O293  1  -0.00356758  0.68367818  0.82881975  1
  O2-  O294  1  0.33331350  0.17763458  0.16045785  1
  O2-  O295  1  0.33658188  0.17343740  0.49813143  1
  O2-  O296  1  0.33809994  0.17535260  0.83476949  1
  O2-  O297  1  0.33718142  0.67689417  0.17297833  1
  O2-  O298  1  0.32991076  0.67798198  0.49379603  1
  O2-  O299  1  0.34045880  0.67039888  0.83665381  1
  O2-  O300  1  0.66829525  0.18777480  0.17178482  1
  O2-  O301  1  0.67062381  0.18245891  0.50651107  1
  O2-  O302  1  0.66625473  0.19353811  0.83644916  1
  O2-  O303  1  0.66592851  0.67319474  0.16780703  1
  O2-  O304  1  0.66581990  0.67237390  0.49709261  1
  O2-  O305  1  0.67063435  0.67552422  0.83527708  1
  O2-  O306  1  0.16722485  0.17118324  0.15913979  1
  O2-  O307  1  0.16513009  0.17330999  0.50275712  1
  O2-  O308  1  0.15947312  0.17781647  0.83391545  1
  O2-  O309  1  0.17293694  0.68609619  0.16592923  1
  O2-  O310  1  0.16860064  0.67968344  0.49379397  1
  O2-  O311  1  0.17074048  0.68797814  0.83020169  1
  O2-  O312  1  0.50163222  0.19884010  0.16927749  1
  O2-  O313  1  0.49596100  0.18588458  0.50200568  1
  O2-  O314  1  0.50299809  0.18261525  0.83166242  1
  O2-  O315  1  0.50121637  0.67207060  0.17615695  1
  O2-  O316  1  0.50334057  0.68383232  0.49574550  1
  O2-  O317  1  0.49596507  0.67401208  0.83493112  1
  O2-  O318  1  0.83761060  0.17049316  0.16330491  1
  O2-  O319  1  0.83309471  0.17199737  0.50608554  1
  O2-  O320  1  0.83071470  0.18343021  0.83724861  1
  O2-  O321  1  0.83202204  0.68360233  0.17646887  1
  O2-  O322  1  0.83139191  0.67514517  0.49493973  1
  O2-  O323  1  0.83238064  0.67454627  0.83011037  1
  O2-  O324  1  -0.00503037  0.32197667  0.15873155  1
  O2-  O325  1  -0.00140879  0.32629428  0.49805140  1
  O2-  O326  1  -0.00099661  0.32378012  0.83427729  1
  O2-  O327  1  -0.00359376  0.81473068  0.16236631  1
  O2-  O328  1  -0.00069744  0.81629190  0.49547229  1
  O2-  O329  1  0.00095350  0.82157480  0.82822200  1
  O2-  O330  1  0.33533947  0.32301973  0.16924115  1
  O2-  O331  1  0.32869819  0.33307875  0.49572043  1
  O2-  O332  1  0.33854315  0.33298499  0.83831261  1
  O2-  O333  1  0.32997965  0.82076185  0.16269621  1
  O2-  O334  1  0.33353359  0.81897983  0.49480038  1
  O2-  O335  1  0.32769653  0.82579148  0.82965852  1
  O2-  O336  1  0.67157950  0.32060684  0.17076079  1
  O2-  O337  1  0.66104705  0.32199214  0.49614779  1
  O2-  O338  1  0.66779987  0.31538978  0.83501344  1
  O2-  O339  1  0.66909812  0.82375444  0.17173359  1
  O2-  O340  1  0.66750955  0.82711418  0.49910689  1
  O2-  O341  1  0.66208453  0.82282320  0.82861532  1
  O2-  O342  1  0.16626818  0.31993983  0.16738288  1
  O2-  O343  1  0.17119487  0.32818574  0.49556791  1
  O2-  O344  1  0.16292485  0.32224594  0.83825577  1
  O2-  O345  1  0.17554033  0.81937021  0.16131640  1
  O2-  O346  1  0.16461941  0.82415164  0.49690090  1
  O2-  O347  1  0.16731069  0.81447610  0.83192813  1
  O2-  O348  1  0.49923355  0.31852456  0.16813485  1
  O2-  O349  1  0.50568789  0.32156239  0.49618352  1
  O2-  O350  1  0.50028025  0.32373902  0.83623741  1
  O2-  O351  1  0.50498364  0.82691420  0.16034839  1
  O2-  O352  1  0.50530331  0.81935358  0.49281019  1
  O2-  O353  1  0.50279401  0.82229276  0.82965958  1
  O2-  O354  1  0.83566297  0.33021377  0.16496146  1
  O2-  O355  1  0.84049884  0.32961147  0.49409974  1
  O2-  O356  1  0.83063024  0.32246794  0.83522695  1
  O2-  O357  1  0.82682171  0.81568450  0.17308315  1
  O2-  O358  1  0.83883451  0.83042937  0.49161990  1
  O2-  O359  1  0.83443888  0.82753559  0.83038779  1
  O2-  O360  1  0.08001740  0.07727450  0.11258319  1
  O2-  O361  1  0.08527555  0.07230053  0.44847805  1
  O2-  O362  1  0.08278195  0.08425650  0.76888861  1
  O2-  O363  1  0.10336316  0.58218930  0.09416094  1
  O2-  O364  1  0.09876311  0.57631540  0.45011706  1
  O2-  O365  1  0.08314492  0.58072679  0.78780931  1
  O2-  O366  1  0.40098654  0.07680419  0.11067524  1
  O2-  O367  1  0.42022048  0.08527458  0.45178070  1
  O2-  O368  1  0.43018022  0.08800847  0.75151153  1
  O2-  O369  1  0.41762090  0.57600811  0.11568437  1
  O2-  O370  1  0.39622772  0.58025873  0.41613584  1
  O2-  O371  1  0.40893792  0.57440989  0.78239341  1
  O2-  O372  1  0.74596655  0.07740355  0.12317432  1
  O2-  O373  1  0.75161756  0.07822029  0.42940962  1
  O2-  O374  1  0.74012337  0.08260070  0.77774594  1
  O2-  O375  1  0.75601071  0.58554577  0.11661709  1
  O2-  O376  1  0.75800631  0.58055103  0.43878291  1
  O2-  O377  1  0.75914308  0.57858360  0.77902617  1
  O2-  O378  1  0.22159620  0.07386994  0.22708423  1
  O2-  O379  1  0.25133036  0.07852255  0.55903329  1
  O2-  O380  1  0.23945634  0.07921954  0.89280853  1
  O2-  O381  1  0.25430107  0.58533721  0.22989803  1
  O2-  O382  1  0.24294488  0.58320655  0.56517395  1
  O2-  O383  1  0.24012616  0.58365267  0.88277766  1
  O2-  O384  1  0.60507512  0.07344200  0.22221930  1
  O2-  O385  1  0.60988259  0.08235044  0.58115315  1
  O2-  O386  1  0.59471269  0.07450331  0.87101368  1
  O2-  O387  1  0.57467842  0.58319049  0.23113308  1
  O2-  O388  1  0.58535357  0.58090230  0.55192476  1
  O2-  O389  1  0.57217473  0.58246513  0.89950582  1
  O2-  O390  1  0.93125851  0.07230902  0.21453513  1
  O2-  O391  1  0.90342538  0.08376893  0.56033103  1
  O2-  O392  1  0.91459031  0.07646458  0.89150077  1
  O2-  O393  1  0.90858056  0.58376057  0.24493365  1
  O2-  O394  1  0.92656412  0.57642623  0.54481816  1
  O2-  O395  1  0.92152569  0.58538888  0.89069337  1
  O2-  O396  1  0.07085137  0.42221125  0.10873214  1
  O2-  O397  1  0.09851273  0.42135809  0.43655077  1
  O2-  O398  1  0.08204528  0.41639901  0.77358249  1
  O2-  O399  1  0.09359302  0.91036759  0.10753100  1
  O2-  O400  1  0.06437748  0.91715629  0.43766627  1
  O2-  O401  1  0.10217666  0.91584485  0.77460112  1
  O2-  O402  1  0.42609520  0.41905621  0.11129541  1
  O2-  O403  1  0.43417656  0.41716166  0.41991486  1
  O2-  O404  1  0.42328618  0.42089702  0.77510169  1
  O2-  O405  1  0.40601119  0.91897223  0.10605239  1
  O2-  O406  1  0.42831266  0.91777773  0.43653411  1
  O2-  O407  1  0.41059509  0.91371776  0.77174200  1
  O2-  O408  1  0.74248089  0.42080069  0.11517233  1
  O2-  O409  1  0.73105737  0.41724891  0.42505076  1
  O2-  O410  1  0.73590553  0.42147848  0.77576252  1
  O2-  O411  1  0.75039202  0.91491779  0.11143899  1
  O2-  O412  1  0.75263049  0.91790824  0.44066576  1
  O2-  O413  1  0.75485386  0.91878447  0.76521822  1
  O2-  O414  1  0.25478461  0.41648718  0.21583761  1
  O2-  O415  1  0.24809380  0.42052396  0.56680790  1
  O2-  O416  1  0.24409904  0.41447033  0.90525375  1
  O2-  O417  1  0.25150084  0.91743109  0.22989428  1
  O2-  O418  1  0.24443170  0.91707674  0.54997781  1
  O2-  O419  1  0.23894192  0.91781210  0.88643402  1
  O2-  O420  1  0.57460681  0.41882292  0.21821694  1
  O2-  O421  1  0.58357484  0.42483204  0.55858794  1
  O2-  O422  1  0.58098261  0.41425947  0.89784541  1
  O2-  O423  1  0.59139154  0.92482140  0.21556193  1
  O2-  O424  1  0.59201583  0.91970183  0.55392328  1
  O2-  O425  1  0.58226327  0.91923244  0.89087128  1
  O2-  O426  1  0.89732767  0.42277914  0.22001391  1
  O2-  O427  1  0.91631007  0.42026999  0.56610039  1
  O2-  O428  1  0.92205789  0.41650502  0.88655167  1
  O2-  O429  1  0.90804990  0.91519165  0.25991199  1
  O2-  O430  1  0.92746298  0.91852923  0.54940557  1
  O2-  O431  1  0.93131732  0.91780391  0.88973858  1
  O2-  O432  1  0.00388512  0.00806737  -0.00918113  1
  O2-  O433  1  -0.01230433  0.00250818  0.34861881  1
  O2-  O434  1  0.01152287  -0.00975926  0.65921842  1
  O2-  O435  1  -0.00083739  0.49813720  0.00521750  1
  O2-  O436  1  -0.02612430  0.49595849  0.37160419  1
  O2-  O437  1  0.00138464  0.51166689  0.66674281  1
  O2-  O438  1  0.31113964  -0.00476069  0.03701145  1
  O2-  O439  1  0.32653431  -0.00105317  0.34341763  1
  O2-  O440  1  0.33260459  -0.00309810  0.67094077  1
  O2-  O441  1  0.33668823  0.50687724  -0.01299841  1
  O2-  O442  1  0.33448036  0.49278366  0.31338504  1
  O2-  O443  1  0.30949474  0.49926328  0.69795146  1
  O2-  O444  1  0.66616514  0.00880743  -0.00485644  1
  O2-  O445  1  0.66797436  -0.01416011  0.33143875  1
  O2-  O446  1  0.66039414  -0.00234071  0.69226581  1
  O2-  O447  1  0.66244321  0.49523510  -0.00200691  1
  O2-  O448  1  0.65104586  0.49763352  0.34581867  1
  O2-  O449  1  0.67347252  0.50655695  0.65530021  1
  O2-  O450  1  0.16273009  -0.00164080  0.00111949  1
  O2-  O451  1  0.17048016  -0.00273857  0.34526364  1
  O2-  O452  1  0.16554321  -0.01499447  0.65465746  1
  O2-  O453  1  0.16651453  0.49447708  0.00286122  1
  O2-  O454  1  0.18511314  0.50594774  0.35749568  1
  O2-  O455  1  0.17001327  0.50917186  0.67991888  1
  O2-  O456  1  0.51112941  -0.00435207  0.01974640  1
  O2-  O457  1  0.51178987  -0.00736519  0.34338390  1
  O2-  O458  1  0.51179093  -0.00822891  0.70273330  1
  O2-  O459  1  0.49414015  0.50631771  0.00107890  1
  O2-  O460  1  0.48527090  0.50004950  0.30012850  1
  O2-  O461  1  0.51536139  0.49327940  0.68799978  1
  O2-  O462  1  0.83430636  0.01034741  -0.00067567  1
  O2-  O463  1  0.83741307  0.00056072  0.34010735  1
  O2-  O464  1  0.81709415  0.00139298  0.65019969  1
  O2-  O465  1  0.83106217  0.50048120  -0.00633466  1
  O2-  O466  1  0.81575247  0.49580102  0.32559750  1
  O2-  O467  1  0.84182387  0.50969509  0.67350173  1
  O2-  O468  1  0.24981218  0.74939606  0.60040720  1
  O2-  O469  1  0.24720267  0.25530047  0.58721968  1
  O2-  O470  1  0.58926931  0.75144018  0.59878290  1
  O2-  O471  1  0.75630401  0.25362119  0.40636476  1
  O2-  O472  1  0.08626980  0.75103539  0.06916410  1
  O2-  O473  1  0.08223484  0.25582740  0.40696052  1
  O2-  O474  1  0.41167035  0.25351519  0.74415196  1
  O2-  O475  1  0.41300279  0.74927621  0.73554396  1
  O2-  O476  1  0.91545432  0.25491670  0.94207858  1
  O2-  O477  1  0.73769469  0.74887074  0.06587276  1
  O2-  O478  1  0.58732732  0.75177043  0.26745994  1
  O2-  O479  1  0.90993007  0.75249420  0.92503432  1
  O2-  O480  1  0.90380188  0.74612669  0.60031438  1
  O2-  O481  1  0.26421484  0.75092634  0.93384204  1
  O2-  O482  1  0.24782746  0.25311879  0.26784282  1
  O2-  O483  1  0.26265299  0.24783541  0.93078792  1
  O2-  O484  1  0.08223202  0.25107298  0.73582572  1
  O2-  O485  1  0.91698492  0.25440053  0.26491599  1
  O2-  O486  1  0.75151437  0.75089774  0.73094623  1
  O2-  O487  1  0.40399685  0.25316313  0.40490858  1
  O2-  O488  1  0.74351917  0.74954745  0.40220673  1
  O2-  O489  1  0.76400825  0.25164614  0.06270792  1
  O2-  O490  1  0.58535676  0.75003664  0.93225076  1
  O2-  O491  1  0.41960653  0.75320710  0.06928477  1
  O2-  O492  1  0.91687362  0.25150293  0.59628540  1
