# generated using pymatgen
data_Ca108Mn108O277
_symmetry_space_group_name_H-M   'P 1'
_cell_length_a   16.01544257
_cell_length_b   22.28935001
_cell_length_c   16.37890289
_cell_angle_alpha   89.99809018
_cell_angle_beta   90.00031378
_cell_angle_gamma   89.99914939
_symmetry_Int_Tables_number   1
_chemical_formula_structural   Ca108Mn108O277
_chemical_formula_sum   'Ca108 Mn108 O277'
_cell_volume   5846.83928030
_cell_formula_units_Z   1
loop_
 _symmetry_equiv_pos_site_id
 _symmetry_equiv_pos_as_xyz
  1  'x, y, z'
loop_
 _atom_type_symbol
 _atom_type_oxidation_number
  Ca2+  2.0
  Mn3.34+  3.34
  O2-  -2.0
loop_
 _atom_site_type_symbol
 _atom_site_label
 _atom_site_symmetry_multiplicity
 _atom_site_fract_x
 _atom_site_fract_y
 _atom_site_fract_z
 _atom_site_occupancy
  Ca2+  Ca0  1  0.09781891  0.24824368  0.26190797  1
  Ca2+  Ca1  1  0.08469405  0.24350950  0.58427949  1
  Ca2+  Ca2  1  0.06168693  0.23513334  0.91713168  1
  Ca2+  Ca3  1  0.09251246  0.76415325  0.24884453  1
  Ca2+  Ca4  1  0.08895006  0.75638264  0.57291293  1
  Ca2+  Ca5  1  0.07110259  0.75379816  0.92606633  1
  Ca2+  Ca6  1  0.41642304  0.25412577  0.23322823  1
  Ca2+  Ca7  1  0.41663473  0.24720623  0.58355363  1
  Ca2+  Ca8  1  0.42653997  0.23987841  0.93250611  1
  Ca2+  Ca9  1  0.42924254  0.75694604  0.26618756  1
  Ca2+  Ca10  1  0.43102209  0.74947059  0.57318349  1
  Ca2+  Ca11  1  0.41123993  0.75931314  0.92224285  1
  Ca2+  Ca12  1  0.73362250  0.25361163  0.23715776  1
  Ca2+  Ca13  1  0.75273885  0.23805925  0.59547289  1
  Ca2+  Ca14  1  0.76142549  0.22900808  0.91614988  1
  Ca2+  Ca15  1  0.73028294  0.75054871  0.25266009  1
  Ca2+  Ca16  1  0.73325139  0.75816769  0.57753080  1
  Ca2+  Ca17  1  0.76440977  0.76301918  0.92136312  1
  Ca2+  Ca18  1  0.26524094  0.24171808  0.09032774  1
  Ca2+  Ca19  1  0.22636137  0.23966270  0.42419718  1
  Ca2+  Ca20  1  0.23955459  0.23974538  0.74109904  1
  Ca2+  Ca21  1  0.24171883  0.76284011  0.08295672  1
  Ca2+  Ca22  1  0.26001447  0.75292230  0.43191155  1
  Ca2+  Ca23  1  0.25024493  0.75211037  0.74356810  1
  Ca2+  Ca24  1  0.57031902  0.23085769  0.07758866  1
  Ca2+  Ca25  1  0.57733655  0.26297554  0.41867945  1
  Ca2+  Ca26  1  0.59303075  0.24572234  0.75405928  1
  Ca2+  Ca27  1  0.59099716  0.76088535  0.09654687  1
  Ca2+  Ca28  1  0.58135584  0.74395285  0.43426390  1
  Ca2+  Ca29  1  0.58773173  0.75572660  0.72790212  1
  Ca2+  Ca30  1  0.91205417  0.24650597  0.05901584  1
  Ca2+  Ca31  1  0.94005289  0.23751783  0.43227868  1
  Ca2+  Ca32  1  0.91952229  0.24194053  0.76127416  1
  Ca2+  Ca33  1  0.91593071  0.75915148  0.06584677  1
  Ca2+  Ca34  1  0.91100928  0.75293545  0.43523265  1
  Ca2+  Ca35  1  0.91159681  0.75159048  0.76533102  1
  Ca2+  Ca36  1  0.93004531  0.57450208  0.75578282  1
  Ca2+  Ca37  1  0.93912337  0.09626146  0.06292855  1
  Ca2+  Ca38  1  0.09245367  0.09689684  0.25998289  1
  Ca2+  Ca39  1  0.38990904  0.58828616  0.91044706  1
  Ca2+  Ca40  1  0.74606119  0.08913500  0.25194913  1
  Ca2+  Ca41  1  0.94862897  0.09403741  0.06614361  1
  Ca2+  Ca42  1  0.73453900  0.08990680  0.25164969  1
  Ca2+  Ca43  1  0.57761973  0.59326687  0.73505992  1
  Ca2+  Ca44  1  0.73986889  0.60329649  0.57693452  1
  Ca2+  Ca45  1  0.25011498  0.09777520  0.07575554  1
  Ca2+  Ca46  1  0.08878981  0.09327216  0.25191562  1
  Ca2+  Ca47  1  0.42130803  0.08981713  0.94906928  1
  Ca2+  Ca48  1  0.58430351  0.08570759  0.42838606  1
  Ca2+  Ca49  1  0.06600300  0.58665676  0.25261024  1
  Ca2+  Ca50  1  0.41647819  0.09324022  0.21817669  1
  Ca2+  Ca51  1  0.07876108  0.58707484  0.25275744  1
  Ca2+  Ca52  1  0.42772419  0.09316661  0.21982811  1
  Ca2+  Ca53  1  0.76262353  0.59202703  0.91658080  1
  Ca2+  Ca54  1  0.08168580  0.58006219  0.59956262  1
  Ca2+  Ca55  1  0.92267856  0.58793056  0.06281056  1
  Ca2+  Ca56  1  0.43406315  0.58917295  0.27424232  1
  Ca2+  Ca57  1  0.24006527  0.09666482  0.07301886  1
  Ca2+  Ca58  1  0.07702203  0.09972275  0.91519520  1
  Ca2+  Ca59  1  0.77492637  0.59336384  0.91390271  1
  Ca2+  Ca60  1  0.59113865  0.59596648  0.08523007  1
  Ca2+  Ca61  1  0.07022976  0.10639880  0.56445380  1
  Ca2+  Ca62  1  0.25272057  0.58706026  0.03822732  1
  Ca2+  Ca63  1  0.90652896  0.59088369  0.42710651  1
  Ca2+  Ca64  1  0.92005643  0.10524536  0.75290848  1
  Ca2+  Ca65  1  0.91388875  0.59153126  0.05492472  1
  Ca2+  Ca66  1  0.24425457  0.58393325  0.04427498  1
  Ca2+  Ca67  1  0.59653298  0.08791565  0.42964756  1
  Ca2+  Ca68  1  0.41947614  0.09129819  0.59577082  1
  Ca2+  Ca69  1  0.58583979  0.09834458  0.74557073  1
  Ca2+  Ca70  1  0.91829133  0.59108330  0.42747117  1
  Ca2+  Ca71  1  0.08461529  0.59484631  0.91289372  1
  Ca2+  Ca72  1  0.24013292  0.90497375  0.74602464  1
  Ca2+  Ca73  1  0.41503507  0.91417031  0.93586338  1
  Ca2+  Ca74  1  0.24098319  0.91490220  0.07999632  1
  Ca2+  Ca75  1  0.75566507  0.39765337  0.24945757  1
  Ca2+  Ca76  1  0.91336761  0.90613229  0.41966605  1
  Ca2+  Ca77  1  0.40225682  0.40321110  0.57863072  1
  Ca2+  Ca78  1  0.58151509  0.39872755  0.08435983  1
  Ca2+  Ca79  1  0.90778053  0.40351880  0.41527410  1
  Ca2+  Ca80  1  0.06927771  0.39522662  0.24652881  1
  Ca2+  Ca81  1  0.58137099  0.90795747  0.73211654  1
  Ca2+  Ca82  1  0.23467716  0.41729839  0.75259045  1
  Ca2+  Ca83  1  0.92614459  0.90778390  0.41753700  1
  Ca2+  Ca84  1  0.41652590  0.40519217  0.91831481  1
  Ca2+  Ca85  1  0.42802769  0.40474590  0.25411381  1
  Ca2+  Ca86  1  0.92041483  0.40291473  0.41497993  1
  Ca2+  Ca87  1  0.41268483  0.90721519  0.24690632  1
  Ca2+  Ca88  1  0.57906355  0.40008975  0.75222119  1
  Ca2+  Ca89  1  0.57385436  0.91227810  0.07816973  1
  Ca2+  Ca90  1  0.08473246  0.91204160  0.24071224  1
  Ca2+  Ca91  1  0.93303644  0.90563005  0.75424625  1
  Ca2+  Ca92  1  0.75975379  0.40039127  0.58445928  1
  Ca2+  Ca93  1  0.25654368  0.90138964  0.42304688  1
  Ca2+  Ca94  1  0.41510677  0.40303735  0.57896760  1
  Ca2+  Ca95  1  0.75552576  0.40319352  0.91166763  1
  Ca2+  Ca96  1  0.24750762  0.40337256  0.07416210  1
  Ca2+  Ca97  1  0.08916440  0.90833057  0.58685455  1
  Ca2+  Ca98  1  0.92413182  0.41675718  0.73865342  1
  Ca2+  Ca99  1  0.92162188  0.90634911  0.75406557  1
  Ca2+  Ca100  1  0.07645868  0.41262348  0.59744944  1
  Ca2+  Ca101  1  0.06383435  0.41070594  0.90776835  1
  Ca2+  Ca102  1  0.26020874  0.40335401  0.07441274  1
  Ca2+  Ca103  1  0.76687155  0.40346674  0.91088277  1
  Ca2+  Ca104  1  0.24747616  0.41810026  0.75442498  1
  Ca2+  Ca105  1  0.07635331  0.41277662  0.90892873  1
  Ca2+  Ca106  1  0.75801180  0.90403362  0.24764467  1
  Ca2+  Ca107  1  0.74628415  0.90486213  0.24824952  1
  Mn3.34+  Mn108  1  0.08056225  0.32141140  0.08455002  1
  Mn3.34+  Mn109  1  0.08644251  0.32819673  0.41919053  1
  Mn3.34+  Mn110  1  0.08294714  0.33085309  0.74942797  1
  Mn3.34+  Mn111  1  0.08048724  0.84176414  0.08117962  1
  Mn3.34+  Mn112  1  0.08668293  0.83456652  0.41699944  1
  Mn3.34+  Mn113  1  0.08691326  0.83103277  0.75467679  1
  Mn3.34+  Mn114  1  0.41988799  0.32990388  0.08343541  1
  Mn3.34+  Mn115  1  0.41451159  0.33734302  0.41325448  1
  Mn3.34+  Mn116  1  0.41447512  0.32815610  0.75402642  1
  Mn3.34+  Mn117  1  0.41582554  0.83962382  0.08551520  1
  Mn3.34+  Mn118  1  0.42201735  0.83542602  0.42018974  1
  Mn3.34+  Mn119  1  0.41768022  0.82999425  0.75271238  1
  Mn3.34+  Mn120  1  0.75188818  0.32874210  0.08418694  1
  Mn3.34+  Mn121  1  0.75012590  0.32299861  0.41934659  1
  Mn3.34+  Mn122  1  0.75112114  0.33189063  0.74774178  1
  Mn3.34+  Mn123  1  0.75099502  0.83745024  0.07842938  1
  Mn3.34+  Mn124  1  0.74354071  0.83403659  0.42144483  1
  Mn3.34+  Mn125  1  0.74679008  0.83609818  0.75226266  1
  Mn3.34+  Mn126  1  0.24989558  0.33066686  0.25341830  1
  Mn3.34+  Mn127  1  0.24601528  0.33228665  0.57866178  1
  Mn3.34+  Mn128  1  0.24839332  0.32812908  0.91196387  1
  Mn3.34+  Mn129  1  0.25125574  0.83833379  0.24845495  1
  Mn3.34+  Mn130  1  0.25755794  0.83380160  0.58437728  1
  Mn3.34+  Mn131  1  0.24601305  0.83651796  0.91285583  1
  Mn3.34+  Mn132  1  0.58415408  0.33440258  0.25174410  1
  Mn3.34+  Mn133  1  0.58565047  0.32997356  0.58051244  1
  Mn3.34+  Mn134  1  0.58386846  0.33079429  0.91586219  1
  Mn3.34+  Mn135  1  0.58022382  0.83495542  0.25196345  1
  Mn3.34+  Mn136  1  0.58024118  0.84039808  0.57893960  1
  Mn3.34+  Mn137  1  0.58476273  0.83806291  0.91138487  1
  Mn3.34+  Mn138  1  0.91675788  0.33356611  0.24524307  1
  Mn3.34+  Mn139  1  0.91781829  0.33448384  0.58222729  1
  Mn3.34+  Mn140  1  0.91759820  0.33088057  0.91395361  1
  Mn3.34+  Mn141  1  0.91794121  0.82912544  0.24557648  1
  Mn3.34+  Mn142  1  0.91349126  0.83344673  0.58599502  1
  Mn3.34+  Mn143  1  0.91773997  0.83646733  0.92084188  1
  Mn3.34+  Mn144  1  0.75713435  0.16856835  0.42820500  1
  Mn3.34+  Mn145  1  0.24629878  0.66419584  0.25797507  1
  Mn3.34+  Mn146  1  0.74214769  0.67054515  0.41963942  1
  Mn3.34+  Mn147  1  0.25435361  0.66451675  0.57666737  1
  Mn3.34+  Mn148  1  0.41358088  0.17079407  0.75476809  1
  Mn3.34+  Mn149  1  0.90495853  0.67206815  0.24842419  1
  Mn3.34+  Mn150  1  0.74696396  0.66479700  0.74912191  1
  Mn3.34+  Mn151  1  0.08293602  0.66714398  0.75403829  1
  Mn3.34+  Mn152  1  0.58730802  0.66427503  0.25634578  1
  Mn3.34+  Mn153  1  0.40538670  0.16056932  0.41753085  1
  Mn3.34+  Mn154  1  0.91904386  0.66466188  0.58318476  1
  Mn3.34+  Mn155  1  0.25658648  0.66960644  0.25772087  1
  Mn3.34+  Mn156  1  0.08777229  0.66966777  0.42532685  1
  Mn3.34+  Mn157  1  0.40887403  0.66738860  0.75246640  1
  Mn3.34+  Mn158  1  0.74500190  0.67120819  0.08471869  1
  Mn3.34+  Mn159  1  0.74613312  0.16190821  0.07760492  1
  Mn3.34+  Mn160  1  0.91907074  0.18148768  0.25123720  1
  Mn3.34+  Mn161  1  0.58278936  0.16901516  0.24732663  1
  Mn3.34+  Mn162  1  0.08391599  0.16544575  0.75003612  1
  Mn3.34+  Mn163  1  0.41831925  0.67261175  0.75068368  1
  Mn3.34+  Mn164  1  0.42424043  0.66575793  0.42636986  1
  Mn3.34+  Mn165  1  0.90944815  0.17221246  0.25066502  1
  Mn3.34+  Mn166  1  0.24903460  0.16709702  0.24618060  1
  Mn3.34+  Mn167  1  0.58453286  0.16326242  0.91481629  1
  Mn3.34+  Mn168  1  0.08460510  0.67269434  0.08234825  1
  Mn3.34+  Mn169  1  0.09519085  0.66147881  0.75388566  1
  Mn3.34+  Mn170  1  0.58658656  0.16509846  0.58661818  1
  Mn3.34+  Mn171  1  0.41537320  0.16655888  0.41651656  1
  Mn3.34+  Mn172  1  0.75662337  0.67029336  0.74780188  1
  Mn3.34+  Mn173  1  0.41383005  0.67137389  0.08272852  1
  Mn3.34+  Mn174  1  0.25102793  0.16755680  0.90886068  1
  Mn3.34+  Mn175  1  0.75600855  0.16837633  0.75172003  1
  Mn3.34+  Mn176  1  0.58400870  0.66782927  0.91263752  1
  Mn3.34+  Mn177  1  0.91323609  0.66583630  0.24695464  1
  Mn3.34+  Mn178  1  0.42577700  0.66612584  0.08504023  1
  Mn3.34+  Mn179  1  0.24581997  0.16372228  0.58593913  1
  Mn3.34+  Mn180  1  0.08766964  0.00340625  0.74479305  1
  Mn3.34+  Mn181  1  0.74612150  0.50124881  0.09578033  1
  Mn3.34+  Mn182  1  0.41860355  -0.00181447  0.75169745  1
  Mn3.34+  Mn183  1  0.09754313  0.49758942  0.42458665  1
  Mn3.34+  Mn184  1  0.58784578  0.49852585  0.57547276  1
  Mn3.34+  Mn185  1  0.58153669  0.49960734  0.25266426  1
  Mn3.34+  Mn186  1  0.25012717  0.49377346  0.24945888  1
  Mn3.34+  Mn187  1  0.08032156  0.49760367  0.08892905  1
  Mn3.34+  Mn188  1  0.92536995  -0.00266913  0.93359527  1
  Mn3.34+  Mn189  1  0.74896455  0.00111930  0.06496493  1
  Mn3.34+  Mn190  1  0.91642090  0.00625198  0.58910703  1
  Mn3.34+  Mn191  1  0.75688841  0.49664446  0.09478557  1
  Mn3.34+  Mn192  1  0.57863911  0.00223940  0.92605822  1
  Mn3.34+  Mn193  1  0.41443178  0.50127879  0.75037710  1
  Mn3.34+  Mn194  1  0.75322605  -0.00007273  0.41678851  1
  Mn3.34+  Mn195  1  0.42350635  0.50365639  0.41380735  1
  Mn3.34+  Mn196  1  0.24792911  0.00233070  0.58556400  1
  Mn3.34+  Mn197  1  0.06967457  0.49319290  0.08625078  1
  Mn3.34+  Mn198  1  0.24770348  0.50261756  0.58840906  1
  Mn3.34+  Mn199  1  0.58016872  0.50162738  0.91543477  1
  Mn3.34+  Mn200  1  0.75638970  0.49941688  0.73992253  1
  Mn3.34+  Mn201  1  0.25238508  0.00068412  0.26020550  1
  Mn3.34+  Mn202  1  0.08236204  0.00373978  0.41101675  1
  Mn3.34+  Mn203  1  0.74034517  0.00484794  0.74702049  1
  Mn3.34+  Mn204  1  0.42200382  0.49828709  0.08496034  1
  Mn3.34+  Mn205  1  0.74252852  0.50282136  0.41427748  1
  Mn3.34+  Mn206  1  0.57587833  0.50575348  0.57688641  1
  Mn3.34+  Mn207  1  0.73426537  0.49594056  0.41129822  1
  Mn3.34+  Mn208  1  0.41772004  -0.00247962  0.41361861  1
  Mn3.34+  Mn209  1  0.26422089  0.49952818  0.24649357  1
  Mn3.34+  Mn210  1  0.75287430  -0.00042773  0.75136161  1
  Mn3.34+  Mn211  1  0.91758013  0.00056198  0.24333438  1
  Mn3.34+  Mn212  1  0.57897136  -0.00051408  0.25035424  1
  Mn3.34+  Mn213  1  0.24713885  0.00085443  0.92897914  1
  Mn3.34+  Mn214  1  0.08671683  0.50138634  0.42432337  1
  Mn3.34+  Mn215  1  0.40838963  0.00287254  0.75490312  1
  O2-  O216  1  0.00590948  0.16626771  0.00284015  1
  O2-  O217  1  0.00226113  0.17074863  0.32682523  1
  O2-  O218  1  0.00440663  0.16583634  0.67105965  1
  O2-  O219  1  0.00254181  0.65690406  0.00621838  1
  O2-  O220  1  -0.00471812  0.65178617  0.33409401  1
  O2-  O221  1  0.00751229  0.66202047  0.66530483  1
  O2-  O222  1  0.32781532  0.16364496  -0.00498356  1
  O2-  O223  1  0.34064100  0.15253823  0.32222062  1
  O2-  O224  1  0.34035250  0.17475340  0.66521584  1
  O2-  O225  1  0.33482913  0.66612441  -0.00069714  1
  O2-  O226  1  0.34078264  0.65974068  0.33415033  1
  O2-  O227  1  0.33296940  0.67278946  0.66759216  1
  O2-  O228  1  0.66719463  0.16562309  -0.00182043  1
  O2-  O229  1  0.66829533  0.15751671  0.33379787  1
  O2-  O230  1  0.66467738  0.16452981  0.66823634  1
  O2-  O231  1  0.66962828  0.65558784  -0.00537645  1
  O2-  O232  1  0.67127648  0.66871631  0.33105888  1
  O2-  O233  1  0.66740324  0.66128199  0.67083858  1
  O2-  O234  1  0.17447784  0.16992706  -0.00284123  1
  O2-  O235  1  0.16553545  0.16320398  0.32196850  1
  O2-  O236  1  0.16677712  0.16226680  0.66623385  1
  O2-  O237  1  0.16510987  0.66197708  0.00566305  1
  O2-  O238  1  0.15225131  0.65161636  0.32956134  1
  O2-  O239  1  0.16668783  0.67071570  0.66785261  1
  O2-  O240  1  0.50279135  0.16345064  -0.00842804  1
  O2-  O241  1  0.50329616  0.15034592  0.33717911  1
  O2-  O242  1  0.49838262  0.16366683  0.66647959  1
  O2-  O243  1  0.50391559  0.66383164  -0.00388202  1
  O2-  O244  1  0.49904197  0.66661206  0.33093077  1
  O2-  O245  1  0.50105061  0.67243634  0.67588887  1
  O2-  O246  1  0.83963009  0.15717346  0.01560248  1
  O2-  O247  1  0.82792936  0.17351682  0.33204125  1
  O2-  O248  1  0.83600363  0.17464574  0.67527539  1
  O2-  O249  1  0.82993282  0.65584167  0.00385547  1
  O2-  O250  1  0.83705941  0.65993429  0.34222121  1
  O2-  O251  1  0.83922140  0.64874473  0.66852350  1
  O2-  O252  1  0.00705322  0.33481899  -0.00701968  1
  O2-  O253  1  -0.00415674  0.33325513  0.33592673  1
  O2-  O254  1  0.00063582  0.34123693  0.66614181  1
  O2-  O255  1  0.00124498  0.83271494  -0.00057044  1
  O2-  O256  1  -0.00253509  0.83762911  0.33521189  1
  O2-  O257  1  0.00217706  0.83801550  0.66845958  1
  O2-  O258  1  0.33257080  0.33941009  -0.00274384  1
  O2-  O259  1  0.33951734  0.34108577  0.32361980  1
  O2-  O260  1  0.33267819  0.34131878  0.66869140  1
  O2-  O261  1  0.33055181  0.83472883  -0.00071812  1
  O2-  O262  1  0.33191533  0.83904544  0.33115003  1
  O2-  O263  1  0.32801757  0.82997235  0.67701208  1
  O2-  O264  1  0.67049903  0.35039317  -0.00434643  1
  O2-  O265  1  0.67409285  0.32887168  0.33045067  1
  O2-  O266  1  0.66516886  0.34653880  0.66846338  1
  O2-  O267  1  0.65859846  0.82939268  0.00222865  1
  O2-  O268  1  0.67375930  0.84018969  0.32529399  1
  O2-  O269  1  0.66652204  0.83555148  0.67081331  1
  O2-  O270  1  0.16966991  0.33378173  0.00137187  1
  O2-  O271  1  0.15844592  0.33875319  0.32645906  1
  O2-  O272  1  0.17104808  0.34825232  0.67213095  1
  O2-  O273  1  0.17109239  0.83129128  0.00167241  1
  O2-  O274  1  0.16432653  0.84715644  0.32989070  1
  O2-  O275  1  0.16447567  0.83405250  0.66727672  1
  O2-  O276  1  0.49918243  0.34315943  -0.00188406  1
  O2-  O277  1  0.50090057  0.33772601  0.33148947  1
  O2-  O278  1  0.49300630  0.34122988  0.66531932  1
  O2-  O279  1  0.49901746  0.83568007  -0.00213346  1
  O2-  O280  1  0.49429485  0.84064650  0.32695949  1
  O2-  O281  1  0.49994320  0.82736496  0.67175024  1
  O2-  O282  1  0.83275520  0.34124340  -0.00568914  1
  O2-  O283  1  0.83533084  0.32706129  0.33573084  1
  O2-  O284  1  0.83434207  0.33557608  0.66501585  1
  O2-  O285  1  0.83441524  0.83630637  0.00042874  1
  O2-  O286  1  0.83703748  0.83433811  0.33233293  1
  O2-  O287  1  0.84074545  0.84618540  0.67613018  1
  O2-  O288  1  -0.00308221  0.18317741  0.16851575  1
  O2-  O289  1  0.00305249  0.18281690  0.51614904  1
  O2-  O290  1  0.00305296  0.17195292  0.82774689  1
  O2-  O291  1  0.00604304  0.68029661  0.17447399  1
  O2-  O292  1  -0.00663268  0.67520429  0.49298948  1
  O2-  O293  1  0.00240105  0.68031225  0.82762338  1
  O2-  O294  1  0.33201756  0.16745411  0.16746590  1
  O2-  O295  1  0.33379683  0.17545552  0.50501565  1
  O2-  O296  1  0.33515950  0.19484544  0.83479216  1
  O2-  O297  1  0.32735295  0.66895914  0.16280654  1
  O2-  O298  1  0.33340117  0.67800597  0.49777893  1
  O2-  O299  1  0.33767567  0.68771786  0.83473948  1
  O2-  O300  1  0.67171316  0.17144029  0.17410969  1
  O2-  O301  1  0.65980008  0.17912841  0.49168991  1
  O2-  O302  1  0.66291434  0.17420941  0.82913350  1
  O2-  O303  1  0.65869600  0.67605479  0.15900397  1
  O2-  O304  1  0.67542035  0.67825453  0.50251789  1
  O2-  O305  1  0.66793372  0.68109417  0.83545259  1
  O2-  O306  1  0.17043128  0.17139742  0.16417226  1
  O2-  O307  1  0.16782743  0.17369708  0.50962892  1
  O2-  O308  1  0.16343768  0.18229688  0.83718994  1
  O2-  O309  1  0.16295898  0.66926599  0.17211144  1
  O2-  O310  1  0.16150243  0.67783292  0.50740401  1
  O2-  O311  1  0.16357459  0.68541623  0.83552048  1
  O2-  O312  1  0.49635887  0.17212288  0.17625674  1
  O2-  O313  1  0.50013501  0.17565819  0.49722818  1
  O2-  O314  1  0.50201608  0.18131024  0.82870618  1
  O2-  O315  1  0.49858522  0.67270727  0.17000512  1
  O2-  O316  1  0.49869248  0.67851451  0.49897730  1
  O2-  O317  1  0.49919244  0.68711714  0.83391530  1
  O2-  O318  1  0.82614663  0.17826250  0.17426365  1
  O2-  O319  1  0.83007343  0.19858811  0.49731394  1
  O2-  O320  1  0.83385881  0.17417712  0.82776336  1
  O2-  O321  1  0.83484942  0.68048237  0.15831857  1
  O2-  O322  1  0.83706349  0.66919885  0.49807388  1
  O2-  O323  1  0.82864115  0.67384415  0.83422047  1
  O2-  O324  1  0.00361887  0.30868527  0.17312689  1
  O2-  O325  1  -0.00359623  0.32273766  0.49849370  1
  O2-  O326  1  0.00236925  0.33043940  0.83308128  1
  O2-  O327  1  0.00238882  0.81991926  0.16973102  1
  O2-  O328  1  -0.00055115  0.82833963  0.49812617  1
  O2-  O329  1  -0.00424550  0.82389662  0.82664424  1
  O2-  O330  1  0.32932260  0.32986362  0.15920664  1
  O2-  O331  1  0.33896607  0.32606548  0.50759587  1
  O2-  O332  1  0.32955169  0.31804000  0.83166421  1
  O2-  O333  1  0.33252901  0.82832058  0.16692219  1
  O2-  O334  1  0.33242209  0.82616168  0.49596140  1
  O2-  O335  1  0.33197703  0.81573666  0.83505255  1
  O2-  O336  1  0.66440820  0.32818958  0.16654098  1
  O2-  O337  1  0.67291957  0.31860012  0.50517829  1
  O2-  O338  1  0.67171800  0.33490918  0.83569417  1
  O2-  O339  1  0.66893698  0.83014617  0.17024935  1
  O2-  O340  1  0.66429085  0.82598598  0.49781712  1
  O2-  O341  1  0.66623098  0.81569830  0.83221630  1
  O2-  O342  1  0.17062792  0.31963623  0.16033214  1
  O2-  O343  1  0.15802122  0.32920074  0.50801996  1
  O2-  O344  1  0.16216416  0.32344278  0.83502078  1
  O2-  O345  1  0.16733531  0.82885570  0.16718110  1
  O2-  O346  1  0.16660814  0.82983897  0.49817973  1
  O2-  O347  1  0.16763170  0.81027839  0.83202828  1
  O2-  O348  1  0.49868435  0.33020772  0.16758234  1
  O2-  O349  1  0.49470050  0.32702557  0.50547480  1
  O2-  O350  1  0.50205648  0.32344957  0.83057476  1
  O2-  O351  1  0.50111535  0.82963181  0.16653736  1
  O2-  O352  1  0.50012613  0.82302911  0.49812697  1
  O2-  O353  1  0.49978420  0.81157369  0.83460177  1
  O2-  O354  1  0.83151994  0.31682979  0.17324236  1
  O2-  O355  1  0.83806130  0.31964714  0.49819070  1
  O2-  O356  1  0.83237775  0.33099572  0.83314521  1
  O2-  O357  1  0.82542299  0.82116810  0.17573055  1
  O2-  O358  1  0.83775762  0.83015881  0.49479470  1
  O2-  O359  1  0.83973257  0.83195964  0.82829656  1
  O2-  O360  1  0.06461306  0.07143195  0.13230562  1
  O2-  O361  1  0.08103070  0.07967266  0.42663431  1
  O2-  O362  1  0.07808180  0.08129056  0.77543908  1
  O2-  O363  1  0.07963292  0.58135666  0.11302341  1
  O2-  O364  1  0.07707407  0.58402146  0.44749773  1
  O2-  O365  1  0.07587068  0.57774212  0.77645231  1
  O2-  O366  1  0.37595809  0.06725916  0.10432693  1
  O2-  O367  1  0.43026381  0.07783191  0.45409503  1
  O2-  O368  1  0.41673675  0.08279304  0.77490225  1
  O2-  O369  1  0.41320165  0.58142749  0.10458565  1
  O2-  O370  1  0.42256657  0.58270159  0.42628791  1
  O2-  O371  1  0.43021914  0.58295768  0.77930535  1
  O2-  O372  1  0.75546196  0.07766812  0.11816088  1
  O2-  O373  1  0.73414722  0.08089320  0.43432894  1
  O2-  O374  1  0.74753537  0.08462454  0.76690231  1
  O2-  O375  1  0.75212032  0.58470828  0.10663008  1
  O2-  O376  1  0.75827513  0.58336772  0.44225961  1
  O2-  O377  1  0.74095459  0.57892553  0.77987999  1
  O2-  O378  1  0.24088387  0.07983601  0.22249806  1
  O2-  O379  1  0.26064406  0.08104878  0.56467140  1
  O2-  O380  1  0.25087162  0.07750610  0.89829611  1
  O2-  O381  1  0.24331728  0.57890857  0.21666272  1
  O2-  O382  1  0.22968831  0.58082643  0.56606030  1
  O2-  O383  1  0.25597349  0.57699613  0.91571177  1
  O2-  O384  1  0.58698970  0.08274286  0.22818389  1
  O2-  O385  1  0.57335531  0.08357917  0.56052967  1
  O2-  O386  1  0.57289597  0.07901412  0.88664813  1
  O2-  O387  1  0.57296196  0.57962822  0.22193423  1
  O2-  O388  1  0.59412713  0.58373260  0.57635317  1
  O2-  O389  1  0.58924058  0.58100367  0.88172166  1
  O2-  O390  1  0.91739296  0.08414895  0.22293270  1
  O2-  O391  1  0.92834714  0.07963139  0.56716186  1
  O2-  O392  1  0.92427111  0.06572978  0.88569219  1
  O2-  O393  1  0.93566250  0.57876721  0.20396186  1
  O2-  O394  1  0.92516424  0.58091952  0.55821525  1
  O2-  O395  1  0.89787623  0.57447869  0.88928560  1
  O2-  O396  1  0.09200624  0.41221619  0.10583401  1
  O2-  O397  1  0.06511037  0.41535371  0.43157803  1
  O2-  O398  1  0.09369047  0.41977763  0.77680303  1
  O2-  O399  1  0.09570753  0.91894381  0.10483593  1
  O2-  O400  1  0.07043102  0.92191692  0.44001626  1
  O2-  O401  1  0.07688549  0.92125083  0.76993642  1
  O2-  O402  1  0.40697324  0.41683630  0.10399190  1
  O2-  O403  1  0.41747179  0.42430797  0.44747001  1
  O2-  O404  1  0.40326836  0.42022208  0.78244198  1
  O2-  O405  1  0.41941554  0.91883605  0.09785400  1
  O2-  O406  1  0.40157754  0.91800065  0.42387189  1
  O2-  O407  1  0.42284547  0.91811248  0.77537420  1
  O2-  O408  1  0.75049161  0.41423416  0.10841136  1
  O2-  O409  1  0.76501583  0.41629042  0.43950575  1
  O2-  O410  1  0.75558532  0.41985513  0.77258450  1
  O2-  O411  1  0.74424327  0.92294102  0.11236171  1
  O2-  O412  1  0.77191489  0.91791787  0.41458263  1
  O2-  O413  1  0.74730421  0.91937660  0.77262913  1
  O2-  O414  1  0.24299436  0.41451070  0.21960681  1
  O2-  O415  1  0.26317469  0.41954877  0.56358927  1
  O2-  O416  1  0.23382129  0.42059795  0.89022714  1
  O2-  O417  1  0.25318894  0.92194208  0.22576788  1
  O2-  O418  1  0.24182680  0.92026739  0.56124678  1
  O2-  O419  1  0.25715549  0.92583208  0.88375273  1
  O2-  O420  1  0.58276435  0.41952347  0.22280492  1
  O2-  O421  1  0.57413402  0.41836773  0.56523964  1
  O2-  O422  1  0.58603043  0.41999624  0.89217637  1
  O2-  O423  1  0.59242812  0.91919839  0.22566735  1
  O2-  O424  1  0.58058918  0.91735520  0.58771836  1
  O2-  O425  1  0.57074635  0.92587568  0.88380639  1
  O2-  O426  1  0.91473629  0.41533145  0.25401668  1
  O2-  O427  1  0.91181376  0.42178009  0.54674719  1
  O2-  O428  1  0.92255750  0.41949070  0.89023794  1
  O2-  O429  1  0.90081895  0.91890174  0.24102383  1
  O2-  O430  1  0.92456721  0.92726996  0.55121772  1
  O2-  O431  1  0.91882832  0.92513663  0.88761127  1
  O2-  O432  1  0.00837981  0.01551375  -0.00429236  1
  O2-  O433  1  -0.00491096  -0.00616089  0.33143065  1
  O2-  O434  1  -0.00545240  -0.00952106  0.67317689  1
  O2-  O435  1  0.00262286  0.51341843  -0.00641621  1
  O2-  O436  1  0.00732181  0.51781922  0.33564120  1
  O2-  O437  1  0.00147390  0.49985406  0.66706555  1
  O2-  O438  1  0.33428167  -0.00296920  -0.01382112  1
  O2-  O439  1  0.35375767  0.00709307  0.31113214  1
  O2-  O440  1  0.33047713  0.00090660  0.66977275  1
  O2-  O441  1  0.31919700  0.49484088  0.02964526  1
  O2-  O442  1  0.33511843  0.49986907  0.33514355  1
  O2-  O443  1  0.33139180  0.48606930  0.66879287  1
  O2-  O444  1  0.64893299  -0.00791030  0.01326202  1
  O2-  O445  1  0.67327108  0.00754199  0.32316812  1
  O2-  O446  1  0.64748096  0.00163912  0.68993618  1
  O2-  O447  1  0.66514580  0.50329242  0.00530959  1
  O2-  O448  1  0.68268758  0.49473707  0.30914111  1
  O2-  O449  1  0.67046503  0.49962597  0.66024821  1
  O2-  O450  1  0.17951584  0.01235933  0.01330679  1
  O2-  O451  1  0.15075443  0.00098259  0.31327080  1
  O2-  O452  1  0.16229076  -0.01023123  0.66119345  1
  O2-  O453  1  0.16908804  0.49911637  0.01371754  1
  O2-  O454  1  0.16416743  0.51003521  0.32674199  1
  O2-  O455  1  0.16225195  0.48697187  0.65552167  1
  O2-  O456  1  0.48965641  -0.00186494  -0.01551458  1
  O2-  O457  1  0.50922128  0.01543156  0.34251864  1
  O2-  O458  1  0.49943893  0.00368576  0.67625538  1
  O2-  O459  1  0.49188580  0.50167801  -0.00862517  1
  O2-  O460  1  0.48445613  0.49545810  0.31071293  1
  O2-  O461  1  0.50269374  0.49505674  0.66894404  1
  O2-  O462  1  0.85248464  0.01277589  0.01643084  1
  O2-  O463  1  0.82303567  0.00865118  0.31631171  1
  O2-  O464  1  0.84159499  -0.00286004  0.68009199  1
  O2-  O465  1  0.83005894  0.50845827  0.00371480  1
  O2-  O466  1  0.85616480  0.50315062  0.37203894  1
  O2-  O467  1  0.84632667  0.50009878  0.68243384  1
  O2-  O468  1  0.41721219  0.75394542  0.07736124  1
  O2-  O469  1  0.41824676  0.25142097  0.07769592  1
  O2-  O470  1  0.57977808  0.24987459  0.26259544  1
  O2-  O471  1  0.74827032  0.75092556  0.06868406  1
  O2-  O472  1  0.91334191  0.25179887  0.92048917  1
  O2-  O473  1  0.73897332  0.25229666  0.74265746  1
  O2-  O474  1  0.57740843  0.24990288  0.59816337  1
  O2-  O475  1  0.24804004  0.25149404  0.59411575  1
  O2-  O476  1  0.25798602  0.24928751  0.26141259  1
  O2-  O477  1  0.75642411  0.75176638  0.40573194  1
  O2-  O478  1  0.08843585  0.25043423  0.40909424  1
  O2-  O479  1  0.08761941  0.75193407  0.07423378  1
  O2-  O480  1  0.58206345  0.75182338  0.25416244  1
  O2-  O481  1  0.41389794  0.75142456  0.40392690  1
  O2-  O482  1  0.08582159  0.25094531  0.73324461  1
  O2-  O483  1  0.58782515  0.75656659  0.58804444  1
  O2-  O484  1  0.76136432  0.75318165  0.73175199  1
  O2-  O485  1  0.91322476  0.75556117  0.92461686  1
  O2-  O486  1  0.91435968  0.74766234  0.59258724  1
  O2-  O487  1  0.08547218  0.75023907  0.40073322  1
  O2-  O488  1  0.58693097  0.25037285  0.93032341  1
  O2-  O489  1  0.24512590  0.75081973  0.58561975  1
  O2-  O490  1  0.24347290  0.75411721  0.25754352  1
  O2-  O491  1  0.41861789  0.24970855  0.40254783  1
  O2-  O492  1  0.74948170  0.24771332  0.07028432  1
