# generated using pymatgen
data_Ca108Mn108O277
_symmetry_space_group_name_H-M   'P 1'
_cell_length_a   16.02237290
_cell_length_b   22.29912238
_cell_length_c   16.38413804
_cell_angle_alpha   90.00419216
_cell_angle_beta   89.99650137
_cell_angle_gamma   89.99958950
_symmetry_Int_Tables_number   1
_chemical_formula_structural   Ca108Mn108O277
_chemical_formula_sum   'Ca108 Mn108 O277'
_cell_volume   5853.80434477
_cell_formula_units_Z   1
loop_
 _symmetry_equiv_pos_site_id
 _symmetry_equiv_pos_as_xyz
  1  'x, y, z'
loop_
 _atom_type_symbol
 _atom_type_oxidation_number
  Ca2+  2.0
  Mn3.34+  3.34
  O2-  -2.0
loop_
 _atom_site_type_symbol
 _atom_site_label
 _atom_site_symmetry_multiplicity
 _atom_site_fract_x
 _atom_site_fract_y
 _atom_site_fract_z
 _atom_site_occupancy
  Ca2+  Ca0  1  0.08478956  0.24638744  0.26573237  1
  Ca2+  Ca1  1  0.06143367  0.23849503  0.56593538  1
  Ca2+  Ca2  1  0.10144475  0.25271610  0.92533678  1
  Ca2+  Ca3  1  0.07996386  0.76003840  0.24815734  1
  Ca2+  Ca4  1  0.08954522  0.75775909  0.59336681  1
  Ca2+  Ca5  1  0.08144951  0.75518755  0.90408591  1
  Ca2+  Ca6  1  0.41943306  0.25161252  0.24782226  1
  Ca2+  Ca7  1  0.42430554  0.25015565  0.58266104  1
  Ca2+  Ca8  1  0.40560215  0.25091247  0.92576568  1
  Ca2+  Ca9  1  0.43046412  0.73953479  0.25794466  1
  Ca2+  Ca10  1  0.41367313  0.74488811  0.57299724  1
  Ca2+  Ca11  1  0.41131293  0.75118326  0.90824489  1
  Ca2+  Ca12  1  0.73586100  0.24309417  0.25397932  1
  Ca2+  Ca13  1  0.77702435  0.23106888  0.57705702  1
  Ca2+  Ca14  1  0.74613361  0.25641347  0.91976233  1
  Ca2+  Ca15  1  0.72398189  0.74802427  0.25583112  1
  Ca2+  Ca16  1  0.75454133  0.75511853  0.58482815  1
  Ca2+  Ca17  1  0.76169544  0.74938373  0.90998392  1
  Ca2+  Ca18  1  0.25505366  0.25449095  0.09170288  1
  Ca2+  Ca19  1  0.23203051  0.25260531  0.40277334  1
  Ca2+  Ca20  1  0.25741756  0.25799570  0.76338986  1
  Ca2+  Ca21  1  0.24937954  0.75503892  0.08172326  1
  Ca2+  Ca22  1  0.27324208  0.74721865  0.42228564  1
  Ca2+  Ca23  1  0.24507797  0.74750042  0.74393353  1
  Ca2+  Ca24  1  0.57509965  0.25319188  0.10773077  1
  Ca2+  Ca25  1  0.58205938  0.25010256  0.40102944  1
  Ca2+  Ca26  1  0.58242052  0.25874042  0.75001491  1
  Ca2+  Ca27  1  0.58473506  0.74939818  0.10434684  1
  Ca2+  Ca28  1  0.57020577  0.72805646  0.40390955  1
  Ca2+  Ca29  1  0.58945799  0.74774863  0.74259795  1
  Ca2+  Ca30  1  0.91870151  0.25529954  0.10569577  1
  Ca2+  Ca31  1  0.93245103  0.24042657  0.41987865  1
  Ca2+  Ca32  1  0.91025045  0.24678190  0.72544480  1
  Ca2+  Ca33  1  0.90972852  0.75686150  0.07281101  1
  Ca2+  Ca34  1  0.90853897  0.75654437  0.41809777  1
  Ca2+  Ca35  1  0.91952589  0.74988140  0.75115215  1
  Ca2+  Ca36  1  0.73902947  0.08648117  0.91579787  1
  Ca2+  Ca37  1  0.71421860  0.60033830  0.25306711  1
  Ca2+  Ca38  1  0.10757073  0.07935020  0.92301271  1
  Ca2+  Ca39  1  0.42911151  0.59392732  0.26777718  1
  Ca2+  Ca40  1  0.58545136  0.09239548  0.74653210  1
  Ca2+  Ca41  1  0.90119014  0.58468828  0.06618351  1
  Ca2+  Ca42  1  0.75177606  0.08569049  0.91537493  1
  Ca2+  Ca43  1  0.94195009  0.09364188  0.43321212  1
  Ca2+  Ca44  1  0.92852437  0.09239055  0.09162056  1
  Ca2+  Ca45  1  0.42341402  0.08741694  0.59387325  1
  Ca2+  Ca46  1  0.38754770  0.08397823  0.92484337  1
  Ca2+  Ca47  1  0.09549689  0.57834950  0.26896703  1
  Ca2+  Ca48  1  0.92585364  0.09066991  0.69072909  1
  Ca2+  Ca49  1  0.56997567  0.10158703  0.09575201  1
  Ca2+  Ca50  1  0.27998338  0.60172469  0.41215203  1
  Ca2+  Ca51  1  0.28596951  0.60827296  0.75366959  1
  Ca2+  Ca52  1  0.92328393  0.57986021  0.42887650  1
  Ca2+  Ca53  1  0.75275081  0.59547102  0.59510638  1
  Ca2+  Ca54  1  0.41717316  0.10338333  0.24748306  1
  Ca2+  Ca55  1  0.11975103  0.07714604  0.92195121  1
  Ca2+  Ca56  1  0.76143876  0.58953429  0.91104587  1
  Ca2+  Ca57  1  0.25135768  0.09200066  0.75273030  1
  Ca2+  Ca58  1  0.57940150  0.10284269  0.10071926  1
  Ca2+  Ca59  1  0.42509057  0.60846799  0.57551132  1
  Ca2+  Ca60  1  0.55550995  0.60447574  0.73269742  1
  Ca2+  Ca61  1  0.57012558  0.59637909  0.09939080  1
  Ca2+  Ca62  1  0.58686822  0.09795046  0.41002480  1
  Ca2+  Ca63  1  0.08261602  0.09095071  0.27751597  1
  Ca2+  Ca64  1  0.91579997  0.09236520  0.09115463  1
  Ca2+  Ca65  1  0.74028268  0.09441270  0.25612582  1
  Ca2+  Ca66  1  0.07090410  0.58596295  0.60107502  1
  Ca2+  Ca67  1  0.92193127  0.59045638  0.74313367  1
  Ca2+  Ca68  1  0.55935753  0.59844040  0.10164377  1
  Ca2+  Ca69  1  0.57287563  0.09278076  0.74802486  1
  Ca2+  Ca70  1  0.59909675  0.09689608  0.41128256  1
  Ca2+  Ca71  1  0.21010677  0.09296810  0.41096895  1
  Ca2+  Ca72  1  0.75127782  0.40756666  0.58853720  1
  Ca2+  Ca73  1  0.41833485  0.40028065  0.58873022  1
  Ca2+  Ca74  1  0.91472295  0.40088751  0.08428538  1
  Ca2+  Ca75  1  0.92829779  0.41744405  0.73754723  1
  Ca2+  Ca76  1  0.92176474  0.90695911  0.08407762  1
  Ca2+  Ca77  1  0.57651010  0.40465242  0.41240797  1
  Ca2+  Ca78  1  0.08421692  0.39844617  0.91461232  1
  Ca2+  Ca79  1  0.57874540  0.90453483  0.08783746  1
  Ca2+  Ca80  1  0.75467305  0.90939533  0.26131713  1
  Ca2+  Ca81  1  0.59252100  0.89720652  0.42718500  1
  Ca2+  Ca82  1  0.75062995  0.91014595  0.91312005  1
  Ca2+  Ca83  1  0.92241448  0.91560710  0.72231905  1
  Ca2+  Ca84  1  0.76371931  0.40830779  0.58654617  1
  Ca2+  Ca85  1  0.08119628  0.40407526  0.57074135  1
  Ca2+  Ca86  1  0.08027464  0.91634225  0.26819096  1
  Ca2+  Ca87  1  0.09118852  0.91687537  0.26605028  1
  Ca2+  Ca88  1  0.57072863  0.40436757  0.08354677  1
  Ca2+  Ca89  1  0.24444189  0.92424685  0.04637859  1
  Ca2+  Ca90  1  0.92529307  0.91316536  0.43033219  1
  Ca2+  Ca91  1  0.23485990  0.90476289  0.41976988  1
  Ca2+  Ca92  1  0.93569451  0.41241076  0.41917029  1
  Ca2+  Ca93  1  0.76052665  0.90699041  0.91018562  1
  Ca2+  Ca94  1  0.75051257  0.40469036  0.92249826  1
  Ca2+  Ca95  1  0.40684292  0.90060941  0.24938591  1
  Ca2+  Ca96  1  0.24674188  0.90960677  0.75862511  1
  Ca2+  Ca97  1  0.09114638  0.41227069  0.27346214  1
  Ca2+  Ca98  1  0.41555452  0.40022195  0.92209214  1
  Ca2+  Ca99  1  0.91785435  0.41720586  0.73909199  1
  Ca2+  Ca100  1  0.56730947  0.90441470  0.08876854  1
  Ca2+  Ca101  1  0.74761255  0.40023729  0.24295948  1
  Ca2+  Ca102  1  0.41402408  0.89930493  0.58636386  1
  Ca2+  Ca103  1  0.58527771  0.90547451  0.74337143  1
  Ca2+  Ca104  1  0.23460994  0.90744063  0.76057035  1
  Ca2+  Ca105  1  0.57252344  0.90423168  0.74320321  1
  Ca2+  Ca106  1  0.40966987  0.40829070  0.24017466  1
  Ca2+  Ca107  1  0.42967402  0.40099698  0.58807089  1
  Mn3.34+  Mn108  1  0.08669260  0.32984973  0.08924748  1
  Mn3.34+  Mn109  1  0.08686418  0.33507983  0.41846198  1
  Mn3.34+  Mn110  1  0.08828231  0.33157708  0.74940904  1
  Mn3.34+  Mn111  1  0.08599928  0.83610152  0.08279984  1
  Mn3.34+  Mn112  1  0.08133582  0.83365835  0.42264292  1
  Mn3.34+  Mn113  1  0.08005759  0.83358165  0.74912860  1
  Mn3.34+  Mn114  1  0.41187701  0.33777573  0.08574482  1
  Mn3.34+  Mn115  1  0.40954622  0.33271307  0.41390078  1
  Mn3.34+  Mn116  1  0.41672433  0.33302579  0.75736716  1
  Mn3.34+  Mn117  1  0.40960602  0.83015173  0.08353961  1
  Mn3.34+  Mn118  1  0.41717852  0.83018855  0.41759687  1
  Mn3.34+  Mn119  1  0.41396051  0.82637015  0.75077716  1
  Mn3.34+  Mn120  1  0.74882554  0.33120293  0.08411329  1
  Mn3.34+  Mn121  1  0.75185159  0.33028295  0.41533393  1
  Mn3.34+  Mn122  1  0.74717600  0.33181927  0.75635460  1
  Mn3.34+  Mn123  1  0.74997292  0.83283534  0.08666612  1
  Mn3.34+  Mn124  1  0.75226657  0.83325021  0.42150925  1
  Mn3.34+  Mn125  1  0.75462553  0.83268338  0.74577693  1
  Mn3.34+  Mn126  1  0.24981809  0.33544813  0.24855126  1
  Mn3.34+  Mn127  1  0.24647152  0.32758495  0.58403487  1
  Mn3.34+  Mn128  1  0.24917122  0.33494536  0.91966168  1
  Mn3.34+  Mn129  1  0.25136001  0.83318150  0.24584886  1
  Mn3.34+  Mn130  1  0.24733757  0.83481260  0.58026628  1
  Mn3.34+  Mn131  1  0.25148299  0.83615067  0.91605114  1
  Mn3.34+  Mn132  1  0.58134767  0.33251211  0.25094933  1
  Mn3.34+  Mn133  1  0.58930173  0.33038556  0.58049227  1
  Mn3.34+  Mn134  1  0.58044295  0.33007890  0.91689386  1
  Mn3.34+  Mn135  1  0.58044634  0.83291074  0.25544586  1
  Mn3.34+  Mn136  1  0.58395065  0.82841405  0.57803097  1
  Mn3.34+  Mn137  1  0.57836358  0.83389431  0.91447597  1
  Mn3.34+  Mn138  1  0.91705336  0.33490367  0.25428670  1
  Mn3.34+  Mn139  1  0.91794881  0.33402645  0.57792585  1
  Mn3.34+  Mn140  1  0.91942604  0.33102573  0.91313725  1
  Mn3.34+  Mn141  1  0.91464402  0.83490255  0.25120083  1
  Mn3.34+  Mn142  1  0.91795486  0.84011823  0.58057181  1
  Mn3.34+  Mn143  1  0.92352478  0.83571841  0.91345153  1
  Mn3.34+  Mn144  1  0.56960221  0.66347358  0.91106093  1
  Mn3.34+  Mn145  1  0.08479946  0.16781474  0.75226463  1
  Mn3.34+  Mn146  1  0.09434672  0.66342597  0.07977004  1
  Mn3.34+  Mn147  1  0.24180814  0.16799622  0.57376349  1
  Mn3.34+  Mn148  1  0.09052069  0.66267448  0.42230553  1
  Mn3.34+  Mn149  1  0.75169146  0.66693442  0.75013013  1
  Mn3.34+  Mn150  1  0.75033073  0.16858795  0.08746289  1
  Mn3.34+  Mn151  1  0.09119813  0.16749078  0.09164669  1
  Mn3.34+  Mn152  1  0.25089846  0.16573557  0.58582358  1
  Mn3.34+  Mn153  1  0.91761097  0.17101360  0.91131212  1
  Mn3.34+  Mn154  1  0.41723431  0.17070567  0.75461916  1
  Mn3.34+  Mn155  1  0.25024879  0.16759695  0.25009123  1
  Mn3.34+  Mn156  1  0.90654229  0.65881545  0.24790634  1
  Mn3.34+  Mn157  1  0.25414678  0.66268167  0.24146364  1
  Mn3.34+  Mn158  1  0.91998827  0.66573265  0.91126967  1
  Mn3.34+  Mn159  1  0.41393351  0.16999847  0.41744484  1
  Mn3.34+  Mn160  1  0.25237860  0.16825958  0.91744369  1
  Mn3.34+  Mn161  1  0.39990211  0.65958162  0.08326905  1
  Mn3.34+  Mn162  1  0.91566471  0.16801459  0.25578793  1
  Mn3.34+  Mn163  1  0.25616746  0.66984487  0.91347414  1
  Mn3.34+  Mn164  1  0.91649386  0.66247785  0.58290851  1
  Mn3.34+  Mn165  1  0.74961087  0.67122132  0.42254456  1
  Mn3.34+  Mn166  1  0.08313230  0.66804744  0.07905632  1
  Mn3.34+  Mn167  1  0.58143019  0.17208512  0.91749462  1
  Mn3.34+  Mn168  1  0.58643533  0.66979998  0.57891593  1
  Mn3.34+  Mn169  1  0.91990912  0.66504865  0.24984349  1
  Mn3.34+  Mn170  1  0.40899544  0.16905501  0.08459354  1
  Mn3.34+  Mn171  1  0.58731662  0.16844421  0.57905455  1
  Mn3.34+  Mn172  1  0.75789399  0.16642859  0.41921244  1
  Mn3.34+  Mn173  1  0.58338210  0.66920690  0.91352730  1
  Mn3.34+  Mn174  1  0.75025479  0.17029352  0.74803392  1
  Mn3.34+  Mn175  1  0.74597484  0.66641150  0.07979199  1
  Mn3.34+  Mn176  1  0.08855291  0.66628970  0.75484342  1
  Mn3.34+  Mn177  1  0.92529984  0.17748083  0.91337182  1
  Mn3.34+  Mn178  1  0.07985197  0.66735237  0.42102038  1
  Mn3.34+  Mn179  1  0.25330337  0.66933291  0.58577976  1
  Mn3.34+  Mn180  1  0.58431375  -0.00168338  0.25763867  1
  Mn3.34+  Mn181  1  0.75007337  0.50200635  0.41654642  1
  Mn3.34+  Mn182  1  0.75327282  0.00306044  0.73142152  1
  Mn3.34+  Mn183  1  0.41482904  0.00091948  0.75031868  1
  Mn3.34+  Mn184  1  0.24184299  0.50269462  0.57424005  1
  Mn3.34+  Mn185  1  0.41084831  0.00146410  0.07762202  1
  Mn3.34+  Mn186  1  0.58182747  0.50273629  0.58318227  1
  Mn3.34+  Mn187  1  0.40422379  0.00377940  0.41999456  1
  Mn3.34+  Mn188  1  0.75240673  -0.00041095  0.42528664  1
  Mn3.34+  Mn189  1  0.73984293  0.50774318  0.41474586  1
  Mn3.34+  Mn190  1  0.75077438  -0.00094224  0.07946716  1
  Mn3.34+  Mn191  1  0.26591067  0.49838358  0.91926478  1
  Mn3.34+  Mn192  1  0.41551335  -0.00110400  0.42073364  1
  Mn3.34+  Mn193  1  0.59234776  0.00008201  0.58515850  1
  Mn3.34+  Mn194  1  0.25107727  0.49854599  0.25808293  1
  Mn3.34+  Mn195  1  0.74602852  0.49944203  0.07675311  1
  Mn3.34+  Mn196  1  0.56179950  0.00042370  0.92549774  1
  Mn3.34+  Mn197  1  0.25024410  0.00305022  0.24479258  1
  Mn3.34+  Mn198  1  0.57494614  0.49749609  0.91712010  1
  Mn3.34+  Mn199  1  0.08807363  0.50200049  0.75176406  1
  Mn3.34+  Mn200  1  0.41773948  0.49786118  0.74531505  1
  Mn3.34+  Mn201  1  0.09902777  0.49961960  0.08773013  1
  Mn3.34+  Mn202  1  0.56306524  0.50474783  0.91968651  1
  Mn3.34+  Mn203  1  0.25511297  0.49729135  0.57826558  1
  Mn3.34+  Mn204  1  0.08792077  0.49551065  0.08740362  1
  Mn3.34+  Mn205  1  0.08407127  0.00010018  0.73772221  1
  Mn3.34+  Mn206  1  0.57854920  0.49482421  0.25102963  1
  Mn3.34+  Mn207  1  0.25694608  0.50508934  0.92467890  1
  Mn3.34+  Mn208  1  0.08965220  0.00176330  0.08600569  1
  Mn3.34+  Mn209  1  0.74102382  0.49798950  0.74654981  1
  Mn3.34+  Mn210  1  0.92204817  0.50117739  0.91877483  1
  Mn3.34+  Mn211  1  0.91332887  0.00120993  0.26050608  1
  Mn3.34+  Mn212  1  0.24203409  -0.00050102  0.58921314  1
  Mn3.34+  Mn213  1  0.93090537  0.00011790  0.91285216  1
  Mn3.34+  Mn214  1  0.41675637  0.49769675  0.41143073  1
  Mn3.34+  Mn215  1  0.92162594  0.49950424  0.25401802  1
  O2-  O216  1  0.00073554  0.14982137  0.00041572  1
  O2-  O217  1  -0.00542998  0.16083816  0.33013036  1
  O2-  O218  1  0.00627316  0.17913966  0.67738586  1
  O2-  O219  1  -0.00250830  0.65034665  0.00429563  1
  O2-  O220  1  0.00096527  0.64384144  0.33421363  1
  O2-  O221  1  0.00014177  0.66471924  0.66461849  1
  O2-  O222  1  0.33510364  0.15860820  -0.00438589  1
  O2-  O223  1  0.33068545  0.15266157  0.33932755  1
  O2-  O224  1  0.33250263  0.15369460  0.66303046  1
  O2-  O225  1  0.33428591  0.69179393  -0.00059146  1
  O2-  O226  1  0.33144926  0.66731426  0.32173715  1
  O2-  O227  1  0.33802717  0.66817500  0.65932771  1
  O2-  O228  1  0.66764494  0.15141098  0.00044696  1
  O2-  O229  1  0.66856384  0.15962423  0.33910426  1
  O2-  O230  1  0.65642291  0.16174354  0.67538237  1
  O2-  O231  1  0.65464828  0.64011583  -0.00451102  1
  O2-  O232  1  0.67282752  0.66527669  0.34237192  1
  O2-  O233  1  0.66902454  0.66431097  0.66765425  1
  O2-  O234  1  0.16138301  0.15580043  -0.00542793  1
  O2-  O235  1  0.16858504  0.16529346  0.32609469  1
  O2-  O236  1  0.17429656  0.17219394  0.67257015  1
  O2-  O237  1  0.17062383  0.68060191  -0.00428971  1
  O2-  O238  1  0.16945177  0.65914236  0.33148213  1
  O2-  O239  1  0.17008646  0.65223828  0.67070748  1
  O2-  O240  1  0.50004037  0.15507798  -0.00091694  1
  O2-  O241  1  0.49612272  0.15049364  0.34359084  1
  O2-  O242  1  0.49982667  0.16002066  0.66419911  1
  O2-  O243  1  0.49452796  0.66079792  0.00029490  1
  O2-  O244  1  0.49629034  0.66568137  0.32665581  1
  O2-  O245  1  0.51020335  0.68499338  0.66106640  1
  O2-  O246  1  0.83478558  0.15312795  -0.00005200  1
  O2-  O247  1  0.82768841  0.15219754  0.32747782  1
  O2-  O248  1  0.82931360  0.16203487  0.67412833  1
  O2-  O249  1  0.82885012  0.65588854  -0.00455733  1
  O2-  O250  1  0.83664043  0.64781701  0.34033450  1
  O2-  O251  1  0.83667421  0.66586709  0.66849631  1
  O2-  O252  1  -0.00162847  0.33817306  -0.00058011  1
  O2-  O253  1  0.00108118  0.34587966  0.33279857  1
  O2-  O254  1  0.00108400  0.34635658  0.66592278  1
  O2-  O255  1  -0.00447039  0.84491175  0.00619866  1
  O2-  O256  1  0.00066066  0.84534432  0.33251228  1
  O2-  O257  1  -0.00317794  0.82912660  0.66386632  1
  O2-  O258  1  0.33481173  0.34071144  -0.00199151  1
  O2-  O259  1  0.33572997  0.34425605  0.32805192  1
  O2-  O260  1  0.33725594  0.33789630  0.66353731  1
  O2-  O261  1  0.33206672  0.82038423  -0.00149730  1
  O2-  O262  1  0.32737786  0.84147004  0.33763919  1
  O2-  O263  1  0.32853859  0.84377983  0.67209153  1
  O2-  O264  1  0.66596420  0.33579757  -0.00055582  1
  O2-  O265  1  0.66637371  0.34496716  0.33360334  1
  O2-  O266  1  0.67347324  0.34236431  0.66192223  1
  O2-  O267  1  0.66483380  0.85835256  -0.00094555  1
  O2-  O268  1  0.66963120  0.84529997  0.33017226  1
  O2-  O269  1  0.65812944  0.83538315  0.67173837  1
  O2-  O270  1  0.16201607  0.33948279  -0.00207793  1
  O2-  O271  1  0.16554864  0.33676056  0.33161244  1
  O2-  O272  1  0.16532843  0.30635641  0.66718356  1
  O2-  O273  1  0.17243166  0.83123046  0.00172156  1
  O2-  O274  1  0.16335728  0.83855625  0.32565596  1
  O2-  O275  1  0.17092366  0.84541816  0.67125462  1
  O2-  O276  1  0.50108264  0.33187001  0.00263867  1
  O2-  O277  1  0.49865491  0.34717358  0.33200373  1
  O2-  O278  1  0.50289635  0.33131165  0.66203484  1
  O2-  O279  1  0.50264267  0.83523610  0.00898546  1
  O2-  O280  1  0.49828552  0.85111659  0.33545287  1
  O2-  O281  1  0.49734854  0.82355713  0.66496817  1
  O2-  O282  1  0.83337952  0.33875140  -0.00232540  1
  O2-  O283  1  0.83449903  0.35397750  0.33784978  1
  O2-  O284  1  0.83870851  0.34776269  0.67229916  1
  O2-  O285  1  0.83073083  0.84712846  -0.00077678  1
  O2-  O286  1  0.83898310  0.84958416  0.33947446  1
  O2-  O287  1  0.83982754  0.82656856  0.66711947  1
  O2-  O288  1  -0.00675723  0.17395123  0.16197753  1
  O2-  O289  1  -0.00155537  0.16715575  0.49978994  1
  O2-  O290  1  0.00935674  0.19322969  0.83709283  1
  O2-  O291  1  0.00132334  0.67342398  0.16692222  1
  O2-  O292  1  -0.00300727  0.68498120  0.50241915  1
  O2-  O293  1  -0.00179146  0.68054815  0.82857188  1
  O2-  O294  1  0.33825915  0.17878028  0.17186364  1
  O2-  O295  1  0.33388382  0.18955437  0.50538193  1
  O2-  O296  1  0.33305485  0.17526631  0.83376035  1
  O2-  O297  1  0.33096972  0.69114926  0.16398120  1
  O2-  O298  1  0.32941078  0.67588942  0.50294268  1
  O2-  O299  1  0.32705817  0.69120512  0.83280214  1
  O2-  O300  1  0.66656591  0.17171328  0.16026155  1
  O2-  O301  1  0.66739419  0.18426381  0.49745171  1
  O2-  O302  1  0.66893146  0.18185420  0.84085090  1
  O2-  O303  1  0.66136434  0.67129011  0.15662564  1
  O2-  O304  1  0.67439332  0.68693253  0.50756474  1
  O2-  O305  1  0.66787746  0.67265642  0.83480981  1
  O2-  O306  1  0.16749570  0.18264553  0.16990385  1
  O2-  O307  1  0.17054189  0.18267963  0.49678155  1
  O2-  O308  1  0.16918264  0.17818199  0.83461813  1
  O2-  O309  1  0.16409228  0.68636212  0.16893239  1
  O2-  O310  1  0.16727901  0.68198092  0.50456277  1
  O2-  O311  1  0.16841400  0.68422052  0.83400873  1
  O2-  O312  1  0.49761470  0.17339776  0.15939638  1
  O2-  O313  1  0.50305348  0.18418761  0.49970416  1
  O2-  O314  1  0.50969027  0.18246801  0.82923586  1
  O2-  O315  1  0.49178215  0.68198718  0.14967287  1
  O2-  O316  1  0.50531656  0.68203940  0.50890041  1
  O2-  O317  1  0.50313661  0.68778230  0.82725858  1
  O2-  O318  1  0.83662328  0.17432089  0.16193158  1
  O2-  O319  1  0.84385357  0.17173781  0.48670849  1
  O2-  O320  1  0.82425245  0.18346021  0.84206582  1
  O2-  O321  1  0.83208748  0.68047369  0.16400187  1
  O2-  O322  1  0.83683105  0.68622671  0.50631228  1
  O2-  O323  1  0.83197152  0.67695804  0.83244831  1
  O2-  O324  1  -0.00327984  0.32358576  0.16702894  1
  O2-  O325  1  -0.00289492  0.32889296  0.49768752  1
  O2-  O326  1  0.00027118  0.31234547  0.83052116  1
  O2-  O327  1  0.00525563  0.83375536  0.17340486  1
  O2-  O328  1  -0.00378104  0.81790840  0.49961131  1
  O2-  O329  1  -0.00431767  0.82239881  0.82701579  1
  O2-  O330  1  0.33560167  0.32388966  0.16963654  1
  O2-  O331  1  0.34022008  0.31969989  0.50892624  1
  O2-  O332  1  0.33601670  0.32350625  0.84178901  1
  O2-  O333  1  0.33751201  0.81421071  0.17220260  1
  O2-  O334  1  0.33624837  0.82097048  0.50453911  1
  O2-  O335  1  0.32907905  0.81615143  0.82928484  1
  O2-  O336  1  0.66732374  0.32293218  0.16699075  1
  O2-  O337  1  0.66692551  0.32025156  0.49705552  1
  O2-  O338  1  0.66543384  0.31392061  0.83835828  1
  O2-  O339  1  0.65930318  0.82709745  0.16268944  1
  O2-  O340  1  0.66347862  0.81446374  0.49628864  1
  O2-  O341  1  0.67073616  0.83521572  0.83483263  1
  O2-  O342  1  0.16380537  0.31746092  0.17140413  1
  O2-  O343  1  0.16197064  0.31749360  0.50582705  1
  O2-  O344  1  0.16428788  0.31820732  0.83642124  1
  O2-  O345  1  0.16728590  0.81500333  0.16845912  1
  O2-  O346  1  0.17152747  0.82112417  0.49318254  1
  O2-  O347  1  0.17147166  0.82235786  0.83174032  1
  O2-  O348  1  0.49779785  0.32409086  0.16955111  1
  O2-  O349  1  0.50000523  0.32179496  0.50384999  1
  O2-  O350  1  0.49713474  0.31073421  0.84041112  1
  O2-  O351  1  0.49901916  0.82640402  0.16524557  1
  O2-  O352  1  0.49921392  0.82057943  0.50043297  1
  O2-  O353  1  0.50586813  0.81518424  0.82306332  1
  O2-  O354  1  0.83145288  0.32685577  0.16708736  1
  O2-  O355  1  0.82492557  0.32840518  0.50780210  1
  O2-  O356  1  0.83306517  0.31594410  0.83640913  1
  O2-  O357  1  0.83543835  0.82389343  0.16575286  1
  O2-  O358  1  0.83645093  0.81872646  0.50385158  1
  O2-  O359  1  0.82736780  0.82771124  0.84008109  1
  O2-  O360  1  0.07238744  0.08262276  0.11600048  1
  O2-  O361  1  0.07878421  0.07454246  0.41880726  1
  O2-  O362  1  0.08527819  0.07713626  0.78722730  1
  O2-  O363  1  0.08998757  0.58098660  0.12316407  1
  O2-  O364  1  0.07910264  0.58194296  0.45071982  1
  O2-  O365  1  0.07787505  0.58334816  0.76664135  1
  O2-  O366  1  0.42698428  0.08204249  0.10622113  1
  O2-  O367  1  0.41382277  0.08428562  0.45597819  1
  O2-  O368  1  0.42971002  0.08332379  0.78308023  1
  O2-  O369  1  0.42645614  0.58316261  0.12526505  1
  O2-  O370  1  0.40795449  0.57127783  0.45075051  1
  O2-  O371  1  0.42573890  0.57580720  0.76701497  1
  O2-  O372  1  0.76173564  0.08269494  0.10776701  1
  O2-  O373  1  0.73474265  0.08231656  0.44170526  1
  O2-  O374  1  0.73743963  0.08156139  0.77953111  1
  O2-  O375  1  0.74658862  0.57950297  0.11263284  1
  O2-  O376  1  0.75622979  0.58571774  0.45733705  1
  O2-  O377  1  0.75298777  0.58104351  0.76657346  1
  O2-  O378  1  0.25503086  0.08321727  0.23155671  1
  O2-  O379  1  0.25399977  0.08072921  0.54719511  1
  O2-  O380  1  0.24780644  0.08254011  0.88699256  1
  O2-  O381  1  0.24321671  0.57596237  0.22422388  1
  O2-  O382  1  0.24685781  0.58379521  0.55363169  1
  O2-  O383  1  0.25694621  0.58207816  0.88599401  1
  O2-  O384  1  0.58853147  0.07745225  0.22737770  1
  O2-  O385  1  0.57493186  0.08019647  0.54387033  1
  O2-  O386  1  0.59956110  0.07804846  0.87903189  1
  O2-  O387  1  0.57898245  0.57558989  0.22895622  1
  O2-  O388  1  0.57927615  0.58513590  0.58160487  1
  O2-  O389  1  0.58028998  0.57958790  0.86965841  1
  O2-  O390  1  0.91298805  0.08048103  0.22456738  1
  O2-  O391  1  0.92291684  0.07932268  0.56108166  1
  O2-  O392  1  0.90790948  0.08381762  0.88036346  1
  O2-  O393  1  0.91902659  0.57711079  0.20867279  1
  O2-  O394  1  0.91643325  0.58117415  0.56552554  1
  O2-  O395  1  0.90859952  0.58112294  0.88614013  1
  O2-  O396  1  0.07776823  0.41438523  0.11249758  1
  O2-  O397  1  0.07655326  0.41846180  0.43889439  1
  O2-  O398  1  0.06754688  0.42027948  0.78009200  1
  O2-  O399  1  0.09479699  0.92108172  0.11694176  1
  O2-  O400  1  0.08331190  0.91509773  0.41910716  1
  O2-  O401  1  0.09266139  0.91952161  0.77064364  1
  O2-  O402  1  0.43083173  0.41561237  0.10177370  1
  O2-  O403  1  0.42380202  0.42005039  0.45442335  1
  O2-  O404  1  0.42268503  0.41720328  0.77557848  1
  O2-  O405  1  0.42104024  0.92164533  0.11176295  1
  O2-  O406  1  0.41596194  0.91752609  0.44780316  1
  O2-  O407  1  0.43465203  0.91758491  0.75778533  1
  O2-  O408  1  0.74866834  0.41714132  0.10045871  1
  O2-  O409  1  0.73732211  0.42162995  0.45304079  1
  O2-  O410  1  0.75443487  0.41678326  0.78440465  1
  O2-  O411  1  0.74526465  0.91823925  0.11473842  1
  O2-  O412  1  0.74698033  0.91754368  0.44147690  1
  O2-  O413  1  0.74583481  0.92354462  0.77277566  1
  O2-  O414  1  0.25174245  0.42038436  0.22529200  1
  O2-  O415  1  0.25608093  0.41568290  0.56554670  1
  O2-  O416  1  0.23934717  0.42064930  0.89049652  1
  O2-  O417  1  0.24119732  0.92278048  0.21167454  1
  O2-  O418  1  0.26043893  0.91795582  0.55511637  1
  O2-  O419  1  0.25775382  0.91750365  0.89307348  1
  O2-  O420  1  0.58866515  0.41681664  0.21949506  1
  O2-  O421  1  0.57751500  0.42182644  0.55160161  1
  O2-  O422  1  0.57737869  0.41740435  0.89891832  1
  O2-  O423  1  0.57957163  0.91917904  0.22292703  1
  O2-  O424  1  0.56725536  0.91711290  0.57392739  1
  O2-  O425  1  0.58277383  0.92168450  0.87770567  1
  O2-  O426  1  0.91471682  0.42016994  0.22406433  1
  O2-  O427  1  0.90371969  0.42046927  0.56342005  1
  O2-  O428  1  0.92001471  0.42066010  0.88003665  1
  O2-  O429  1  0.91957907  0.92268572  0.22439402  1
  O2-  O430  1  0.91736490  0.91744925  0.56824188  1
  O2-  O431  1  0.90109074  0.91864795  0.88727170  1
  O2-  O432  1  -0.01904473  0.00858839  0.02753683  1
  O2-  O433  1  0.01171557  -0.00155782  0.30944682  1
  O2-  O434  1  -0.00787537  -0.00090884  0.68497593  1
  O2-  O435  1  -0.00605598  0.50044273  0.01599654  1
  O2-  O436  1  0.00149567  0.50438315  0.32511950  1
  O2-  O437  1  -0.01047440  0.50138191  0.69570487  1
  O2-  O438  1  0.33289335  0.00300813  0.00377366  1
  O2-  O439  1  0.33546550  -0.01167716  0.32587018  1
  O2-  O440  1  0.34407619  0.00529077  0.65747778  1
  O2-  O441  1  0.36372434  0.48918269  -0.02755984  1
  O2-  O442  1  0.33731431  0.51077070  0.32769429  1
  O2-  O443  1  0.32466720  0.50692206  0.67001712  1
  O2-  O444  1  0.67462999  0.00083383  -0.02063436  1
  O2-  O445  1  0.65850764  0.00435236  0.34819189  1
  O2-  O446  1  0.64232048  -0.00004619  0.70416027  1
  O2-  O447  1  0.67957669  0.50475414  -0.02475985  1
  O2-  O448  1  0.67683931  0.49641761  0.31689202  1
  O2-  O449  1  0.68866254  0.49555007  0.63173337  1
  O2-  O450  1  0.15713261  0.00300284  -0.00662491  1
  O2-  O451  1  0.16737100  -0.00388768  0.31818339  1
  O2-  O452  1  0.19574899  -0.00017391  0.70661864  1
  O2-  O453  1  0.16130413  0.49851182  -0.01225917  1
  O2-  O454  1  0.15895698  0.49831305  0.31340268  1
  O2-  O455  1  0.14783357  0.49701649  0.64617824  1
  O2-  O456  1  0.52821657  0.00051131  0.04709642  1
  O2-  O457  1  0.49835701  0.01162334  0.33732524  1
  O2-  O458  1  0.50387011  0.01670553  0.67349314  1
  O2-  O459  1  0.52715607  0.51091634  0.02958064  1
  O2-  O460  1  0.49491471  0.48708642  0.32805867  1
  O2-  O461  1  0.48258738  0.49242451  0.64281870  1
  O2-  O462  1  0.82258849  0.00584827  -0.02375443  1
  O2-  O463  1  0.82218596  -0.00165752  0.32838571  1
  O2-  O464  1  0.85100240  0.00161484  0.68949281  1
  O2-  O465  1  0.83585226  0.50225875  0.00063125  1
  O2-  O466  1  0.84319736  0.50636555  0.34502489  1
  O2-  O467  1  0.83557897  0.48733961  0.68573550  1
  O2-  O468  1  0.58295459  0.25347055  0.26238584  1
  O2-  O469  1  0.74364066  0.75147035  0.05657359  1
  O2-  O470  1  0.25249358  0.24991626  0.93901042  1
  O2-  O471  1  0.75214366  0.25176305  0.72405286  1
  O2-  O472  1  0.07797037  0.74742126  0.39069283  1
  O2-  O473  1  0.92281510  0.74818764  0.27152226  1
  O2-  O474  1  0.74322775  0.74970690  0.74562171  1
  O2-  O475  1  0.91657382  0.25428744  0.58930883  1
  O2-  O476  1  0.42361063  0.24990782  0.38974146  1
  O2-  O477  1  0.91016224  0.25114481  0.26684953  1
  O2-  O478  1  0.58142762  0.75389390  0.26376187  1
  O2-  O479  1  0.76366497  0.75158980  0.39036955  1
  O2-  O480  1  0.60069570  0.75109323  0.94154673  1
  O2-  O481  1  0.24213408  0.75235221  0.60328905  1
  O2-  O482  1  0.41786217  0.75278098  0.39977531  1
  O2-  O483  1  0.06312532  0.75168895  0.07099232  1
  O2-  O484  1  0.41261459  0.24963657  0.06688683  1
  O2-  O485  1  0.08852272  0.74994280  0.73268485  1
  O2-  O486  1  0.07792545  0.24768532  0.06370981  1
  O2-  O487  1  0.91697061  0.75079044  0.93463610  1
  O2-  O488  1  0.75494707  0.24844518  0.06307261  1
  O2-  O489  1  0.75814194  0.24988847  0.39273779  1
  O2-  O490  1  0.25834377  0.25146742  0.26624903  1
  O2-  O491  1  0.40846614  0.25011396  0.72854348  1
  O2-  O492  1  0.07625358  0.25427151  0.40472089  1
