# generated using pymatgen
data_Ca108Mn108O277
_symmetry_space_group_name_H-M   'P 1'
_cell_length_a   16.02266077
_cell_length_b   22.30076734
_cell_length_c   16.38442468
_cell_angle_alpha   90.00713374
_cell_angle_beta   89.99830959
_cell_angle_gamma   89.99916839
_symmetry_Int_Tables_number   1
_chemical_formula_structural   Ca108Mn108O277
_chemical_formula_sum   'Ca108 Mn108 O277'
_cell_volume   5854.44374692
_cell_formula_units_Z   1
loop_
 _symmetry_equiv_pos_site_id
 _symmetry_equiv_pos_as_xyz
  1  'x, y, z'
loop_
 _atom_type_symbol
 _atom_type_oxidation_number
  Ca2+  2.0
  Mn3.34+  3.34
  O2-  -2.0
loop_
 _atom_site_type_symbol
 _atom_site_label
 _atom_site_symmetry_multiplicity
 _atom_site_fract_x
 _atom_site_fract_y
 _atom_site_fract_z
 _atom_site_occupancy
  Ca2+  Ca0  1  0.09113969  0.25271932  0.24947306  1
  Ca2+  Ca1  1  0.06789989  0.26017560  0.58085296  1
  Ca2+  Ca2  1  0.05346805  0.24524550  0.92995494  1
  Ca2+  Ca3  1  0.09819585  0.75041699  0.26163225  1
  Ca2+  Ca4  1  0.09412225  0.74122786  0.55576682  1
  Ca2+  Ca5  1  0.09718093  0.74341134  0.91902681  1
  Ca2+  Ca6  1  0.42103058  0.24706427  0.25568200  1
  Ca2+  Ca7  1  0.42330743  0.25051845  0.59223435  1
  Ca2+  Ca8  1  0.42823169  0.25447214  0.89655715  1
  Ca2+  Ca9  1  0.40848059  0.75303781  0.25439826  1
  Ca2+  Ca10  1  0.40543862  0.75351329  0.58129878  1
  Ca2+  Ca11  1  0.41467864  0.74782077  0.92034549  1
  Ca2+  Ca12  1  0.73817612  0.25602266  0.25170040  1
  Ca2+  Ca13  1  0.76311931  0.25023097  0.58335568  1
  Ca2+  Ca14  1  0.76592062  0.24092451  0.92060986  1
  Ca2+  Ca15  1  0.74183979  0.74958589  0.23808723  1
  Ca2+  Ca16  1  0.74433395  0.75265469  0.58274643  1
  Ca2+  Ca17  1  0.73845657  0.74286384  0.92732151  1
  Ca2+  Ca18  1  0.24514647  0.25520768  0.09671162  1
  Ca2+  Ca19  1  0.25540961  0.26059002  0.42292866  1
  Ca2+  Ca20  1  0.27518799  0.25116048  0.73792557  1
  Ca2+  Ca21  1  0.25684816  0.74949096  0.10276852  1
  Ca2+  Ca22  1  0.24482314  0.72751086  0.40031566  1
  Ca2+  Ca23  1  0.26423085  0.74925693  0.74782878  1
  Ca2+  Ca24  1  0.59504262  0.25054258  0.08627911  1
  Ca2+  Ca25  1  0.58496969  0.25274980  0.42293158  1
  Ca2+  Ca26  1  0.57094955  0.24447091  0.74287728  1
  Ca2+  Ca27  1  0.57912807  0.74623076  0.08738902  1
  Ca2+  Ca28  1  0.57140118  0.75703354  0.39952057  1
  Ca2+  Ca29  1  0.57158172  0.74913338  0.75781111  1
  Ca2+  Ca30  1  0.91213859  0.24298630  0.06704450  1
  Ca2+  Ca31  1  0.91096282  0.25794548  0.44275183  1
  Ca2+  Ca32  1  0.90940146  0.24958680  0.73865980  1
  Ca2+  Ca33  1  0.90705875  0.74670836  0.09185553  1
  Ca2+  Ca34  1  0.93675686  0.74804681  0.40698047  1
  Ca2+  Ca35  1  0.91565309  0.75045332  0.74929991  1
  Ca2+  Ca36  1  0.27112839  0.09845560  0.74883756  1
  Ca2+  Ca37  1  0.88821049  0.59188441  0.08586323  1
  Ca2+  Ca38  1  0.27485375  0.59464515  0.74320432  1
  Ca2+  Ca39  1  0.41221720  0.60067033  0.91195277  1
  Ca2+  Ca40  1  0.25665041  0.08924614  0.08320836  1
  Ca2+  Ca41  1  0.61022914  0.58536517  0.08542400  1
  Ca2+  Ca42  1  0.58358895  0.09114562  0.40472540  1
  Ca2+  Ca43  1  0.26137971  0.08702793  0.40669452  1
  Ca2+  Ca44  1  0.42032539  0.10228553  0.59002042  1
  Ca2+  Ca45  1  0.58773629  0.08212344  0.07501426  1
  Ca2+  Ca46  1  0.24614967  0.61657263  0.07623621  1
  Ca2+  Ca47  1  0.41313043  0.60470916  0.25427201  1
  Ca2+  Ca48  1  0.43629184  0.08184182  0.93601229  1
  Ca2+  Ca49  1  0.43410888  0.07936917  0.24233279  1
  Ca2+  Ca50  1  0.75100569  0.57305586  0.60759413  1
  Ca2+  Ca51  1  0.05316520  0.09581321  0.93801635  1
  Ca2+  Ca52  1  0.07729051  0.09069444  0.23370338  1
  Ca2+  Ca53  1  0.90810642  0.09540121  0.06289836  1
  Ca2+  Ca54  1  0.04608681  0.09095831  0.58371672  1
  Ca2+  Ca55  1  0.90844932  0.09187475  0.41549332  1
  Ca2+  Ca56  1  0.09237434  0.61008513  0.26780401  1
  Ca2+  Ca57  1  0.78473142  0.10540957  0.59328893  1
  Ca2+  Ca58  1  0.27295638  0.08564869  0.40648054  1
  Ca2+  Ca59  1  0.94069337  0.60001389  0.42648960  1
  Ca2+  Ca60  1  0.90211598  0.57772918  0.73020347  1
  Ca2+  Ca61  1  0.10189105  0.60886684  0.26394291  1
  Ca2+  Ca62  1  0.44807011  0.07933607  0.93323524  1
  Ca2+  Ca63  1  0.57241320  0.09186410  0.40395113  1
  Ca2+  Ca64  1  0.76183506  0.57369030  0.60725218  1
  Ca2+  Ca65  1  0.05830105  0.08933379  0.58604813  1
  Ca2+  Ca66  1  0.73077624  0.08613613  0.24226742  1
  Ca2+  Ca67  1  0.27055981  0.59155998  0.75141147  1
  Ca2+  Ca68  1  0.24412150  0.09098697  0.08470720  1
  Ca2+  Ca69  1  0.58851892  0.10208713  0.75531180  1
  Ca2+  Ca70  1  0.06496418  0.09395718  0.94075141  1
  Ca2+  Ca71  1  0.42391552  0.60408392  0.25350088  1
  Ca2+  Ca72  1  0.57086139  0.91812527  0.07682555  1
  Ca2+  Ca73  1  0.57199665  0.41813590  0.75345680  1
  Ca2+  Ca74  1  0.59376496  0.41441477  0.41230908  1
  Ca2+  Ca75  1  0.58303707  0.41484593  0.41148908  1
  Ca2+  Ca76  1  0.58434176  0.41600149  0.75438371  1
  Ca2+  Ca77  1  0.42340736  0.40625543  0.25051689  1
  Ca2+  Ca78  1  0.28023359  0.41423952  0.75397649  1
  Ca2+  Ca79  1  0.43487595  0.40815840  0.24981740  1
  Ca2+  Ca80  1  0.24550064  0.41059205  0.41904775  1
  Ca2+  Ca81  1  0.75347151  0.89470883  0.58847495  1
  Ca2+  Ca82  1  0.60778792  0.41620340  0.08573109  1
  Ca2+  Ca83  1  0.92390924  0.90806050  0.40753815  1
  Ca2+  Ca84  1  0.08659719  0.89610110  0.91814632  1
  Ca2+  Ca85  1  0.09354539  0.39667812  0.92052340  1
  Ca2+  Ca86  1  0.07569378  0.89762469  0.58085236  1
  Ca2+  Ca87  1  0.74262173  0.90539086  0.24702428  1
  Ca2+  Ca88  1  0.05161369  0.41900001  0.57850536  1
  Ca2+  Ca89  1  0.08039501  0.90193435  0.24659386  1
  Ca2+  Ca90  1  0.25342125  0.89445730  0.41601539  1
  Ca2+  Ca91  1  0.56217331  0.91954993  0.08222829  1
  Ca2+  Ca92  1  0.06840927  0.40389907  0.25696259  1
  Ca2+  Ca93  1  0.90919459  0.90968118  0.08952975  1
  Ca2+  Ca94  1  0.91084156  0.89913627  0.75225881  1
  Ca2+  Ca95  1  0.77759740  0.42032376  0.60022387  1
  Ca2+  Ca96  1  0.92191586  0.90745067  0.09060290  1
  Ca2+  Ca97  1  0.41826247  0.90543834  0.24608180  1
  Ca2+  Ca98  1  0.74159360  0.41234812  0.92739118  1
  Ca2+  Ca99  1  0.41781984  0.91424578  0.93545586  1
  Ca2+  Ca100  1  0.08057422  0.39688451  0.92055120  1
  Ca2+  Ca101  1  0.26911423  0.41075359  0.75025511  1
  Ca2+  Ca102  1  0.74895279  0.41747600  0.24870129  1
  Ca2+  Ca103  1  0.89657912  0.40964825  0.08283483  1
  Ca2+  Ca104  1  0.59379963  0.89840189  0.75710367  1
  Ca2+  Ca105  1  0.73745910  0.90699375  0.91490926  1
  Ca2+  Ca106  1  0.24679402  0.89407121  0.75848947  1
  Ca2+  Ca107  1  0.41792360  0.41590041  0.59447430  1
  Mn3.34+  Mn108  1  0.07914197  0.32807140  0.08968308  1
  Mn3.34+  Mn109  1  0.07986507  0.33971636  0.41733606  1
  Mn3.34+  Mn110  1  0.08380058  0.33404520  0.74893493  1
  Mn3.34+  Mn111  1  0.08653056  0.82652619  0.08477930  1
  Mn3.34+  Mn112  1  0.08528335  0.83051797  0.41670064  1
  Mn3.34+  Mn113  1  0.08284827  0.83244168  0.75085942  1
  Mn3.34+  Mn114  1  0.41710446  0.32583868  0.07830901  1
  Mn3.34+  Mn115  1  0.41515256  0.33687338  0.42465900  1
  Mn3.34+  Mn116  1  0.42287271  0.33296211  0.75226320  1
  Mn3.34+  Mn117  1  0.41315009  0.83484802  0.08572547  1
  Mn3.34+  Mn118  1  0.41676058  0.83302540  0.41943724  1
  Mn3.34+  Mn119  1  0.41781632  0.83026524  0.75017528  1
  Mn3.34+  Mn120  1  0.75181741  0.33360120  0.08557780  1
  Mn3.34+  Mn121  1  0.75546262  0.33743408  0.41821904  1
  Mn3.34+  Mn122  1  0.74912648  0.34165636  0.75620141  1
  Mn3.34+  Mn123  1  0.74612651  0.83341124  0.08351671  1
  Mn3.34+  Mn124  1  0.74716059  0.83070473  0.41574469  1
  Mn3.34+  Mn125  1  0.75060296  0.82772079  0.75534466  1
  Mn3.34+  Mn126  1  0.25054431  0.33186993  0.24921067  1
  Mn3.34+  Mn127  1  0.24699356  0.33767527  0.58241884  1
  Mn3.34+  Mn128  1  0.25559769  0.32766183  0.92077284  1
  Mn3.34+  Mn129  1  0.25060307  0.83239511  0.24897036  1
  Mn3.34+  Mn130  1  0.25121753  0.82930613  0.58275281  1
  Mn3.34+  Mn131  1  0.25251979  0.83205241  0.92027021  1
  Mn3.34+  Mn132  1  0.58542297  0.33258918  0.24583258  1
  Mn3.34+  Mn133  1  0.58706143  0.33549783  0.58137831  1
  Mn3.34+  Mn134  1  0.58526447  0.33314226  0.91772447  1
  Mn3.34+  Mn135  1  0.58189109  0.83792905  0.24986484  1
  Mn3.34+  Mn136  1  0.57776884  0.83090796  0.58002381  1
  Mn3.34+  Mn137  1  0.58076675  0.83390551  0.91578822  1
  Mn3.34+  Mn138  1  0.91404664  0.33310719  0.24837181  1
  Mn3.34+  Mn139  1  0.91444322  0.33766131  0.58603641  1
  Mn3.34+  Mn140  1  0.91025704  0.33110971  0.91077404  1
  Mn3.34+  Mn141  1  0.91457113  0.83258875  0.25114437  1
  Mn3.34+  Mn142  1  0.91635931  0.82732533  0.58001079  1
  Mn3.34+  Mn143  1  0.91548506  0.82952214  0.91503332  1
  Mn3.34+  Mn144  1  0.58476249  0.66516077  0.91669368  1
  Mn3.34+  Mn145  1  0.07588976  0.16204003  0.75282806  1
  Mn3.34+  Mn146  1  0.91740547  0.16331994  0.24166552  1
  Mn3.34+  Mn147  1  0.58525672  0.66351373  0.24556929  1
  Mn3.34+  Mn148  1  0.91392107  0.66908816  0.91590833  1
  Mn3.34+  Mn149  1  0.59144758  0.16435987  0.91212000  1
  Mn3.34+  Mn150  1  0.58645092  0.16782028  0.58427160  1
  Mn3.34+  Mn151  1  0.42160654  0.16892307  0.08889116  1
  Mn3.34+  Mn152  1  0.91285888  0.66577879  0.58246726  1
  Mn3.34+  Mn153  1  0.74674614  0.16805787  0.07860932  1
  Mn3.34+  Mn154  1  0.75445445  0.16548446  0.75671305  1
  Mn3.34+  Mn155  1  0.42139125  0.66576819  0.75517605  1
  Mn3.34+  Mn156  1  0.58239324  0.66540545  0.58416898  1
  Mn3.34+  Mn157  1  0.25793469  0.18060647  0.91691727  1
  Mn3.34+  Mn158  1  0.07989872  0.67443371  0.08052383  1
  Mn3.34+  Mn159  1  0.74756379  0.66349614  0.08334186  1
  Mn3.34+  Mn160  1  0.25365662  0.16943785  0.24520808  1
  Mn3.34+  Mn161  1  0.75011607  0.17041942  0.41841056  1
  Mn3.34+  Mn162  1  0.90854156  0.16920939  0.24386721  1
  Mn3.34+  Mn163  1  0.75348066  0.66368571  0.41244234  1
  Mn3.34+  Mn164  1  0.25196300  0.66477644  0.57395439  1
  Mn3.34+  Mn165  1  0.08660836  0.16666994  0.75135504  1
  Mn3.34+  Mn166  1  0.09143830  0.16866642  0.41502449  1
  Mn3.34+  Mn167  1  0.58385526  0.16712111  0.24277265  1
  Mn3.34+  Mn168  1  0.08013745  0.16413697  0.41572472  1
  Mn3.34+  Mn169  1  0.41930620  0.66961706  0.08076179  1
  Mn3.34+  Mn170  1  0.41442766  0.66739059  0.41845486  1
  Mn3.34+  Mn171  1  0.91361205  0.66708976  0.24581074  1
  Mn3.34+  Mn172  1  0.25168400  0.16986473  0.58408179  1
  Mn3.34+  Mn173  1  0.74324684  0.65819110  0.41380331  1
  Mn3.34+  Mn174  1  0.74790287  0.66315978  0.76148507  1
  Mn3.34+  Mn175  1  0.07663915  0.66374490  0.75206970  1
  Mn3.34+  Mn176  1  0.57254134  0.65991903  0.58290981  1
  Mn3.34+  Mn177  1  0.24874936  0.17451253  0.91556646  1
  Mn3.34+  Mn178  1  0.41711512  0.17061427  0.41453634  1
  Mn3.34+  Mn179  1  0.08713519  0.67049221  0.74925960  1
  Mn3.34+  Mn180  1  0.91203529  0.50524543  0.91389856  1
  Mn3.34+  Mn181  1  0.25012563  -0.00175094  0.25046485  1
  Mn3.34+  Mn182  1  0.91103007  0.00043936  0.91479145  1
  Mn3.34+  Mn183  1  0.25461546  0.50211578  0.58725878  1
  Mn3.34+  Mn184  1  0.42912157  0.00008260  0.75359091  1
  Mn3.34+  Mn185  1  0.08210768  0.50289553  0.41149594  1
  Mn3.34+  Mn186  1  0.07403042  -0.00088200  0.74946113  1
  Mn3.34+  Mn187  1  0.59389972  -0.00052619  0.58394030  1
  Mn3.34+  Mn188  1  0.41570980  -0.00621624  0.75159756  1
  Mn3.34+  Mn189  1  0.91840442  0.50254891  0.25357719  1
  Mn3.34+  Mn190  1  0.42397212  -0.00577717  0.41450857  1
  Mn3.34+  Mn191  1  0.09257853  0.49722229  0.08663481  1
  Mn3.34+  Mn192  1  0.59464682  0.50640110  0.92517728  1
  Mn3.34+  Mn193  1  0.42091347  0.50202811  0.07710093  1
  Mn3.34+  Mn194  1  0.41843231  0.50243336  0.41648995  1
  Mn3.34+  Mn195  1  0.26058843  -0.00675382  0.58684260  1
  Mn3.34+  Mn196  1  0.24855283  0.50103507  0.91645317  1
  Mn3.34+  Mn197  1  0.07538089  0.49771215  0.73985995  1
  Mn3.34+  Mn198  1  0.75626187  -0.00035137  0.41353245  1
  Mn3.34+  Mn199  1  0.25477058  0.50025976  0.24144346  1
  Mn3.34+  Mn200  1  0.09017570  -0.00381021  0.08010901  1
  Mn3.34+  Mn201  1  0.90173022  0.49985795  0.91374202  1
  Mn3.34+  Mn202  1  0.25077475  0.00296755  0.91265640  1
  Mn3.34+  Mn203  1  0.24671184  -0.00042348  0.58532191  1
  Mn3.34+  Mn204  1  0.07851546  0.50356878  0.08646366  1
  Mn3.34+  Mn205  1  0.57456486  0.50204955  0.59336408  1
  Mn3.34+  Mn206  1  0.75298794  0.00293490  0.75319175  1
  Mn3.34+  Mn207  1  0.40841884  0.49532943  0.07575414  1
  Mn3.34+  Mn208  1  0.74205703  -0.00518491  0.41775980  1
  Mn3.34+  Mn209  1  0.90907804  -0.00580208  0.58628453  1
  Mn3.34+  Mn210  1  0.24078238  0.49348721  0.24125098  1
  Mn3.34+  Mn211  1  0.06424224  0.50227470  0.74160149  1
  Mn3.34+  Mn212  1  0.74753837  0.50148871  0.40089551  1
  Mn3.34+  Mn213  1  0.75194840  0.00233576  0.07354186  1
  Mn3.34+  Mn214  1  0.08106081  -0.00251368  0.40701797  1
  Mn3.34+  Mn215  1  0.58036032  -0.00709604  0.58254057  1
  O2-  O216  1  0.00349715  0.16490070  0.00799084  1
  O2-  O217  1  -0.00160818  0.15973698  0.32836379  1
  O2-  O218  1  -0.00390753  0.15528128  0.66794468  1
  O2-  O219  1  -0.00480341  0.68964907  -0.00138616  1
  O2-  O220  1  -0.00552515  0.66234708  0.32493780  1
  O2-  O221  1  -0.01008027  0.65964120  0.67450228  1
  O2-  O222  1  0.33504881  0.16539629  0.00326766  1
  O2-  O223  1  0.33862975  0.14839917  0.32623648  1
  O2-  O224  1  0.33114126  0.16103967  0.66110730  1
  O2-  O225  1  0.34141729  0.66551100  0.00055774  1
  O2-  O226  1  0.34012560  0.66344069  0.33425408  1
  O2-  O227  1  0.33272420  0.66368267  0.67404683  1
  O2-  O228  1  0.65865154  0.16533331  0.00584620  1
  O2-  O229  1  0.66525430  0.14922504  0.33141237  1
  O2-  O230  1  0.66865970  0.16435843  0.66491664  1
  O2-  O231  1  0.66657927  0.66090144  -0.00053602  1
  O2-  O232  1  0.66770670  0.65517631  0.32909505  1
  O2-  O233  1  0.67204946  0.66084037  0.66212540  1
  O2-  O234  1  0.17052422  0.16773282  -0.00001248  1
  O2-  O235  1  0.16872975  0.14441637  0.33185129  1
  O2-  O236  1  0.16013677  0.14034592  0.66771478  1
  O2-  O237  1  0.16887359  0.68870103  0.01116404  1
  O2-  O238  1  0.16527725  0.67299537  0.32595905  1
  O2-  O239  1  0.16687741  0.65059955  0.66927044  1
  O2-  O240  1  0.49953284  0.16080905  0.00072449  1
  O2-  O241  1  0.49911962  0.15439483  0.32875443  1
  O2-  O242  1  0.50835841  0.15552518  0.66266198  1
  O2-  O243  1  0.50640643  0.64924861  0.00474437  1
  O2-  O244  1  0.50030040  0.66785948  0.32729622  1
  O2-  O245  1  0.50338910  0.65757429  0.67209207  1
  O2-  O246  1  0.82860842  0.16367451  0.00716096  1
  O2-  O247  1  0.83080475  0.15560815  0.32880491  1
  O2-  O248  1  0.82162177  0.18085622  0.67119727  1
  O2-  O249  1  0.83660785  0.67143625  0.00227257  1
  O2-  O250  1  0.84049281  0.64750452  0.33899525  1
  O2-  O251  1  0.82982001  0.67674848  0.66762183  1
  O2-  O252  1  -0.00078349  0.34007667  0.00215415  1
  O2-  O253  1  0.00237274  0.32828408  0.32551602  1
  O2-  O254  1  0.00777461  0.34301682  0.66222181  1
  O2-  O255  1  -0.00310422  0.83148331  0.00158482  1
  O2-  O256  1  0.00080559  0.84128098  0.33203729  1
  O2-  O257  1  -0.00621205  0.84118791  0.67001488  1
  O2-  O258  1  0.33402516  0.29699796  -0.00055242  1
  O2-  O259  1  0.33847848  0.35370581  0.33648981  1
  O2-  O260  1  0.33620652  0.34632810  0.66796672  1
  O2-  O261  1  0.33965328  0.83213606  -0.00458149  1
  O2-  O262  1  0.33551833  0.84371463  0.32881185  1
  O2-  O263  1  0.32958574  0.83922538  0.67146662  1
  O2-  O264  1  0.66422678  0.34372468  0.00302270  1
  O2-  O265  1  0.66812952  0.35270554  0.32953057  1
  O2-  O266  1  0.66442447  0.34121917  0.67073152  1
  O2-  O267  1  0.66159530  0.85303556  0.00541367  1
  O2-  O268  1  0.67017371  0.84338245  0.32792428  1
  O2-  O269  1  0.67221567  0.83313281  0.67069477  1
  O2-  O270  1  0.15931273  0.32054912  -0.00137024  1
  O2-  O271  1  0.16715443  0.35154379  0.33314289  1
  O2-  O272  1  0.17622110  0.35811131  0.67618797  1
  O2-  O273  1  0.16359311  0.82077005  -0.00256887  1
  O2-  O274  1  0.16421636  0.84372068  0.33231046  1
  O2-  O275  1  0.16388268  0.84867968  0.66728488  1
  O2-  O276  1  0.50453741  0.30742583  -0.00029642  1
  O2-  O277  1  0.50316665  0.34853148  0.33713425  1
  O2-  O278  1  0.50251461  0.34860663  0.66600511  1
  O2-  O279  1  0.50130869  0.84815834  0.00059274  1
  O2-  O280  1  0.49616184  0.84026627  0.32689043  1
  O2-  O281  1  0.50717530  0.84328762  0.67612169  1
  O2-  O282  1  0.83013230  0.34618412  -0.00282600  1
  O2-  O283  1  0.83103082  0.32758629  0.32827932  1
  O2-  O284  1  0.82717397  0.32932843  0.66880348  1
  O2-  O285  1  0.83222475  0.84285072  -0.00018122  1
  O2-  O286  1  0.83350558  0.85128759  0.33350812  1
  O2-  O287  1  0.83394290  0.82112299  0.66838711  1
  O2-  O288  1  0.00186737  0.18955974  0.17369709  1
  O2-  O289  1  0.00171522  0.17431573  0.50018444  1
  O2-  O290  1  0.00674958  0.17780578  0.83859282  1
  O2-  O291  1  -0.00286371  0.68373014  0.16770516  1
  O2-  O292  1  -0.01332633  0.68400145  0.50629850  1
  O2-  O293  1  0.00018538  0.68770137  0.83424390  1
  O2-  O294  1  0.33669841  0.18938590  0.16378932  1
  O2-  O295  1  0.32505411  0.17593184  0.48647370  1
  O2-  O296  1  0.33425633  0.18686157  0.83489262  1
  O2-  O297  1  0.34109884  0.67235382  0.16429044  1
  O2-  O298  1  0.33816736  0.68140394  0.50198430  1
  O2-  O299  1  0.33581387  0.67885925  0.82743254  1
  O2-  O300  1  0.66949356  0.17956594  0.17108211  1
  O2-  O301  1  0.66193103  0.16973346  0.49210917  1
  O2-  O302  1  0.66581054  0.18726120  0.82901133  1
  O2-  O303  1  0.66167412  0.67484740  0.16081902  1
  O2-  O304  1  0.66625056  0.67713521  0.50119521  1
  O2-  O305  1  0.66400907  0.68741470  0.83069442  1
  O2-  O306  1  0.17477392  0.17753608  0.16839862  1
  O2-  O307  1  0.16315429  0.16911029  0.50847934  1
  O2-  O308  1  0.17268747  0.18880621  0.82855998  1
  O2-  O309  1  0.15440629  0.67978926  0.16564140  1
  O2-  O310  1  0.17499458  0.67314362  0.50110259  1
  O2-  O311  1  0.17136280  0.67922937  0.82410386  1
  O2-  O312  1  0.50213145  0.18796763  0.16570279  1
  O2-  O313  1  0.50210166  0.17090929  0.49508212  1
  O2-  O314  1  0.50870621  0.18183768  0.84338371  1
  O2-  O315  1  0.49638590  0.67913160  0.17181182  1
  O2-  O316  1  0.50148672  0.67826895  0.49790693  1
  O2-  O317  1  0.49639069  0.68034261  0.84196919  1
  O2-  O318  1  0.82672045  0.18302783  0.16626225  1
  O2-  O319  1  0.83010236  0.17816829  0.49314910  1
  O2-  O320  1  0.82926857  0.19055606  0.82205305  1
  O2-  O321  1  0.83189882  0.67695382  0.16366200  1
  O2-  O322  1  0.82545959  0.68421143  0.50235416  1
  O2-  O323  1  0.83141868  0.69059322  0.83291336  1
  O2-  O324  1  -0.00402302  0.31051314  0.16577268  1
  O2-  O325  1  0.00002414  0.32792856  0.49954020  1
  O2-  O326  1  0.00751799  0.32283010  0.84135580  1
  O2-  O327  1  -0.00408081  0.81733013  0.16310287  1
  O2-  O328  1  0.00075976  0.82076754  0.50049331  1
  O2-  O329  1  0.00003841  0.81646930  0.83558482  1
  O2-  O330  1  0.34098442  0.31711564  0.17254057  1
  O2-  O331  1  0.33399804  0.32065687  0.50418126  1
  O2-  O332  1  0.33076548  0.32216885  0.82806944  1
  O2-  O333  1  0.33811744  0.82621457  0.17034206  1
  O2-  O334  1  0.32646377  0.81836737  0.49391039  1
  O2-  O335  1  0.33093389  0.81708337  0.83340650  1
  O2-  O336  1  0.66608248  0.32200757  0.16650565  1
  O2-  O337  1  0.65857622  0.32943223  0.49020692  1
  O2-  O338  1  0.66797816  0.31191486  0.83521752  1
  O2-  O339  1  0.66617648  0.83206029  0.16400804  1
  O2-  O340  1  0.67095179  0.81955503  0.50424770  1
  O2-  O341  1  0.66663259  0.81955716  0.83658021  1
  O2-  O342  1  0.16119655  0.31535372  0.16919584  1
  O2-  O343  1  0.16696179  0.32629011  0.50157243  1
  O2-  O344  1  0.16499667  0.32009682  0.83849304  1
  O2-  O345  1  0.16144789  0.82016238  0.17100376  1
  O2-  O346  1  0.16294070  0.82713653  0.50248528  1
  O2-  O347  1  0.16834358  0.81868222  0.83438231  1
  O2-  O348  1  0.49674804  0.31669983  0.17272653  1
  O2-  O349  1  0.50179369  0.32654671  0.49815765  1
  O2-  O350  1  0.51060614  0.32286245  0.82754698  1
  O2-  O351  1  0.50337051  0.82702147  0.16177878  1
  O2-  O352  1  0.49694031  0.81767441  0.50115686  1
  O2-  O353  1  0.49813234  0.82199363  0.83706380  1
  O2-  O354  1  0.83408261  0.31612844  0.16468969  1
  O2-  O355  1  0.82614131  0.32427469  0.50619842  1
  O2-  O356  1  0.82950490  0.32150426  0.83209903  1
  O2-  O357  1  0.83270808  0.82702682  0.16440319  1
  O2-  O358  1  0.83306440  0.81410884  0.50051218  1
  O2-  O359  1  0.83329164  0.81268932  0.83546871  1
  O2-  O360  1  0.10521967  0.07683870  0.10562934  1
  O2-  O361  1  0.07981709  0.07643131  0.45270688  1
  O2-  O362  1  0.09163747  0.08062159  0.79992043  1
  O2-  O363  1  0.08736722  0.58459905  0.10559024  1
  O2-  O364  1  0.07463228  0.58139835  0.41013588  1
  O2-  O365  1  0.07758499  0.58154029  0.78526697  1
  O2-  O366  1  0.39452580  0.08326591  0.10923441  1
  O2-  O367  1  0.40701135  0.07311357  0.45662063  1
  O2-  O368  1  0.41048215  0.07597335  0.80103732  1
  O2-  O369  1  0.40928562  0.58043503  0.11470787  1
  O2-  O370  1  0.42433898  0.58291501  0.40566651  1
  O2-  O371  1  0.40647931  0.58418259  0.77676462  1
  O2-  O372  1  0.74579552  0.08241002  0.10542955  1
  O2-  O373  1  0.75976258  0.07916064  0.44618544  1
  O2-  O374  1  0.73887512  0.08479143  0.76779379  1
  O2-  O375  1  0.75216938  0.58483480  0.09791869  1
  O2-  O376  1  0.75842421  0.57486694  0.45984115  1
  O2-  O377  1  0.76251708  0.58487448  0.75122377  1
  O2-  O378  1  0.25225872  0.08009850  0.21817627  1
  O2-  O379  1  0.25757601  0.07766123  0.54355542  1
  O2-  O380  1  0.24789232  0.08627816  0.88363387  1
  O2-  O381  1  0.23237956  0.57977183  0.21597323  1
  O2-  O382  1  0.25951392  0.58193821  0.58528070  1
  O2-  O383  1  0.25611399  0.57699551  0.88215335  1
  O2-  O384  1  0.57907177  0.08612293  0.21569253  1
  O2-  O385  1  0.57924663  0.07731260  0.54323325  1
  O2-  O386  1  0.57602104  0.08183709  0.88978603  1
  O2-  O387  1  0.55609866  0.58253969  0.22136064  1
  O2-  O388  1  0.60226397  0.57895525  0.55907900  1
  O2-  O389  1  0.57749477  0.58182713  0.89328980  1
  O2-  O390  1  0.92870013  0.08238405  0.20580236  1
  O2-  O391  1  0.91795250  0.07362739  0.54853126  1
  O2-  O392  1  0.92703422  0.07871697  0.89900825  1
  O2-  O393  1  0.93591867  0.58194123  0.21752481  1
  O2-  O394  1  0.89443687  0.58826228  0.56210105  1
  O2-  O395  1  0.91202746  0.58382567  0.87601461  1
  O2-  O396  1  0.07512999  0.41696033  0.11332461  1
  O2-  O397  1  0.09352276  0.42394529  0.44664843  1
  O2-  O398  1  0.08907814  0.42314138  0.79220778  1
  O2-  O399  1  0.06259842  0.91663869  0.10085052  1
  O2-  O400  1  0.07613344  0.91877865  0.43948150  1
  O2-  O401  1  0.07912717  0.91582957  0.78200187  1
  O2-  O402  1  0.42583400  0.41610126  0.11021704  1
  O2-  O403  1  0.41502873  0.42273276  0.45579664  1
  O2-  O404  1  0.41865520  0.41575613  0.77567748  1
  O2-  O405  1  0.42564684  0.91824143  0.10199093  1
  O2-  O406  1  0.40143070  0.91682274  0.43320684  1
  O2-  O407  1  0.41098712  0.91498726  0.78261961  1
  O2-  O408  1  0.75079807  0.41391740  0.11168294  1
  O2-  O409  1  0.73982489  0.42609574  0.45177053  1
  O2-  O410  1  0.72177349  0.42007826  0.78315214  1
  O2-  O411  1  0.76750190  0.92233295  0.10880880  1
  O2-  O412  1  0.75586297  0.91718690  0.44876359  1
  O2-  O413  1  0.76017636  0.91995274  0.77701310  1
  O2-  O414  1  0.26312221  0.41493351  0.21405773  1
  O2-  O415  1  0.26394435  0.42201869  0.55489714  1
  O2-  O416  1  0.23208406  0.41939617  0.88599948  1
  O2-  O417  1  0.24128448  0.91859586  0.23827583  1
  O2-  O418  1  0.24603687  0.91447836  0.55786653  1
  O2-  O419  1  0.24500154  0.92158923  0.89473344  1
  O2-  O420  1  0.56980579  0.41439090  0.21740473  1
  O2-  O421  1  0.57467461  0.42434758  0.54898973  1
  O2-  O422  1  0.58875109  0.42600569  0.88837667  1
  O2-  O423  1  0.58110420  0.92135468  0.21854919  1
  O2-  O424  1  0.59997796  0.91308325  0.57026717  1
  O2-  O425  1  0.58743387  0.91590347  0.89256801  1
  O2-  O426  1  0.91712638  0.42244765  0.21877211  1
  O2-  O427  1  0.91365714  0.41664531  0.56924080  1
  O2-  O428  1  0.93139122  0.41775485  0.89308252  1
  O2-  O429  1  0.92437572  0.91704121  0.22338318  1
  O2-  O430  1  0.90957221  0.91534802  0.55659589  1
  O2-  O431  1  0.91419177  0.91957173  0.88840593  1
  O2-  O432  1  0.00874274  0.00593808  -0.00771868  1
  O2-  O433  1  0.00051891  0.00490688  0.34094594  1
  O2-  O434  1  0.01709880  0.00078296  0.63718699  1
  O2-  O435  1  0.00040945  0.49455426  -0.00216507  1
  O2-  O436  1  0.01460705  0.49503858  0.31413050  1
  O2-  O437  1  -0.00804492  0.50976976  0.65691076  1
  O2-  O438  1  0.33400887  0.01967634  -0.01717073  1
  O2-  O439  1  0.33624155  0.01181022  0.33161499  1
  O2-  O440  1  0.33559248  0.01983302  0.67075175  1
  O2-  O441  1  0.33373707  0.51211084  -0.00798511  1
  O2-  O442  1  0.33705455  0.48979104  0.32499628  1
  O2-  O443  1  0.31633437  0.49444143  0.68927572  1
  O2-  O444  1  0.64846030  -0.00609196  0.03563831  1
  O2-  O445  1  0.66345717  0.01522996  0.33761286  1
  O2-  O446  1  0.65080957  -0.00349100  0.68739293  1
  O2-  O447  1  0.66330765  0.49240284  0.00550462  1
  O2-  O448  1  0.66316786  0.48278661  0.33657132  1
  O2-  O449  1  0.67090539  0.49197568  0.64293662  1
  O2-  O450  1  0.16842374  0.01646435  -0.00570097  1
  O2-  O451  1  0.17473768  0.01697260  0.34217643  1
  O2-  O452  1  0.17383472  0.00965943  0.67534729  1
  O2-  O453  1  0.16010937  0.49425473  -0.00755089  1
  O2-  O454  1  0.17185230  0.49539489  0.33408264  1
  O2-  O455  1  0.15915801  0.48668487  0.65956397  1
  O2-  O456  1  0.49579705  0.00555683  -0.00174426  1
  O2-  O457  1  0.50185255  0.02132968  0.34285816  1
  O2-  O458  1  0.49279873  0.01311758  0.65698556  1
  O2-  O459  1  0.50433125  0.49899749  -0.00218748  1
  O2-  O460  1  0.49558975  0.47379680  0.33809431  1
  O2-  O461  1  0.50427500  0.48110752  0.67300704  1
  O2-  O462  1  0.85446361  -0.00230638  0.02205531  1
  O2-  O463  1  0.83893064  0.00963345  0.34230496  1
  O2-  O464  1  0.81785280  -0.00125496  0.65435719  1
  O2-  O465  1  0.83912259  0.49135664  0.00829091  1
  O2-  O466  1  0.82664543  0.49843969  0.32242658  1
  O2-  O467  1  0.82859298  0.50439090  0.65756640  1
  O2-  O468  1  0.24874911  0.24930643  0.28363620  1
  O2-  O469  1  0.59352997  0.75174654  0.26093687  1
  O2-  O470  1  0.08483040  0.75005559  0.71842975  1
  O2-  O471  1  0.74358299  0.74747167  0.38993334  1
  O2-  O472  1  0.74243051  0.75284650  0.07037606  1
  O2-  O473  1  0.89891663  0.74964392  0.27066104  1
  O2-  O474  1  0.58427746  0.74757832  0.60440198  1
  O2-  O475  1  0.08501393  0.75257457  0.40436028  1
  O2-  O476  1  0.42083427  0.75131776  0.39718451  1
  O2-  O477  1  0.42439613  0.75032154  0.72635451  1
  O2-  O478  1  0.09613971  0.25291686  0.39974102  1
  O2-  O479  1  0.74527648  0.25132273  0.06309082  1
  O2-  O480  1  0.25518345  0.75459929  0.25960832  1
  O2-  O481  1  0.92155662  0.25599110  0.59121525  1
  O2-  O482  1  0.57653248  0.25163102  0.59374027  1
  O2-  O483  1  0.58051761  0.75040789  0.94288577  1
  O2-  O484  1  0.42188426  0.25448647  0.72911303  1
  O2-  O485  1  0.73663912  0.25091936  0.39866096  1
  O2-  O486  1  0.24476046  0.74861372  0.60589332  1
  O2-  O487  1  0.08856775  0.24823431  0.71869207  1
  O2-  O488  1  0.41593445  0.25613011  0.39473423  1
  O2-  O489  1  0.58828307  0.25085108  0.27881403  1
  O2-  O490  1  0.42714017  0.75135699  0.06644912  1
  O2-  O491  1  0.91250546  0.25423531  0.93185677  1
  O2-  O492  1  0.24041151  0.25482853  0.60424347  1
