# generated using pymatgen
data_Ca108Mn108O277
_symmetry_space_group_name_H-M   'P 1'
_cell_length_a   16.01471872
_cell_length_b   22.28873984
_cell_length_c   16.37877904
_cell_angle_alpha   89.99711056
_cell_angle_beta   89.99951878
_cell_angle_gamma   89.99975673
_symmetry_Int_Tables_number   1
_chemical_formula_structural   Ca108Mn108O277
_chemical_formula_sum   'Ca108 Mn108 O277'
_cell_volume   5846.37076333
_cell_formula_units_Z   1
loop_
 _symmetry_equiv_pos_site_id
 _symmetry_equiv_pos_as_xyz
  1  'x, y, z'
loop_
 _atom_type_symbol
 _atom_type_oxidation_number
  Ca2+  2.0
  Mn3.34+  3.34
  O2-  -2.0
loop_
 _atom_site_type_symbol
 _atom_site_label
 _atom_site_symmetry_multiplicity
 _atom_site_fract_x
 _atom_site_fract_y
 _atom_site_fract_z
 _atom_site_occupancy
  Ca2+  Ca0  1  0.06767741  0.26009692  0.23665845  1
  Ca2+  Ca1  1  0.07686018  0.25842769  0.59735594  1
  Ca2+  Ca2  1  0.07332154  0.26099177  0.91803879  1
  Ca2+  Ca3  1  0.06338934  0.72554022  0.25326166  1
  Ca2+  Ca4  1  0.06862762  0.74502376  0.56741953  1
  Ca2+  Ca5  1  0.07643635  0.74945079  0.92938981  1
  Ca2+  Ca6  1  0.41389942  0.26814770  0.23973310  1
  Ca2+  Ca7  1  0.42281505  0.25572723  0.59613239  1
  Ca2+  Ca8  1  0.42913303  0.25680536  0.91096363  1
  Ca2+  Ca9  1  0.44169954  0.73534941  0.23192760  1
  Ca2+  Ca10  1  0.43116777  0.75053953  0.59063079  1
  Ca2+  Ca11  1  0.42757263  0.75937387  0.93108485  1
  Ca2+  Ca12  1  0.76527952  0.25196609  0.24886408  1
  Ca2+  Ca13  1  0.75136569  0.25036143  0.57803067  1
  Ca2+  Ca14  1  0.74477690  0.25479075  0.92371797  1
  Ca2+  Ca15  1  0.75239256  0.73485954  0.24601347  1
  Ca2+  Ca16  1  0.74914046  0.74526342  0.57628248  1
  Ca2+  Ca17  1  0.74945236  0.74852708  0.93171494  1
  Ca2+  Ca18  1  0.24101651  0.26039182  0.08893508  1
  Ca2+  Ca19  1  0.25057582  0.25451615  0.42574877  1
  Ca2+  Ca20  1  0.24790915  0.25023012  0.73975329  1
  Ca2+  Ca21  1  0.25261642  0.74413823  0.08911731  1
  Ca2+  Ca22  1  0.22588879  0.75325813  0.41435231  1
  Ca2+  Ca23  1  0.24586279  0.75387665  0.74448771  1
  Ca2+  Ca24  1  0.59877839  0.25602385  0.07714646  1
  Ca2+  Ca25  1  0.59998612  0.24801334  0.42415064  1
  Ca2+  Ca26  1  0.57941845  0.25578262  0.74520395  1
  Ca2+  Ca27  1  0.59010705  0.74403950  0.10033477  1
  Ca2+  Ca28  1  0.60199076  0.74426950  0.40195679  1
  Ca2+  Ca29  1  0.58519530  0.74904801  0.73823811  1
  Ca2+  Ca30  1  0.91247757  0.24702296  0.10497070  1
  Ca2+  Ca31  1  0.89897303  0.24594356  0.40345014  1
  Ca2+  Ca32  1  0.92273102  0.25496899  0.74301334  1
  Ca2+  Ca33  1  0.91094583  0.74696065  0.10694725  1
  Ca2+  Ca34  1  0.91711348  0.74346262  0.40994990  1
  Ca2+  Ca35  1  0.90815556  0.73595720  0.73740798  1
  Ca2+  Ca36  1  0.07516458  0.59496516  0.94285861  1
  Ca2+  Ca37  1  0.74391810  0.10366070  0.57584474  1
  Ca2+  Ca38  1  0.76682255  0.11146232  0.25670629  1
  Ca2+  Ca39  1  0.43458936  0.08409898  0.59468323  1
  Ca2+  Ca40  1  0.43519779  0.58572631  0.59081587  1
  Ca2+  Ca41  1  0.91528951  0.60424032  0.41498875  1
  Ca2+  Ca42  1  0.05389998  0.09480035  0.24355157  1
  Ca2+  Ca43  1  0.58767290  0.08856990  0.73405165  1
  Ca2+  Ca44  1  0.07261258  0.60453682  0.57935171  1
  Ca2+  Ca45  1  0.41786169  0.59279309  0.92626256  1
  Ca2+  Ca46  1  0.74611585  0.59586444  0.58214411  1
  Ca2+  Ca47  1  0.23579912  0.60654242  0.41653552  1
  Ca2+  Ca48  1  0.08089474  0.58891921  0.94032007  1
  Ca2+  Ca49  1  0.04156056  0.09667062  0.24274567  1
  Ca2+  Ca50  1  0.45394966  0.07737177  0.25609822  1
  Ca2+  Ca51  1  0.07948683  0.08016484  0.60687538  1
  Ca2+  Ca52  1  0.73401860  0.09473011  0.91423618  1
  Ca2+  Ca53  1  0.41244358  0.08040253  0.90949111  1
  Ca2+  Ca54  1  0.75935191  0.10696530  0.25289673  1
  Ca2+  Ca55  1  0.76300095  0.60614632  0.90587999  1
  Ca2+  Ca56  1  0.59891033  0.58824100  0.72671986  1
  Ca2+  Ca57  1  0.42494624  0.08225635  0.91075863  1
  Ca2+  Ca58  1  0.74111131  0.59992564  0.24998441  1
  Ca2+  Ca59  1  0.60540160  0.09854786  0.42083222  1
  Ca2+  Ca60  1  0.25121311  0.08108009  0.42082184  1
  Ca2+  Ca61  1  0.23456443  0.07705428  0.06963027  1
  Ca2+  Ca62  1  0.24890838  0.58930420  0.73872769  1
  Ca2+  Ca63  1  0.89369825  0.10708812  0.41757722  1
  Ca2+  Ca64  1  0.60672882  0.58447318  0.40053413  1
  Ca2+  Ca65  1  0.24652594  0.07735714  0.06991318  1
  Ca2+  Ca66  1  0.92845726  0.08678301  0.73367696  1
  Ca2+  Ca67  1  0.91040606  0.60967122  0.09472233  1
  Ca2+  Ca68  1  0.23123496  0.08003189  0.74565991  1
  Ca2+  Ca69  1  0.58842964  0.60090968  0.10343550  1
  Ca2+  Ca70  1  0.22323512  0.60693551  0.41917701  1
  Ca2+  Ca71  1  0.92074962  0.61032998  0.09557185  1
  Ca2+  Ca72  1  0.74382171  0.89808803  0.91198848  1
  Ca2+  Ca73  1  0.25481551  0.40990403  0.75037784  1
  Ca2+  Ca74  1  0.74002907  0.40387094  0.91635427  1
  Ca2+  Ca75  1  0.24568525  0.90414336  0.41768681  1
  Ca2+  Ca76  1  0.24206525  0.41000934  0.75044950  1
  Ca2+  Ca77  1  0.09302783  0.90966874  0.91565889  1
  Ca2+  Ca78  1  0.08104070  0.90575816  0.58503230  1
  Ca2+  Ca79  1  0.90137216  0.40117101  0.41822602  1
  Ca2+  Ca80  1  0.07540200  0.90184505  0.24910336  1
  Ca2+  Ca81  1  0.74260733  0.41123314  0.25328910  1
  Ca2+  Ca82  1  0.42170370  0.91001178  0.58849149  1
  Ca2+  Ca83  1  0.91679405  0.89622728  0.08690133  1
  Ca2+  Ca84  1  0.59525463  0.42215569  0.40962609  1
  Ca2+  Ca85  1  0.74307816  0.41281300  0.58471377  1
  Ca2+  Ca86  1  0.26141870  0.40028405  0.42133138  1
  Ca2+  Ca87  1  0.74295817  0.89794949  0.25081970  1
  Ca2+  Ca88  1  0.60704028  0.42441831  0.41173149  1
  Ca2+  Ca89  1  0.10390505  0.91394530  0.91217894  1
  Ca2+  Ca90  1  0.42463992  0.90886014  0.24942870  1
  Ca2+  Ca91  1  0.92652212  0.90984772  0.73536255  1
  Ca2+  Ca92  1  0.25638336  0.90782150  0.07392847  1
  Ca2+  Ca93  1  0.23777672  0.40213810  0.08228773  1
  Ca2+  Ca94  1  0.43273867  0.90886933  0.58744220  1
  Ca2+  Ca95  1  0.08672202  0.90150932  0.24983349  1
  Ca2+  Ca96  1  0.91293273  0.40497523  0.74059486  1
  Ca2+  Ca97  1  0.42579388  0.40505906  0.91556827  1
  Ca2+  Ca98  1  0.58147277  0.89978259  0.08669562  1
  Ca2+  Ca99  1  0.58660103  0.90791302  0.74004113  1
  Ca2+  Ca100  1  0.25252946  0.91014064  0.75270925  1
  Ca2+  Ca101  1  0.43530864  0.90656343  0.24716920  1
  Ca2+  Ca102  1  0.58633681  0.90433577  0.42041958  1
  Ca2+  Ca103  1  0.08664567  0.41107993  0.93390409  1
  Ca2+  Ca104  1  0.24847503  0.40080082  0.42148343  1
  Ca2+  Ca105  1  0.58926340  0.40453709  0.09133213  1
  Ca2+  Ca106  1  0.43768270  0.41548948  0.58852966  1
  Ca2+  Ca107  1  0.91384021  0.90939072  0.73492963  1
  Mn3.34+  Mn108  1  0.07575742  0.34077356  0.08541513  1
  Mn3.34+  Mn109  1  0.07858046  0.32968372  0.41793998  1
  Mn3.34+  Mn110  1  0.08075254  0.33444752  0.75279682  1
  Mn3.34+  Mn111  1  0.08381175  0.82641336  0.08438693  1
  Mn3.34+  Mn112  1  0.07699507  0.83035881  0.41959756  1
  Mn3.34+  Mn113  1  0.08352200  0.82988673  0.75235046  1
  Mn3.34+  Mn114  1  0.41766227  0.33572167  0.08385589  1
  Mn3.34+  Mn115  1  0.42374637  0.33185970  0.41557210  1
  Mn3.34+  Mn116  1  0.42149349  0.33601539  0.75040248  1
  Mn3.34+  Mn117  1  0.41782903  0.82705469  0.08244500  1
  Mn3.34+  Mn118  1  0.41529528  0.83314283  0.41963841  1
  Mn3.34+  Mn119  1  0.41756642  0.83023313  0.75619366  1
  Mn3.34+  Mn120  1  0.75532380  0.33648224  0.08629412  1
  Mn3.34+  Mn121  1  0.74950966  0.33484549  0.41867962  1
  Mn3.34+  Mn122  1  0.74691527  0.33784523  0.75037980  1
  Mn3.34+  Mn123  1  0.74909294  0.82725939  0.08419880  1
  Mn3.34+  Mn124  1  0.75364869  0.82888710  0.41825732  1
  Mn3.34+  Mn125  1  0.75053124  0.83068748  0.74996808  1
  Mn3.34+  Mn126  1  0.24633632  0.33504922  0.24732394  1
  Mn3.34+  Mn127  1  0.24939219  0.33213921  0.58367768  1
  Mn3.34+  Mn128  1  0.25091424  0.33057759  0.91546298  1
  Mn3.34+  Mn129  1  0.25254342  0.82657863  0.24843473  1
  Mn3.34+  Mn130  1  0.24827286  0.83202753  0.58279843  1
  Mn3.34+  Mn131  1  0.25718426  0.83785211  0.91487390  1
  Mn3.34+  Mn132  1  0.58325369  0.33486630  0.24887832  1
  Mn3.34+  Mn133  1  0.58497723  0.33407523  0.58178480  1
  Mn3.34+  Mn134  1  0.58501209  0.33363462  0.91419785  1
  Mn3.34+  Mn135  1  0.58627804  0.83229002  0.25018814  1
  Mn3.34+  Mn136  1  0.59070289  0.83422416  0.57942391  1
  Mn3.34+  Mn137  1  0.58192317  0.83613354  0.91429556  1
  Mn3.34+  Mn138  1  0.91756915  0.33007370  0.24864391  1
  Mn3.34+  Mn139  1  0.91738343  0.33348472  0.58032262  1
  Mn3.34+  Mn140  1  0.91342630  0.33495173  0.91741311  1
  Mn3.34+  Mn141  1  0.91231433  0.82944859  0.25426451  1
  Mn3.34+  Mn142  1  0.91155903  0.83179993  0.57585725  1
  Mn3.34+  Mn143  1  0.91535170  0.82588690  0.91466492  1
  Mn3.34+  Mn144  1  0.91127668  0.16955467  0.58266006  1
  Mn3.34+  Mn145  1  0.25015677  0.66927236  0.58592725  1
  Mn3.34+  Mn146  1  0.24854575  0.16366299  0.91060353  1
  Mn3.34+  Mn147  1  0.24467353  0.66801159  0.23944434  1
  Mn3.34+  Mn148  1  0.91130034  0.66615244  0.58360950  1
  Mn3.34+  Mn149  1  0.42540919  0.17256479  0.41758524  1
  Mn3.34+  Mn150  1  0.08518701  0.16785292  0.42462939  1
  Mn3.34+  Mn151  1  0.91233119  0.16886977  0.91804702  1
  Mn3.34+  Mn152  1  0.58818471  0.66492614  0.58135128  1
  Mn3.34+  Mn153  1  0.41607527  0.66812504  0.41382469  1
  Mn3.34+  Mn154  1  0.42532836  0.66228523  0.41481178  1
  Mn3.34+  Mn155  1  0.26039856  0.67070746  0.92112977  1
  Mn3.34+  Mn156  1  0.74671721  0.16987245  0.08355374  1
  Mn3.34+  Mn157  1  0.41776495  0.66668769  0.74796517  1
  Mn3.34+  Mn158  1  0.58641375  0.16782407  0.90976476  1
  Mn3.34+  Mn159  1  0.75176302  0.66106127  0.41581943  1
  Mn3.34+  Mn160  1  0.07650946  0.17407747  0.42301694  1
  Mn3.34+  Mn161  1  0.41774360  0.16773421  0.74773635  1
  Mn3.34+  Mn162  1  0.57871033  0.66115906  0.91315981  1
  Mn3.34+  Mn163  1  0.07894897  0.17009500  0.08361711  1
  Mn3.34+  Mn164  1  0.07719792  0.66681890  0.75036083  1
  Mn3.34+  Mn165  1  0.75002514  0.16564032  0.75031123  1
  Mn3.34+  Mn166  1  0.25064583  0.16665708  0.58720774  1
  Mn3.34+  Mn167  1  0.91339141  0.67301235  0.90982478  1
  Mn3.34+  Mn168  1  0.08128709  0.16398820  0.74772626  1
  Mn3.34+  Mn169  1  0.59186866  0.66841033  0.91379291  1
  Mn3.34+  Mn170  1  0.58936037  0.16643141  0.25045430  1
  Mn3.34+  Mn171  1  0.42711626  0.16684427  0.08384445  1
  Mn3.34+  Mn172  1  0.24604365  0.16696210  0.24922258  1
  Mn3.34+  Mn173  1  0.92244812  0.16357707  0.91734749  1
  Mn3.34+  Mn174  1  0.41538102  0.17278172  0.42279836  1
  Mn3.34+  Mn175  1  0.24146223  0.17431013  0.91360930  1
  Mn3.34+  Mn176  1  0.24852002  0.67061518  0.91125609  1
  Mn3.34+  Mn177  1  0.25657067  0.16170523  0.24835798  1
  Mn3.34+  Mn178  1  0.43724792  0.16178110  0.08733094  1
  Mn3.34+  Mn179  1  0.58784928  0.16791729  0.58190332  1
  Mn3.34+  Mn180  1  0.90990935  -0.00200493  0.24503567  1
  Mn3.34+  Mn181  1  0.25039532  -0.00116344  0.25311116  1
  Mn3.34+  Mn182  1  0.24994544  0.50127299  0.92373010  1
  Mn3.34+  Mn183  1  0.90649591  0.49795100  0.91232468  1
  Mn3.34+  Mn184  1  0.74691648  -0.00015473  0.73747211  1
  Mn3.34+  Mn185  1  0.92297737  0.00382232  0.91276067  1
  Mn3.34+  Mn186  1  0.07217641  0.49600284  0.42577518  1
  Mn3.34+  Mn187  1  0.41280821  0.50881257  0.08990307  1
  Mn3.34+  Mn188  1  0.73995138  0.00470315  0.08620709  1
  Mn3.34+  Mn189  1  0.90907614  -0.00268413  0.91269132  1
  Mn3.34+  Mn190  1  0.74660574  0.50044533  0.08046279  1
  Mn3.34+  Mn191  1  0.42445123  -0.00170528  0.07806635  1
  Mn3.34+  Mn192  1  0.91727073  -0.00046637  0.58423589  1
  Mn3.34+  Mn193  1  0.58309334  -0.00171936  0.91247315  1
  Mn3.34+  Mn194  1  0.91133849  0.49994805  0.24769179  1
  Mn3.34+  Mn195  1  0.24545132  0.49938580  0.58675037  1
  Mn3.34+  Mn196  1  0.41936358  -0.00337672  0.74633949  1
  Mn3.34+  Mn197  1  0.25412876  0.49961983  0.24308459  1
  Mn3.34+  Mn198  1  0.91712767  0.50248915  0.91350463  1
  Mn3.34+  Mn199  1  0.91779461  0.49977768  0.58655268  1
  Mn3.34+  Mn200  1  0.75937533  -0.00774308  0.42410084  1
  Mn3.34+  Mn201  1  0.42259333  0.00038831  0.41240956  1
  Mn3.34+  Mn202  1  0.07885645  0.50235348  0.74677483  1
  Mn3.34+  Mn203  1  0.74487976  0.49971050  0.73455686  1
  Mn3.34+  Mn204  1  0.42509312  0.50184150  0.09001936  1
  Mn3.34+  Mn205  1  0.74566333  -0.00226492  0.41898746  1
  Mn3.34+  Mn206  1  0.07591634  -0.00167837  0.41221058  1
  Mn3.34+  Mn207  1  0.24196058  0.50525105  0.24224306  1
  Mn3.34+  Mn208  1  0.58769091  0.49852378  0.91614221  1
  Mn3.34+  Mn209  1  0.08581016  0.50203607  0.42373610  1
  Mn3.34+  Mn210  1  0.92169722  0.49563312  0.24837420  1
  Mn3.34+  Mn211  1  0.41679858  0.50076076  0.40152218  1
  Mn3.34+  Mn212  1  0.07859320  -0.00166128  0.08360919  1
  Mn3.34+  Mn213  1  0.75113900  0.00003816  0.08690006  1
  Mn3.34+  Mn214  1  0.24594985  0.00126045  0.58924328  1
  Mn3.34+  Mn215  1  0.42629070  0.50127850  0.74258388  1
  O2-  O216  1  0.00204262  0.16444144  -0.00011497  1
  O2-  O217  1  0.00066504  0.16211762  0.33598151  1
  O2-  O218  1  -0.00029305  0.15876998  0.66376617  1
  O2-  O219  1  -0.00349251  0.66436291  -0.01008578  1
  O2-  O220  1  -0.00837183  0.66970438  0.34324507  1
  O2-  O221  1  -0.00145254  0.66185360  0.66609961  1
  O2-  O222  1  0.33300103  0.15798594  -0.00109294  1
  O2-  O223  1  0.33351276  0.16072620  0.33945771  1
  O2-  O224  1  0.33250515  0.15264163  0.66910690  1
  O2-  O225  1  0.33841954  0.67538078  -0.00537508  1
  O2-  O226  1  0.32955650  0.66128003  0.33761119  1
  O2-  O227  1  0.33260063  0.66466194  0.66669706  1
  O2-  O228  1  0.66816725  0.16319323  -0.00714216  1
  O2-  O229  1  0.66842580  0.17366207  0.32891921  1
  O2-  O230  1  0.66842628  0.16686571  0.66688993  1
  O2-  O231  1  0.66839722  0.65549543  -0.00592009  1
  O2-  O232  1  0.67135892  0.66257692  0.33894378  1
  O2-  O233  1  0.66375117  0.66639220  0.66250072  1
  O2-  O234  1  0.17041667  0.15963796  0.00677600  1
  O2-  O235  1  0.16500611  0.15671143  0.33845360  1
  O2-  O236  1  0.16623796  0.15843957  0.66516398  1
  O2-  O237  1  0.16502966  0.66890681  -0.00855998  1
  O2-  O238  1  0.17872556  0.67534677  0.33270567  1
  O2-  O239  1  0.16652644  0.66053525  0.66930722  1
  O2-  O240  1  0.49611875  0.15196663  -0.01524255  1
  O2-  O241  1  0.50860740  0.17272177  0.33619878  1
  O2-  O242  1  0.50138542  0.15650931  0.66582054  1
  O2-  O243  1  0.50400108  0.65668565  -0.00554287  1
  O2-  O244  1  0.50569952  0.66205440  0.33766455  1
  O2-  O245  1  0.49993833  0.65753647  0.66739479  1
  O2-  O246  1  0.82889261  0.15669438  -0.00346651  1
  O2-  O247  1  0.82728523  0.16695511  0.33536379  1
  O2-  O248  1  0.83327648  0.16262301  0.66867153  1
  O2-  O249  1  0.84148329  0.66588696  -0.00223949  1
  O2-  O250  1  0.83089892  0.66136691  0.33825372  1
  O2-  O251  1  0.82669131  0.67070932  0.65837915  1
  O2-  O252  1  0.00388345  0.33780772  -0.00709196  1
  O2-  O253  1  -0.00347668  0.32484441  0.33698469  1
  O2-  O254  1  -0.00183409  0.34023831  0.67099778  1
  O2-  O255  1  0.00471550  0.84420429  -0.00660881  1
  O2-  O256  1  0.00362264  0.84192462  0.32882913  1
  O2-  O257  1  0.00235571  0.84257050  0.67048837  1
  O2-  O258  1  0.33334123  0.33609076  -0.00372909  1
  O2-  O259  1  0.33197246  0.33312884  0.34074020  1
  O2-  O260  1  0.33302057  0.34643912  0.66893747  1
  O2-  O261  1  0.32867531  0.82594362  0.00522378  1
  O2-  O262  1  0.33492811  0.84369513  0.33309104  1
  O2-  O263  1  0.33510725  0.83471931  0.66306556  1
  O2-  O264  1  0.66413772  0.33969731  0.00191200  1
  O2-  O265  1  0.66538188  0.32662726  0.33582038  1
  O2-  O266  1  0.67191111  0.32909649  0.66188045  1
  O2-  O267  1  0.66786262  0.84135935  -0.00024921  1
  O2-  O268  1  0.66316715  0.84139986  0.33450957  1
  O2-  O269  1  0.66411066  0.82949775  0.67182693  1
  O2-  O270  1  0.16911316  0.32851094  -0.00213158  1
  O2-  O271  1  0.17188344  0.33094987  0.34262496  1
  O2-  O272  1  0.17205101  0.34154490  0.67604934  1
  O2-  O273  1  0.16599460  0.83984337  -0.00318666  1
  O2-  O274  1  0.16690391  0.83683787  0.33192370  1
  O2-  O275  1  0.17027354  0.83918432  0.67130152  1
  O2-  O276  1  0.50165284  0.34275792  -0.00056018  1
  O2-  O277  1  0.50347303  0.31313165  0.33231928  1
  O2-  O278  1  0.49710067  0.34075399  0.66039479  1
  O2-  O279  1  0.50222134  0.83998479  0.00366852  1
  O2-  O280  1  0.49906006  0.84560893  0.33517948  1
  O2-  O281  1  0.49828340  0.84253497  0.66587046  1
  O2-  O282  1  0.82592806  0.33983081  -0.00837598  1
  O2-  O283  1  0.82970974  0.33227801  0.33557446  1
  O2-  O284  1  0.83096666  0.33689987  0.66646924  1
  O2-  O285  1  0.83407577  0.83288116  -0.00054455  1
  O2-  O286  1  0.82652154  0.83786390  0.32773613  1
  O2-  O287  1  0.84060953  0.83238535  0.67438944  1
  O2-  O288  1  0.00761417  0.17292995  0.16904798  1
  O2-  O289  1  -0.00543999  0.18077189  0.50205569  1
  O2-  O290  1  -0.00433952  0.17524882  0.82891496  1
  O2-  O291  1  -0.00283448  0.67476514  0.15771737  1
  O2-  O292  1  -0.00603426  0.66977441  0.50461313  1
  O2-  O293  1  0.00841082  0.68053453  0.84064941  1
  O2-  O294  1  0.32942487  0.17252729  0.15471169  1
  O2-  O295  1  0.33028236  0.18029350  0.50061746  1
  O2-  O296  1  0.33717608  0.18297686  0.83622386  1
  O2-  O297  1  0.32611617  0.69584333  0.18319098  1
  O2-  O298  1  0.33243259  0.67716086  0.49560149  1
  O2-  O299  1  0.33336798  0.68067953  0.83104957  1
  O2-  O300  1  0.66621184  0.18342670  0.17007552  1
  O2-  O301  1  0.66667158  0.17864318  0.50301708  1
  O2-  O302  1  0.66653541  0.18145746  0.82914274  1
  O2-  O303  1  0.66267222  0.67006626  0.17133993  1
  O2-  O304  1  0.66550444  0.67615773  0.50016874  1
  O2-  O305  1  0.66514724  0.67575202  0.83096406  1
  O2-  O306  1  0.16511187  0.17187131  0.16308999  1
  O2-  O307  1  0.16914727  0.18354653  0.50048529  1
  O2-  O308  1  0.16576545  0.18005942  0.82630448  1
  O2-  O309  1  0.16920316  0.68707483  0.17258404  1
  O2-  O310  1  0.17357628  0.68024366  0.50432833  1
  O2-  O311  1  0.17046399  0.68196521  0.83282056  1
  O2-  O312  1  0.49840798  0.18511775  0.18312632  1
  O2-  O313  1  0.50238470  0.18098549  0.50333862  1
  O2-  O314  1  0.49703442  0.17263610  0.83400719  1
  O2-  O315  1  0.51738050  0.67136668  0.16373070  1
  O2-  O316  1  0.49453843  0.67013298  0.50545893  1
  O2-  O317  1  0.49669900  0.67472046  0.83634585  1
  O2-  O318  1  0.82230386  0.17536795  0.16613965  1
  O2-  O319  1  0.83275713  0.17836497  0.50489443  1
  O2-  O320  1  0.83097507  0.18082926  0.83327473  1
  O2-  O321  1  0.83204174  0.67363514  0.16590497  1
  O2-  O322  1  0.83236617  0.67399145  0.50128380  1
  O2-  O323  1  0.83006396  0.69338822  0.84220257  1
  O2-  O324  1  -0.00502975  0.32667391  0.16335125  1
  O2-  O325  1  -0.00367447  0.31588711  0.49608748  1
  O2-  O326  1  -0.00023205  0.32839537  0.83370175  1
  O2-  O327  1  0.00125992  0.83028532  0.16737039  1
  O2-  O328  1  0.00530056  0.83069418  0.50786137  1
  O2-  O329  1  0.00168158  0.82246417  0.83751478  1
  O2-  O330  1  0.32801554  0.32725013  0.16048485  1
  O2-  O331  1  0.33489062  0.32036212  0.49596621  1
  O2-  O332  1  0.33057794  0.32275736  0.83059846  1
  O2-  O333  1  0.33688066  0.82697535  0.17001826  1
  O2-  O334  1  0.33316767  0.82268948  0.50234859  1
  O2-  O335  1  0.33011607  0.81641141  0.83077854  1
  O2-  O336  1  0.66612752  0.32009671  0.17050316  1
  O2-  O337  1  0.66867010  0.31856924  0.49747121  1
  O2-  O338  1  0.66958307  0.31824716  0.83574859  1
  O2-  O339  1  0.66519493  0.83203872  0.16511125  1
  O2-  O340  1  0.66056461  0.82447485  0.49193842  1
  O2-  O341  1  0.67158045  0.82024828  0.83448467  1
  O2-  O342  1  0.16372871  0.32575737  0.16464101  1
  O2-  O343  1  0.16909071  0.31930408  0.49625942  1
  O2-  O344  1  0.16894491  0.32100886  0.83323612  1
  O2-  O345  1  0.16642699  0.82582457  0.16844070  1
  O2-  O346  1  0.16687253  0.82206200  0.50051841  1
  O2-  O347  1  0.16560953  0.82159426  0.83804130  1
  O2-  O348  1  0.50737124  0.32133146  0.16391514  1
  O2-  O349  1  0.50207962  0.32142840  0.49711474  1
  O2-  O350  1  0.49826260  0.32664819  0.83675365  1
  O2-  O351  1  0.49634145  0.83031171  0.17162370  1
  O2-  O352  1  0.49254058  0.83121250  0.50518399  1
  O2-  O353  1  0.50521826  0.82547897  0.82824997  1
  O2-  O354  1  0.82834628  0.32768203  0.17295139  1
  O2-  O355  1  0.83123043  0.31896384  0.49509210  1
  O2-  O356  1  0.83310585  0.32080593  0.82870040  1
  O2-  O357  1  0.83495047  0.83028149  0.16544210  1
  O2-  O358  1  0.83247685  0.81812582  0.49915234  1
  O2-  O359  1  0.83477845  0.81704271  0.83246729  1
  O2-  O360  1  0.09610149  0.08044070  0.11054425  1
  O2-  O361  1  0.08600342  0.07959109  0.44910445  1
  O2-  O362  1  0.08344395  0.08358071  0.75701043  1
  O2-  O363  1  0.05070615  0.58202867  0.08239595  1
  O2-  O364  1  0.09284881  0.58259225  0.44327467  1
  O2-  O365  1  0.09132538  0.58196686  0.78820965  1
  O2-  O366  1  0.41746399  0.07805743  0.12175342  1
  O2-  O367  1  0.41699929  0.08109899  0.44406891  1
  O2-  O368  1  0.41907220  0.07821276  0.77519382  1
  O2-  O369  1  0.42582516  0.58647816  0.09763021  1
  O2-  O370  1  0.40156817  0.57826032  0.44612989  1
  O2-  O371  1  0.41068581  0.58080837  0.77632874  1
  O2-  O372  1  0.74362679  0.08586170  0.11343472  1
  O2-  O373  1  0.74979962  0.07789786  0.44187436  1
  O2-  O374  1  0.74749999  0.07767903  0.77756189  1
  O2-  O375  1  0.76688766  0.57354917  0.11533132  1
  O2-  O376  1  0.74957281  0.58213525  0.44075806  1
  O2-  O377  1  0.73799337  0.56756108  0.78347435  1
  O2-  O378  1  0.24874868  0.07706145  0.21122781  1
  O2-  O379  1  0.24483322  0.08167714  0.55727141  1
  O2-  O380  1  0.27278612  0.07820594  0.88935372  1
  O2-  O381  1  0.25090917  0.58647645  0.23740481  1
  O2-  O382  1  0.24731361  0.58053056  0.55031430  1
  O2-  O383  1  0.25356555  0.58119767  0.88778197  1
  O2-  O384  1  0.59488239  0.08691749  0.24359236  1
  O2-  O385  1  0.58750610  0.08598152  0.56056990  1
  O2-  O386  1  0.57973749  0.08057088  0.88033554  1
  O2-  O387  1  0.60032864  0.57415117  0.23573204  1
  O2-  O388  1  0.58504360  0.58424114  0.56641130  1
  O2-  O389  1  0.57957450  0.58022849  0.88300676  1
  O2-  O390  1  0.90853378  0.08051583  0.23225368  1
  O2-  O391  1  0.91455859  0.08205461  0.55884884  1
  O2-  O392  1  0.90376342  0.08232416  0.88193656  1
  O2-  O393  1  0.91272287  0.58054603  0.22911496  1
  O2-  O394  1  0.91570136  0.57957250  0.55825831  1
  O2-  O395  1  0.91578242  0.58400756  0.88654358  1
  O2-  O396  1  0.09995878  0.41767917  0.07900133  1
  O2-  O397  1  0.09809125  0.41619048  0.43576633  1
  O2-  O398  1  0.09701501  0.41991391  0.77910131  1
  O2-  O399  1  0.08454733  0.91690751  0.11080316  1
  O2-  O400  1  0.09681063  0.91744803  0.43331333  1
  O2-  O401  1  0.06721616  0.91778804  0.78116852  1
  O2-  O402  1  0.41644883  0.42171664  0.10186235  1
  O2-  O403  1  0.40389151  0.42208275  0.44299135  1
  O2-  O404  1  0.40114668  0.42192088  0.77704846  1
  O2-  O405  1  0.41188466  0.91765960  0.10900400  1
  O2-  O406  1  0.41123914  0.91992661  0.44425966  1
  O2-  O407  1  0.40645259  0.91548802  0.75300217  1
  O2-  O408  1  0.73457259  0.42064205  0.11146143  1
  O2-  O409  1  0.74035288  0.41797961  0.44006864  1
  O2-  O410  1  0.76073316  0.42779685  0.78037768  1
  O2-  O411  1  0.75291656  0.91719141  0.10119793  1
  O2-  O412  1  0.74503270  0.91294120  0.42855447  1
  O2-  O413  1  0.77038759  0.92187469  0.77531510  1
  O2-  O414  1  0.24685637  0.41819606  0.23034213  1
  O2-  O415  1  0.25542197  0.41688808  0.55370239  1
  O2-  O416  1  0.24904458  0.42179955  0.88792435  1
  O2-  O417  1  0.24431681  0.91849379  0.22758937  1
  O2-  O418  1  0.25987545  0.92231472  0.55872989  1
  O2-  O419  1  0.23327371  0.92493832  0.88733063  1
  O2-  O420  1  0.59367146  0.41457367  0.24405182  1
  O2-  O421  1  0.58567326  0.41707449  0.54685299  1
  O2-  O422  1  0.58651005  0.41678622  0.89988133  1
  O2-  O423  1  0.57144055  0.91915500  0.22443298  1
  O2-  O424  1  0.56736129  0.91796751  0.56292539  1
  O2-  O425  1  0.59689177  0.91814108  0.88573210  1
  O2-  O426  1  0.91331044  0.41396753  0.24707136  1
  O2-  O427  1  0.90274745  0.41851395  0.55583468  1
  O2-  O428  1  0.91383154  0.41695092  0.88836989  1
  O2-  O429  1  0.93017310  0.91749639  0.22670519  1
  O2-  O430  1  0.92195781  0.91693902  0.58550665  1
  O2-  O431  1  0.91176530  0.91631488  0.88834484  1
  O2-  O432  1  0.00591808  -0.01262562  -0.00873573  1
  O2-  O433  1  0.01317249  0.00483523  0.30684046  1
  O2-  O434  1  -0.00099586  0.00011931  0.66027579  1
  O2-  O435  1  0.00418919  0.50931182  -0.01432061  1
  O2-  O436  1  -0.00626602  0.50560741  0.33999205  1
  O2-  O437  1  -0.00107011  0.49876603  0.66601274  1
  O2-  O438  1  0.32931908  0.01290971  0.01563819  1
  O2-  O439  1  0.32910691  0.00502471  0.33953821  1
  O2-  O440  1  0.33098873  0.00529149  0.66756037  1
  O2-  O441  1  0.33642276  0.50028590  0.00087138  1
  O2-  O442  1  0.31568321  0.49758808  0.34895524  1
  O2-  O443  1  0.33201744  0.49720980  0.67400947  1
  O2-  O444  1  0.67349767  0.00085104  -0.01074874  1
  O2-  O445  1  0.66122464  0.00351052  0.34863723  1
  O2-  O446  1  0.64952682  0.00108404  0.69079671  1
  O2-  O447  1  0.66352396  0.50266657  0.00396683  1
  O2-  O448  1  0.66307488  0.49783847  0.34147134  1
  O2-  O449  1  0.66983606  0.50366660  0.66196958  1
  O2-  O450  1  0.17430948  -0.00377134  0.01848136  1
  O2-  O451  1  0.16676277  0.00629449  0.33525267  1
  O2-  O452  1  0.16618780  -0.00172230  0.66125651  1
  O2-  O453  1  0.15149005  0.50514138  -0.03096903  1
  O2-  O454  1  0.16458677  0.50369607  0.33657082  1
  O2-  O455  1  0.18097445  0.50058928  0.69124050  1
  O2-  O456  1  0.48985437  0.01142439  -0.01884876  1
  O2-  O457  1  0.48828465  -0.00778890  0.32179674  1
  O2-  O458  1  0.49092962  -0.00179268  0.66236154  1
  O2-  O459  1  0.49586859  0.50177612  -0.00454267  1
  O2-  O460  1  0.52326644  0.50033127  0.37433787  1
  O2-  O461  1  0.49400184  0.50478624  0.65971602  1
  O2-  O462  1  0.83534147  0.00469783  0.00302055  1
  O2-  O463  1  0.83606196  0.00632164  0.33562276  1
  O2-  O464  1  0.84633290  0.00357603  0.68230929  1
  O2-  O465  1  0.82712185  0.50225945  -0.00359031  1
  O2-  O466  1  0.82745486  0.49515519  0.32423675  1
  O2-  O467  1  0.82699773  0.49451372  0.66069256  1
  O2-  O468  1  0.08382293  0.25097905  0.07581276  1
  O2-  O469  1  0.74479146  0.74997214  0.07944259  1
  O2-  O470  1  0.91897854  0.25087752  0.60387860  1
  O2-  O471  1  0.42101967  0.75192327  0.40514668  1
  O2-  O472  1  0.41950373  0.25146711  0.73437886  1
  O2-  O473  1  0.58558433  0.75312539  0.25623959  1
  O2-  O474  1  0.91992417  0.25245035  0.92855348  1
  O2-  O475  1  0.25339073  0.24979261  0.60356236  1
  O2-  O476  1  0.41554940  0.25072718  0.06885335  1
  O2-  O477  1  0.58053785  0.74955370  0.93156320  1
  O2-  O478  1  0.91593877  0.25170760  0.25178132  1
  O2-  O479  1  0.42495646  0.74928319  0.73339568  1
  O2-  O480  1  0.57575198  0.25121905  0.60023586  1
  O2-  O481  1  0.75227184  0.25130673  0.06631086  1
  O2-  O482  1  0.08433559  0.74948207  0.73373241  1
  O2-  O483  1  0.91682490  0.75113474  0.25690913  1
  O2-  O484  1  0.74823247  0.74931109  0.40605286  1
  O2-  O485  1  0.07555933  0.75018624  0.07043111  1
  O2-  O486  1  0.92379357  0.75066167  0.59363989  1
  O2-  O487  1  0.07456246  0.75209655  0.40899167  1
  O2-  O488  1  0.57670858  0.24991711  0.93328690  1
  O2-  O489  1  0.57405061  0.75105105  0.59258530  1
  O2-  O490  1  0.25481630  0.25181819  0.25639856  1
  O2-  O491  1  0.42975148  0.74973058  0.07914302  1
  O2-  O492  1  0.07933179  0.25121573  0.73537990  1
