# generated using pymatgen
data_Ca108Mn108O277
_symmetry_space_group_name_H-M   'P 1'
_cell_length_a   16.02039253
_cell_length_b   22.29829081
_cell_length_c   16.38326172
_cell_angle_alpha   89.99834033
_cell_angle_beta   90.00130981
_cell_angle_gamma   90.00187369
_symmetry_Int_Tables_number   1
_chemical_formula_structural   Ca108Mn108O277
_chemical_formula_sum   'Ca108 Mn108 O277'
_cell_volume   5852.54951678
_cell_formula_units_Z   1
loop_
 _symmetry_equiv_pos_site_id
 _symmetry_equiv_pos_as_xyz
  1  'x, y, z'
loop_
 _atom_type_symbol
 _atom_type_oxidation_number
  Ca2+  2.0
  Mn3.34+  3.34
  O2-  -2.0
loop_
 _atom_site_type_symbol
 _atom_site_label
 _atom_site_symmetry_multiplicity
 _atom_site_fract_x
 _atom_site_fract_y
 _atom_site_fract_z
 _atom_site_occupancy
  Ca2+  Ca0  1  0.09052447  0.25260099  0.25503048  1
  Ca2+  Ca1  1  0.07127954  0.24653520  0.57676045  1
  Ca2+  Ca2  1  0.09422130  0.26812926  0.92342920  1
  Ca2+  Ca3  1  0.08439922  0.74556453  0.24678568  1
  Ca2+  Ca4  1  0.10199486  0.74156567  0.58402316  1
  Ca2+  Ca5  1  0.09770694  0.72950915  0.93146451  1
  Ca2+  Ca6  1  0.40321329  0.24412011  0.25504562  1
  Ca2+  Ca7  1  0.41302197  0.25411821  0.57462886  1
  Ca2+  Ca8  1  0.42913684  0.25361830  0.92496624  1
  Ca2+  Ca9  1  0.40422520  0.75081983  0.23046679  1
  Ca2+  Ca10  1  0.39477582  0.75322407  0.59407431  1
  Ca2+  Ca11  1  0.39882652  0.73316087  0.92452463  1
  Ca2+  Ca12  1  0.74822459  0.27180354  0.25093320  1
  Ca2+  Ca13  1  0.76207153  0.25561423  0.58959779  1
  Ca2+  Ca14  1  0.73514227  0.26771141  0.91871849  1
  Ca2+  Ca15  1  0.76099649  0.75114892  0.25563048  1
  Ca2+  Ca16  1  0.75258891  0.75245245  0.57249896  1
  Ca2+  Ca17  1  0.75269111  0.74602865  0.92679452  1
  Ca2+  Ca18  1  0.24182043  0.24897730  0.08412565  1
  Ca2+  Ca19  1  0.24326128  0.25264264  0.41147830  1
  Ca2+  Ca20  1  0.24287497  0.25135877  0.75674627  1
  Ca2+  Ca21  1  0.24690078  0.73471634  0.07777128  1
  Ca2+  Ca22  1  0.23714035  0.74765481  0.43164891  1
  Ca2+  Ca23  1  0.26230843  0.72123407  0.73679445  1
  Ca2+  Ca24  1  0.57995804  0.25596790  0.06702279  1
  Ca2+  Ca25  1  0.56918593  0.25438113  0.42629169  1
  Ca2+  Ca26  1  0.58481461  0.25073454  0.77236200  1
  Ca2+  Ca27  1  0.56455845  0.74573957  0.07787605  1
  Ca2+  Ca28  1  0.59545756  0.75414319  0.42082204  1
  Ca2+  Ca29  1  0.55823665  0.74677158  0.74542593  1
  Ca2+  Ca30  1  0.92842873  0.26845292  0.08190850  1
  Ca2+  Ca31  1  0.93054902  0.25244195  0.43271018  1
  Ca2+  Ca32  1  0.92066822  0.25005130  0.73376160  1
  Ca2+  Ca33  1  0.93710192  0.73640962  0.09181094  1
  Ca2+  Ca34  1  0.92773928  0.74997931  0.41406656  1
  Ca2+  Ca35  1  0.93724330  0.74736882  0.74788789  1
  Ca2+  Ca36  1  0.57122215  0.57265092  0.08144687  1
  Ca2+  Ca37  1  0.74585485  0.56435392  0.26393192  1
  Ca2+  Ca38  1  0.94112968  0.58453066  0.74052824  1
  Ca2+  Ca39  1  0.92992862  0.08943957  0.08861326  1
  Ca2+  Ca40  1  0.58333918  0.10671823  0.75646140  1
  Ca2+  Ca41  1  0.42037092  0.10538884  0.57551730  1
  Ca2+  Ca42  1  0.09670611  0.10397019  0.91698571  1
  Ca2+  Ca43  1  0.56115989  0.57103785  0.08211439  1
  Ca2+  Ca44  1  0.39419541  0.60566332  0.59031446  1
  Ca2+  Ca45  1  0.95253969  0.58647082  0.74284356  1
  Ca2+  Ca46  1  0.23117354  0.59971828  0.41813466  1
  Ca2+  Ca47  1  0.73655698  0.57481961  0.95012120  1
  Ca2+  Ca48  1  0.40617071  0.59273071  0.23563293  1
  Ca2+  Ca49  1  0.75486435  0.56666226  0.26883212  1
  Ca2+  Ca50  1  0.76039927  0.10024914  0.58255374  1
  Ca2+  Ca51  1  0.43153915  0.10552660  0.57456194  1
  Ca2+  Ca52  1  0.10336831  0.10402636  0.25304729  1
  Ca2+  Ca53  1  0.23776888  0.59421806  0.07813983  1
  Ca2+  Ca54  1  0.72412039  0.10656909  0.91064824  1
  Ca2+  Ca55  1  0.59945069  0.57759275  0.40419570  1
  Ca2+  Ca56  1  0.39596104  0.59415767  0.23718255  1
  Ca2+  Ca57  1  0.56022366  0.10027649  0.07464819  1
  Ca2+  Ca58  1  0.56604280  0.10272704  0.41960193  1
  Ca2+  Ca59  1  0.77335995  0.07822409  0.25567451  1
  Ca2+  Ca60  1  0.38357693  0.60711633  0.58943017  1
  Ca2+  Ca61  1  0.91620930  0.09040092  0.71987205  1
  Ca2+  Ca62  1  0.42476511  0.10381135  0.93361339  1
  Ca2+  Ca63  1  0.07806960  0.59377176  0.24462825  1
  Ca2+  Ca64  1  0.76120580  0.07987487  0.25675000  1
  Ca2+  Ca65  1  0.93341706  0.09055559  0.42949103  1
  Ca2+  Ca66  1  0.77087926  0.10082040  0.58188267  1
  Ca2+  Ca67  1  0.92748029  0.08979286  0.72158446  1
  Ca2+  Ca68  1  0.56295680  0.59182658  0.75019262  1
  Ca2+  Ca69  1  0.09284734  0.60126086  0.57869843  1
  Ca2+  Ca70  1  0.25188162  0.10094112  0.38850100  1
  Ca2+  Ca71  1  0.06664497  0.10157101  0.57454096  1
  Ca2+  Ca72  1  0.94134168  0.40692809  0.75302014  1
  Ca2+  Ca73  1  0.54739821  0.90956328  0.74604236  1
  Ca2+  Ca74  1  0.75634713  0.90613144  0.92551041  1
  Ca2+  Ca75  1  0.93038120  0.40885299  0.75111289  1
  Ca2+  Ca76  1  0.08167464  0.41568311  0.25707455  1
  Ca2+  Ca77  1  0.55957046  0.91161862  0.74436151  1
  Ca2+  Ca78  1  0.07901177  0.90008352  0.56926322  1
  Ca2+  Ca79  1  0.22148321  0.40956090  0.75819468  1
  Ca2+  Ca80  1  0.27812491  0.90531220  0.74538726  1
  Ca2+  Ca81  1  0.57517606  0.90701232  0.09155566  1
  Ca2+  Ca82  1  0.60541353  0.42462570  0.38606342  1
  Ca2+  Ca83  1  0.41287606  0.90614633  0.92315558  1
  Ca2+  Ca84  1  0.57938911  0.89547240  0.41493666  1
  Ca2+  Ca85  1  0.23962773  0.41585741  0.08171164  1
  Ca2+  Ca86  1  0.58234356  0.39907714  0.76189250  1
  Ca2+  Ca87  1  0.41670962  0.41144684  0.24480793  1
  Ca2+  Ca88  1  0.92403449  0.41194276  0.40925607  1
  Ca2+  Ca89  1  0.59825924  0.42099238  0.07541559  1
  Ca2+  Ca90  1  0.23243923  0.41061049  0.75590149  1
  Ca2+  Ca91  1  0.91378854  0.90685842  0.73360349  1
  Ca2+  Ca92  1  0.75279153  0.40653751  0.57523064  1
  Ca2+  Ca93  1  0.26296194  0.90442587  0.08685698  1
  Ca2+  Ca94  1  0.92652821  0.90667609  0.73450302  1
  Ca2+  Ca95  1  0.43358870  0.42334053  0.95191337  1
  Ca2+  Ca96  1  0.07410826  0.90681651  0.26344358  1
  Ca2+  Ca97  1  0.77804262  0.91196817  0.26184912  1
  Ca2+  Ca98  1  0.40112269  0.90578691  0.25596236  1
  Ca2+  Ca99  1  0.56255365  0.90643431  0.09105975  1
  Ca2+  Ca100  1  0.91820945  0.89866877  0.09070453  1
  Ca2+  Ca101  1  0.76898172  0.90628556  0.92494234  1
  Ca2+  Ca102  1  0.26650753  0.90495215  0.74486338  1
  Ca2+  Ca103  1  0.08124350  0.40366162  0.57165984  1
  Ca2+  Ca104  1  0.07872356  0.89494478  0.91790665  1
  Ca2+  Ca105  1  0.42126928  0.39792236  0.57568162  1
  Ca2+  Ca106  1  0.76229744  0.90094480  0.57165628  1
  Ca2+  Ca107  1  0.59489108  0.42499357  0.38657166  1
  Mn3.34+  Mn108  1  0.08345212  0.34057903  0.08880486  1
  Mn3.34+  Mn109  1  0.08658113  0.33762501  0.41554097  1
  Mn3.34+  Mn110  1  0.08258260  0.33059961  0.75182527  1
  Mn3.34+  Mn111  1  0.08792162  0.82817253  0.08743002  1
  Mn3.34+  Mn112  1  0.08303732  0.83129544  0.41580605  1
  Mn3.34+  Mn113  1  0.08963735  0.82849386  0.75022896  1
  Mn3.34+  Mn114  1  0.41546132  0.33643606  0.09117576  1
  Mn3.34+  Mn115  1  0.41313877  0.33515188  0.41355315  1
  Mn3.34+  Mn116  1  0.41354855  0.33465326  0.75306415  1
  Mn3.34+  Mn117  1  0.41182382  0.82978590  0.08568735  1
  Mn3.34+  Mn118  1  0.41187221  0.82905937  0.41823985  1
  Mn3.34+  Mn119  1  0.41322307  0.82541575  0.75309818  1
  Mn3.34+  Mn120  1  0.75283286  0.34383342  0.08450294  1
  Mn3.34+  Mn121  1  0.75019437  0.33694770  0.41603874  1
  Mn3.34+  Mn122  1  0.75177784  0.33280940  0.75274919  1
  Mn3.34+  Mn123  1  0.75084759  0.82756057  0.09196520  1
  Mn3.34+  Mn124  1  0.75498622  0.83084403  0.41501044  1
  Mn3.34+  Mn125  1  0.74712533  0.83109553  0.74900019  1
  Mn3.34+  Mn126  1  0.24979655  0.33732342  0.24726091  1
  Mn3.34+  Mn127  1  0.24901315  0.33089346  0.57988535  1
  Mn3.34+  Mn128  1  0.25299249  0.33850860  0.92352898  1
  Mn3.34+  Mn129  1  0.24702131  0.83668541  0.25397491  1
  Mn3.34+  Mn130  1  0.24987154  0.83068143  0.57687969  1
  Mn3.34+  Mn131  1  0.24870866  0.82938044  0.91923032  1
  Mn3.34+  Mn132  1  0.58019380  0.33821391  0.24060679  1
  Mn3.34+  Mn133  1  0.58597344  0.33470487  0.58174215  1
  Mn3.34+  Mn134  1  0.58201942  0.33878864  0.91882942  1
  Mn3.34+  Mn135  1  0.58159710  0.82574406  0.25209442  1
  Mn3.34+  Mn136  1  0.57990378  0.83140295  0.58000654  1
  Mn3.34+  Mn137  1  0.58272027  0.83225380  0.91718249  1
  Mn3.34+  Mn138  1  0.91571576  0.33901937  0.24604687  1
  Mn3.34+  Mn139  1  0.91646994  0.33436629  0.57911740  1
  Mn3.34+  Mn140  1  0.91536576  0.33906973  0.92346590  1
  Mn3.34+  Mn141  1  0.92086865  0.83777950  0.24983104  1
  Mn3.34+  Mn142  1  0.92004532  0.83539189  0.57600556  1
  Mn3.34+  Mn143  1  0.92119483  0.82277820  0.91723852  1
  Mn3.34+  Mn144  1  0.41497881  0.16558471  0.75480886  1
  Mn3.34+  Mn145  1  0.91166591  0.16227808  0.91479914  1
  Mn3.34+  Mn146  1  0.08351817  0.16843922  0.41716199  1
  Mn3.34+  Mn147  1  0.74283607  0.16750849  0.09037978  1
  Mn3.34+  Mn148  1  0.92478838  0.16909531  0.91542342  1
  Mn3.34+  Mn149  1  0.91759671  0.65859069  0.24964396  1
  Mn3.34+  Mn150  1  0.91983043  0.65832780  0.91883917  1
  Mn3.34+  Mn151  1  0.75497145  0.17326185  0.08781351  1
  Mn3.34+  Mn152  1  0.24832427  0.17208857  0.92357740  1
  Mn3.34+  Mn153  1  0.58302473  0.66643547  0.57661596  1
  Mn3.34+  Mn154  1  0.75588576  0.66493038  0.09108173  1
  Mn3.34+  Mn155  1  0.40795684  0.16221720  0.09143381  1
  Mn3.34+  Mn156  1  0.24262929  0.66595602  0.24819752  1
  Mn3.34+  Mn157  1  0.41114793  0.17176795  0.41272159  1
  Mn3.34+  Mn158  1  0.08912240  0.17354797  0.09067293  1
  Mn3.34+  Mn159  1  0.57445002  0.17121668  0.24624485  1
  Mn3.34+  Mn160  1  0.40532903  0.16009250  0.75619994  1
  Mn3.34+  Mn161  1  0.24499424  0.16868139  0.58148502  1
  Mn3.34+  Mn162  1  0.09674160  0.66310632  0.75328786  1
  Mn3.34+  Mn163  1  0.25395688  0.65577024  0.91193991  1
  Mn3.34+  Mn164  1  0.41354780  0.66959570  0.41606319  1
  Mn3.34+  Mn165  1  0.58418357  0.66198696  0.91772820  1
  Mn3.34+  Mn166  1  0.74001986  0.16709870  0.41594755  1
  Mn3.34+  Mn167  1  0.09147890  0.16948771  0.74845310  1
  Mn3.34+  Mn168  1  0.75159058  0.66375213  0.75243689  1
  Mn3.34+  Mn169  1  0.91875997  0.66589972  0.57592444  1
  Mn3.34+  Mn170  1  0.76237638  0.66410478  0.41777910  1
  Mn3.34+  Mn171  1  0.59261439  0.66064539  0.57579848  1
  Mn3.34+  Mn172  1  0.07826342  0.66357943  0.41927625  1
  Mn3.34+  Mn173  1  0.57378067  0.65696359  0.91655173  1
  Mn3.34+  Mn174  1  0.58005771  0.67737974  0.25034386  1
  Mn3.34+  Mn175  1  0.75996821  0.67087592  0.75073256  1
  Mn3.34+  Mn176  1  0.75369826  0.17364855  0.41449490  1
  Mn3.34+  Mn177  1  0.58689408  0.66609238  0.24877343  1
  Mn3.34+  Mn178  1  0.74631452  0.17160002  0.75016405  1
  Mn3.34+  Mn179  1  0.92251972  0.16412316  0.24767993  1
  Mn3.34+  Mn180  1  0.76663245  -0.00337777  0.41760403  1
  Mn3.34+  Mn181  1  0.75256885  0.49593805  0.75630447  1
  Mn3.34+  Mn182  1  0.92012453  0.49869552  0.26159494  1
  Mn3.34+  Mn183  1  0.41502597  0.50008350  0.41269171  1
  Mn3.34+  Mn184  1  0.41837868  0.50214558  0.76121017  1
  Mn3.34+  Mn185  1  0.74931168  0.00158608  0.75915547  1
  Mn3.34+  Mn186  1  0.92007805  0.50054802  0.58640667  1
  Mn3.34+  Mn187  1  0.25345800  0.00384376  0.25719829  1
  Mn3.34+  Mn188  1  0.73869876  0.50200515  0.75919927  1
  Mn3.34+  Mn189  1  0.25252301  0.00089790  0.57358056  1
  Mn3.34+  Mn190  1  0.92231998  -0.00052575  0.91541999  1
  Mn3.34+  Mn191  1  0.25190310  0.50433624  0.93961239  1
  Mn3.34+  Mn192  1  0.57852644  0.00147592  0.25293388  1
  Mn3.34+  Mn193  1  0.26424795  0.00846427  0.91733019  1
  Mn3.34+  Mn194  1  0.58266617  0.49878126  0.58623740  1
  Mn3.34+  Mn195  1  0.91787736  0.49514433  0.95444243  1
  Mn3.34+  Mn196  1  0.41114880  -0.00421630  0.41874774  1
  Mn3.34+  Mn197  1  0.57057745  0.00193771  0.91733303  1
  Mn3.34+  Mn198  1  0.24680571  0.49856657  0.26478451  1
  Mn3.34+  Mn199  1  0.09488837  0.00339466  0.09314605  1
  Mn3.34+  Mn200  1  0.58313913  0.00145513  0.57496260  1
  Mn3.34+  Mn201  1  0.57203218  -0.00441877  0.57739686  1
  Mn3.34+  Mn202  1  0.24667596  0.49916394  0.57532187  1
  Mn3.34+  Mn203  1  0.25067251  0.00226130  0.91422763  1
  Mn3.34+  Mn204  1  0.09019031  0.00292609  0.75630761  1
  Mn3.34+  Mn205  1  0.56832416  0.00738518  0.25341320  1
  Mn3.34+  Mn206  1  0.08443750  -0.00111111  0.09175578  1
  Mn3.34+  Mn207  1  0.26268281  -0.00449717  0.57459542  1
  Mn3.34+  Mn208  1  0.75764500  -0.00130615  0.08525853  1
  Mn3.34+  Mn209  1  0.92972008  0.50107674  0.95546552  1
  Mn3.34+  Mn210  1  0.07785296  -0.00173889  0.40238710  1
  Mn3.34+  Mn211  1  0.23580509  0.49535744  0.57874914  1
  Mn3.34+  Mn212  1  0.58122154  0.00694290  0.91669615  1
  Mn3.34+  Mn213  1  0.40589058  0.50856568  0.76012412  1
  Mn3.34+  Mn214  1  0.10075085  -0.00112227  0.75562189  1
  Mn3.34+  Mn215  1  0.73907078  -0.00303035  0.75910151  1
  O2-  O216  1  0.00075538  0.15089407  0.00030209  1
  O2-  O217  1  -0.00158546  0.16176758  0.33474076  1
  O2-  O218  1  0.00412047  0.15741460  0.67151224  1
  O2-  O219  1  -0.00898296  0.68561654  -0.00935790  1
  O2-  O220  1  -0.00587973  0.67171549  0.33476347  1
  O2-  O221  1  -0.00277864  0.66881207  0.66793001  1
  O2-  O222  1  0.33693057  0.16913110  -0.00097543  1
  O2-  O223  1  0.32858650  0.17428202  0.33881818  1
  O2-  O224  1  0.33543171  0.15135044  0.66369818  1
  O2-  O225  1  0.32513277  0.65822879  -0.00218795  1
  O2-  O226  1  0.33234670  0.66585526  0.33063143  1
  O2-  O227  1  0.33947465  0.67311975  0.65549732  1
  O2-  O228  1  0.66424809  0.15561888  0.01061306  1
  O2-  O229  1  0.66532755  0.15410831  0.32921976  1
  O2-  O230  1  0.67508540  0.15637919  0.66417730  1
  O2-  O231  1  0.65971001  0.65000082  0.00636988  1
  O2-  O232  1  0.66386976  0.66762376  0.33383827  1
  O2-  O233  1  0.66199310  0.64703703  0.67418513  1
  O2-  O234  1  0.16483949  0.16306962  0.00161160  1
  O2-  O235  1  0.16424117  0.16867997  0.33691710  1
  O2-  O236  1  0.16178675  0.15604605  0.65824706  1
  O2-  O237  1  0.17488530  0.65951817  -0.00375303  1
  O2-  O238  1  0.16177018  0.66336086  0.33165160  1
  O2-  O239  1  0.16149628  0.66113280  0.66670086  1
  O2-  O240  1  0.48750957  0.17831369  0.01207405  1
  O2-  O241  1  0.50273380  0.17056779  0.33752125  1
  O2-  O242  1  0.49762459  0.16230189  0.66955824  1
  O2-  O243  1  0.50276123  0.65355865  0.00554729  1
  O2-  O244  1  0.49883686  0.67010788  0.33359015  1
  O2-  O245  1  0.50338175  0.65715726  0.65787850  1
  O2-  O246  1  0.83309862  0.14111076  0.00004579  1
  O2-  O247  1  0.83149053  0.15323006  0.33068879  1
  O2-  O248  1  0.83398183  0.15758729  0.67145836  1
  O2-  O249  1  0.82702662  0.66213390  -0.00691355  1
  O2-  O250  1  0.82574135  0.66502378  0.32296668  1
  O2-  O251  1  0.83856614  0.67393075  0.66313185  1
  O2-  O252  1  0.00224219  0.33742074  0.00024236  1
  O2-  O253  1  -0.00111513  0.33488736  0.33415156  1
  O2-  O254  1  0.00122075  0.34444669  0.66347148  1
  O2-  O255  1  -0.00069751  0.84065455  0.00302582  1
  O2-  O256  1  0.00102680  0.82956126  0.33005354  1
  O2-  O257  1  0.00012666  0.83449588  0.66655675  1
  O2-  O258  1  0.34105948  0.33676842  0.00210530  1
  O2-  O259  1  0.33642930  0.32994970  0.32560973  1
  O2-  O260  1  0.32848631  0.35323684  0.67032713  1
  O2-  O261  1  0.33412467  0.84630073  -0.00066949  1
  O2-  O262  1  0.33510832  0.81601366  0.32833282  1
  O2-  O263  1  0.33367222  0.83957600  0.66721264  1
  O2-  O264  1  0.66213297  0.34234568  0.00321796  1
  O2-  O265  1  0.66106764  0.33729945  0.33234757  1
  O2-  O266  1  0.66957132  0.33185753  0.66443033  1
  O2-  O267  1  0.66521509  0.85372096  0.00250613  1
  O2-  O268  1  0.66728361  0.83772847  0.33116865  1
  O2-  O269  1  0.66076694  0.85932605  0.66948825  1
  O2-  O270  1  0.17200029  0.34142264  0.00678866  1
  O2-  O271  1  0.16691974  0.32852283  0.32988353  1
  O2-  O272  1  0.16754845  0.34390435  0.66867336  1
  O2-  O273  1  0.16863653  0.85011347  0.00206356  1
  O2-  O274  1  0.16151195  0.83468351  0.32987818  1
  O2-  O275  1  0.16917350  0.85396558  0.67037888  1
  O2-  O276  1  0.49815335  0.33360667  0.00528978  1
  O2-  O277  1  0.50592491  0.33655430  0.33471341  1
  O2-  O278  1  0.49956152  0.33564273  0.66692703  1
  O2-  O279  1  0.50167861  0.84616929  0.00344008  1
  O2-  O280  1  0.50042289  0.81512844  0.33451468  1
  O2-  O281  1  0.49923463  0.83862128  0.66992993  1
  O2-  O282  1  0.83009390  0.33483125  0.00015114  1
  O2-  O283  1  0.83977439  0.33209896  0.33676826  1
  O2-  O284  1  0.83868138  0.35156934  0.66823247  1
  O2-  O285  1  0.83252303  0.83880245  -0.00247567  1
  O2-  O286  1  0.83528888  0.82878216  0.32885090  1
  O2-  O287  1  0.83706501  0.82883575  0.66571578  1
  O2-  O288  1  -0.00450272  0.18366436  0.16420563  1
  O2-  O289  1  0.00105234  0.16990355  0.49609569  1
  O2-  O290  1  -0.00051602  0.17564888  0.82594121  1
  O2-  O291  1  -0.00036663  0.67746651  0.18176920  1
  O2-  O292  1  0.00342791  0.68392622  0.50536872  1
  O2-  O293  1  -0.00604115  0.67285397  0.82663024  1
  O2-  O294  1  0.33631104  0.19386742  0.15594210  1
  O2-  O295  1  0.33740272  0.17493382  0.50647238  1
  O2-  O296  1  0.33251888  0.17508628  0.84155441  1
  O2-  O297  1  0.33103991  0.67360298  0.17509471  1
  O2-  O298  1  0.33810951  0.67980608  0.49459524  1
  O2-  O299  1  0.32962388  0.67562731  0.84041779  1
  O2-  O300  1  0.66632984  0.19078536  0.17891661  1
  O2-  O301  1  0.66636953  0.17637049  0.50191680  1
  O2-  O302  1  0.66853739  0.17824190  0.82787114  1
  O2-  O303  1  0.66198672  0.69406387  0.16886678  1
  O2-  O304  1  0.67033680  0.67413142  0.49606858  1
  O2-  O305  1  0.67044258  0.67451871  0.84200634  1
  O2-  O306  1  0.16027197  0.18466880  0.17054694  1
  O2-  O307  1  0.16823031  0.17356999  0.49799720  1
  O2-  O308  1  0.16207539  0.18224393  0.83845981  1
  O2-  O309  1  0.16751578  0.67476872  0.17119748  1
  O2-  O310  1  0.16238009  0.67336656  0.49426857  1
  O2-  O311  1  0.16846659  0.67660347  0.83324874  1
  O2-  O312  1  0.49780500  0.18513396  0.16340999  1
  O2-  O313  1  0.49312736  0.17533214  0.50121954  1
  O2-  O314  1  0.49563687  0.17904919  0.83331822  1
  O2-  O315  1  0.49546697  0.67881448  0.17266311  1
  O2-  O316  1  0.49977465  0.68728509  0.49519369  1
  O2-  O317  1  0.50509112  0.67634012  0.83195344  1
  O2-  O318  1  0.83038642  0.18545403  0.17165087  1
  O2-  O319  1  0.82833672  0.17573743  0.50189753  1
  O2-  O320  1  0.83426898  0.17124251  0.83063906  1
  O2-  O321  1  0.83398203  0.68528963  0.17083951  1
  O2-  O322  1  0.83838494  0.68756809  0.49964386  1
  O2-  O323  1  0.83855313  0.68846261  0.83574892  1
  O2-  O324  1  0.00522695  0.31945467  0.17501475  1
  O2-  O325  1  0.00026014  0.32625479  0.50154072  1
  O2-  O326  1  -0.00464512  0.32314504  0.82496410  1
  O2-  O327  1  -0.00005763  0.81801878  0.16812839  1
  O2-  O328  1  0.00287942  0.81880354  0.50278360  1
  O2-  O329  1  -0.00211506  0.82442507  0.82818019  1
  O2-  O330  1  0.33215076  0.31591594  0.16566534  1
  O2-  O331  1  0.33650015  0.32467623  0.50500920  1
  O2-  O332  1  0.32220430  0.33508546  0.82658895  1
  O2-  O333  1  0.32973390  0.82430983  0.16761395  1
  O2-  O334  1  0.33119995  0.81400429  0.49698851  1
  O2-  O335  1  0.33195514  0.82923569  0.83480041  1
  O2-  O336  1  0.66106541  0.31930706  0.16476332  1
  O2-  O337  1  0.66794005  0.31351014  0.50344169  1
  O2-  O338  1  0.66356475  0.32557224  0.82886737  1
  O2-  O339  1  0.65575644  0.82487243  0.16290783  1
  O2-  O340  1  0.67023559  0.82521434  0.50168630  1
  O2-  O341  1  0.67329818  0.84094789  0.84218107  1
  O2-  O342  1  0.16902381  0.31609872  0.16912894  1
  O2-  O343  1  0.16128637  0.31987939  0.50719050  1
  O2-  O344  1  0.16825080  0.32768095  0.82869039  1
  O2-  O345  1  0.16912628  0.82224056  0.16972243  1
  O2-  O346  1  0.15902563  0.82540532  0.50493123  1
  O2-  O347  1  0.16988309  0.83938658  0.83146943  1
  O2-  O348  1  0.49577342  0.31141134  0.17011648  1
  O2-  O349  1  0.49943820  0.31915497  0.50724767  1
  O2-  O350  1  0.49742702  0.32135837  0.83196644  1
  O2-  O351  1  0.50141000  0.81591508  0.16581911  1
  O2-  O352  1  0.50293537  0.81446246  0.49432344  1
  O2-  O353  1  0.50584655  0.82558500  0.82800302  1
  O2-  O354  1  0.83536850  0.31769772  0.16570902  1
  O2-  O355  1  0.83060111  0.32732752  0.50190949  1
  O2-  O356  1  0.84185346  0.33225075  0.82466279  1
  O2-  O357  1  0.83755794  0.81671300  0.17060843  1
  O2-  O358  1  0.83381661  0.82056221  0.50309260  1
  O2-  O359  1  0.83221714  0.81627744  0.83850541  1
  O2-  O360  1  0.07785730  0.08601946  0.11554225  1
  O2-  O361  1  0.08595899  0.07800430  0.44010466  1
  O2-  O362  1  0.08666615  0.08514784  0.77887414  1
  O2-  O363  1  0.10101819  0.57791175  0.11179251  1
  O2-  O364  1  0.09014424  0.58420435  0.44053396  1
  O2-  O365  1  0.07927787  0.58288226  0.75648606  1
  O2-  O366  1  0.42286172  0.08609325  0.09045322  1
  O2-  O367  1  0.41360694  0.08060966  0.44299026  1
  O2-  O368  1  0.42900559  0.07979246  0.78013462  1
  O2-  O369  1  0.44051224  0.56279732  0.12425091  1
  O2-  O370  1  0.41029920  0.57965899  0.45028564  1
  O2-  O371  1  0.42095093  0.58758590  0.75279154  1
  O2-  O372  1  0.75287334  0.08375524  0.11833041  1
  O2-  O373  1  0.75075079  0.08221626  0.44447644  1
  O2-  O374  1  0.74130810  0.08404453  0.77547482  1
  O2-  O375  1  0.73181979  0.58666901  0.12642713  1
  O2-  O376  1  0.74626337  0.58523084  0.41062615  1
  O2-  O377  1  0.75909696  0.57970803  0.79636821  1
  O2-  O378  1  0.24001587  0.07693114  0.23074652  1
  O2-  O379  1  0.26652580  0.08229185  0.55165157  1
  O2-  O380  1  0.24558952  0.08764558  0.90034902  1
  O2-  O381  1  0.26034154  0.57621799  0.22073903  1
  O2-  O382  1  0.25530302  0.58044362  0.55211457  1
  O2-  O383  1  0.25158211  0.57071815  0.88757760  1
  O2-  O384  1  0.59335970  0.08366157  0.20954372  1
  O2-  O385  1  0.56772397  0.08230480  0.55746639  1
  O2-  O386  1  0.57613976  0.08868868  0.90302619  1
  O2-  O387  1  0.59007380  0.58097093  0.22534967  1
  O2-  O388  1  0.57026199  0.57997674  0.54253215  1
  O2-  O389  1  0.58900263  0.57687659  0.88457165  1
  O2-  O390  1  0.89869197  0.08018720  0.21362090  1
  O2-  O391  1  0.89676381  0.07399518  0.56816346  1
  O2-  O392  1  0.92497968  0.08073917  0.87483144  1
  O2-  O393  1  0.89819741  0.57201029  0.22200714  1
  O2-  O394  1  0.93883756  0.58111397  0.58799971  1
  O2-  O395  1  0.91735607  0.56964263  0.87955862  1
  O2-  O396  1  0.09828121  0.41605328  0.11897924  1
  O2-  O397  1  0.07256657  0.41684276  0.43236774  1
  O2-  O398  1  0.08188024  0.41341754  0.76730003  1
  O2-  O399  1  0.08013418  0.91642731  0.11672805  1
  O2-  O400  1  0.07688641  0.91890011  0.43201371  1
  O2-  O401  1  0.06535872  0.91699829  0.77142949  1
  O2-  O402  1  0.41620888  0.41462550  0.10613328  1
  O2-  O403  1  0.43291936  0.41855143  0.43486234  1
  O2-  O404  1  0.41624482  0.42210490  0.77855007  1
  O2-  O405  1  0.43093492  0.91520238  0.12061653  1
  O2-  O406  1  0.43415332  0.91522142  0.41605613  1
  O2-  O407  1  0.41574109  0.91803292  0.77991452  1
  O2-  O408  1  0.74013710  0.41807275  0.10594927  1
  O2-  O409  1  0.73424775  0.41674327  0.43970041  1
  O2-  O410  1  0.73664739  0.41508006  0.76584392  1
  O2-  O411  1  0.75509780  0.91445974  0.11378726  1
  O2-  O412  1  0.74470556  0.91482972  0.43413365  1
  O2-  O413  1  0.77296143  0.91588155  0.77047632  1
  O2-  O414  1  0.25606312  0.42419767  0.22069422  1
  O2-  O415  1  0.24852988  0.41396722  0.55659612  1
  O2-  O416  1  0.24642300  0.43344670  0.88794221  1
  O2-  O417  1  0.25698167  0.92608322  0.22012869  1
  O2-  O418  1  0.24539772  0.91460029  0.56420904  1
  O2-  O419  1  0.25452028  0.92291660  0.88251911  1
  O2-  O420  1  0.56637807  0.41795912  0.23538792  1
  O2-  O421  1  0.58566872  0.42010503  0.54121561  1
  O2-  O422  1  0.56700064  0.41857991  0.89386874  1
  O2-  O423  1  0.56648861  0.91833952  0.23125593  1
  O2-  O424  1  0.58083381  0.91582738  0.55196762  1
  O2-  O425  1  0.57432006  0.92235364  0.88154454  1
  O2-  O426  1  0.93149164  0.42467796  0.23075772  1
  O2-  O427  1  0.91596322  0.42097446  0.55285482  1
  O2-  O428  1  0.92440965  0.42724324  0.88610505  1
  O2-  O429  1  0.92009263  0.91733748  0.22360211  1
  O2-  O430  1  0.91492742  0.91685459  0.59113845  1
  O2-  O431  1  0.90352114  0.91875015  0.87360614  1
  O2-  O432  1  -0.00522938  0.00078385  0.01318345  1
  O2-  O433  1  -0.00363330  0.01165290  0.33887648  1
  O2-  O434  1  -0.01017591  0.00374565  0.69376476  1
  O2-  O435  1  0.02355799  0.51225650  0.00322421  1
  O2-  O436  1  0.00258389  0.50464301  0.32139868  1
  O2-  O437  1  -0.02158373  0.49285308  0.69153118  1
  O2-  O438  1  0.34309476  -0.01409989  -0.00867307  1
  O2-  O439  1  0.33871349  -0.00096680  0.32748600  1
  O2-  O440  1  0.32380948  -0.00832550  0.67283363  1
  O2-  O441  1  0.33856358  0.49404244  -0.00524713  1
  O2-  O442  1  0.35662738  0.50529951  0.30419496  1
  O2-  O443  1  0.33677973  0.50320093  0.65941579  1
  O2-  O444  1  0.67155574  -0.00738059  -0.00672375  1
  O2-  O445  1  0.66933793  0.01311185  0.32889140  1
  O2-  O446  1  0.67870800  0.00131330  0.65300532  1
  O2-  O447  1  0.65139707  0.50957391  0.02181390  1
  O2-  O448  1  0.66467205  0.50479834  0.33738255  1
  O2-  O449  1  0.65846532  0.50263935  0.67740302  1
  O2-  O450  1  0.16869228  -0.00051246  0.00000740  1
  O2-  O451  1  0.16023446  0.00110917  0.32384617  1
  O2-  O452  1  0.15359261  0.00006773  0.64713849  1
  O2-  O453  1  0.18517687  0.50226633  0.01810886  1
  O2-  O454  1  0.15442332  0.51040436  0.31444938  1
  O2-  O455  1  0.16332023  0.48490872  0.66479240  1
  O2-  O456  1  0.51334911  -0.00664809  0.01700285  1
  O2-  O457  1  0.50919373  0.01018684  0.35297409  1
  O2-  O458  1  0.51841243  -0.00349786  0.68397701  1
  O2-  O459  1  0.51613656  0.49218838  0.01625433  1
  O2-  O460  1  0.51094155  0.50471159  0.35843471  1
  O2-  O461  1  0.49849089  0.50040788  0.67372866  1
  O2-  O462  1  0.82743948  -0.01094354  -0.01252846  1
  O2-  O463  1  0.82180435  0.00306503  0.31535374  1
  O2-  O464  1  0.83974154  0.00661191  0.68684360  1
  O2-  O465  1  0.81464071  0.50216617  -0.01114813  1
  O2-  O466  1  0.83531883  0.49400030  0.32558198  1
  O2-  O467  1  0.82592524  0.49832864  0.66491772  1
  O2-  O468  1  0.09295571  0.75189599  0.06972950  1
  O2-  O469  1  0.39856796  0.24796217  0.73347257  1
  O2-  O470  1  0.24261503  0.75465553  0.59808362  1
  O2-  O471  1  0.91439113  0.25579607  0.59583713  1
  O2-  O472  1  0.41376699  0.75268902  0.06373766  1
  O2-  O473  1  0.74476099  0.25219074  0.05938305  1
  O2-  O474  1  0.59364837  0.74521265  0.93799980  1
  O2-  O475  1  0.41748340  0.25272975  0.41132058  1
  O2-  O476  1  0.91060379  0.25003149  0.93269132  1
  O2-  O477  1  0.74698357  0.25294753  0.39449722  1
  O2-  O478  1  0.60104389  0.74790359  0.60682942  1
  O2-  O479  1  0.76483933  0.25186731  0.73362896  1
  O2-  O480  1  0.71978915  0.75240679  0.73245733  1
  O2-  O481  1  0.74097009  0.74883405  0.06106598  1
  O2-  O482  1  0.24719080  0.74961496  0.93298971  1
  O2-  O483  1  0.07926880  0.25025580  0.41127208  1
  O2-  O484  1  0.08964358  0.74983574  0.73476768  1
  O2-  O485  1  0.58756775  0.25631089  0.92553476  1
  O2-  O486  1  0.07914543  0.25161584  0.06058362  1
  O2-  O487  1  0.25779633  0.25010089  0.60750197  1
  O2-  O488  1  0.24868635  0.25273008  0.92593720  1
  O2-  O489  1  0.08674785  0.75049361  0.40399914  1
  O2-  O490  1  0.74413265  0.74972740  0.40489973  1
  O2-  O491  1  0.08362970  0.24955910  0.72588727  1
  O2-  O492  1  0.41618693  0.74897825  0.73919860  1
