# generated using pymatgen
data_Ca108Mn108O277
_symmetry_space_group_name_H-M   'P 1'
_cell_length_a   16.02890220
_cell_length_b   22.30947209
_cell_length_c   16.39253813
_cell_angle_alpha   90.00419168
_cell_angle_beta   90.00142420
_cell_angle_gamma   90.00254573
_symmetry_Int_Tables_number   1
_chemical_formula_structural   Ca108Mn108O277
_chemical_formula_sum   'Ca108 Mn108 O277'
_cell_volume   5861.91171752
_cell_formula_units_Z   1
loop_
 _symmetry_equiv_pos_site_id
 _symmetry_equiv_pos_as_xyz
  1  'x, y, z'
loop_
 _atom_type_symbol
 _atom_type_oxidation_number
  Ca2+  2.0
  Mn3.34+  3.34
  O2-  -2.0
loop_
 _atom_site_type_symbol
 _atom_site_label
 _atom_site_symmetry_multiplicity
 _atom_site_fract_x
 _atom_site_fract_y
 _atom_site_fract_z
 _atom_site_occupancy
  Ca2+  Ca0  1  0.07089537  0.25790518  0.23320576  1
  Ca2+  Ca1  1  0.08183831  0.26488506  0.58758994  1
  Ca2+  Ca2  1  0.09402679  0.24764389  0.93592744  1
  Ca2+  Ca3  1  0.05797865  0.73895631  0.23156691  1
  Ca2+  Ca4  1  0.10989868  0.74420985  0.57835347  1
  Ca2+  Ca5  1  0.06528235  0.74029816  0.93129728  1
  Ca2+  Ca6  1  0.41537106  0.25357462  0.22532277  1
  Ca2+  Ca7  1  0.43154887  0.26395514  0.58401911  1
  Ca2+  Ca8  1  0.40684220  0.24267573  0.93126034  1
  Ca2+  Ca9  1  0.41405865  0.75356969  0.24348372  1
  Ca2+  Ca10  1  0.40828818  0.72262455  0.59987388  1
  Ca2+  Ca11  1  0.42107881  0.73529378  0.89684891  1
  Ca2+  Ca12  1  0.76263499  0.24851797  0.25982910  1
  Ca2+  Ca13  1  0.74438063  0.26838907  0.58431544  1
  Ca2+  Ca14  1  0.74823674  0.26401315  0.91676308  1
  Ca2+  Ca15  1  0.77588150  0.73686655  0.22767813  1
  Ca2+  Ca16  1  0.73171513  0.74123571  0.61363037  1
  Ca2+  Ca17  1  0.75401698  0.72129459  0.91626996  1
  Ca2+  Ca18  1  0.26140419  0.25254785  0.06315378  1
  Ca2+  Ca19  1  0.25663563  0.27535065  0.41016761  1
  Ca2+  Ca20  1  0.24866814  0.25942977  0.77074207  1
  Ca2+  Ca21  1  0.24564114  0.74551926  0.07037854  1
  Ca2+  Ca22  1  0.26041609  0.74439826  0.44240864  1
  Ca2+  Ca23  1  0.27956125  0.74435411  0.74514613  1
  Ca2+  Ca24  1  0.57521243  0.26209972  0.07257720  1
  Ca2+  Ca25  1  0.60446892  0.25405694  0.42523960  1
  Ca2+  Ca26  1  0.59304034  0.26158763  0.75096956  1
  Ca2+  Ca27  1  0.58318934  0.74530080  0.06595447  1
  Ca2+  Ca28  1  0.56647461  0.75258508  0.43253381  1
  Ca2+  Ca29  1  0.57851583  0.73427817  0.74935860  1
  Ca2+  Ca30  1  0.91177668  0.25552332  0.07825624  1
  Ca2+  Ca31  1  0.89390297  0.25678420  0.40677566  1
  Ca2+  Ca32  1  0.90267682  0.26321031  0.76077939  1
  Ca2+  Ca33  1  0.91750509  0.74022893  0.07845739  1
  Ca2+  Ca34  1  0.91849493  0.74788844  0.39618840  1
  Ca2+  Ca35  1  0.88659765  0.73702084  0.78126193  1
  Ca2+  Ca36  1  0.58457904  0.10942968  0.76414840  1
  Ca2+  Ca37  1  0.24100146  0.58197265  0.41310670  1
  Ca2+  Ca38  1  0.08962444  0.09703350  0.95743417  1
  Ca2+  Ca39  1  0.45270706  0.09295990  0.57517207  1
  Ca2+  Ca40  1  0.42848586  0.59415626  0.90926000  1
  Ca2+  Ca41  1  0.72034924  0.10094327  0.56986560  1
  Ca2+  Ca42  1  0.07150025  0.59043254  0.92594305  1
  Ca2+  Ca43  1  0.26241687  0.07742908  0.39573589  1
  Ca2+  Ca44  1  0.26696785  0.10322201  0.78432100  1
  Ca2+  Ca45  1  0.29291203  0.60374484  0.76366218  1
  Ca2+  Ca46  1  0.93596559  0.11420368  0.08358552  1
  Ca2+  Ca47  1  0.28640195  0.60097978  0.77058302  1
  Ca2+  Ca48  1  0.57977178  0.59102951  0.74865163  1
  Ca2+  Ca49  1  0.24117999  0.58690482  0.06016626  1
  Ca2+  Ca50  1  0.08221203  0.58387992  0.58195631  1
  Ca2+  Ca51  1  0.25923979  0.10707731  0.06284249  1
  Ca2+  Ca52  1  0.57213624  0.57792103  0.43637805  1
  Ca2+  Ca53  1  0.25432163  0.10444099  0.78437943  1
  Ca2+  Ca54  1  0.23057530  0.58261907  0.41201933  1
  Ca2+  Ca55  1  0.40229431  0.57499587  0.24910580  1
  Ca2+  Ca56  1  0.54313674  0.09457002  0.08090739  1
  Ca2+  Ca57  1  0.60326653  0.59732923  0.05903715  1
  Ca2+  Ca58  1  0.08212378  0.10670963  0.21179456  1
  Ca2+  Ca59  1  0.44062560  0.09113126  0.57424786  1
  Ca2+  Ca60  1  0.55446232  0.09858287  0.07808784  1
  Ca2+  Ca61  1  0.90706377  0.60224332  0.07475545  1
  Ca2+  Ca62  1  0.09455545  0.58618795  0.58100052  1
  Ca2+  Ca63  1  0.80555241  0.59447662  0.24320133  1
  Ca2+  Ca64  1  0.43453601  0.57977277  0.62325149  1
  Ca2+  Ca65  1  0.88674814  0.10491212  0.40433385  1
  Ca2+  Ca66  1  0.24931841  0.58956712  0.05478828  1
  Ca2+  Ca67  1  0.41199981  0.09519992  0.93861404  1
  Ca2+  Ca68  1  0.25136636  0.10313362  0.06650960  1
  Ca2+  Ca69  1  0.89923600  0.09687341  0.76358619  1
  Ca2+  Ca70  1  0.73164806  0.10021601  0.57212113  1
  Ca2+  Ca71  1  0.58107440  0.57532095  0.44197260  1
  Ca2+  Ca72  1  0.25462620  0.40325547  0.75405314  1
  Ca2+  Ca73  1  0.91669608  0.89774512  0.42067944  1
  Ca2+  Ca74  1  0.91952197  0.89771672  0.74499835  1
  Ca2+  Ca75  1  0.25827759  0.91734754  0.07592014  1
  Ca2+  Ca76  1  0.43156262  0.90303353  0.57982836  1
  Ca2+  Ca77  1  0.08390759  0.90941466  0.92062154  1
  Ca2+  Ca78  1  0.73548929  0.90486852  0.58934625  1
  Ca2+  Ca79  1  0.58075717  0.90603589  0.41768409  1
  Ca2+  Ca80  1  0.42118135  0.91422050  0.24613165  1
  Ca2+  Ca81  1  0.74795878  0.90279267  0.91922997  1
  Ca2+  Ca82  1  0.38814506  0.40773299  0.24466434  1
  Ca2+  Ca83  1  0.41918401  0.40658495  0.91351367  1
  Ca2+  Ca84  1  0.40995939  0.91423533  0.24717671  1
  Ca2+  Ca85  1  0.06758260  0.90012962  0.58859527  1
  Ca2+  Ca86  1  0.57896685  0.91527534  0.07303648  1
  Ca2+  Ca87  1  0.42072096  0.90537291  0.92488180  1
  Ca2+  Ca88  1  0.08501068  0.90980289  0.24584552  1
  Ca2+  Ca89  1  0.74893229  0.89729769  0.24206194  1
  Ca2+  Ca90  1  0.07765366  0.41152724  0.57549577  1
  Ca2+  Ca91  1  0.10522637  0.43441722  0.27137681  1
  Ca2+  Ca92  1  0.73603882  0.89695075  0.24162183  1
  Ca2+  Ca93  1  0.41138681  0.90723418  0.92026324  1
  Ca2+  Ca94  1  0.44310680  0.90280647  0.57854272  1
  Ca2+  Ca95  1  0.59917873  0.42571977  0.73055601  1
  Ca2+  Ca96  1  0.73509517  0.90202230  0.91918816  1
  Ca2+  Ca97  1  0.08034095  0.90058815  0.58875244  1
  Ca2+  Ca98  1  0.09639698  0.90822633  0.91900908  1
  Ca2+  Ca99  1  0.76246306  0.40150175  0.25857208  1
  Ca2+  Ca100  1  0.24560130  0.91740698  0.07569762  1
  Ca2+  Ca101  1  0.25018670  0.90787185  0.41307169  1
  Ca2+  Ca102  1  0.88730349  0.41586862  0.75633156  1
  Ca2+  Ca103  1  0.09616270  0.90833684  0.24745401  1
  Ca2+  Ca104  1  0.06658680  0.41008641  0.57640233  1
  Ca2+  Ca105  1  0.43955470  0.42111548  0.60022902  1
  Ca2+  Ca106  1  0.92022766  0.42150205  0.39438743  1
  Ca2+  Ca107  1  0.92281368  0.40497079  0.09398796  1
  Mn3.34+  Mn108  1  0.08997608  0.34523521  0.08291633  1
  Mn3.34+  Mn109  1  0.08335028  0.34126313  0.41460310  1
  Mn3.34+  Mn110  1  0.07928148  0.33963251  0.75808383  1
  Mn3.34+  Mn111  1  0.08197128  0.83360807  0.08545354  1
  Mn3.34+  Mn112  1  0.08289363  0.82774358  0.41736383  1
  Mn3.34+  Mn113  1  0.08375281  0.82622651  0.75616413  1
  Mn3.34+  Mn114  1  0.41767488  0.33758342  0.08164916  1
  Mn3.34+  Mn115  1  0.42777357  0.33989736  0.41528696  1
  Mn3.34+  Mn116  1  0.42109787  0.34057213  0.75539828  1
  Mn3.34+  Mn117  1  0.41567210  0.83115663  0.08493316  1
  Mn3.34+  Mn118  1  0.41429855  0.83136853  0.41455002  1
  Mn3.34+  Mn119  1  0.42018292  0.83227085  0.75032129  1
  Mn3.34+  Mn120  1  0.74612061  0.33110317  0.08397740  1
  Mn3.34+  Mn121  1  0.74893723  0.33708467  0.41904930  1
  Mn3.34+  Mn122  1  0.74537123  0.34325921  0.75290484  1
  Mn3.34+  Mn123  1  0.75080319  0.82897494  0.08096479  1
  Mn3.34+  Mn124  1  0.74901122  0.82619398  0.42074923  1
  Mn3.34+  Mn125  1  0.74543664  0.82985794  0.75273905  1
  Mn3.34+  Mn126  1  0.24417868  0.33858947  0.24289506  1
  Mn3.34+  Mn127  1  0.25509556  0.33071417  0.58248697  1
  Mn3.34+  Mn128  1  0.24922882  0.33471115  0.92047664  1
  Mn3.34+  Mn129  1  0.24819982  0.82793976  0.25043949  1
  Mn3.34+  Mn130  1  0.25321076  0.83100762  0.58698604  1
  Mn3.34+  Mn131  1  0.24903785  0.82329447  0.90954993  1
  Mn3.34+  Mn132  1  0.58424397  0.32866507  0.24953820  1
  Mn3.34+  Mn133  1  0.58798400  0.34354232  0.57974328  1
  Mn3.34+  Mn134  1  0.58495735  0.33816817  0.91525761  1
  Mn3.34+  Mn135  1  0.58273589  0.82896138  0.24873801  1
  Mn3.34+  Mn136  1  0.58697975  0.83015855  0.58654950  1
  Mn3.34+  Mn137  1  0.58157933  0.82932633  0.91286889  1
  Mn3.34+  Mn138  1  0.92179245  0.33652205  0.24693690  1
  Mn3.34+  Mn139  1  0.90813841  0.33968129  0.58302733  1
  Mn3.34+  Mn140  1  0.91790763  0.33985218  0.91946110  1
  Mn3.34+  Mn141  1  0.91527159  0.83168372  0.24506416  1
  Mn3.34+  Mn142  1  0.91089820  0.82229638  0.58160660  1
  Mn3.34+  Mn143  1  0.91545588  0.82927235  0.91768415  1
  Mn3.34+  Mn144  1  0.90509966  0.65854478  0.58590071  1
  Mn3.34+  Mn145  1  0.58954281  0.66368323  0.90891188  1
  Mn3.34+  Mn146  1  0.91345831  0.66497066  0.58275120  1
  Mn3.34+  Mn147  1  0.42185033  0.17098168  0.41590557  1
  Mn3.34+  Mn148  1  0.57579823  0.66694030  0.24941024  1
  Mn3.34+  Mn149  1  0.08518338  0.16938708  0.74979163  1
  Mn3.34+  Mn150  1  0.07323498  0.16137856  0.75367585  1
  Mn3.34+  Mn151  1  0.58240943  0.17150646  0.25267208  1
  Mn3.34+  Mn152  1  0.74722646  0.17136612  0.75681026  1
  Mn3.34+  Mn153  1  0.59008461  0.66170233  0.24695751  1
  Mn3.34+  Mn154  1  0.07565154  0.65812822  0.41570066  1
  Mn3.34+  Mn155  1  0.91118399  0.16871332  0.58587911  1
  Mn3.34+  Mn156  1  0.41536315  0.66000076  0.41857259  1
  Mn3.34+  Mn157  1  0.74895043  0.65804230  0.42411532  1
  Mn3.34+  Mn158  1  0.91094766  0.17345726  0.92044462  1
  Mn3.34+  Mn159  1  0.26347308  0.16772577  0.24832601  1
  Mn3.34+  Mn160  1  0.74964884  0.16534131  0.08158215  1
  Mn3.34+  Mn161  1  0.59222120  0.16634852  0.25169465  1
  Mn3.34+  Mn162  1  0.58459773  0.66310233  0.59050306  1
  Mn3.34+  Mn163  1  0.07377469  0.66658903  0.75494459  1
  Mn3.34+  Mn164  1  0.92462659  0.16230008  0.58282168  1
  Mn3.34+  Mn165  1  0.75763838  0.66411948  0.42336433  1
  Mn3.34+  Mn166  1  0.25503665  0.17124830  0.58080657  1
  Mn3.34+  Mn167  1  0.42219830  0.17615490  0.74938984  1
  Mn3.34+  Mn168  1  0.07809207  0.66463424  0.08477342  1
  Mn3.34+  Mn169  1  0.58498929  0.17204202  0.91760626  1
  Mn3.34+  Mn170  1  0.24462729  0.16587689  0.57789740  1
  Mn3.34+  Mn171  1  0.08685894  0.17293844  0.41215079  1
  Mn3.34+  Mn172  1  0.08687356  0.67324631  0.75379114  1
  Mn3.34+  Mn173  1  0.07783844  0.16710540  0.41437669  1
  Mn3.34+  Mn174  1  0.41789988  0.66512031  0.07955329  1
  Mn3.34+  Mn175  1  0.25054404  0.17503223  0.24961297  1
  Mn3.34+  Mn176  1  0.91373096  0.17271066  0.24306764  1
  Mn3.34+  Mn177  1  0.24027036  0.65921903  0.24506156  1
  Mn3.34+  Mn178  1  0.58601664  0.17770368  0.58346500  1
  Mn3.34+  Mn179  1  0.25399112  0.66541315  0.24655360  1
  Mn3.34+  Mn180  1  0.75705329  0.50079526  0.40696469  1
  Mn3.34+  Mn181  1  0.74037284  0.00097794  0.41605360  1
  Mn3.34+  Mn182  1  0.90911648  0.00003961  0.92072594  1
  Mn3.34+  Mn183  1  0.07865058  0.00020131  0.41549618  1
  Mn3.34+  Mn184  1  0.90457839  0.00081514  0.23597921  1
  Mn3.34+  Mn185  1  0.26448131  0.49755925  0.58256309  1
  Mn3.34+  Mn186  1  0.92151383  0.50083492  0.92465329  1
  Mn3.34+  Mn187  1  0.59098590  0.49472715  0.24352382  1
  Mn3.34+  Mn188  1  0.74001159  0.49023544  0.07388507  1
  Mn3.34+  Mn189  1  0.24802612  0.00228001  0.24850227  1
  Mn3.34+  Mn190  1  0.07530394  0.00056792  0.74973197  1
  Mn3.34+  Mn191  1  0.58428445  0.00151815  0.91254500  1
  Mn3.34+  Mn192  1  0.24929620  -0.00811222  0.90988675  1
  Mn3.34+  Mn193  1  0.25367706  0.49255127  0.58165051  1
  Mn3.34+  Mn194  1  0.23917123  0.00656522  0.58601293  1
  Mn3.34+  Mn195  1  0.91902711  0.00437274  0.92491843  1
  Mn3.34+  Mn196  1  0.41937181  0.49848396  0.07058380  1
  Mn3.34+  Mn197  1  0.91730082  0.00440015  0.23506045  1
  Mn3.34+  Mn198  1  0.25234607  -0.00072036  0.58655276  1
  Mn3.34+  Mn199  1  0.40788236  0.49488667  0.41151616  1
  Mn3.34+  Mn200  1  0.24113287  0.49247996  0.92288647  1
  Mn3.34+  Mn201  1  0.75170191  -0.00347188  0.41786422  1
  Mn3.34+  Mn202  1  0.43578617  0.00250786  0.74704358  1
  Mn3.34+  Mn203  1  0.90096410  0.50103811  0.59634649  1
  Mn3.34+  Mn204  1  0.91758876  -0.00190626  0.58489348  1
  Mn3.34+  Mn205  1  0.06564239  0.50140936  0.75301880  1
  Mn3.34+  Mn206  1  0.59087190  0.00060337  0.24218838  1
  Mn3.34+  Mn207  1  0.07702118  0.50335392  0.08927889  1
  Mn3.34+  Mn208  1  0.42377766  -0.00171864  0.74919545  1
  Mn3.34+  Mn209  1  0.43158937  0.00546275  0.40176718  1
  Mn3.34+  Mn210  1  0.75204668  0.49750502  0.07506292  1
  Mn3.34+  Mn211  1  0.74536910  0.00533755  0.08219102  1
  Mn3.34+  Mn212  1  0.74511598  0.00583277  0.74660195  1
  Mn3.34+  Mn213  1  0.73289644  -0.00082321  0.74289575  1
  Mn3.34+  Mn214  1  0.57944950  0.49982559  0.24094596  1
  Mn3.34+  Mn215  1  0.58402266  0.49713160  0.91327513  1
  O2-  O216  1  -0.00182404  0.17216441  -0.00696999  1
  O2-  O217  1  0.00095695  0.15803509  0.32743673  1
  O2-  O218  1  -0.00444811  0.14365559  0.67028627  1
  O2-  O219  1  0.00364125  0.65649584  0.00254319  1
  O2-  O220  1  0.01517250  0.69312481  0.34198800  1
  O2-  O221  1  0.00350269  0.67862211  0.66276577  1
  O2-  O222  1  0.33364252  0.16431356  -0.00524451  1
  O2-  O223  1  0.33148482  0.15905537  0.34028939  1
  O2-  O224  1  0.34307218  0.14267057  0.66342267  1
  O2-  O225  1  0.33156510  0.65816330  0.00770473  1
  O2-  O226  1  0.33338348  0.64026746  0.32975503  1
  O2-  O227  1  0.33384824  0.65349739  0.66613463  1
  O2-  O228  1  0.65413109  0.15201624  0.01039054  1
  O2-  O229  1  0.66306022  0.18028630  0.33480896  1
  O2-  O230  1  0.66387606  0.15557341  0.67144398  1
  O2-  O231  1  0.66090544  0.67395355  -0.00021435  1
  O2-  O232  1  0.66504633  0.65473070  0.33838935  1
  O2-  O233  1  0.66168102  0.66130101  0.66578591  1
  O2-  O234  1  0.16847242  0.16903956  0.00894321  1
  O2-  O235  1  0.16985120  0.15718980  0.33067066  1
  O2-  O236  1  0.17313491  0.13998699  0.67303438  1
  O2-  O237  1  0.16746215  0.66476610  0.00487072  1
  O2-  O238  1  0.16893977  0.65510473  0.33855609  1
  O2-  O239  1  0.15636937  0.65467971  0.66514309  1
  O2-  O240  1  0.50098979  0.16430196  -0.00755827  1
  O2-  O241  1  0.49850670  0.18212215  0.32862605  1
  O2-  O242  1  0.50018963  0.15861866  0.66579892  1
  O2-  O243  1  0.49970628  0.65477477  0.00040972  1
  O2-  O244  1  0.50494337  0.63576740  0.33262369  1
  O2-  O245  1  0.50353218  0.65988753  0.66465342  1
  O2-  O246  1  0.83374907  0.14892708  0.00204762  1
  O2-  O247  1  0.83678932  0.16808544  0.32406854  1
  O2-  O248  1  0.82379825  0.14021582  0.66536147  1
  O2-  O249  1  0.82628624  0.67728781  0.01844578  1
  O2-  O250  1  0.82789271  0.67287807  0.33375482  1
  O2-  O251  1  0.83715866  0.68359317  0.66924022  1
  O2-  O252  1  0.00324719  0.33022055  0.00300623  1
  O2-  O253  1  0.00042109  0.33168925  0.33732077  1
  O2-  O254  1  -0.00146851  0.35320441  0.66447726  1
  O2-  O255  1  0.00802633  0.84629253  -0.00780531  1
  O2-  O256  1  -0.00067275  0.84649000  0.33228320  1
  O2-  O257  1  0.00100677  0.82969279  0.66525639  1
  O2-  O258  1  0.33633118  0.34479904  -0.00346464  1
  O2-  O259  1  0.34239807  0.33891986  0.33464941  1
  O2-  O260  1  0.33438205  0.33421194  0.67188792  1
  O2-  O261  1  0.33106822  0.84321165  -0.00125902  1
  O2-  O262  1  0.33456255  0.85309880  0.32705364  1
  O2-  O263  1  0.34088049  0.85415299  0.66136232  1
  O2-  O264  1  0.66729658  0.34078970  0.00112176  1
  O2-  O265  1  0.67327819  0.33204196  0.32723999  1
  O2-  O266  1  0.66297922  0.33981754  0.67027230  1
  O2-  O267  1  0.66136529  0.83948203  0.00551896  1
  O2-  O268  1  0.66753789  0.84365476  0.33557993  1
  O2-  O269  1  0.66989914  0.83857123  0.66507788  1
  O2-  O270  1  0.16682893  0.32594435  0.00295203  1
  O2-  O271  1  0.16002113  0.32814243  0.32931215  1
  O2-  O272  1  0.16227508  0.35455001  0.65849608  1
  O2-  O273  1  0.17343275  0.83787328  0.00400322  1
  O2-  O274  1  0.16424618  0.84757623  0.33244536  1
  O2-  O275  1  0.16064291  0.83520139  0.66352971  1
  O2-  O276  1  0.49752020  0.34218761  -0.00605335  1
  O2-  O277  1  0.50251858  0.30578273  0.33229181  1
  O2-  O278  1  0.49607660  0.33691704  0.66730122  1
  O2-  O279  1  0.49956199  0.85038629  0.00310696  1
  O2-  O280  1  0.49677521  0.85256775  0.33205005  1
  O2-  O281  1  0.50465944  0.84918299  0.67047685  1
  O2-  O282  1  0.84073007  0.34795136  0.01032162  1
  O2-  O283  1  0.83981621  0.34083168  0.33512626  1
  O2-  O284  1  0.83408029  0.34189392  0.67255065  1
  O2-  O285  1  0.82788945  0.84687967  -0.00433667  1
  O2-  O286  1  0.82921700  0.83986780  0.33188178  1
  O2-  O287  1  0.82879490  0.84153728  0.66512938  1
  O2-  O288  1  -0.00001590  0.18217573  0.16426175  1
  O2-  O289  1  -0.00420901  0.19220156  0.49133789  1
  O2-  O290  1  -0.00570366  0.18310374  0.83257480  1
  O2-  O291  1  -0.00428462  0.66748257  0.15841295  1
  O2-  O292  1  -0.00010653  0.68056430  0.50266246  1
  O2-  O293  1  -0.00011020  0.68692063  0.83279540  1
  O2-  O294  1  0.33113381  0.17400955  0.15961456  1
  O2-  O295  1  0.33984554  0.18984103  0.49910985  1
  O2-  O296  1  0.33184346  0.18342843  0.81613125  1
  O2-  O297  1  0.33594897  0.68314454  0.16613809  1
  O2-  O298  1  0.32968092  0.66505407  0.48536617  1
  O2-  O299  1  0.32776881  0.67789360  0.83862252  1
  O2-  O300  1  0.67023974  0.18734222  0.17185174  1
  O2-  O301  1  0.67237950  0.18436961  0.51677145  1
  O2-  O302  1  0.66385450  0.18398547  0.83115575  1
  O2-  O303  1  0.66209844  0.68864703  0.16933058  1
  O2-  O304  1  0.66067182  0.68088194  0.49547693  1
  O2-  O305  1  0.66502693  0.66998903  0.83249383  1
  O2-  O306  1  0.16803964  0.18504989  0.17232361  1
  O2-  O307  1  0.16721859  0.19645393  0.49144536  1
  O2-  O308  1  0.16832945  0.17815025  0.82973123  1
  O2-  O309  1  0.16656430  0.68816556  0.16491467  1
  O2-  O310  1  0.15794889  0.67561119  0.49240212  1
  O2-  O311  1  0.16797823  0.68816340  0.82638990  1
  O2-  O312  1  0.51175835  0.18059716  0.16314358  1
  O2-  O313  1  0.49750458  0.18311766  0.50547714  1
  O2-  O314  1  0.50316972  0.18486108  0.82987235  1
  O2-  O315  1  0.49833644  0.67698033  0.16512732  1
  O2-  O316  1  0.50307130  0.67353614  0.49185833  1
  O2-  O317  1  0.50499196  0.67047564  0.83459465  1
  O2-  O318  1  0.83889311  0.17762472  0.15650876  1
  O2-  O319  1  0.83120395  0.17680112  0.50574486  1
  O2-  O320  1  0.83823653  0.17744120  0.82487108  1
  O2-  O321  1  0.83607831  0.67247929  0.15047875  1
  O2-  O322  1  0.83145676  0.69596376  0.50254606  1
  O2-  O323  1  0.82706385  0.65477479  0.83983843  1
  O2-  O324  1  -0.00340325  0.32069981  0.15791660  1
  O2-  O325  1  0.00611757  0.32459792  0.50451097  1
  O2-  O326  1  -0.00331987  0.32007197  0.83229372  1
  O2-  O327  1  0.00835357  0.83691593  0.17599718  1
  O2-  O328  1  0.00399200  0.80757166  0.50252667  1
  O2-  O329  1  -0.00595306  0.81542508  0.83011453  1
  O2-  O330  1  0.33438846  0.32872564  0.16893714  1
  O2-  O331  1  0.33936665  0.31264004  0.50518549  1
  O2-  O332  1  0.33710523  0.32369959  0.83186560  1
  O2-  O333  1  0.33037797  0.82267994  0.16535774  1
  O2-  O334  1  0.33179162  0.83440113  0.49889174  1
  O2-  O335  1  0.33725143  0.81629229  0.83626168  1
  O2-  O336  1  0.66902380  0.30994834  0.16953690  1
  O2-  O337  1  0.66802842  0.32977562  0.50096307  1
  O2-  O338  1  0.66511693  0.32329381  0.83232217  1
  O2-  O339  1  0.67291104  0.81149611  0.16770570  1
  O2-  O340  1  0.66465509  0.81565129  0.49866816  1
  O2-  O341  1  0.67575834  0.82440611  0.84738812  1
  O2-  O342  1  0.16522509  0.31600318  0.16370248  1
  O2-  O343  1  0.16394031  0.32369722  0.50041684  1
  O2-  O344  1  0.16970376  0.32828415  0.82879398  1
  O2-  O345  1  0.16578399  0.81834162  0.16893425  1
  O2-  O346  1  0.16883441  0.81709333  0.49779465  1
  O2-  O347  1  0.15558155  0.80718835  0.84441511  1
  O2-  O348  1  0.50089015  0.31977617  0.16859724  1
  O2-  O349  1  0.50514724  0.32120583  0.49855999  1
  O2-  O350  1  0.49661862  0.31401476  0.83155771  1
  O2-  O351  1  0.49124264  0.83149149  0.17300004  1
  O2-  O352  1  0.49603317  0.82426181  0.50363179  1
  O2-  O353  1  0.48994156  0.83123904  0.84517820  1
  O2-  O354  1  0.83337509  0.32482047  0.17133432  1
  O2-  O355  1  0.83521819  0.32362621  0.49964866  1
  O2-  O356  1  0.83170747  0.33118399  0.83408860  1
  O2-  O357  1  0.82984292  0.82067324  0.16441522  1
  O2-  O358  1  0.83818296  0.81172267  0.49128472  1
  O2-  O359  1  0.83216651  0.83365868  0.83389623  1
  O2-  O360  1  0.12325966  0.07088102  0.09709292  1
  O2-  O361  1  0.09840378  0.08319719  0.43968757  1
  O2-  O362  1  0.10045125  0.08022238  0.79672907  1
  O2-  O363  1  0.10887353  0.58335833  0.10685056  1
  O2-  O364  1  0.09486376  0.57641200  0.44934734  1
  O2-  O365  1  0.08747098  0.58340728  0.78362560  1
  O2-  O366  1  0.41513351  0.07139055  0.07867978  1
  O2-  O367  1  0.40327273  0.08155449  0.44944623  1
  O2-  O368  1  0.40796678  0.08067077  0.79193442  1
  O2-  O369  1  0.40825661  0.57875555  0.11081422  1
  O2-  O370  1  0.43197424  0.57181173  0.45967418  1
  O2-  O371  1  0.41310467  0.56914458  0.78104182  1
  O2-  O372  1  0.73266355  0.08297524  0.11403262  1
  O2-  O373  1  0.74992349  0.08229659  0.44180825  1
  O2-  O374  1  0.73883364  0.08314011  0.78621674  1
  O2-  O375  1  0.73421341  0.56958963  0.12761409  1
  O2-  O376  1  0.72927238  0.57446638  0.45981042  1
  O2-  O377  1  0.73745212  0.57594753  0.75218003  1
  O2-  O378  1  0.24113223  0.08576835  0.23233659  1
  O2-  O379  1  0.26011603  0.08060051  0.53374004  1
  O2-  O380  1  0.25680036  0.07576085  0.91022951  1
  O2-  O381  1  0.25512250  0.58224298  0.20132581  1
  O2-  O382  1  0.23154031  0.57581325  0.54879726  1
  O2-  O383  1  0.23208770  0.56977904  0.88762780  1
  O2-  O384  1  0.57881649  0.08365837  0.21399704  1
  O2-  O385  1  0.58418434  0.08980913  0.55973470  1
  O2-  O386  1  0.56893953  0.08348357  0.89614447  1
  O2-  O387  1  0.58502628  0.57904579  0.20273804  1
  O2-  O388  1  0.57518059  0.58144780  0.56789351  1
  O2-  O389  1  0.57893703  0.57877001  0.89238288  1
  O2-  O390  1  0.93212099  0.08579675  0.22037741  1
  O2-  O391  1  0.90760303  0.08063040  0.54558885  1
  O2-  O392  1  0.92599301  0.08610416  0.89694612  1
  O2-  O393  1  0.92449414  0.56195120  0.20176264  1
  O2-  O394  1  0.93672688  0.57722299  0.55271904  1
  O2-  O395  1  0.93390341  0.56777774  0.87788329  1
  O2-  O396  1  0.06707605  0.42590641  0.12561688  1
  O2-  O397  1  0.07209492  0.42192922  0.43897284  1
  O2-  O398  1  0.08834453  0.42061226  0.77079626  1
  O2-  O399  1  0.10638004  0.91821415  0.11172647  1
  O2-  O400  1  0.07413520  0.91836233  0.45684102  1
  O2-  O401  1  0.07454333  0.91706912  0.78702585  1
  O2-  O402  1  0.42491178  0.42435080  0.11407361  1
  O2-  O403  1  0.41854655  0.42202506  0.45594746  1
  O2-  O404  1  0.41333712  0.41735376  0.76957855  1
  O2-  O405  1  0.40021462  0.91926997  0.11269404  1
  O2-  O406  1  0.42077808  0.92638249  0.45189059  1
  O2-  O407  1  0.41443326  0.91985053  0.78485812  1
  O2-  O408  1  0.75108418  0.41618403  0.12323545  1
  O2-  O409  1  0.76706559  0.42195732  0.42101756  1
  O2-  O410  1  0.74241813  0.42030598  0.76693437  1
  O2-  O411  1  0.74180104  0.92283689  0.11236063  1
  O2-  O412  1  0.75760473  0.91688777  0.45506347  1
  O2-  O413  1  0.74636340  0.92042984  0.78183579  1
  O2-  O414  1  0.24491080  0.41760636  0.23821112  1
  O2-  O415  1  0.25806661  0.41284699  0.55278047  1
  O2-  O416  1  0.26753964  0.41884166  0.88841484  1
  O2-  O417  1  0.24511145  0.92106561  0.21062794  1
  O2-  O418  1  0.22363344  0.91930363  0.55605002  1
  O2-  O419  1  0.23571726  0.91215219  0.88155666  1
  O2-  O420  1  0.58401496  0.41332147  0.24056269  1
  O2-  O421  1  0.57646366  0.42154580  0.57974685  1
  O2-  O422  1  0.56683400  0.41888818  0.87786841  1
  O2-  O423  1  0.60049249  0.91592825  0.20829006  1
  O2-  O424  1  0.58169136  0.91358012  0.55500294  1
  O2-  O425  1  0.60000264  0.91824711  0.89350422  1
  O2-  O426  1  0.92104109  0.41629575  0.23702514  1
  O2-  O427  1  0.92811261  0.42793917  0.54528088  1
  O2-  O428  1  0.92507771  0.42492498  0.89017377  1
  O2-  O429  1  0.88884857  0.91808116  0.22613377  1
  O2-  O430  1  0.92721002  0.91313404  0.55276613  1
  O2-  O431  1  0.92372733  0.91993951  0.88375417  1
  O2-  O432  1  0.02644481  -0.00341079  -0.03688395  1
  O2-  O433  1  0.00358508  -0.01781621  0.31449728  1
  O2-  O434  1  0.01033275  -0.02504488  0.65558286  1
  O2-  O435  1  -0.00153515  0.51482838  0.00554901  1
  O2-  O436  1  0.00251891  0.49049424  0.32786838  1
  O2-  O437  1  0.01826106  0.50017947  0.63474993  1
  O2-  O438  1  0.33280197  -0.02668856  -0.01437372  1
  O2-  O439  1  0.33137071  -0.01121970  0.33347914  1
  O2-  O440  1  0.32424412  0.01204136  0.68074023  1
  O2-  O441  1  0.32765348  0.51472842  -0.00037931  1
  O2-  O442  1  0.32699948  0.52154460  0.34354884  1
  O2-  O443  1  0.34594839  0.50190750  0.66070313  1
  O2-  O444  1  0.65450898  -0.00845688  0.00885625  1
  O2-  O445  1  0.67611226  -0.02420874  0.32459070  1
  O2-  O446  1  0.68776954  0.00983844  0.63581872  1
  O2-  O447  1  0.65546195  0.50924267  0.00241875  1
  O2-  O448  1  0.65343637  0.51395678  0.34544426  1
  O2-  O449  1  0.65081579  0.51420698  0.69252495  1
  O2-  O450  1  0.17380609  -0.02086763  -0.00916703  1
  O2-  O451  1  0.16409339  -0.01931716  0.33091121  1
  O2-  O452  1  0.16503744  0.00132614  0.67030154  1
  O2-  O453  1  0.16616898  0.50755561  0.00746304  1
  O2-  O454  1  0.16769968  0.51125460  0.34263467  1
  O2-  O455  1  0.16752350  0.50661626  0.66455493  1
  O2-  O456  1  0.48992546  -0.01472689  -0.03051488  1
  O2-  O457  1  0.50001101  -0.02302653  0.31418065  1
  O2-  O458  1  0.47842806  0.00173621  0.63515813  1
  O2-  O459  1  0.48780180  0.50595136  -0.01853588  1
  O2-  O460  1  0.49344571  0.51126922  0.32723721  1
  O2-  O461  1  0.51445817  0.49987372  0.67293989  1
  O2-  O462  1  0.81847041  -0.01278796  -0.00964573  1
  O2-  O463  1  0.84334986  0.01050548  0.34076570  1
  O2-  O464  1  0.85007775  -0.00275888  0.68965387  1
  O2-  O465  1  0.84459860  0.49806168  0.00745223  1
  O2-  O466  1  0.82815503  0.50908750  0.32806846  1
  O2-  O467  1  0.84458993  0.49735862  0.68422522  1
  O2-  O468  1  0.57005131  0.74954249  0.92692842  1
  O2-  O469  1  0.91839344  0.75404786  0.25482635  1
  O2-  O470  1  0.42376192  0.75009288  0.06309781  1
  O2-  O471  1  0.92364326  0.24889775  0.61636831  1
  O2-  O472  1  0.75253704  0.25787045  0.41037487  1
  O2-  O473  1  0.58451154  0.25547933  0.60737719  1
  O2-  O474  1  0.56232018  0.74736355  0.28713820  1
  O2-  O475  1  0.08321449  0.25254702  0.72360342  1
  O2-  O476  1  0.26233360  0.75278584  0.59929652  1
  O2-  O477  1  0.41354611  0.25834745  0.07144766  1
  O2-  O478  1  0.26638920  0.25405082  0.27125134  1
  O2-  O479  1  0.42508006  0.75507613  0.73255726  1
  O2-  O480  1  0.90627490  0.75162250  0.93418888  1
  O2-  O481  1  0.25970422  0.74313368  0.28503876  1
  O2-  O482  1  0.23324149  0.25094838  0.62255548  1
  O2-  O483  1  0.74449772  0.75181255  0.75117582  1
  O2-  O484  1  0.41250336  0.74292260  0.38830420  1
  O2-  O485  1  0.75856521  0.24865496  0.05524124  1
  O2-  O486  1  0.59403846  0.25278894  0.93700805  1
  O2-  O487  1  0.25269316  0.25640282  0.92275616  1
  O2-  O488  1  0.06930081  0.75144170  0.07067215  1
  O2-  O489  1  0.57843705  0.74928413  0.60330059  1
  O2-  O490  1  0.91702826  0.25221482  0.26613498  1
  O2-  O491  1  0.75412884  0.24953653  0.72702650  1
  O2-  O492  1  0.89784360  0.25438908  0.93206714  1
