# generated using pymatgen
data_Ca108Mn108O277
_symmetry_space_group_name_H-M   'P 1'
_cell_length_a   16.03257573
_cell_length_b   22.31283171
_cell_length_c   16.39335242
_cell_angle_alpha   90.00623412
_cell_angle_beta   89.99678796
_cell_angle_gamma   89.99227072
_symmetry_Int_Tables_number   1
_chemical_formula_structural   Ca108Mn108O277
_chemical_formula_sum   'Ca108 Mn108 O277'
_cell_volume   5864.42934309
_cell_formula_units_Z   1
loop_
 _symmetry_equiv_pos_site_id
 _symmetry_equiv_pos_as_xyz
  1  'x, y, z'
loop_
 _atom_type_symbol
 _atom_type_oxidation_number
  Ca2+  2.0
  Mn3.34+  3.34
  O2-  -2.0
loop_
 _atom_site_type_symbol
 _atom_site_label
 _atom_site_symmetry_multiplicity
 _atom_site_fract_x
 _atom_site_fract_y
 _atom_site_fract_z
 _atom_site_occupancy
  Ca2+  Ca0  1  0.07534607  0.26298208  0.25111494  1
  Ca2+  Ca1  1  0.08125066  0.25855897  0.57910338  1
  Ca2+  Ca2  1  0.11656691  0.25068035  0.91730138  1
  Ca2+  Ca3  1  0.08113274  0.75054513  0.23708922  1
  Ca2+  Ca4  1  0.05612934  0.74881320  0.58394789  1
  Ca2+  Ca5  1  0.05983841  0.72994594  0.93039330  1
  Ca2+  Ca6  1  0.42644078  0.25318012  0.23402067  1
  Ca2+  Ca7  1  0.41605353  0.25998836  0.58122201  1
  Ca2+  Ca8  1  0.43191803  0.24444909  0.92605028  1
  Ca2+  Ca9  1  0.41571931  0.74843045  0.24551555  1
  Ca2+  Ca10  1  0.43158830  0.74488714  0.58184008  1
  Ca2+  Ca11  1  0.40719055  0.74451271  0.92156375  1
  Ca2+  Ca12  1  0.75247975  0.25811162  0.25346295  1
  Ca2+  Ca13  1  0.75094135  0.25653036  0.59219276  1
  Ca2+  Ca14  1  0.72431426  0.24876017  0.91704763  1
  Ca2+  Ca15  1  0.75386198  0.76357890  0.24796200  1
  Ca2+  Ca16  1  0.75820832  0.74687381  0.58820334  1
  Ca2+  Ca17  1  0.76747729  0.75104222  0.91160218  1
  Ca2+  Ca18  1  0.28077587  0.23996979  0.06455205  1
  Ca2+  Ca19  1  0.26433083  0.25530236  0.42511158  1
  Ca2+  Ca20  1  0.26553526  0.25799981  0.76220445  1
  Ca2+  Ca21  1  0.26413016  0.72498196  0.08091159  1
  Ca2+  Ca22  1  0.25203623  0.75965098  0.41115819  1
  Ca2+  Ca23  1  0.25073111  0.75704445  0.76110471  1
  Ca2+  Ca24  1  0.57231441  0.25932498  0.06686594  1
  Ca2+  Ca25  1  0.58430936  0.26397342  0.42075965  1
  Ca2+  Ca26  1  0.59555473  0.25196028  0.76878979  1
  Ca2+  Ca27  1  0.55851951  0.73884619  0.08622122  1
  Ca2+  Ca28  1  0.57340858  0.74647955  0.41688976  1
  Ca2+  Ca29  1  0.58476833  0.74296860  0.74496777  1
  Ca2+  Ca30  1  0.90051710  0.25960237  0.07714634  1
  Ca2+  Ca31  1  0.90374553  0.25389285  0.42863063  1
  Ca2+  Ca32  1  0.89178725  0.25055680  0.74363627  1
  Ca2+  Ca33  1  0.92659739  0.74166974  0.07886983  1
  Ca2+  Ca34  1  0.91123254  0.75365643  0.42364753  1
  Ca2+  Ca35  1  0.89980111  0.74107691  0.75108721  1
  Ca2+  Ca36  1  0.42275585  0.60604216  0.23549481  1
  Ca2+  Ca37  1  0.26726488  0.08707675  0.76553351  1
  Ca2+  Ca38  1  0.93925525  0.58215110  0.08045528  1
  Ca2+  Ca39  1  0.92371055  0.07553419  0.04768016  1
  Ca2+  Ca40  1  0.59402231  0.60409919  0.73821030  1
  Ca2+  Ca41  1  0.07820176  0.09605634  0.57173851  1
  Ca2+  Ca42  1  0.90403803  0.09157408  0.41586129  1
  Ca2+  Ca43  1  0.45691424  0.60988827  0.58038917  1
  Ca2+  Ca44  1  0.28646533  0.59523294  0.75941831  1
  Ca2+  Ca45  1  0.58374439  0.09166449  0.40863900  1
  Ca2+  Ca46  1  0.25530714  0.08856991  0.76716019  1
  Ca2+  Ca47  1  0.74915253  0.60403214  0.88103343  1
  Ca2+  Ca48  1  0.09444107  0.09095292  0.25719807  1
  Ca2+  Ca49  1  0.91305330  0.07592397  0.04319954  1
  Ca2+  Ca50  1  0.43193941  0.60389136  0.23918816  1
  Ca2+  Ca51  1  0.29133240  0.59821092  0.41255182  1
  Ca2+  Ca52  1  0.41008540  0.11654527  0.23116431  1
  Ca2+  Ca53  1  0.55306313  0.10759007  0.06896462  1
  Ca2+  Ca54  1  0.74277873  0.60073180  0.88786787  1
  Ca2+  Ca55  1  0.44078443  0.59509788  0.93059388  1
  Ca2+  Ca56  1  0.91610508  0.57981369  0.40130992  1
  Ca2+  Ca57  1  0.55696309  0.60655986  0.41799971  1
  Ca2+  Ca58  1  0.07510955  0.59054363  0.23847131  1
  Ca2+  Ca59  1  0.08728300  0.08342537  0.25891394  1
  Ca2+  Ca60  1  0.87957019  0.60672590  0.74380698  1
  Ca2+  Ca61  1  0.25188004  0.09424534  0.41801162  1
  Ca2+  Ca62  1  0.26433615  0.09604496  0.42049485  1
  Ca2+  Ca63  1  0.40674955  0.09366791  0.92845335  1
  Ca2+  Ca64  1  0.09076271  0.09428183  0.57388633  1
  Ca2+  Ca65  1  0.27577986  0.59271358  0.75735112  1
  Ca2+  Ca66  1  0.74050636  0.09850270  0.91036627  1
  Ca2+  Ca67  1  0.56302780  0.10850582  0.06590398  1
  Ca2+  Ca68  1  0.60459486  0.08642618  0.76417809  1
  Ca2+  Ca69  1  0.43274026  0.59834449  0.93544653  1
  Ca2+  Ca70  1  0.73462688  0.09342597  0.26261828  1
  Ca2+  Ca71  1  0.73765708  0.60174254  0.60783714  1
  Ca2+  Ca72  1  0.07804467  0.41438658  0.93413132  1
  Ca2+  Ca73  1  0.06340355  0.42370453  0.24566222  1
  Ca2+  Ca74  1  0.73508573  0.41440457  0.25645060  1
  Ca2+  Ca75  1  0.91290561  0.90640999  0.08338125  1
  Ca2+  Ca76  1  0.25290315  0.89354779  0.08869358  1
  Ca2+  Ca77  1  0.57483790  0.42178046  0.05185868  1
  Ca2+  Ca78  1  0.88138564  0.91177009  0.76746092  1
  Ca2+  Ca79  1  0.58143813  0.88922842  0.08527843  1
  Ca2+  Ca80  1  0.91639269  0.41555039  0.39990366  1
  Ca2+  Ca81  1  0.07667710  0.90168696  0.25214093  1
  Ca2+  Ca82  1  0.09435552  0.41108753  0.59100666  1
  Ca2+  Ca83  1  0.42315437  0.40857278  0.58520278  1
  Ca2+  Ca84  1  0.89104410  0.41360137  0.75595143  1
  Ca2+  Ca85  1  0.90274892  0.41616537  0.75272736  1
  Ca2+  Ca86  1  0.08627010  0.89947416  0.57568685  1
  Ca2+  Ca87  1  0.90520403  0.41553427  0.40144447  1
  Ca2+  Ca88  1  0.27041797  0.90886314  0.74213949  1
  Ca2+  Ca89  1  0.42436039  0.90981329  0.91013290  1
  Ca2+  Ca90  1  0.58399643  0.91250103  0.74280612  1
  Ca2+  Ca91  1  0.58082719  0.89950540  0.42490148  1
  Ca2+  Ca92  1  0.41212301  0.91235422  0.91067615  1
  Ca2+  Ca93  1  0.44728697  0.41023905  0.25097982  1
  Ca2+  Ca94  1  0.42042525  0.90568253  0.59543041  1
  Ca2+  Ca95  1  0.25553259  0.40505606  0.42106981  1
  Ca2+  Ca96  1  0.08837901  0.41346029  0.93249991  1
  Ca2+  Ca97  1  0.25992948  0.40961732  0.74665286  1
  Ca2+  Ca98  1  0.73756410  0.90639191  0.59940757  1
  Ca2+  Ca99  1  0.73397603  0.41653472  0.60227283  1
  Ca2+  Ca100  1  0.43485644  0.41095191  0.25142923  1
  Ca2+  Ca101  1  0.24327796  0.41152628  0.07631339  1
  Ca2+  Ca102  1  0.41843695  0.89026306  0.24949371  1
  Ca2+  Ca103  1  0.06993407  0.89990201  0.91201059  1
  Ca2+  Ca104  1  0.91360775  0.90286285  0.41537509  1
  Ca2+  Ca105  1  0.07836531  0.90343257  0.91584460  1
  Ca2+  Ca106  1  0.92427684  0.90594307  0.08221027  1
  Ca2+  Ca107  1  0.92693848  0.41309209  0.08712751  1
  Mn3.34+  Mn108  1  0.08707478  0.33143447  0.08832669  1
  Mn3.34+  Mn109  1  0.08903080  0.33297337  0.41668506  1
  Mn3.34+  Mn110  1  0.08126222  0.33417283  0.75475998  1
  Mn3.34+  Mn111  1  0.08790701  0.82961780  0.08735082  1
  Mn3.34+  Mn112  1  0.08517417  0.83338427  0.41621634  1
  Mn3.34+  Mn113  1  0.08254755  0.83316048  0.74554878  1
  Mn3.34+  Mn114  1  0.41648290  0.33651171  0.07843944  1
  Mn3.34+  Mn115  1  0.42147846  0.33428529  0.41773933  1
  Mn3.34+  Mn116  1  0.42561028  0.33650725  0.75249747  1
  Mn3.34+  Mn117  1  0.41379508  0.82820112  0.08340771  1
  Mn3.34+  Mn118  1  0.41361269  0.83566410  0.42370608  1
  Mn3.34+  Mn119  1  0.42261102  0.82993668  0.75199608  1
  Mn3.34+  Mn120  1  0.74560746  0.33553561  0.08058759  1
  Mn3.34+  Mn121  1  0.74268448  0.33772713  0.42093322  1
  Mn3.34+  Mn122  1  0.74015299  0.33780927  0.75640456  1
  Mn3.34+  Mn123  1  0.74698945  0.82844886  0.07922445  1
  Mn3.34+  Mn124  1  0.74774251  0.83700636  0.41708236  1
  Mn3.34+  Mn125  1  0.74342496  0.83321081  0.75564208  1
  Mn3.34+  Mn126  1  0.25095685  0.32809971  0.24480209  1
  Mn3.34+  Mn127  1  0.25050208  0.33322905  0.58507526  1
  Mn3.34+  Mn128  1  0.26157790  0.33645192  0.91381435  1
  Mn3.34+  Mn129  1  0.24905841  0.82935769  0.25420963  1
  Mn3.34+  Mn130  1  0.25166701  0.83256023  0.58233743  1
  Mn3.34+  Mn131  1  0.25008209  0.83115807  0.91491569  1
  Mn3.34+  Mn132  1  0.59104063  0.33784544  0.24068237  1
  Mn3.34+  Mn133  1  0.58334243  0.33503948  0.58734064  1
  Mn3.34+  Mn134  1  0.58048447  0.34272521  0.91173965  1
  Mn3.34+  Mn135  1  0.58845979  0.82828933  0.25213905  1
  Mn3.34+  Mn136  1  0.58511015  0.82787227  0.58151682  1
  Mn3.34+  Mn137  1  0.58815017  0.82962976  0.91063436  1
  Mn3.34+  Mn138  1  0.91363892  0.33741335  0.24447610  1
  Mn3.34+  Mn139  1  0.91880316  0.33691969  0.57947894  1
  Mn3.34+  Mn140  1  0.91382288  0.33218103  0.91565589  1
  Mn3.34+  Mn141  1  0.91285743  0.83019855  0.25154367  1
  Mn3.34+  Mn142  1  0.91312505  0.83312489  0.58577802  1
  Mn3.34+  Mn143  1  0.91214985  0.83206974  0.91421255  1
  Mn3.34+  Mn144  1  0.90951217  0.16174075  0.24238646  1
  Mn3.34+  Mn145  1  0.58215127  0.16206818  0.58239351  1
  Mn3.34+  Mn146  1  0.24867742  0.66498372  0.91948073  1
  Mn3.34+  Mn147  1  0.75419202  0.66674354  0.41354948  1
  Mn3.34+  Mn148  1  0.41956273  0.16642585  0.74771924  1
  Mn3.34+  Mn149  1  0.42882389  0.16059853  0.74934297  1
  Mn3.34+  Mn150  1  0.90760501  0.16779441  0.58470006  1
  Mn3.34+  Mn151  1  0.24514798  0.66298164  0.57990467  1
  Mn3.34+  Mn152  1  0.09481522  0.16667332  0.07922209  1
  Mn3.34+  Mn153  1  0.92008805  0.17101410  0.24668417  1
  Mn3.34+  Mn154  1  0.74455158  0.65932176  0.41646337  1
  Mn3.34+  Mn155  1  0.75297768  0.16195949  0.75361645  1
  Mn3.34+  Mn156  1  0.58725131  0.17340627  0.24933344  1
  Mn3.34+  Mn157  1  0.74146278  0.65890813  0.08872870  1
  Mn3.34+  Mn158  1  0.91832554  0.16189686  0.90432219  1
  Mn3.34+  Mn159  1  0.58139218  0.67120207  0.90947999  1
  Mn3.34+  Mn160  1  0.25794610  0.67036905  0.58157983  1
  Mn3.34+  Mn161  1  0.58537290  0.66677367  0.25117466  1
  Mn3.34+  Mn162  1  0.08571974  0.66394891  0.74980598  1
  Mn3.34+  Mn163  1  0.08700227  0.65721726  0.08218443  1
  Mn3.34+  Mn164  1  0.08351478  0.17798085  0.75074442  1
  Mn3.34+  Mn165  1  0.25031196  0.66793880  0.24825247  1
  Mn3.34+  Mn166  1  0.07591506  0.65855069  0.75082885  1
  Mn3.34+  Mn167  1  0.08859012  0.66146506  0.41764842  1
  Mn3.34+  Mn168  1  0.25522501  0.16988963  0.58415797  1
  Mn3.34+  Mn169  1  0.74899005  0.17120134  0.08559274  1
  Mn3.34+  Mn170  1  0.74890871  0.16929103  0.41973505  1
  Mn3.34+  Mn171  1  0.42131137  0.16907465  0.41497332  1
  Mn3.34+  Mn172  1  0.59295011  0.15757315  0.58072789  1
  Mn3.34+  Mn173  1  0.24864725  0.17755550  0.24891929  1
  Mn3.34+  Mn174  1  0.08552703  0.17234241  0.07969360  1
  Mn3.34+  Mn175  1  0.08087364  0.18038085  0.41623402  1
  Mn3.34+  Mn176  1  0.75231031  0.66332756  0.08759100  1
  Mn3.34+  Mn177  1  0.07286891  0.17215440  0.75384662  1
  Mn3.34+  Mn178  1  0.07841418  0.66642809  0.41621505  1
  Mn3.34+  Mn179  1  0.91627677  0.66002955  0.24466222  1
  Mn3.34+  Mn180  1  0.73224879  -0.00401180  0.09509735  1
  Mn3.34+  Mn181  1  0.74556847  0.00276766  0.42283424  1
  Mn3.34+  Mn182  1  0.58550094  0.49920515  0.59070691  1
  Mn3.34+  Mn183  1  0.08258215  -0.00305802  0.41320620  1
  Mn3.34+  Mn184  1  0.92022823  0.50246029  0.93276617  1
  Mn3.34+  Mn185  1  0.25163201  0.49684359  0.24379144  1
  Mn3.34+  Mn186  1  0.26806917  0.00346835  0.23964985  1
  Mn3.34+  Mn187  1  0.42373468  0.49786715  0.41068012  1
  Mn3.34+  Mn188  1  0.58769021  -0.00331198  0.91834228  1
  Mn3.34+  Mn189  1  0.90362335  -0.00031070  0.25722735  1
  Mn3.34+  Mn190  1  0.08738635  0.49806185  0.75349563  1
  Mn3.34+  Mn191  1  0.25211129  0.50119967  0.59314021  1
  Mn3.34+  Mn192  1  0.57293487  0.00040916  0.24831685  1
  Mn3.34+  Mn193  1  0.24209822  0.50118468  0.92991036  1
  Mn3.34+  Mn194  1  0.24796794  -0.00350448  0.92810246  1
  Mn3.34+  Mn195  1  0.73614607  0.50124773  0.40472838  1
  Mn3.34+  Mn196  1  0.74309434  0.49925925  0.07397093  1
  Mn3.34+  Mn197  1  0.41985223  0.49749172  0.06617161  1
  Mn3.34+  Mn198  1  0.24148366  0.50305957  0.24189562  1
  Mn3.34+  Mn199  1  0.08195195  0.00862244  0.74896009  1
  Mn3.34+  Mn200  1  0.88343732  0.00589071  0.59226227  1
  Mn3.34+  Mn201  1  0.43370883  0.49761301  0.75134208  1
  Mn3.34+  Mn202  1  0.41822188  0.00060152  0.42566343  1
  Mn3.34+  Mn203  1  0.91394649  0.50112560  0.58461299  1
  Mn3.34+  Mn204  1  0.57755308  -0.00043176  0.60026713  1
  Mn3.34+  Mn205  1  0.89620978  0.00315422  0.59033098  1
  Mn3.34+  Mn206  1  0.10302671  -0.00123433  0.08065294  1
  Mn3.34+  Mn207  1  0.58642193  -0.00647676  0.24894352  1
  Mn3.34+  Mn208  1  0.92645173  0.50848756  0.58614500  1
  Mn3.34+  Mn209  1  0.41590717  -0.00478372  0.08449396  1
  Mn3.34+  Mn210  1  0.09093346  0.49982661  0.41970504  1
  Mn3.34+  Mn211  1  0.73267753  0.50453533  0.07412360  1
  Mn3.34+  Mn212  1  0.26214686  -0.00056027  0.59213373  1
  Mn3.34+  Mn213  1  0.25753318  -0.00266323  0.23964367  1
  Mn3.34+  Mn214  1  0.74408028  -0.00044377  0.09592039  1
  Mn3.34+  Mn215  1  0.06703702  0.00398984  0.75175740  1
  O2-  O216  1  -0.00173455  0.16932543  -0.00297011  1
  O2-  O217  1  0.00198600  0.14760770  0.32909534  1
  O2-  O218  1  -0.00011175  0.15725257  0.66706177  1
  O2-  O219  1  -0.00098792  0.65927155  0.01312955  1
  O2-  O220  1  0.00120917  0.64901262  0.33037030  1
  O2-  O221  1  -0.00416886  0.65696188  0.67259010  1
  O2-  O222  1  0.34732842  0.16700644  -0.00410372  1
  O2-  O223  1  0.32596546  0.15948526  0.33396831  1
  O2-  O224  1  0.32995286  0.14699783  0.67481954  1
  O2-  O225  1  0.33773770  0.65390659  -0.01271510  1
  O2-  O226  1  0.33800152  0.66229203  0.32378455  1
  O2-  O227  1  0.34120993  0.65404515  0.66032909  1
  O2-  O228  1  0.66744230  0.15221449  0.01232296  1
  O2-  O229  1  0.66208206  0.16278209  0.33857357  1
  O2-  O230  1  0.66372901  0.15116579  0.66946555  1
  O2-  O231  1  0.66932192  0.66008371  -0.00538216  1
  O2-  O232  1  0.66340932  0.64830109  0.33783920  1
  O2-  O233  1  0.66570716  0.67989656  0.66381011  1
  O2-  O234  1  0.17582336  0.17995473  0.00264785  1
  O2-  O235  1  0.16871383  0.15935066  0.33422777  1
  O2-  O236  1  0.15861378  0.14801351  0.66601462  1
  O2-  O237  1  0.16733812  0.66190414  0.00002669  1
  O2-  O238  1  0.17058237  0.64458960  0.34102107  1
  O2-  O239  1  0.17571197  0.64232022  0.67153367  1
  O2-  O240  1  0.48613313  0.16287199  -0.00809720  1
  O2-  O241  1  0.49919278  0.15634948  0.32641837  1
  O2-  O242  1  0.49687712  0.13935968  0.66129483  1
  O2-  O243  1  0.50556698  0.67242974  -0.00646121  1
  O2-  O244  1  0.49835790  0.67234861  0.32770013  1
  O2-  O245  1  0.51661060  0.67720672  0.66421219  1
  O2-  O246  1  0.83450962  0.15711851  0.00614274  1
  O2-  O247  1  0.82855369  0.14841587  0.32958398  1
  O2-  O248  1  0.83154540  0.16163285  0.66551671  1
  O2-  O249  1  0.82557772  0.63585716  0.00736802  1
  O2-  O250  1  0.83440264  0.64691823  0.33463972  1
  O2-  O251  1  0.80951772  0.67776458  0.67280399  1
  O2-  O252  1  0.00475653  0.32965533  -0.00118088  1
  O2-  O253  1  0.00438559  0.34695998  0.33148447  1
  O2-  O254  1  -0.00341151  0.35056953  0.67045965  1
  O2-  O255  1  0.00004945  0.84655046  0.00446333  1
  O2-  O256  1  -0.00203516  0.84360537  0.33205399  1
  O2-  O257  1  -0.00056408  0.84994183  0.66495077  1
  O2-  O258  1  0.32731769  0.35125138  0.00729143  1
  O2-  O259  1  0.33330205  0.34853114  0.32968417  1
  O2-  O260  1  0.33309907  0.34699692  0.66201403  1
  O2-  O261  1  0.33651326  0.85052337  -0.00506280  1
  O2-  O262  1  0.33934717  0.82593200  0.33132281  1
  O2-  O263  1  0.33964672  0.83190446  0.67016189  1
  O2-  O264  1  0.65995393  0.34469881  0.00772378  1
  O2-  O265  1  0.66595962  0.33114076  0.32752690  1
  O2-  O266  1  0.66683533  0.34150571  0.66682501  1
  O2-  O267  1  0.65834056  0.82543377  0.00148718  1
  O2-  O268  1  0.66382609  0.85036197  0.33597845  1
  O2-  O269  1  0.66584286  0.82450517  0.66853582  1
  O2-  O270  1  0.16348028  0.34114942  -0.00368321  1
  O2-  O271  1  0.17164235  0.31006613  0.33301659  1
  O2-  O272  1  0.16100925  0.33718699  0.66590857  1
  O2-  O273  1  0.16543602  0.85108725  -0.00269984  1
  O2-  O274  1  0.16793952  0.85001556  0.33301860  1
  O2-  O275  1  0.17146919  0.85436888  0.66852377  1
  O2-  O276  1  0.49929368  0.34633223  0.00262507  1
  O2-  O277  1  0.50267066  0.33616864  0.32341663  1
  O2-  O278  1  0.49357000  0.34128519  0.65934869  1
  O2-  O279  1  0.49640588  0.84377547  -0.00620501  1
  O2-  O280  1  0.49889777  0.83438043  0.33725847  1
  O2-  O281  1  0.50289047  0.82678412  0.66639126  1
  O2-  O282  1  0.84235532  0.34329415  0.00770717  1
  O2-  O283  1  0.82858105  0.35380061  0.32925152  1
  O2-  O284  1  0.83313701  0.35056048  0.66094023  1
  O2-  O285  1  0.83205592  0.85277839  -0.00098010  1
  O2-  O286  1  0.83267356  0.84626103  0.33230387  1
  O2-  O287  1  0.82659331  0.84192822  0.66879018  1
  O2-  O288  1  -0.00018669  0.19302996  0.15962952  1
  O2-  O289  1  0.00351974  0.17942283  0.50725377  1
  O2-  O290  1  -0.00001897  0.19949263  0.83380454  1
  O2-  O291  1  0.00200693  0.67967170  0.17149933  1
  O2-  O292  1  -0.00137177  0.68345130  0.48932154  1
  O2-  O293  1  -0.00406699  0.67512711  0.82811235  1
  O2-  O294  1  0.33121221  0.19299663  0.17909267  1
  O2-  O295  1  0.33118753  0.17795880  0.49151459  1
  O2-  O296  1  0.33775075  0.17618998  0.82850761  1
  O2-  O297  1  0.33643069  0.67469669  0.17610272  1
  O2-  O298  1  0.32984785  0.68518171  0.49685584  1
  O2-  O299  1  0.32515657  0.67580953  0.83039547  1
  O2-  O300  1  0.67757240  0.18248867  0.17666880  1
  O2-  O301  1  0.67016660  0.18872399  0.50160908  1
  O2-  O302  1  0.67344234  0.17505053  0.83081290  1
  O2-  O303  1  0.66685297  0.68398973  0.16531020  1
  O2-  O304  1  0.66684816  0.67870903  0.49357140  1
  O2-  O305  1  0.66552438  0.68589432  0.84096848  1
  O2-  O306  1  0.15269614  0.18496266  0.18235202  1
  O2-  O307  1  0.16614514  0.18534709  0.50325544  1
  O2-  O308  1  0.17298631  0.18795744  0.81884546  1
  O2-  O309  1  0.16233243  0.67572524  0.17392404  1
  O2-  O310  1  0.16604002  0.68662039  0.50221689  1
  O2-  O311  1  0.16920471  0.67630956  0.82624920  1
  O2-  O312  1  0.51274662  0.18116299  0.16431121  1
  O2-  O313  1  0.51106320  0.17625904  0.49394984  1
  O2-  O314  1  0.50989507  0.17626659  0.82269748  1
  O2-  O315  1  0.50105143  0.67956024  0.17632424  1
  O2-  O316  1  0.50007319  0.68468878  0.49778812  1
  O2-  O317  1  0.49919724  0.68862543  0.84072084  1
  O2-  O318  1  0.83414166  0.18852246  0.16231306  1
  O2-  O319  1  0.84036377  0.17416670  0.48941019  1
  O2-  O320  1  0.83173306  0.18560909  0.83896484  1
  O2-  O321  1  0.83506494  0.68145175  0.16558560  1
  O2-  O322  1  0.82868891  0.68265950  0.49368200  1
  O2-  O323  1  0.82470276  0.67590950  0.83319103  1
  O2-  O324  1  -0.00207108  0.31527128  0.16227159  1
  O2-  O325  1  0.00327542  0.31623385  0.49522108  1
  O2-  O326  1  0.00051017  0.31357824  0.83542206  1
  O2-  O327  1  -0.00151069  0.82158585  0.16351836  1
  O2-  O328  1  -0.00277072  0.82092540  0.49830332  1
  O2-  O329  1  0.00822453  0.82053892  0.84242929  1
  O2-  O330  1  0.34369701  0.32975162  0.17491697  1
  O2-  O331  1  0.33215631  0.32416733  0.50055202  1
  O2-  O332  1  0.33359718  0.33263050  0.82459991  1
  O2-  O333  1  0.32945834  0.81798550  0.16546716  1
  O2-  O334  1  0.33553752  0.81032662  0.50356162  1
  O2-  O335  1  0.33828665  0.81767617  0.83532962  1
  O2-  O336  1  0.66830975  0.31177385  0.16649011  1
  O2-  O337  1  0.67034240  0.32006707  0.50819385  1
  O2-  O338  1  0.66852489  0.32332201  0.83842420  1
  O2-  O339  1  0.66259213  0.81494112  0.15990497  1
  O2-  O340  1  0.66558200  0.81512701  0.50112964  1
  O2-  O341  1  0.66792350  0.80517363  0.83249239  1
  O2-  O342  1  0.17204854  0.30379369  0.15969615  1
  O2-  O343  1  0.16879227  0.31402743  0.49911715  1
  O2-  O344  1  0.16901669  0.31941002  0.83046414  1
  O2-  O345  1  0.16685863  0.82777665  0.17098037  1
  O2-  O346  1  0.16115453  0.82053432  0.50630715  1
  O2-  O347  1  0.16796913  0.83178173  0.83324065  1
  O2-  O348  1  0.50270554  0.32252212  0.16649238  1
  O2-  O349  1  0.49966528  0.32183763  0.50309424  1
  O2-  O350  1  0.50031370  0.31773387  0.83118446  1
  O2-  O351  1  0.49771514  0.81767697  0.16662211  1
  O2-  O352  1  0.50193631  0.81521549  0.50034335  1
  O2-  O353  1  0.49947790  0.81136643  0.83594114  1
  O2-  O354  1  0.83081493  0.32304272  0.16795100  1
  O2-  O355  1  0.84223317  0.33303794  0.49123825  1
  O2-  O356  1  0.83949504  0.32460953  0.82554744  1
  O2-  O357  1  0.83984317  0.82716835  0.15617183  1
  O2-  O358  1  0.83318033  0.82570722  0.49923380  1
  O2-  O359  1  0.83668434  0.81957684  0.82535547  1
  O2-  O360  1  0.07994549  0.08249930  0.12163059  1
  O2-  O361  1  0.10742937  0.08159008  0.44168612  1
  O2-  O362  1  0.09812122  0.08574539  0.79344338  1
  O2-  O363  1  0.07843145  0.57922342  0.10706235  1
  O2-  O364  1  0.07995252  0.58040692  0.44989276  1
  O2-  O365  1  0.09969873  0.57837632  0.77995097  1
  O2-  O366  1  0.43512032  0.07373551  0.11548598  1
  O2-  O367  1  0.40278119  0.08381318  0.44213215  1
  O2-  O368  1  0.40885896  0.08013415  0.78628718  1
  O2-  O369  1  0.40652140  0.56585393  0.11360632  1
  O2-  O370  1  0.42436186  0.57326014  0.45029678  1
  O2-  O371  1  0.41459298  0.57173884  0.80237949  1
  O2-  O372  1  0.76241672  0.08151167  0.12350660  1
  O2-  O373  1  0.73952218  0.08513909  0.44160635  1
  O2-  O374  1  0.74609839  0.08303437  0.77872949  1
  O2-  O375  1  0.74436447  0.57792816  0.13368204  1
  O2-  O376  1  0.74858975  0.57821314  0.45182948  1
  O2-  O377  1  0.73056082  0.57772920  0.75964819  1
  O2-  O378  1  0.24317488  0.08428644  0.21503662  1
  O2-  O379  1  0.23347425  0.08201333  0.55044125  1
  O2-  O380  1  0.26145336  0.07345755  0.89699087  1
  O2-  O381  1  0.25769347  0.58370393  0.22875883  1
  O2-  O382  1  0.25829966  0.58300246  0.54567120  1
  O2-  O383  1  0.25635634  0.57801911  0.88983438  1
  O2-  O384  1  0.59517368  0.07872430  0.20615273  1
  O2-  O385  1  0.58592406  0.07262163  0.54467078  1
  O2-  O386  1  0.58180775  0.07466070  0.89821439  1
  O2-  O387  1  0.56124996  0.58657957  0.24635517  1
  O2-  O388  1  0.58785312  0.56686558  0.53962421  1
  O2-  O389  1  0.57311745  0.59143194  0.88182690  1
  O2-  O390  1  0.92868947  0.08094271  0.19686542  1
  O2-  O391  1  0.94228202  0.07640257  0.54232630  1
  O2-  O392  1  0.90410048  0.07892974  0.91224006  1
  O2-  O393  1  0.93123657  0.58088638  0.22181769  1
  O2-  O394  1  0.89680926  0.58232499  0.54853155  1
  O2-  O395  1  0.87624597  0.55887098  0.86557546  1
  O2-  O396  1  0.08364757  0.41048238  0.11042676  1
  O2-  O397  1  0.09999136  0.41915008  0.44734027  1
  O2-  O398  1  0.07325872  0.42114974  0.79501770  1
  O2-  O399  1  0.08644663  0.91653008  0.11638932  1
  O2-  O400  1  0.06777221  0.91634614  0.43961171  1
  O2-  O401  1  0.07817954  0.92307638  0.77932555  1
  O2-  O402  1  0.42029156  0.42576287  0.11796527  1
  O2-  O403  1  0.41001830  0.41859349  0.44032365  1
  O2-  O404  1  0.41255947  0.41895355  0.75508913  1
  O2-  O405  1  0.41343777  0.91504881  0.11381110  1
  O2-  O406  1  0.43508042  0.92150526  0.45540363  1
  O2-  O407  1  0.41976005  0.91595407  0.77730796  1
  O2-  O408  1  0.73857510  0.42096903  0.11909739  1
  O2-  O409  1  0.75558915  0.42772120  0.45420995  1
  O2-  O410  1  0.75866464  0.41684159  0.76772034  1
  O2-  O411  1  0.72565562  0.91308313  0.10729873  1
  O2-  O412  1  0.74155942  0.92348215  0.45775921  1
  O2-  O413  1  0.72928321  0.90944438  0.77352695  1
  O2-  O414  1  0.23132922  0.41618304  0.21672560  1
  O2-  O415  1  0.24521437  0.41785812  0.55539823  1
  O2-  O416  1  0.22777712  0.42371733  0.88323790  1
  O2-  O417  1  0.27079270  0.91584748  0.22852727  1
  O2-  O418  1  0.27175081  0.91595420  0.56776063  1
  O2-  O419  1  0.26780152  0.91922987  0.88318273  1
  O2-  O420  1  0.57813384  0.41855334  0.21103963  1
  O2-  O421  1  0.57758197  0.42266733  0.56115234  1
  O2-  O422  1  0.57847158  0.42084150  0.90951711  1
  O2-  O423  1  0.56539355  0.91361700  0.22281568  1
  O2-  O424  1  0.58933310  0.92178115  0.56234244  1
  O2-  O425  1  0.56479111  0.91906495  0.88138347  1
  O2-  O426  1  0.92331153  0.41879451  0.22690605  1
  O2-  O427  1  0.94014527  0.42586281  0.53470402  1
  O2-  O428  1  0.93457938  0.42416699  0.88363993  1
  O2-  O429  1  0.92922640  0.91898494  0.21852093  1
  O2-  O430  1  0.92257154  0.92476497  0.55122148  1
  O2-  O431  1  0.93710549  0.91923739  0.89322711  1
  O2-  O432  1  -0.01187054  -0.00758540  0.04456312  1
  O2-  O433  1  0.00918756  0.01830991  0.31804875  1
  O2-  O434  1  -0.01233647  0.01405728  0.66818508  1
  O2-  O435  1  0.00408549  0.48112803  0.00147464  1
  O2-  O436  1  -0.00965809  0.49170688  0.36468611  1
  O2-  O437  1  0.00422420  0.48663192  0.67098034  1
  O2-  O438  1  0.34804219  -0.00907212  -0.01544661  1
  O2-  O439  1  0.32911473  0.00964524  0.34344874  1
  O2-  O440  1  0.29490455  0.00512498  0.70809594  1
  O2-  O441  1  0.32971538  0.49146989  0.00352374  1
  O2-  O442  1  0.30608229  0.49881388  0.35523817  1
  O2-  O443  1  0.32850334  0.51279945  0.69024478  1
  O2-  O444  1  0.67195226  0.01003318  -0.00281091  1
  O2-  O445  1  0.66939920  0.01167365  0.32987155  1
  O2-  O446  1  0.65124599  -0.00425607  0.67653646  1
  O2-  O447  1  0.67565482  0.51475878  -0.02245945  1
  O2-  O448  1  0.66783674  0.48810660  0.32918438  1
  O2-  O449  1  0.67589045  0.50557077  0.64224090  1
  O2-  O450  1  0.14115128  -0.01818282  -0.03364885  1
  O2-  O451  1  0.16833164  0.01247654  0.32200393  1
  O2-  O452  1  0.14097666  0.00880704  0.64402687  1
  O2-  O453  1  0.16530738  0.48059231  0.00139718  1
  O2-  O454  1  0.14228978  0.49664391  0.30886192  1
  O2-  O455  1  0.17062417  0.47945841  0.67860140  1
  O2-  O456  1  0.50425298  -0.00421543  0.00105306  1
  O2-  O457  1  0.50455223  0.00516893  0.34363721  1
  O2-  O458  1  0.48988623  -0.01419813  0.65689977  1
  O2-  O459  1  0.49520406  0.51160656  -0.00598993  1
  O2-  O460  1  0.46387396  0.50060149  0.30283650  1
  O2-  O461  1  0.49869585  0.51781091  0.65636476  1
  O2-  O462  1  0.84167509  -0.00852082  0.03095299  1
  O2-  O463  1  0.84851806  0.00561560  0.36509936  1
  O2-  O464  1  0.82470653  -0.02428692  0.67836177  1
  O2-  O465  1  0.85437514  0.49949840  0.03221552  1
  O2-  O466  1  0.83533749  0.49715360  0.35697934  1
  O2-  O467  1  0.84268167  0.48992166  0.67523828  1
  O2-  O468  1  0.75356381  0.74695147  0.38544204  1
  O2-  O469  1  0.09114214  0.74852649  0.38421780  1
  O2-  O470  1  0.91358265  0.75473674  0.94144288  1
  O2-  O471  1  0.23300691  0.74851600  0.27281675  1
  O2-  O472  1  0.76909794  0.74597421  0.05558319  1
  O2-  O473  1  0.91218239  0.25263397  0.28410193  1
  O2-  O474  1  0.91249910  0.25444790  0.60245737  1
  O2-  O475  1  0.91149626  0.74839383  0.27663703  1
  O2-  O476  1  0.09631512  0.74580031  0.72197163  1
  O2-  O477  1  0.26014682  0.24989112  0.61440386  1
  O2-  O478  1  0.57755243  0.24528717  0.61079515  1
  O2-  O479  1  0.08628313  0.75029898  0.06640249  1
  O2-  O480  1  0.40912445  0.75187438  0.06152625  1
  O2-  O481  1  0.26828560  0.25885833  0.92682879  1
  O2-  O482  1  0.74667419  0.25135914  0.72921526  1
  O2-  O483  1  0.24952123  0.74999560  0.93819415  1
  O2-  O484  1  0.75270534  0.25134430  0.05454959  1
  O2-  O485  1  0.91485517  0.75554651  0.60536949  1
  O2-  O486  1  0.58322610  0.25852938  0.93080317  1
  O2-  O487  1  0.41960153  0.25834205  0.06596072  1
  O2-  O488  1  0.23664011  0.74747627  0.61856207  1
  O2-  O489  1  0.41769148  0.25116879  0.39417962  1
  O2-  O490  1  0.76188650  0.25088800  0.39566445  1
  O2-  O491  1  0.60364220  0.75041371  0.27720221  1
  O2-  O492  1  0.41491126  0.24800108  0.72141211  1
