# generated using pymatgen
data_Ca108Mn108O277
_symmetry_space_group_name_H-M   'P 1'
_cell_length_a   16.02757296
_cell_length_b   22.30760637
_cell_length_c   16.39010461
_cell_angle_alpha   90.00456393
_cell_angle_beta   90.00659742
_cell_angle_gamma   89.99975463
_symmetry_Int_Tables_number   1
_chemical_formula_structural   Ca108Mn108O277
_chemical_formula_sum   'Ca108 Mn108 O277'
_cell_volume   5860.06531309
_cell_formula_units_Z   1
loop_
 _symmetry_equiv_pos_site_id
 _symmetry_equiv_pos_as_xyz
  1  'x, y, z'
loop_
 _atom_type_symbol
 _atom_type_oxidation_number
  Ca2+  2.0
  Mn3.34+  3.34
  O2-  -2.0
loop_
 _atom_site_type_symbol
 _atom_site_label
 _atom_site_symmetry_multiplicity
 _atom_site_fract_x
 _atom_site_fract_y
 _atom_site_fract_z
 _atom_site_occupancy
  Ca2+  Ca0  1  0.07769347  0.25991189  0.25567699  1
  Ca2+  Ca1  1  0.07171128  0.26651357  0.58384037  1
  Ca2+  Ca2  1  0.07724765  0.25571571  0.91013732  1
  Ca2+  Ca3  1  0.10936721  0.74310272  0.25447804  1
  Ca2+  Ca4  1  0.07286650  0.74395279  0.57996447  1
  Ca2+  Ca5  1  0.08517460  0.74845233  0.92348404  1
  Ca2+  Ca6  1  0.42534880  0.25111899  0.25384691  1
  Ca2+  Ca7  1  0.41757625  0.27126687  0.58335271  1
  Ca2+  Ca8  1  0.43423668  0.25291350  0.90774377  1
  Ca2+  Ca9  1  0.40498500  0.73748410  0.26777869  1
  Ca2+  Ca10  1  0.41757891  0.74776029  0.57517986  1
  Ca2+  Ca11  1  0.42595901  0.75198748  0.90919561  1
  Ca2+  Ca12  1  0.73796208  0.24478590  0.25481204  1
  Ca2+  Ca13  1  0.75814217  0.24047782  0.58390960  1
  Ca2+  Ca14  1  0.74410327  0.24486550  0.91955207  1
  Ca2+  Ca15  1  0.73954671  0.74873084  0.26798776  1
  Ca2+  Ca16  1  0.75447051  0.75039561  0.55803609  1
  Ca2+  Ca17  1  0.73459204  0.75369076  0.92780190  1
  Ca2+  Ca18  1  0.24650564  0.25385708  0.09644645  1
  Ca2+  Ca19  1  0.24967695  0.25298276  0.40708434  1
  Ca2+  Ca20  1  0.24600138  0.26723237  0.74515715  1
  Ca2+  Ca21  1  0.24853032  0.75186488  0.09523584  1
  Ca2+  Ca22  1  0.25672152  0.74931984  0.40837847  1
  Ca2+  Ca23  1  0.25536818  0.75046578  0.74693255  1
  Ca2+  Ca24  1  0.61168317  0.23932273  0.08208766  1
  Ca2+  Ca25  1  0.61108143  0.24619228  0.41344844  1
  Ca2+  Ca26  1  0.61501783  0.23361238  0.75718871  1
  Ca2+  Ca27  1  0.59617997  0.74864197  0.08247651  1
  Ca2+  Ca28  1  0.58804139  0.75721991  0.41286361  1
  Ca2+  Ca29  1  0.56915262  0.74912063  0.75324211  1
  Ca2+  Ca30  1  0.88683941  0.24609332  0.08952331  1
  Ca2+  Ca31  1  0.89354319  0.24909950  0.42130594  1
  Ca2+  Ca32  1  0.90239782  0.25538236  0.74213057  1
  Ca2+  Ca33  1  0.90831508  0.75346488  0.08511945  1
  Ca2+  Ca34  1  0.90864816  0.74460924  0.42690481  1
  Ca2+  Ca35  1  0.92380551  0.76182451  0.73705209  1
  Ca2+  Ca36  1  0.72849291  0.61113547  0.25891487  1
  Ca2+  Ca37  1  0.24587424  0.58875187  0.37059169  1
  Ca2+  Ca38  1  0.43158214  0.61738144  0.58579957  1
  Ca2+  Ca39  1  0.59770478  0.62428484  0.42851408  1
  Ca2+  Ca40  1  0.58897049  0.62072908  0.42543731  1
  Ca2+  Ca41  1  0.59422839  0.61055273  0.09484455  1
  Ca2+  Ca42  1  0.15765575  0.09396640  0.25836626  1
  Ca2+  Ca43  1  0.06931237  0.10324796  0.57699523  1
  Ca2+  Ca44  1  0.26441441  0.59642883  0.74799964  1
  Ca2+  Ca45  1  0.88148601  0.10360318  0.75354714  1
  Ca2+  Ca46  1  0.43511640  0.61719726  0.89750634  1
  Ca2+  Ca47  1  0.25368644  0.59555021  0.74723826  1
  Ca2+  Ca48  1  0.22625536  0.59811247  0.12192270  1
  Ca2+  Ca49  1  0.55170234  0.62374336  0.75041797  1
  Ca2+  Ca50  1  0.14670364  0.09817720  0.26069813  1
  Ca2+  Ca51  1  0.41070660  0.07453386  0.57466140  1
  Ca2+  Ca52  1  0.26286994  0.08610397  0.75306125  1
  Ca2+  Ca53  1  0.08195505  0.07109416  0.93541426  1
  Ca2+  Ca54  1  0.71973086  0.59984743  0.92871502  1
  Ca2+  Ca55  1  0.03735716  0.58497118  0.57391639  1
  Ca2+  Ca56  1  0.25115388  0.08317196  0.74968291  1
  Ca2+  Ca57  1  0.38858757  0.07080045  0.25551325  1
  Ca2+  Ca58  1  0.78676811  0.61035338  0.55444334  1
  Ca2+  Ca59  1  0.92797811  0.59208754  0.07604960  1
  Ca2+  Ca60  1  0.77804667  0.61337279  0.55059815  1
  Ca2+  Ca61  1  0.61341437  0.08355681  0.08701127  1
  Ca2+  Ca62  1  0.74039343  0.08807276  0.93230913  1
  Ca2+  Ca63  1  0.86760279  0.08496650  0.08048641  1
  Ca2+  Ca64  1  0.26558654  0.06658867  0.06926202  1
  Ca2+  Ca65  1  0.42364936  0.07470078  0.57502322  1
  Ca2+  Ca66  1  0.73398622  0.08838678  0.24645003  1
  Ca2+  Ca67  1  0.91813969  0.57944389  0.71198532  1
  Ca2+  Ca68  1  0.09373319  0.07145695  0.93562309  1
  Ca2+  Ca69  1  0.73454031  0.09422592  0.93319396  1
  Ca2+  Ca70  1  0.60889999  0.08479179  0.40652899  1
  Ca2+  Ca71  1  0.88844925  0.10608364  0.74634682  1
  Ca2+  Ca72  1  0.57280063  0.91401785  0.08400999  1
  Ca2+  Ca73  1  0.58467556  0.39926062  0.07810462  1
  Ca2+  Ca74  1  0.09642502  0.90110649  0.24705970  1
  Ca2+  Ca75  1  0.73465586  0.91420001  0.26102736  1
  Ca2+  Ca76  1  0.76675229  0.40483327  0.58321693  1
  Ca2+  Ca77  1  0.59467302  0.89675319  0.74686146  1
  Ca2+  Ca78  1  0.58330637  0.91385846  0.08458699  1
  Ca2+  Ca79  1  0.22473876  0.42228105  0.08716217  1
  Ca2+  Ca80  1  0.74843013  0.91650004  0.92861871  1
  Ca2+  Ca81  1  0.41078949  0.40031977  0.92397079  1
  Ca2+  Ca82  1  0.75110117  0.40370493  0.92572584  1
  Ca2+  Ca83  1  0.25442339  0.89712831  0.75086484  1
  Ca2+  Ca84  1  0.91491146  0.40837492  0.08883826  1
  Ca2+  Ca85  1  0.91738717  0.90373576  0.08029796  1
  Ca2+  Ca86  1  0.09583471  0.41436382  0.91818361  1
  Ca2+  Ca87  1  0.22260267  0.42045455  0.73478140  1
  Ca2+  Ca88  1  0.40510134  0.92777244  0.94267808  1
  Ca2+  Ca89  1  0.08869738  0.88834304  0.57823447  1
  Ca2+  Ca90  1  0.92754278  0.40879680  0.08845751  1
  Ca2+  Ca91  1  0.08980808  0.91171075  0.93262998  1
  Ca2+  Ca92  1  0.39942060  0.41410849  0.26581262  1
  Ca2+  Ca93  1  0.94697288  0.43034950  0.70394118  1
  Ca2+  Ca94  1  0.09312259  0.42046506  0.25605790  1
  Ca2+  Ca95  1  0.58749761  0.39527525  0.75449394  1
  Ca2+  Ca96  1  0.41718171  0.89604345  0.57270874  1
  Ca2+  Ca97  1  0.26611718  0.92126052  0.09030378  1
  Ca2+  Ca98  1  0.58246184  0.39959851  0.41620236  1
  Ca2+  Ca99  1  0.38904847  0.41738574  0.26323656  1
  Ca2+  Ca100  1  0.10115226  0.91254459  0.93215755  1
  Ca2+  Ca101  1  0.08432792  0.41438947  0.91783723  1
  Ca2+  Ca102  1  0.58089511  0.90885606  0.41480756  1
  Ca2+  Ca103  1  0.26191703  0.91847791  0.09849267  1
  Ca2+  Ca104  1  0.57491437  0.39628347  0.75547891  1
  Ca2+  Ca105  1  0.74363196  0.89609387  0.57157114  1
  Ca2+  Ca106  1  0.24572219  0.41315548  0.41588652  1
  Ca2+  Ca107  1  0.92380441  0.41348920  0.42295988  1
  Mn3.34+  Mn108  1  0.08162168  0.33317324  0.08793816  1
  Mn3.34+  Mn109  1  0.08235270  0.33631255  0.42054845  1
  Mn3.34+  Mn110  1  0.07926795  0.33450981  0.74771344  1
  Mn3.34+  Mn111  1  0.08340830  0.83656076  0.09038846  1
  Mn3.34+  Mn112  1  0.08360654  0.83082039  0.41542669  1
  Mn3.34+  Mn113  1  0.08213825  0.83162826  0.75269799  1
  Mn3.34+  Mn114  1  0.41476016  0.32663089  0.08838398  1
  Mn3.34+  Mn115  1  0.41697780  0.33469547  0.42284338  1
  Mn3.34+  Mn116  1  0.41155244  0.33022586  0.74602895  1
  Mn3.34+  Mn117  1  0.41731550  0.83628699  0.08592900  1
  Mn3.34+  Mn118  1  0.41500111  0.83806397  0.41411690  1
  Mn3.34+  Mn119  1  0.41832186  0.83067409  0.75133164  1
  Mn3.34+  Mn120  1  0.75008553  0.33313636  0.08846728  1
  Mn3.34+  Mn121  1  0.75150829  0.33381583  0.41491548  1
  Mn3.34+  Mn122  1  0.75633043  0.33063234  0.75051763  1
  Mn3.34+  Mn123  1  0.74879702  0.83782961  0.09022117  1
  Mn3.34+  Mn124  1  0.75415381  0.83823134  0.41344076  1
  Mn3.34+  Mn125  1  0.75362246  0.83522279  0.75273986  1
  Mn3.34+  Mn126  1  0.24637996  0.33299065  0.24835154  1
  Mn3.34+  Mn127  1  0.24587261  0.34011686  0.58072497  1
  Mn3.34+  Mn128  1  0.25254198  0.33277869  0.91698344  1
  Mn3.34+  Mn129  1  0.25595805  0.83455733  0.25541176  1
  Mn3.34+  Mn130  1  0.24967640  0.82700472  0.57958786  1
  Mn3.34+  Mn131  1  0.25409030  0.83082225  0.91463512  1
  Mn3.34+  Mn132  1  0.58353850  0.33185066  0.24821798  1
  Mn3.34+  Mn133  1  0.58599068  0.33098464  0.58000113  1
  Mn3.34+  Mn134  1  0.58436882  0.33052866  0.91930712  1
  Mn3.34+  Mn135  1  0.57730299  0.83398268  0.24846524  1
  Mn3.34+  Mn136  1  0.58313981  0.82726097  0.58150096  1
  Mn3.34+  Mn137  1  0.58068650  0.83275736  0.91429015  1
  Mn3.34+  Mn138  1  0.91371128  0.33756689  0.25558571  1
  Mn3.34+  Mn139  1  0.91769175  0.33600159  0.57918071  1
  Mn3.34+  Mn140  1  0.91570316  0.33449052  0.90971715  1
  Mn3.34+  Mn141  1  0.91736984  0.83309903  0.25211819  1
  Mn3.34+  Mn142  1  0.91627647  0.83068837  0.58101967  1
  Mn3.34+  Mn143  1  0.91205657  0.83204264  0.91202603  1
  Mn3.34+  Mn144  1  0.75385934  0.67332613  0.75539269  1
  Mn3.34+  Mn145  1  0.74568556  0.67958398  0.75396767  1
  Mn3.34+  Mn146  1  0.59568809  0.15695548  0.58366551  1
  Mn3.34+  Mn147  1  0.26021207  0.16726358  0.91334690  1
  Mn3.34+  Mn148  1  0.58518276  0.16162214  0.58424278  1
  Mn3.34+  Mn149  1  0.07515259  0.16216103  0.08984379  1
  Mn3.34+  Mn150  1  0.07187142  0.65908647  0.75605912  1
  Mn3.34+  Mn151  1  0.40939052  0.15986811  0.40994544  1
  Mn3.34+  Mn152  1  0.75207998  0.67030585  0.08603188  1
  Mn3.34+  Mn153  1  0.08083410  0.17294630  0.41973049  1
  Mn3.34+  Mn154  1  0.91808387  0.16261763  0.26119019  1
  Mn3.34+  Mn155  1  0.91919642  0.16912972  0.91510562  1
  Mn3.34+  Mn156  1  0.42643460  0.16796736  0.75028939  1
  Mn3.34+  Mn157  1  0.08355198  0.65876242  0.08170153  1
  Mn3.34+  Mn158  1  0.42361555  0.16547898  0.40849865  1
  Mn3.34+  Mn159  1  0.41109427  0.66675421  0.08903568  1
  Mn3.34+  Mn160  1  0.25115971  0.17280120  0.91631618  1
  Mn3.34+  Mn161  1  0.42337203  0.16340815  0.08481521  1
  Mn3.34+  Mn162  1  0.92878736  0.66162463  0.25068813  1
  Mn3.34+  Mn163  1  0.08230804  0.66355418  0.75494103  1
  Mn3.34+  Mn164  1  0.08977217  0.16864777  0.09035857  1
  Mn3.34+  Mn165  1  0.41554405  0.66827623  0.41635012  1
  Mn3.34+  Mn166  1  0.41306971  0.15870952  0.08704849  1
  Mn3.34+  Mn167  1  0.90699062  0.16255426  0.24894484  1
  Mn3.34+  Mn168  1  0.24777377  0.66330030  0.57439196  1
  Mn3.34+  Mn169  1  0.58375240  0.16453471  0.24711696  1
  Mn3.34+  Mn170  1  0.24284096  0.16471261  0.57725642  1
  Mn3.34+  Mn171  1  0.58190836  0.16503836  0.91345985  1
  Mn3.34+  Mn172  1  0.91882089  0.66669096  0.25051477  1
  Mn3.34+  Mn173  1  0.08016732  0.17148823  0.75357078  1
  Mn3.34+  Mn174  1  0.25279544  0.17028502  0.58028552  1
  Mn3.34+  Mn175  1  0.08613425  0.65851138  0.42093584  1
  Mn3.34+  Mn176  1  0.91439431  0.67158664  0.91994016  1
  Mn3.34+  Mn177  1  0.91115475  0.16976240  0.57330890  1
  Mn3.34+  Mn178  1  0.25054169  0.66773791  0.92071941  1
  Mn3.34+  Mn179  1  0.42064425  0.67169865  0.08632752  1
  Mn3.34+  Mn180  1  0.58211205  0.50048253  0.91761541  1
  Mn3.34+  Mn181  1  0.57292152  0.50212538  0.57634464  1
  Mn3.34+  Mn182  1  0.58842296  0.49758986  0.57708043  1
  Mn3.34+  Mn183  1  0.73843918  0.49991756  0.76135431  1
  Mn3.34+  Mn184  1  0.91236226  0.50422588  0.91111457  1
  Mn3.34+  Mn185  1  0.74613494  0.50323923  0.08615793  1
  Mn3.34+  Mn186  1  0.23937853  0.50343065  0.58904580  1
  Mn3.34+  Mn187  1  0.59093183  0.49603153  0.24702973  1
  Mn3.34+  Mn188  1  0.10376657  0.00206690  0.41855649  1
  Mn3.34+  Mn189  1  0.91770429  0.50376794  0.26361986  1
  Mn3.34+  Mn190  1  0.40959376  0.49991078  0.08776871  1
  Mn3.34+  Mn191  1  0.57553806  0.00025613  0.91948371  1
  Mn3.34+  Mn192  1  0.41250688  0.50271793  0.41845921  1
  Mn3.34+  Mn193  1  0.75353766  0.50466050  0.75847925  1
  Mn3.34+  Mn194  1  0.90830650  0.00005598  0.26590574  1
  Mn3.34+  Mn195  1  0.57749137  0.50278158  0.24868069  1
  Mn3.34+  Mn196  1  0.40886332  0.49336807  0.75244474  1
  Mn3.34+  Mn197  1  0.42865384  0.00069377  0.75637020  1
  Mn3.34+  Mn198  1  0.91058222  0.00523843  0.56419800  1
  Mn3.34+  Mn199  1  0.08805451  0.49967269  0.40739586  1
  Mn3.34+  Mn200  1  0.42166648  0.50429887  0.08652062  1
  Mn3.34+  Mn201  1  0.74987293  0.49543598  0.41169178  1
  Mn3.34+  Mn202  1  0.91459192  -0.00256651  0.91125077  1
  Mn3.34+  Mn203  1  0.56762309  0.00222331  0.26467823  1
  Mn3.34+  Mn204  1  0.24353316  0.50393446  0.92300684  1
  Mn3.34+  Mn205  1  0.91812066  -0.00525383  0.26582855  1
  Mn3.34+  Mn206  1  0.74855006  -0.00455066  0.74015855  1
  Mn3.34+  Mn207  1  0.07855025  0.00207974  0.74151933  1
  Mn3.34+  Mn208  1  0.06677289  -0.00294559  0.74191613  1
  Mn3.34+  Mn209  1  0.59733103  -0.00416112  0.57906979  1
  Mn3.34+  Mn210  1  0.42189457  0.50064403  0.75360695  1
  Mn3.34+  Mn211  1  0.09100490  -0.00403869  0.42009501  1
  Mn3.34+  Mn212  1  0.89839526  -0.00054038  0.56767608  1
  Mn3.34+  Mn213  1  0.44045163  0.00506223  0.75469972  1
  Mn3.34+  Mn214  1  0.92391748  0.50906656  0.91197014  1
  Mn3.34+  Mn215  1  0.24354558  -0.00465575  0.57066693  1
  O2-  O216  1  0.00599541  0.15007678  -0.00629672  1
  O2-  O217  1  -0.00067943  0.15837990  0.33850817  1
  O2-  O218  1  -0.00493651  0.14471156  0.67721149  1
  O2-  O219  1  -0.00402621  0.67193675  0.00781938  1
  O2-  O220  1  0.00661982  0.67389834  0.33288052  1
  O2-  O221  1  -0.00112521  0.65800732  0.66970962  1
  O2-  O222  1  0.33825619  0.18907202  0.00066409  1
  O2-  O223  1  0.33065768  0.16871616  0.32818556  1
  O2-  O224  1  0.33670596  0.14077650  0.66538325  1
  O2-  O225  1  0.33674111  0.64414725  0.00424612  1
  O2-  O226  1  0.33455574  0.66039643  0.34095403  1
  O2-  O227  1  0.32348182  0.65348120  0.66164296  1
  O2-  O228  1  0.65749324  0.15517943  0.00071043  1
  O2-  O229  1  0.65936035  0.15561540  0.32728028  1
  O2-  O230  1  0.66739743  0.15852632  0.66889724  1
  O2-  O231  1  0.66961333  0.66661442  0.00980288  1
  O2-  O232  1  0.65990290  0.67603192  0.33518537  1
  O2-  O233  1  0.66567644  0.66987291  0.67541155  1
  O2-  O234  1  0.17393096  0.14878016  0.00260893  1
  O2-  O235  1  0.15593615  0.18189793  0.33293335  1
  O2-  O236  1  0.16881079  0.14308838  0.67537694  1
  O2-  O237  1  0.16173042  0.66618641  0.00043556  1
  O2-  O238  1  0.16429691  0.67965129  0.34929111  1
  O2-  O239  1  0.16337766  0.64794363  0.66705674  1
  O2-  O240  1  0.49564647  0.16488770  -0.00135380  1
  O2-  O241  1  0.49363103  0.14317678  0.32373307  1
  O2-  O242  1  0.49860514  0.13824138  0.65466899  1
  O2-  O243  1  0.49932838  0.65779846  0.00922665  1
  O2-  O244  1  0.49981967  0.66966130  0.34208801  1
  O2-  O245  1  0.49117733  0.68892306  0.66613148  1
  O2-  O246  1  0.83475615  0.16063528  -0.00845096  1
  O2-  O247  1  0.82559626  0.15374712  0.32779836  1
  O2-  O248  1  0.83599174  0.16215888  0.65792630  1
  O2-  O249  1  0.83174305  0.64664541  -0.00298384  1
  O2-  O250  1  0.83809190  0.65258765  0.32496975  1
  O2-  O251  1  0.83107812  0.66499080  0.67276548  1
  O2-  O252  1  0.00409506  0.34867181  -0.00925757  1
  O2-  O253  1  0.01126008  0.34231763  0.32518616  1
  O2-  O254  1  -0.00001989  0.34053718  0.66572034  1
  O2-  O255  1  0.00517131  0.84411202  -0.00045739  1
  O2-  O256  1  0.00818343  0.82762757  0.32395053  1
  O2-  O257  1  0.00234753  0.84147549  0.66634515  1
  O2-  O258  1  0.33206917  0.31986109  0.00315815  1
  O2-  O259  1  0.33018082  0.34036786  0.33198113  1
  O2-  O260  1  0.32499322  0.35155655  0.67399083  1
  O2-  O261  1  0.33095796  0.85299524  0.00101396  1
  O2-  O262  1  0.33603811  0.84001892  0.33263857  1
  O2-  O263  1  0.33573291  0.83417335  0.66923957  1
  O2-  O264  1  0.67001113  0.34581756  -0.00060870  1
  O2-  O265  1  0.66173504  0.34424667  0.33595963  1
  O2-  O266  1  0.67031076  0.35083986  0.66771317  1
  O2-  O267  1  0.66022039  0.85070026  0.00202989  1
  O2-  O268  1  0.66175249  0.83690602  0.33136680  1
  O2-  O269  1  0.66569974  0.82325814  0.66858173  1
  O2-  O270  1  0.16768474  0.34598157  0.00065226  1
  O2-  O271  1  0.16872120  0.32460129  0.33599663  1
  O2-  O272  1  0.16444292  0.34463107  0.66999150  1
  O2-  O273  1  0.16669711  0.83903463  0.00287992  1
  O2-  O274  1  0.16593781  0.83057303  0.33181743  1
  O2-  O275  1  0.16900537  0.84039933  0.67324196  1
  O2-  O276  1  0.49451844  0.34176512  0.00021250  1
  O2-  O277  1  0.49153433  0.35057172  0.32493990  1
  O2-  O278  1  0.50184960  0.34761043  0.66539621  1
  O2-  O279  1  0.49848570  0.85372502  -0.00343307  1
  O2-  O280  1  0.50431167  0.82631567  0.33658084  1
  O2-  O281  1  0.50065790  0.82779106  0.66676118  1
  O2-  O282  1  0.84401556  0.34348840  0.00337073  1
  O2-  O283  1  0.84443200  0.34815783  0.34675753  1
  O2-  O284  1  0.84102223  0.34799238  0.67489421  1
  O2-  O285  1  0.82831004  0.85113420  0.00003613  1
  O2-  O286  1  0.82904618  0.85145524  0.32466599  1
  O2-  O287  1  0.82680332  0.83186358  0.66321866  1
  O2-  O288  1  -0.00606161  0.18539845  0.17365600  1
  O2-  O289  1  0.00806069  0.18711778  0.50715977  1
  O2-  O290  1  -0.00304622  0.18978280  0.83178658  1
  O2-  O291  1  0.00173230  0.68189925  0.16670660  1
  O2-  O292  1  0.01063707  0.68199665  0.49033878  1
  O2-  O293  1  -0.00321564  0.68927836  0.83600968  1
  O2-  O294  1  0.33732705  0.18890177  0.16033240  1
  O2-  O295  1  0.34766053  0.18268250  0.50439808  1
  O2-  O296  1  0.32271845  0.18534949  0.81872998  1
  O2-  O297  1  0.32824006  0.67432826  0.16043018  1
  O2-  O298  1  0.33611765  0.67490763  0.50554274  1
  O2-  O299  1  0.32306865  0.67790316  0.83492916  1
  O2-  O300  1  0.66319740  0.17299474  0.17256122  1
  O2-  O301  1  0.66578170  0.17250677  0.49904037  1
  O2-  O302  1  0.67537077  0.17003822  0.85157367  1
  O2-  O303  1  0.67819330  0.68490770  0.16715626  1
  O2-  O304  1  0.67517179  0.67205048  0.51101129  1
  O2-  O305  1  0.66694070  0.68408724  0.83433875  1
  O2-  O306  1  0.16558605  0.18339823  0.17635135  1
  O2-  O307  1  0.16537437  0.19118177  0.49668507  1
  O2-  O308  1  0.16293193  0.18943871  0.83845271  1
  O2-  O309  1  0.15930210  0.68378893  0.15290087  1
  O2-  O310  1  0.16323987  0.68197505  0.50165439  1
  O2-  O311  1  0.16799188  0.67628500  0.82912687  1
  O2-  O312  1  0.50131281  0.18754157  0.16288989  1
  O2-  O313  1  0.50287868  0.17419404  0.49800121  1
  O2-  O314  1  0.50624882  0.18653750  0.82942206  1
  O2-  O315  1  0.50071774  0.69049256  0.16272767  1
  O2-  O316  1  0.50196921  0.68282861  0.49604558  1
  O2-  O317  1  0.49074077  0.68868634  0.82884505  1
  O2-  O318  1  0.83137164  0.17169939  0.16753496  1
  O2-  O319  1  0.83557068  0.18140921  0.50079260  1
  O2-  O320  1  0.84027769  0.17722662  0.83432330  1
  O2-  O321  1  0.84636084  0.67056977  0.15838740  1
  O2-  O322  1  0.83944493  0.68476255  0.50087798  1
  O2-  O323  1  0.83013543  0.69120419  0.83634738  1
  O2-  O324  1  -0.01022216  0.31988441  0.15754111  1
  O2-  O325  1  -0.01000879  0.31921304  0.48847451  1
  O2-  O326  1  -0.00207379  0.31495647  0.83255615  1
  O2-  O327  1  -0.00273743  0.81542630  0.15920571  1
  O2-  O328  1  0.00352566  0.81846772  0.50011879  1
  O2-  O329  1  0.00510722  0.82079041  0.84140274  1
  O2-  O330  1  0.33476101  0.30975206  0.17420839  1
  O2-  O331  1  0.32848279  0.32029916  0.49544027  1
  O2-  O332  1  0.33799635  0.31583398  0.84053474  1
  O2-  O333  1  0.32539456  0.83185776  0.15603283  1
  O2-  O334  1  0.33690426  0.82485288  0.50580586  1
  O2-  O335  1  0.33289949  0.81552598  0.83066288  1
  O2-  O336  1  0.66270885  0.32309199  0.16220663  1
  O2-  O337  1  0.66972872  0.31938208  0.50199060  1
  O2-  O338  1  0.66342503  0.32307251  0.82803383  1
  O2-  O339  1  0.66686852  0.81640228  0.17028786  1
  O2-  O340  1  0.66520207  0.81755636  0.50165969  1
  O2-  O341  1  0.66582214  0.81813791  0.83278145  1
  O2-  O342  1  0.16381047  0.31557879  0.17092675  1
  O2-  O343  1  0.16483442  0.31455239  0.49711803  1
  O2-  O344  1  0.16316730  0.32078367  0.84049760  1
  O2-  O345  1  0.16297354  0.81776177  0.16626590  1
  O2-  O346  1  0.16370499  0.81228765  0.50380047  1
  O2-  O347  1  0.16657765  0.81669625  0.83745227  1
  O2-  O348  1  0.49995354  0.31523363  0.16378181  1
  O2-  O349  1  0.50834550  0.31951010  0.49089276  1
  O2-  O350  1  0.50455072  0.32310717  0.83094826  1
  O2-  O351  1  0.50945674  0.82186559  0.15378895  1
  O2-  O352  1  0.50104768  0.81544510  0.50332075  1
  O2-  O353  1  0.50148035  0.81995437  0.83035063  1
  O2-  O354  1  0.83620451  0.32653891  0.16499178  1
  O2-  O355  1  0.82703190  0.32052502  0.50790337  1
  O2-  O356  1  0.82503092  0.31394388  0.84475959  1
  O2-  O357  1  0.83803868  0.83598571  0.16078713  1
  O2-  O358  1  0.83100558  0.82707968  0.50089510  1
  O2-  O359  1  0.83253289  0.81296049  0.83242176  1
  O2-  O360  1  0.09628771  0.07990569  0.11767344  1
  O2-  O361  1  0.09482608  0.08317856  0.44527767  1
  O2-  O362  1  0.09245909  0.07789693  0.79711108  1
  O2-  O363  1  0.07919204  0.58235472  0.09807811  1
  O2-  O364  1  0.09224246  0.57574715  0.44454153  1
  O2-  O365  1  0.08012707  0.58051019  0.78301964  1
  O2-  O366  1  0.41157123  0.07840974  0.11530784  1
  O2-  O367  1  0.41715433  0.07970833  0.44217124  1
  O2-  O368  1  0.40218478  0.08279075  0.79371302  1
  O2-  O369  1  0.43538201  0.58389506  0.11942941  1
  O2-  O370  1  0.43791359  0.58137711  0.44629356  1
  O2-  O371  1  0.40663744  0.58148242  0.77220541  1
  O2-  O372  1  0.74343040  0.06650239  0.10971513  1
  O2-  O373  1  0.74998871  0.06997343  0.43222658  1
  O2-  O374  1  0.77320691  0.06267929  0.80760276  1
  O2-  O375  1  0.73861942  0.58392201  0.11398042  1
  O2-  O376  1  0.72405789  0.57317752  0.43899049  1
  O2-  O377  1  0.75598235  0.58660111  0.78310455  1
  O2-  O378  1  0.26196604  0.06698417  0.20097744  1
  O2-  O379  1  0.26846118  0.07974868  0.54581013  1
  O2-  O380  1  0.23313139  0.08226844  0.88356684  1
  O2-  O381  1  0.25009363  0.56656085  0.24027088  1
  O2-  O382  1  0.24792660  0.57882688  0.54709223  1
  O2-  O383  1  0.25862742  0.58089510  0.88484157  1
  O2-  O384  1  0.57912259  0.07566885  0.21829173  1
  O2-  O385  1  0.56488117  0.07500939  0.53854176  1
  O2-  O386  1  0.58550123  0.07983702  0.89550585  1
  O2-  O387  1  0.59544064  0.58096430  0.22343933  1
  O2-  O388  1  0.57316939  0.58335143  0.56256342  1
  O2-  O389  1  0.57982436  0.57572032  0.87565323  1
  O2-  O390  1  0.92068450  0.07673553  0.21097248  1
  O2-  O391  1  0.92769120  0.08515797  0.54602598  1
  O2-  O392  1  0.94321860  0.07631647  0.87597368  1
  O2-  O393  1  0.91980349  0.57910176  0.21276316  1
  O2-  O394  1  0.90210926  0.57252929  0.57080972  1
  O2-  O395  1  0.91586359  0.58894854  0.87963110  1
  O2-  O396  1  0.07711768  0.41441878  0.11658863  1
  O2-  O397  1  0.08708970  0.42263804  0.44216468  1
  O2-  O398  1  0.08044189  0.41646317  0.78364855  1
  O2-  O399  1  0.09381093  0.91762455  0.10060075  1
  O2-  O400  1  0.08922796  0.91706791  0.44702227  1
  O2-  O401  1  0.09050036  0.92007432  0.78594735  1
  O2-  O402  1  0.40876749  0.41737619  0.12389753  1
  O2-  O403  1  0.41494493  0.41916584  0.43803867  1
  O2-  O404  1  0.43635710  0.41610785  0.78751126  1
  O2-  O405  1  0.42551158  0.91669229  0.10453607  1
  O2-  O406  1  0.43757235  0.91524606  0.44196625  1
  O2-  O407  1  0.41978778  0.91950904  0.77903795  1
  O2-  O408  1  0.76973676  0.42077719  0.09681318  1
  O2-  O409  1  0.74932871  0.41860078  0.44836322  1
  O2-  O410  1  0.74079699  0.41834034  0.78710996  1
  O2-  O411  1  0.72335544  0.91837452  0.11121246  1
  O2-  O412  1  0.72692889  0.91675416  0.43959324  1
  O2-  O413  1  0.74045760  0.92102188  0.78846203  1
  O2-  O414  1  0.25888388  0.41813562  0.21747338  1
  O2-  O415  1  0.24193088  0.42390531  0.55407473  1
  O2-  O416  1  0.24665990  0.42370597  0.87860550  1
  O2-  O417  1  0.23156456  0.91670739  0.22209622  1
  O2-  O418  1  0.24646177  0.91223428  0.57663990  1
  O2-  O419  1  0.23915336  0.91187589  0.88701398  1
  O2-  O420  1  0.56500130  0.41960790  0.21001034  1
  O2-  O421  1  0.58884769  0.41702704  0.55268511  1
  O2-  O422  1  0.58663400  0.41813519  0.88777892  1
  O2-  O423  1  0.58532381  0.92740820  0.22158494  1
  O2-  O424  1  0.58271912  0.91377238  0.56007460  1
  O2-  O425  1  0.57767014  0.92332519  0.88003742  1
  O2-  O426  1  0.92748455  0.42518315  0.21938578  1
  O2-  O427  1  0.91052099  0.41564113  0.56083229  1
  O2-  O428  1  0.91287501  0.42370769  0.87051821  1
  O2-  O429  1  0.94139099  0.91964604  0.21953735  1
  O2-  O430  1  0.90710516  0.91793106  0.56289338  1
  O2-  O431  1  0.91672865  0.91716013  0.89943672  1
  O2-  O432  1  0.00613771  -0.00461851  -0.02023183  1
  O2-  O433  1  0.00066367  0.00689772  0.34329421  1
  O2-  O434  1  0.00695993  0.00312471  0.64204682  1
  O2-  O435  1  -0.00265106  0.47687895  -0.00398811  1
  O2-  O436  1  0.00583186  0.48517312  0.33338059  1
  O2-  O437  1  0.00639848  0.51410295  0.66890824  1
  O2-  O438  1  0.31818129  -0.01311727  0.01872431  1
  O2-  O439  1  0.31877596  0.00949214  0.34302608  1
  O2-  O440  1  0.33343912  0.01349524  0.67682356  1
  O2-  O441  1  0.32428443  0.48875304  0.00859258  1
  O2-  O442  1  0.33170763  0.48811620  0.34265958  1
  O2-  O443  1  0.33812941  0.50618882  0.66220777  1
  O2-  O444  1  0.67121352  0.00028731  -0.02459344  1
  O2-  O445  1  0.64922792  0.00192695  0.33309153  1
  O2-  O446  1  0.65887359  -0.01906800  0.67552617  1
  O2-  O447  1  0.67202780  0.50136758  -0.00779019  1
  O2-  O448  1  0.66281388  0.49279268  0.33649208  1
  O2-  O449  1  0.66285236  0.49414636  0.67002282  1
  O2-  O450  1  0.15689750  -0.00402888  -0.02392071  1
  O2-  O451  1  0.15807624  0.00562668  0.31691332  1
  O2-  O452  1  0.17506688  0.01664212  0.67549369  1
  O2-  O453  1  0.16039534  0.48087475  -0.00858795  1
  O2-  O454  1  0.17168554  0.48930723  0.34325041  1
  O2-  O455  1  0.18869055  0.51405827  0.69085607  1
  O2-  O456  1  0.51324126  -0.01102146  0.00902958  1
  O2-  O457  1  0.48632572  0.01021760  0.32705247  1
  O2-  O458  1  0.48719434  0.00407638  0.64543025  1
  O2-  O459  1  0.49660031  0.48257055  -0.00146851  1
  O2-  O460  1  0.49410560  0.48864560  0.32833756  1
  O2-  O461  1  0.50496552  0.49346449  0.67085568  1
  O2-  O462  1  0.82467206  0.01655104  -0.02736089  1
  O2-  O463  1  0.80023641  0.00210924  0.29674675  1
  O2-  O464  1  0.83931133  0.02059275  0.66931233  1
  O2-  O465  1  0.84245259  0.50705845  0.00989348  1
  O2-  O466  1  0.84004927  0.49910333  0.34616464  1
  O2-  O467  1  0.83200794  0.49169668  0.67903077  1
  O2-  O468  1  0.08143653  0.24874344  0.05331169  1
  O2-  O469  1  0.09143261  0.25081724  0.71955137  1
  O2-  O470  1  0.91909698  0.25068045  0.60502392  1
  O2-  O471  1  0.57967381  0.75776290  0.94422271  1
  O2-  O472  1  0.41577652  0.24790101  0.71636533  1
  O2-  O473  1  0.91206259  0.75304507  0.94727316  1
  O2-  O474  1  0.57984945  0.24805193  0.27720476  1
  O2-  O475  1  0.90943380  0.24936973  0.27240029  1
  O2-  O476  1  0.92128414  0.75362723  0.59792977  1
  O2-  O477  1  0.58797269  0.24919609  0.93869191  1
  O2-  O478  1  0.42255138  0.24870495  0.39451318  1
  O2-  O479  1  0.75173758  0.25549290  0.39256208  1
  O2-  O480  1  0.40167703  0.75098715  0.40624120  1
  O2-  O481  1  0.25795354  0.25252254  0.61135931  1
  O2-  O482  1  0.75139763  0.25518676  0.06354970  1
  O2-  O483  1  0.75778708  0.75815110  0.40278998  1
  O2-  O484  1  0.26029245  0.75443544  0.25666582  1
  O2-  O485  1  0.76311556  0.75328023  0.06249894  1
  O2-  O486  1  0.08647399  0.74462186  0.72747292  1
  O2-  O487  1  0.40281390  0.75213617  0.05289958  1
  O2-  O488  1  0.89495312  0.74996457  0.26268835  1
  O2-  O489  1  0.75254387  0.25417365  0.72633686  1
  O2-  O490  1  0.57545662  0.24648014  0.60888181  1
  O2-  O491  1  0.25015702  0.74552289  0.60740222  1
  O2-  O492  1  0.25193772  0.74968540  0.94678632  1
