# generated using pymatgen
data_Ca108Mn108O277
_symmetry_space_group_name_H-M   'P 1'
_cell_length_a   16.02458733
_cell_length_b   22.30384585
_cell_length_c   16.38678940
_cell_angle_alpha   89.99729474
_cell_angle_beta   90.00281149
_cell_angle_gamma   89.99665390
_symmetry_Int_Tables_number   1
_chemical_formula_structural   Ca108Mn108O277
_chemical_formula_sum   'Ca108 Mn108 O277'
_cell_volume   5856.80115699
_cell_formula_units_Z   1
loop_
 _symmetry_equiv_pos_site_id
 _symmetry_equiv_pos_as_xyz
  1  'x, y, z'
loop_
 _atom_type_symbol
 _atom_type_oxidation_number
  Ca2+  2.0
  Mn3.34+  3.34
  O2-  -2.0
loop_
 _atom_site_type_symbol
 _atom_site_label
 _atom_site_symmetry_multiplicity
 _atom_site_fract_x
 _atom_site_fract_y
 _atom_site_fract_z
 _atom_site_occupancy
  Ca2+  Ca0  1  0.08501213  0.24839966  0.24273220  1
  Ca2+  Ca1  1  0.10261304  0.24919239  0.58774671  1
  Ca2+  Ca2  1  0.09439298  0.25535413  0.91436211  1
  Ca2+  Ca3  1  0.07265560  0.75143421  0.26650132  1
  Ca2+  Ca4  1  0.08199060  0.74288061  0.58375766  1
  Ca2+  Ca5  1  0.06620971  0.74282267  0.90697805  1
  Ca2+  Ca6  1  0.44475714  0.24175029  0.24354858  1
  Ca2+  Ca7  1  0.41679589  0.25030626  0.58746139  1
  Ca2+  Ca8  1  0.41553466  0.25867090  0.91670256  1
  Ca2+  Ca9  1  0.42339696  0.74952982  0.26550893  1
  Ca2+  Ca10  1  0.40181174  0.75250381  0.57406819  1
  Ca2+  Ca11  1  0.40990788  0.75172417  0.90999695  1
  Ca2+  Ca12  1  0.72707821  0.25067780  0.23414966  1
  Ca2+  Ca13  1  0.73525899  0.25989862  0.59126565  1
  Ca2+  Ca14  1  0.73995566  0.25616491  0.91880687  1
  Ca2+  Ca15  1  0.75301216  0.75209004  0.25339536  1
  Ca2+  Ca16  1  0.76905403  0.75330739  0.56930802  1
  Ca2+  Ca17  1  0.77419560  0.75724097  0.92242461  1
  Ca2+  Ca18  1  0.25721349  0.25921167  0.07126657  1
  Ca2+  Ca19  1  0.25655061  0.24280761  0.43337247  1
  Ca2+  Ca20  1  0.24793126  0.23942407  0.75256140  1
  Ca2+  Ca21  1  0.24811410  0.74944162  0.07935315  1
  Ca2+  Ca22  1  0.25738528  0.74027102  0.42188121  1
  Ca2+  Ca23  1  0.23486836  0.74213774  0.74094780  1
  Ca2+  Ca24  1  0.57741446  0.25377942  0.08573568  1
  Ca2+  Ca25  1  0.57089305  0.24793278  0.40804179  1
  Ca2+  Ca26  1  0.58257460  0.24119584  0.75386940  1
  Ca2+  Ca27  1  0.59007850  0.75897510  0.09824401  1
  Ca2+  Ca28  1  0.56587048  0.73985451  0.40783390  1
  Ca2+  Ca29  1  0.57194470  0.76479421  0.74572390  1
  Ca2+  Ca30  1  0.92016360  0.24793214  0.07824115  1
  Ca2+  Ca31  1  0.92833970  0.25126237  0.41057982  1
  Ca2+  Ca32  1  0.92375546  0.25598240  0.75501986  1
  Ca2+  Ca33  1  0.91360845  0.74529332  0.07394032  1
  Ca2+  Ca34  1  0.92466639  0.74528020  0.42096063  1
  Ca2+  Ca35  1  0.93267042  0.73790875  0.75981277  1
  Ca2+  Ca36  1  0.93259179  0.58746770  0.07163910  1
  Ca2+  Ca37  1  0.08648370  0.09884079  0.91752531  1
  Ca2+  Ca38  1  0.23357811  0.08588507  0.07137538  1
  Ca2+  Ca39  1  0.07616042  0.58571771  0.90479598  1
  Ca2+  Ca40  1  0.56519721  0.09233868  0.08372657  1
  Ca2+  Ca41  1  0.77536210  0.58819887  0.57406338  1
  Ca2+  Ca42  1  0.43909101  0.08934183  0.25206495  1
  Ca2+  Ca43  1  0.57460027  0.09685221  0.08205025  1
  Ca2+  Ca44  1  0.55942723  0.59881657  0.09600326  1
  Ca2+  Ca45  1  0.58662262  0.59673833  0.74908031  1
  Ca2+  Ca46  1  0.39129934  0.09964372  0.59178958  1
  Ca2+  Ca47  1  0.91411337  0.09142813  0.75385984  1
  Ca2+  Ca48  1  0.07517917  0.09867214  0.91760379  1
  Ca2+  Ca49  1  0.72901938  0.07150301  0.62145780  1
  Ca2+  Ca50  1  0.06753735  0.09631099  0.26885792  1
  Ca2+  Ca51  1  0.40105165  0.60971039  0.56024051  1
  Ca2+  Ca52  1  0.92472870  0.58922183  0.42622136  1
  Ca2+  Ca53  1  0.22240362  0.08210543  0.07510325  1
  Ca2+  Ca54  1  0.93514150  0.58943215  0.42520719  1
  Ca2+  Ca55  1  0.41091414  0.08935535  0.91854440  1
  Ca2+  Ca56  1  0.80006125  0.61206801  0.90631204  1
  Ca2+  Ca57  1  0.75436297  0.09287658  0.90527458  1
  Ca2+  Ca58  1  0.41257879  0.60679199  0.26585134  1
  Ca2+  Ca59  1  0.73996209  0.10085239  0.24465031  1
  Ca2+  Ca60  1  0.57388157  0.07973677  0.74409057  1
  Ca2+  Ca61  1  0.22088289  0.10611503  0.42890914  1
  Ca2+  Ca62  1  0.72763654  0.09986532  0.24201555  1
  Ca2+  Ca63  1  0.06117897  0.09810055  0.27934037  1
  Ca2+  Ca64  1  0.38330575  0.09800453  0.58542937  1
  Ca2+  Ca65  1  0.75237425  0.58372400  0.27149132  1
  Ca2+  Ca66  1  0.95265747  0.10061322  0.07897342  1
  Ca2+  Ca67  1  0.71801005  0.06924009  0.61766120  1
  Ca2+  Ca68  1  0.12065793  0.10868152  0.57355007  1
  Ca2+  Ca69  1  0.57093822  0.59802619  0.09445018  1
  Ca2+  Ca70  1  0.39261370  0.58842497  0.93942598  1
  Ca2+  Ca71  1  0.56663201  0.09073194  0.41650462  1
  Ca2+  Ca72  1  0.41156701  0.90714035  0.58290909  1
  Ca2+  Ca73  1  0.91661070  0.42031027  0.41864084  1
  Ca2+  Ca74  1  0.41243824  0.40731090  0.23695308  1
  Ca2+  Ca75  1  0.58200354  0.90033535  0.42065480  1
  Ca2+  Ca76  1  0.42420535  0.40740760  0.23727085  1
  Ca2+  Ca77  1  0.58609436  0.39463111  0.75457538  1
  Ca2+  Ca78  1  0.06271412  0.41132561  0.25262147  1
  Ca2+  Ca79  1  0.77930205  0.41048555  0.57843698  1
  Ca2+  Ca80  1  0.05775684  0.42536645  0.60023403  1
  Ca2+  Ca81  1  0.94385965  0.89692696  0.41972658  1
  Ca2+  Ca82  1  0.74104371  0.91431522  0.60963561  1
  Ca2+  Ca83  1  0.75541465  0.41109716  0.26110776  1
  Ca2+  Ca84  1  0.23049728  0.41217148  0.41561563  1
  Ca2+  Ca85  1  0.59814405  0.40633906  0.41529775  1
  Ca2+  Ca86  1  0.41711516  0.89971626  0.23765569  1
  Ca2+  Ca87  1  0.59608204  0.92535429  0.73548923  1
  Ca2+  Ca88  1  0.21904035  0.41545726  0.41881956  1
  Ca2+  Ca89  1  0.24328323  0.90344830  0.74802783  1
  Ca2+  Ca90  1  0.93279954  0.41084789  0.06738276  1
  Ca2+  Ca91  1  0.24891559  0.90940464  0.07630806  1
  Ca2+  Ca92  1  0.90967907  0.90064739  0.75853606  1
  Ca2+  Ca93  1  0.93341368  0.89716154  0.41887643  1
  Ca2+  Ca94  1  0.07990320  0.90656750  0.92271602  1
  Ca2+  Ca95  1  0.40555896  0.40207512  0.58803090  1
  Ca2+  Ca96  1  0.41623372  0.91119307  0.92701395  1
  Ca2+  Ca97  1  0.42900800  0.91320114  0.92751423  1
  Ca2+  Ca98  1  0.08952206  0.42064640  0.92558535  1
  Ca2+  Ca99  1  0.07531823  0.41118676  0.25203514  1
  Ca2+  Ca100  1  0.59863022  0.39567161  0.75592288  1
  Ca2+  Ca101  1  0.21805698  0.41465406  0.75983051  1
  Ca2+  Ca102  1  0.56925992  0.40712821  0.07845430  1
  Ca2+  Ca103  1  0.76644836  0.41017758  0.26230095  1
  Ca2+  Ca104  1  0.22944983  0.41159036  0.75752641  1
  Ca2+  Ca105  1  0.23899601  0.90781468  0.07395572  1
  Ca2+  Ca106  1  0.57110224  0.90036780  0.42098602  1
  Ca2+  Ca107  1  0.92190329  0.89477518  0.08338267  1
  Mn3.34+  Mn108  1  0.08552345  0.33724712  0.08369000  1
  Mn3.34+  Mn109  1  0.07873824  0.33168706  0.42536683  1
  Mn3.34+  Mn110  1  0.07440931  0.33294556  0.75550344  1
  Mn3.34+  Mn111  1  0.08359700  0.83196719  0.08792102  1
  Mn3.34+  Mn112  1  0.09676414  0.83173833  0.41843214  1
  Mn3.34+  Mn113  1  0.08255200  0.83200288  0.74847436  1
  Mn3.34+  Mn114  1  0.41294173  0.33699638  0.07671485  1
  Mn3.34+  Mn115  1  0.41358281  0.33320001  0.41852301  1
  Mn3.34+  Mn116  1  0.41370302  0.33088449  0.75348904  1
  Mn3.34+  Mn117  1  0.41878225  0.82942693  0.08653684  1
  Mn3.34+  Mn118  1  0.40688546  0.83152874  0.41752907  1
  Mn3.34+  Mn119  1  0.41620150  0.83425564  0.74970636  1
  Mn3.34+  Mn120  1  0.75162054  0.33275581  0.08015929  1
  Mn3.34+  Mn121  1  0.75476359  0.33418084  0.42226422  1
  Mn3.34+  Mn122  1  0.75956980  0.33017942  0.75344915  1
  Mn3.34+  Mn123  1  0.75048910  0.82884480  0.08436824  1
  Mn3.34+  Mn124  1  0.75173310  0.82948372  0.41548875  1
  Mn3.34+  Mn125  1  0.74999355  0.83678386  0.75715216  1
  Mn3.34+  Mn126  1  0.25133903  0.33546996  0.24412935  1
  Mn3.34+  Mn127  1  0.24593913  0.33791324  0.58248580  1
  Mn3.34+  Mn128  1  0.25017648  0.33951033  0.91867962  1
  Mn3.34+  Mn129  1  0.24930604  0.82868398  0.25057865  1
  Mn3.34+  Mn130  1  0.24347939  0.83283418  0.58170923  1
  Mn3.34+  Mn131  1  0.24894119  0.82636739  0.91103893  1
  Mn3.34+  Mn132  1  0.58434352  0.33448433  0.24949592  1
  Mn3.34+  Mn133  1  0.58220122  0.32987081  0.57918160  1
  Mn3.34+  Mn134  1  0.58357747  0.33026537  0.92090716  1
  Mn3.34+  Mn135  1  0.58843266  0.83284046  0.24735227  1
  Mn3.34+  Mn136  1  0.58363536  0.83874131  0.58564871  1
  Mn3.34+  Mn137  1  0.59184521  0.83414985  0.91535232  1
  Mn3.34+  Mn138  1  0.91668286  0.32536008  0.24575804  1
  Mn3.34+  Mn139  1  0.92119154  0.33521936  0.58139231  1
  Mn3.34+  Mn140  1  0.91540439  0.33496694  0.91443996  1
  Mn3.34+  Mn141  1  0.91630769  0.82802344  0.24669096  1
  Mn3.34+  Mn142  1  0.92113048  0.82993495  0.58857955  1
  Mn3.34+  Mn143  1  0.91871609  0.83179396  0.91693144  1
  Mn3.34+  Mn144  1  0.24922297  0.17419598  0.24927915  1
  Mn3.34+  Mn145  1  0.41691472  0.16564731  0.08241984  1
  Mn3.34+  Mn146  1  0.40771418  0.66975062  0.75016206  1
  Mn3.34+  Mn147  1  0.92449928  0.66145509  0.58847080  1
  Mn3.34+  Mn148  1  0.24832925  0.65977995  0.90973255  1
  Mn3.34+  Mn149  1  0.92502966  0.17528518  0.58235580  1
  Mn3.34+  Mn150  1  0.40163987  0.66652971  0.09006757  1
  Mn3.34+  Mn151  1  0.91472318  0.17758493  0.24396577  1
  Mn3.34+  Mn152  1  0.74590677  0.17214285  0.42151661  1
  Mn3.34+  Mn153  1  0.58919436  0.67315782  0.58275615  1
  Mn3.34+  Mn154  1  0.76065961  0.16664255  0.42292959  1
  Mn3.34+  Mn155  1  0.57918240  0.66790514  0.58236719  1
  Mn3.34+  Mn156  1  0.08324111  0.65132697  0.74706025  1
  Mn3.34+  Mn157  1  0.75478437  0.66989296  0.74722658  1
  Mn3.34+  Mn158  1  0.24355364  0.66347428  0.58188580  1
  Mn3.34+  Mn159  1  0.41589547  0.16766507  0.41798226  1
  Mn3.34+  Mn160  1  0.75316558  0.66587189  0.09159546  1
  Mn3.34+  Mn161  1  0.41404468  0.16629617  0.75468539  1
  Mn3.34+  Mn162  1  0.25301025  0.16867714  0.91512886  1
  Mn3.34+  Mn163  1  0.58220046  0.67975451  0.91575296  1
  Mn3.34+  Mn164  1  0.58611157  0.66864644  0.25538505  1
  Mn3.34+  Mn165  1  0.91506594  0.17181223  0.91385091  1
  Mn3.34+  Mn166  1  0.91627411  0.16946119  0.57935184  1
  Mn3.34+  Mn167  1  0.58043752  0.16473090  0.58340600  1
  Mn3.34+  Mn168  1  0.75037203  0.16821609  0.75434561  1
  Mn3.34+  Mn169  1  0.08871923  0.16756799  0.74990195  1
  Mn3.34+  Mn170  1  0.26103935  0.16644597  0.24814066  1
  Mn3.34+  Mn171  1  0.08551372  0.66379816  0.08685351  1
  Mn3.34+  Mn172  1  0.75035724  0.16816264  0.07770643  1
  Mn3.34+  Mn173  1  0.09573253  0.65886285  0.08735002  1
  Mn3.34+  Mn174  1  0.58388080  0.16414760  0.91133508  1
  Mn3.34+  Mn175  1  0.59106203  0.67360462  0.91370179  1
  Mn3.34+  Mn176  1  0.91699297  0.66397335  0.24870481  1
  Mn3.34+  Mn177  1  0.09140394  0.66098424  0.41754255  1
  Mn3.34+  Mn178  1  0.24762328  0.67149748  0.25154679  1
  Mn3.34+  Mn179  1  0.75433042  0.66124823  0.41658385  1
  Mn3.34+  Mn180  1  0.59265065  0.50235207  0.58169573  1
  Mn3.34+  Mn181  1  0.40244254  0.50855150  0.75641339  1
  Mn3.34+  Mn182  1  0.92970584  0.00395019  0.57938727  1
  Mn3.34+  Mn183  1  0.92264285  -0.00150537  0.24335617  1
  Mn3.34+  Mn184  1  0.75514985  -0.00404033  0.08004463  1
  Mn3.34+  Mn185  1  0.56872082  0.50424276  0.91740875  1
  Mn3.34+  Mn186  1  0.92398072  0.50291034  0.24997233  1
  Mn3.34+  Mn187  1  0.74999667  0.49731434  0.08287859  1
  Mn3.34+  Mn188  1  0.58351457  -0.00580951  0.25339873  1
  Mn3.34+  Mn189  1  0.24484993  0.50526888  0.23306210  1
  Mn3.34+  Mn190  1  0.24117241  -0.00650798  0.58442035  1
  Mn3.34+  Mn191  1  0.58319672  0.49882975  0.91907773  1
  Mn3.34+  Mn192  1  0.25324225  0.00242303  0.91642629  1
  Mn3.34+  Mn193  1  0.23871312  -0.00312166  0.26416516  1
  Mn3.34+  Mn194  1  0.76239672  0.00017896  0.41652631  1
  Mn3.34+  Mn195  1  0.74516102  -0.00985696  0.07833134  1
  Mn3.34+  Mn196  1  0.41077592  -0.00026212  0.74158379  1
  Mn3.34+  Mn197  1  0.91168970  -0.00620504  0.24442386  1
  Mn3.34+  Mn198  1  0.41569147  0.50173510  0.75690929  1
  Mn3.34+  Mn199  1  0.23398420  0.50869220  0.23496656  1
  Mn3.34+  Mn200  1  0.92540425  0.49891173  0.91663956  1
  Mn3.34+  Mn201  1  0.22998237  -0.00759427  0.26944013  1
  Mn3.34+  Mn202  1  0.42036542  0.50127192  0.42084296  1
  Mn3.34+  Mn203  1  0.41203566  0.00120768  0.41411209  1
  Mn3.34+  Mn204  1  0.94008733  0.00044449  0.58189288  1
  Mn3.34+  Mn205  1  0.77127245  0.50041084  0.75132199  1
  Mn3.34+  Mn206  1  0.58178708  0.50063589  0.25275047  1
  Mn3.34+  Mn207  1  0.40657719  0.50752653  0.42022585  1
  Mn3.34+  Mn208  1  0.92146760  0.00045476  0.92145483  1
  Mn3.34+  Mn209  1  0.08750339  0.00038332  0.74744093  1
  Mn3.34+  Mn210  1  0.58558275  -0.00003523  0.91668036  1
  Mn3.34+  Mn211  1  0.78558383  0.49961885  0.74788600  1
  Mn3.34+  Mn212  1  0.74804508  0.00592898  0.41959362  1
  Mn3.34+  Mn213  1  0.57764697  0.49745324  0.58017661  1
  Mn3.34+  Mn214  1  0.23291650  0.50874026  0.59736374  1
  Mn3.34+  Mn215  1  0.76208315  0.50475969  0.08520425  1
  O2-  O216  1  0.00271761  0.17005617  -0.00830053  1
  O2-  O217  1  -0.00204504  0.18538445  0.32349938  1
  O2-  O218  1  -0.00289107  0.15600193  0.67134793  1
  O2-  O219  1  0.01267121  0.65161514  0.00039402  1
  O2-  O220  1  -0.00456738  0.65583529  0.33504062  1
  O2-  O221  1  0.00020317  0.66568469  0.66877278  1
  O2-  O222  1  0.32596257  0.14825428  0.00809856  1
  O2-  O223  1  0.32592490  0.14592806  0.33902482  1
  O2-  O224  1  0.33585023  0.16792519  0.67216365  1
  O2-  O225  1  0.33402595  0.68250992  -0.00566080  1
  O2-  O226  1  0.32922680  0.68185087  0.32143428  1
  O2-  O227  1  0.33288285  0.65608487  0.66604794  1
  O2-  O228  1  0.66519953  0.14440125  -0.00170532  1
  O2-  O229  1  0.66674245  0.14453785  0.34387780  1
  O2-  O230  1  0.66135295  0.15157805  0.67352917  1
  O2-  O231  1  0.66598739  0.65036059  0.00120839  1
  O2-  O232  1  0.67446399  0.65646138  0.32917862  1
  O2-  O233  1  0.66434180  0.65948025  0.66765149  1
  O2-  O234  1  0.16648681  0.15579276  -0.00191542  1
  O2-  O235  1  0.16036868  0.16116151  0.32023272  1
  O2-  O236  1  0.16662080  0.16953882  0.67215279  1
  O2-  O237  1  0.17337031  0.66882015  -0.00026743  1
  O2-  O238  1  0.16637236  0.67829156  0.33152295  1
  O2-  O239  1  0.16491580  0.66654752  0.66683731  1
  O2-  O240  1  0.49657102  0.15064736  -0.00703632  1
  O2-  O241  1  0.49505022  0.15652870  0.33729079  1
  O2-  O242  1  0.49341880  0.14527515  0.66318049  1
  O2-  O243  1  0.49740259  0.66437762  0.00122689  1
  O2-  O244  1  0.50336394  0.66758873  0.32558990  1
  O2-  O245  1  0.49982016  0.64927856  0.66858089  1
  O2-  O246  1  0.83740396  0.16449946  0.00111550  1
  O2-  O247  1  0.82936360  0.15799288  0.32594477  1
  O2-  O248  1  0.82960745  0.15695814  0.65808466  1
  O2-  O249  1  0.83895405  0.65460279  0.01990748  1
  O2-  O250  1  0.84206063  0.64801591  0.33733339  1
  O2-  O251  1  0.82580284  0.66581970  0.65691871  1
  O2-  O252  1  0.00029168  0.32463007  0.00228167  1
  O2-  O253  1  0.00305652  0.32758216  0.32970054  1
  O2-  O254  1  0.00209082  0.32955898  0.66162460  1
  O2-  O255  1  0.00436527  0.84385797  -0.00017387  1
  O2-  O256  1  0.00111783  0.83658222  0.33059678  1
  O2-  O257  1  -0.00752652  0.84452384  0.67596983  1
  O2-  O258  1  0.33267893  0.33709566  -0.00198890  1
  O2-  O259  1  0.32731206  0.36490013  0.33798934  1
  O2-  O260  1  0.33102214  0.33740634  0.66451994  1
  O2-  O261  1  0.33289652  0.82403435  -0.00167108  1
  O2-  O262  1  0.34004936  0.83835192  0.32318217  1
  O2-  O263  1  0.33426748  0.84833299  0.67040815  1
  O2-  O264  1  0.66553635  0.34894038  0.00514114  1
  O2-  O265  1  0.67164779  0.35131169  0.33008465  1
  O2-  O266  1  0.67117642  0.35010867  0.66110690  1
  O2-  O267  1  0.66496176  0.81666205  -0.00147082  1
  O2-  O268  1  0.66171509  0.84360630  0.33977381  1
  O2-  O269  1  0.66391112  0.83879092  0.67369087  1
  O2-  O270  1  0.16207943  0.33030202  -0.00127896  1
  O2-  O271  1  0.15970360  0.34781345  0.33258740  1
  O2-  O272  1  0.16641337  0.34319734  0.66824509  1
  O2-  O273  1  0.17308271  0.83685322  0.00041414  1
  O2-  O274  1  0.17222732  0.81767266  0.33245937  1
  O2-  O275  1  0.16898814  0.84096751  0.67136763  1
  O2-  O276  1  0.50215071  0.33799333  0.00258965  1
  O2-  O277  1  0.49878788  0.35206707  0.33229788  1
  O2-  O278  1  0.50129696  0.34940432  0.66647733  1
  O2-  O279  1  0.49663824  0.82533039  -0.00339638  1
  O2-  O280  1  0.50034243  0.83711238  0.33849872  1
  O2-  O281  1  0.50235468  0.85637834  0.67212876  1
  O2-  O282  1  0.84056485  0.32592211  0.00540575  1
  O2-  O283  1  0.84158830  0.34505559  0.33673964  1
  O2-  O284  1  0.83716171  0.32937381  0.66165554  1
  O2-  O285  1  0.83790806  0.83852031  0.00217112  1
  O2-  O286  1  0.84064862  0.84695795  0.33795325  1
  O2-  O287  1  0.82513190  0.83610419  0.66289622  1
  O2-  O288  1  -0.00328223  0.18229306  0.16491645  1
  O2-  O289  1  0.00499507  0.19411487  0.50710760  1
  O2-  O290  1  0.00171928  0.17846843  0.83632961  1
  O2-  O291  1  -0.00572383  0.67631098  0.16056427  1
  O2-  O292  1  -0.00357840  0.67038260  0.49640095  1
  O2-  O293  1  0.01262883  0.66933190  0.82861378  1
  O2-  O294  1  0.34212318  0.18054110  0.17098688  1
  O2-  O295  1  0.34232651  0.17832199  0.50622852  1
  O2-  O296  1  0.34110668  0.18047478  0.84195199  1
  O2-  O297  1  0.33075794  0.69533126  0.16804159  1
  O2-  O298  1  0.32678349  0.68136351  0.51052218  1
  O2-  O299  1  0.32987656  0.68607939  0.83584198  1
  O2-  O300  1  0.66628425  0.16541570  0.15809965  1
  O2-  O301  1  0.66862837  0.18497546  0.50608631  1
  O2-  O302  1  0.67347434  0.17842587  0.84022467  1
  O2-  O303  1  0.65470797  0.67418262  0.15624599  1
  O2-  O304  1  0.67443717  0.67744812  0.50318296  1
  O2-  O305  1  0.66476924  0.68761483  0.82495823  1
  O2-  O306  1  0.17843711  0.18387580  0.16045206  1
  O2-  O307  1  0.17186827  0.18561959  0.50111014  1
  O2-  O308  1  0.16208198  0.17646113  0.84126399  1
  O2-  O309  1  0.16531895  0.68819014  0.16857502  1
  O2-  O310  1  0.16384381  0.67955519  0.50072343  1
  O2-  O311  1  0.16704410  0.67824221  0.83813503  1
  O2-  O312  1  0.50538487  0.17431604  0.15335418  1
  O2-  O313  1  0.50095221  0.17914301  0.50045279  1
  O2-  O314  1  0.50450561  0.17619070  0.83075383  1
  O2-  O315  1  0.50097398  0.68228746  0.16161674  1
  O2-  O316  1  0.49796254  0.68023411  0.50751481  1
  O2-  O317  1  0.50005415  0.69002335  0.83251108  1
  O2-  O318  1  0.82372308  0.18067450  0.17116622  1
  O2-  O319  1  0.83671401  0.19717702  0.50093820  1
  O2-  O320  1  0.83608508  0.18449180  0.82975957  1
  O2-  O321  1  0.82286049  0.67750652  0.18036540  1
  O2-  O322  1  0.83933695  0.67560119  0.49530363  1
  O2-  O323  1  0.82654608  0.68991967  0.82661956  1
  O2-  O324  1  -0.00081454  0.30985251  0.16486162  1
  O2-  O325  1  -0.00098253  0.30895596  0.50118720  1
  O2-  O326  1  -0.00043842  0.31339711  0.83970920  1
  O2-  O327  1  -0.00309253  0.81884187  0.16165637  1
  O2-  O328  1  -0.00291626  0.82423183  0.49752435  1
  O2-  O329  1  0.00310959  0.82739167  0.83602561  1
  O2-  O330  1  0.34738629  0.32268180  0.17700964  1
  O2-  O331  1  0.33047476  0.31856129  0.50351215  1
  O2-  O332  1  0.32258349  0.32899572  0.82401562  1
  O2-  O333  1  0.33436267  0.81390455  0.16462833  1
  O2-  O334  1  0.33551760  0.82802962  0.50666759  1
  O2-  O335  1  0.33515454  0.81888858  0.83398764  1
  O2-  O336  1  0.67109261  0.33759464  0.17162685  1
  O2-  O337  1  0.66276118  0.32007041  0.49308886  1
  O2-  O338  1  0.66041530  0.32151403  0.82726075  1
  O2-  O339  1  0.67214671  0.82071945  0.17060927  1
  O2-  O340  1  0.66482024  0.82338784  0.49948578  1
  O2-  O341  1  0.67004700  0.80900419  0.83372607  1
  O2-  O342  1  0.16219468  0.31758634  0.16814012  1
  O2-  O343  1  0.17172698  0.31433932  0.49587358  1
  O2-  O344  1  0.16667765  0.32283946  0.82974069  1
  O2-  O345  1  0.17486846  0.81873292  0.16017276  1
  O2-  O346  1  0.16760531  0.81436902  0.50169181  1
  O2-  O347  1  0.16679411  0.82169270  0.83370015  1
  O2-  O348  1  0.50256172  0.32302740  0.16808418  1
  O2-  O349  1  0.49731159  0.31810386  0.49895112  1
  O2-  O350  1  0.50485500  0.32108773  0.82861678  1
  O2-  O351  1  0.49745971  0.81938396  0.17100154  1
  O2-  O352  1  0.50278777  0.82915904  0.50053252  1
  O2-  O353  1  0.49751621  0.82076057  0.83850676  1
  O2-  O354  1  0.82718846  0.31384134  0.17473042  1
  O2-  O355  1  0.83425574  0.31525197  0.50329940  1
  O2-  O356  1  0.83455797  0.30954777  0.83908324  1
  O2-  O357  1  0.83845726  0.81422302  0.16266248  1
  O2-  O358  1  0.83939971  0.82874640  0.49434830  1
  O2-  O359  1  0.84014596  0.82112825  0.82695321  1
  O2-  O360  1  0.10209338  0.06875516  0.14782755  1
  O2-  O361  1  0.08592375  0.08182936  0.44770584  1
  O2-  O362  1  0.07442629  0.08100046  0.78314200  1
  O2-  O363  1  0.08404226  0.57957577  0.11053520  1
  O2-  O364  1  0.06851879  0.58006523  0.42786308  1
  O2-  O365  1  0.09170399  0.57669211  0.76635939  1
  O2-  O366  1  0.43077201  0.08167520  0.11062516  1
  O2-  O367  1  0.41799015  0.08132875  0.45441907  1
  O2-  O368  1  0.41667681  0.07922552  0.77748492  1
  O2-  O369  1  0.42829129  0.58473107  0.12240522  1
  O2-  O370  1  0.41783848  0.58734032  0.42377840  1
  O2-  O371  1  0.42559990  0.58494649  0.79628562  1
  O2-  O372  1  0.76356682  0.07706807  0.11619361  1
  O2-  O373  1  0.75955709  0.08239486  0.46975328  1
  O2-  O374  1  0.76137952  0.08489067  0.76559788  1
  O2-  O375  1  0.73193703  0.58059099  0.12289975  1
  O2-  O376  1  0.77975630  0.57825328  0.43647838  1
  O2-  O377  1  0.73870869  0.57954706  0.78268954  1
  O2-  O378  1  0.26585901  0.07259279  0.20367339  1
  O2-  O379  1  0.25709024  0.07190251  0.54914039  1
  O2-  O380  1  0.23818325  0.08312029  0.89512607  1
  O2-  O381  1  0.26915584  0.58953260  0.22615434  1
  O2-  O382  1  0.26305889  0.58028124  0.55292053  1
  O2-  O383  1  0.25737789  0.58142987  0.90018157  1
  O2-  O384  1  0.59891316  0.07113345  0.21141122  1
  O2-  O385  1  0.59688327  0.08241047  0.55368741  1
  O2-  O386  1  0.59250669  0.07957752  0.88085803  1
  O2-  O387  1  0.58087346  0.58264940  0.22919794  1
  O2-  O388  1  0.59277898  0.58346110  0.55903671  1
  O2-  O389  1  0.58244757  0.58525732  0.88314597  1
  O2-  O390  1  0.92534600  0.08165691  0.21336330  1
  O2-  O391  1  0.92389587  0.08545520  0.54551896  1
  O2-  O392  1  0.91459437  0.08035518  0.88663323  1
  O2-  O393  1  0.90447342  0.57924594  0.21424061  1
  O2-  O394  1  0.91355948  0.58124975  0.56051961  1
  O2-  O395  1  0.92121058  0.57188383  0.88054299  1
  O2-  O396  1  0.06551363  0.42054347  0.11959679  1
  O2-  O397  1  0.09101044  0.41718129  0.46047478  1
  O2-  O398  1  0.08419275  0.41405677  0.78117281  1
  O2-  O399  1  0.10185988  0.91340664  0.09273744  1
  O2-  O400  1  0.07287222  0.91359748  0.42874409  1
  O2-  O401  1  0.09608981  0.92116469  0.78143017  1
  O2-  O402  1  0.42821301  0.41808223  0.10565778  1
  O2-  O403  1  0.41515335  0.42236916  0.45538605  1
  O2-  O404  1  0.42952385  0.41915282  0.77170374  1
  O2-  O405  1  0.38583924  0.91586389  0.08800959  1
  O2-  O406  1  0.43387885  0.92017603  0.43886530  1
  O2-  O407  1  0.40559770  0.92320406  0.79135321  1
  O2-  O408  1  0.77435231  0.41832926  0.11635614  1
  O2-  O409  1  0.75697355  0.41594010  0.44147558  1
  O2-  O410  1  0.73971018  0.41788459  0.77772017  1
  O2-  O411  1  0.76009178  0.91122134  0.10517849  1
  O2-  O412  1  0.74260548  0.91837781  0.43781800  1
  O2-  O413  1  0.75269410  0.91542170  0.76242899  1
  O2-  O414  1  0.26073250  0.42190515  0.20306142  1
  O2-  O415  1  0.26021820  0.42962014  0.54583576  1
  O2-  O416  1  0.23366693  0.41955959  0.89259741  1
  O2-  O417  1  0.26179014  0.91966614  0.21082025  1
  O2-  O418  1  0.25634209  0.91609979  0.56835017  1
  O2-  O419  1  0.27196448  0.91897098  0.90666186  1
  O2-  O420  1  0.56605097  0.42153836  0.21729442  1
  O2-  O421  1  0.57906729  0.41690410  0.55229635  1
  O2-  O422  1  0.58019574  0.41924595  0.88561046  1
  O2-  O423  1  0.56237194  0.91472108  0.24843062  1
  O2-  O424  1  0.59175478  0.92001839  0.55476012  1
  O2-  O425  1  0.56786588  0.92020239  0.88529184  1
  O2-  O426  1  0.92234777  0.41832808  0.21454837  1
  O2-  O427  1  0.92173538  0.41558095  0.55337164  1
  O2-  O428  1  0.93098992  0.41746880  0.90725405  1
  O2-  O429  1  0.91559867  0.91255145  0.22182752  1
  O2-  O430  1  0.91719029  0.91751812  0.55729480  1
  O2-  O431  1  0.92900193  0.92036800  0.89682579  1
  O2-  O432  1  0.01271551  0.02145559  -0.01691621  1
  O2-  O433  1  -0.00583653  0.00725759  0.33172914  1
  O2-  O434  1  -0.02129146  0.00282898  0.69515234  1
  O2-  O435  1  0.01222425  0.50280638  -0.01437057  1
  O2-  O436  1  -0.00215282  0.47867965  0.33096293  1
  O2-  O437  1  0.00205481  0.50748184  0.66626044  1
  O2-  O438  1  0.32333124  0.01023884  -0.00073050  1
  O2-  O439  1  0.34497753  0.00273285  0.31623001  1
  O2-  O440  1  0.35054525  0.00312077  0.64034073  1
  O2-  O441  1  0.32146960  0.51164717  -0.00939618  1
  O2-  O442  1  0.32684524  0.49236719  0.32838635  1
  O2-  O443  1  0.32531950  0.48782152  0.67300848  1
  O2-  O444  1  0.65126914  0.01841126  0.01562290  1
  O2-  O445  1  0.66852600  0.01362585  0.33474316  1
  O2-  O446  1  0.66059331  0.00130361  0.67863448  1
  O2-  O447  1  0.66691726  0.49873550  0.00201684  1
  O2-  O448  1  0.68137778  0.48756406  0.30449429  1
  O2-  O449  1  0.65326414  0.49462123  0.68603468  1
  O2-  O450  1  0.16966942  0.00404065  -0.00217980  1
  O2-  O451  1  0.15781178  0.03755982  0.33370218  1
  O2-  O452  1  0.16777341  0.00812867  0.66710660  1
  O2-  O453  1  0.15592036  0.50660163  -0.02545029  1
  O2-  O454  1  0.16354715  0.47256024  0.31963022  1
  O2-  O455  1  0.16110079  0.47443391  0.66795681  1
  O2-  O456  1  0.47890397  0.00241428  -0.03847785  1
  O2-  O457  1  0.50759835  0.01258018  0.34257447  1
  O2-  O458  1  0.50220334  -0.00078503  0.68676501  1
  O2-  O459  1  0.50614832  0.51977719  0.01179629  1
  O2-  O460  1  0.48714149  0.48959247  0.32216662  1
  O2-  O461  1  0.49594690  0.50986270  0.66648679  1
  O2-  O462  1  0.82740350  0.00986432  -0.00961119  1
  O2-  O463  1  0.82219462  0.02310674  0.31664636  1
  O2-  O464  1  0.82208149  0.00200592  0.63343896  1
  O2-  O465  1  0.84636326  0.50801952  0.00489593  1
  O2-  O466  1  0.83676440  0.48910602  0.31359744  1
  O2-  O467  1  0.81267944  0.49887278  0.63764526  1
  O2-  O468  1  0.75493754  0.74829261  0.39715768  1
  O2-  O469  1  0.07747657  0.74616927  0.06077924  1
  O2-  O470  1  0.08409075  0.24950886  0.73460521  1
  O2-  O471  1  0.73785466  0.24880144  0.72690557  1
  O2-  O472  1  0.25145440  0.75096091  0.60426373  1
  O2-  O473  1  0.92213791  0.75258193  0.93235936  1
  O2-  O474  1  0.91890288  0.74914446  0.59436106  1
  O2-  O475  1  0.25443505  0.24981611  0.93243512  1
  O2-  O476  1  0.06917749  0.74817294  0.40816317  1
  O2-  O477  1  0.26006912  0.25553831  0.28534510  1
  O2-  O478  1  0.72792670  0.25155245  0.06793489  1
  O2-  O479  1  0.42671908  0.24923515  0.73045007  1
  O2-  O480  1  0.41579928  0.75380984  0.41124111  1
  O2-  O481  1  0.91505599  0.74691023  0.27530937  1
  O2-  O482  1  0.59400019  0.75085637  0.26827010  1
  O2-  O483  1  0.08149464  0.75207772  0.73571866  1
  O2-  O484  1  0.58883439  0.25539614  0.26869250  1
  O2-  O485  1  0.41369017  0.24847125  0.06031025  1
  O2-  O486  1  0.42278470  0.75367981  0.71939014  1
  O2-  O487  1  0.57946234  0.24806085  0.61307853  1
  O2-  O488  1  0.75330030  0.74551181  0.06619956  1
  O2-  O489  1  0.74348274  0.25202585  0.38150841  1
  O2-  O490  1  0.58722451  0.24494215  0.94290692  1
  O2-  O491  1  0.57626501  0.75474669  0.60837998  1
  O2-  O492  1  0.41397917  0.24941702  0.38558351  1
