# generated using pymatgen
data_Ca108Mn108O277
_symmetry_space_group_name_H-M   'P 1'
_cell_length_a   16.02919875
_cell_length_b   22.30922978
_cell_length_c   16.39084281
_cell_angle_alpha   89.99810909
_cell_angle_beta   90.00256396
_cell_angle_gamma   90.00279676
_symmetry_Int_Tables_number   1
_chemical_formula_structural   Ca108Mn108O277
_chemical_formula_sum   'Ca108 Mn108 O277'
_cell_volume   5861.35026235
_cell_formula_units_Z   1
loop_
 _symmetry_equiv_pos_site_id
 _symmetry_equiv_pos_as_xyz
  1  'x, y, z'
loop_
 _atom_type_symbol
 _atom_type_oxidation_number
  Ca2+  2.0
  Mn3.34+  3.34
  O2-  -2.0
loop_
 _atom_site_type_symbol
 _atom_site_label
 _atom_site_symmetry_multiplicity
 _atom_site_fract_x
 _atom_site_fract_y
 _atom_site_fract_z
 _atom_site_occupancy
  Ca2+  Ca0  1  0.06968683  0.24548127  0.24682368  1
  Ca2+  Ca1  1  0.08494121  0.26246475  0.58786134  1
  Ca2+  Ca2  1  0.06882738  0.25541176  0.91724120  1
  Ca2+  Ca3  1  0.06323337  0.74142865  0.27070675  1
  Ca2+  Ca4  1  0.07952281  0.74997678  0.56760225  1
  Ca2+  Ca5  1  0.09599457  0.76534684  0.91525203  1
  Ca2+  Ca6  1  0.41152206  0.24287140  0.24071549  1
  Ca2+  Ca7  1  0.42071161  0.25680142  0.58840444  1
  Ca2+  Ca8  1  0.42173596  0.25996096  0.91329149  1
  Ca2+  Ca9  1  0.43299750  0.73881630  0.24814736  1
  Ca2+  Ca10  1  0.42243733  0.73882520  0.54798572  1
  Ca2+  Ca11  1  0.43094342  0.74159442  0.93135031  1
  Ca2+  Ca12  1  0.76356996  0.24116322  0.25322112  1
  Ca2+  Ca13  1  0.74552014  0.24716763  0.58384923  1
  Ca2+  Ca14  1  0.75722185  0.24800634  0.91620420  1
  Ca2+  Ca15  1  0.75986303  0.75010976  0.25237550  1
  Ca2+  Ca16  1  0.74649919  0.74234122  0.57974102  1
  Ca2+  Ca17  1  0.72712624  0.74968753  0.91819009  1
  Ca2+  Ca18  1  0.24903561  0.25181248  0.09514026  1
  Ca2+  Ca19  1  0.24948758  0.25845994  0.41103486  1
  Ca2+  Ca20  1  0.25823744  0.26148052  0.74577349  1
  Ca2+  Ca21  1  0.26981844  0.76024487  0.07503665  1
  Ca2+  Ca22  1  0.24257658  0.74154454  0.42808295  1
  Ca2+  Ca23  1  0.23771918  0.75788307  0.74591176  1
  Ca2+  Ca24  1  0.58878552  0.25334499  0.08532829  1
  Ca2+  Ca25  1  0.59418172  0.24846822  0.41345757  1
  Ca2+  Ca26  1  0.58709939  0.26045082  0.74903908  1
  Ca2+  Ca27  1  0.57084253  0.74177364  0.07572871  1
  Ca2+  Ca28  1  0.57736079  0.75681180  0.41084894  1
  Ca2+  Ca29  1  0.59817326  0.74226058  0.76109275  1
  Ca2+  Ca30  1  0.91120270  0.23928321  0.10715973  1
  Ca2+  Ca31  1  0.90122499  0.24637641  0.40157737  1
  Ca2+  Ca32  1  0.90403551  0.25770456  0.76559349  1
  Ca2+  Ca33  1  0.91079581  0.75217208  0.10930909  1
  Ca2+  Ca34  1  0.92441883  0.73958962  0.41296225  1
  Ca2+  Ca35  1  0.91830421  0.73949831  0.74666430  1
  Ca2+  Ca36  1  0.24153507  0.57734159  0.74634106  1
  Ca2+  Ca37  1  0.28812502  0.58888951  0.06467813  1
  Ca2+  Ca38  1  0.71840187  0.60899810  0.91071945  1
  Ca2+  Ca39  1  0.42348917  0.09890077  0.58020120  1
  Ca2+  Ca40  1  0.55839392  0.60361268  0.41168515  1
  Ca2+  Ca41  1  0.27816419  0.58726552  0.06215140  1
  Ca2+  Ca42  1  0.08220088  0.59535781  0.57989390  1
  Ca2+  Ca43  1  0.59060493  0.09671612  0.73282470  1
  Ca2+  Ca44  1  0.27539988  0.08854374  0.10319166  1
  Ca2+  Ca45  1  0.75262928  0.59817190  0.59817277  1
  Ca2+  Ca46  1  0.24790048  0.07873096  0.74154890  1
  Ca2+  Ca47  1  0.76197530  0.60629894  0.25011370  1
  Ca2+  Ca48  1  0.26590289  0.07386611  0.37735456  1
  Ca2+  Ca49  1  0.57002487  0.08680599  0.08817682  1
  Ca2+  Ca50  1  0.89403689  0.59957910  0.74379077  1
  Ca2+  Ca51  1  0.60189478  0.60208240  0.74930786  1
  Ca2+  Ca52  1  0.71029630  0.60705318  0.90467995  1
  Ca2+  Ca53  1  0.25715901  0.06863469  0.37824494  1
  Ca2+  Ca54  1  0.89332877  0.09562566  0.75357375  1
  Ca2+  Ca55  1  0.09141628  0.59908007  0.57658174  1
  Ca2+  Ca56  1  0.08849290  0.08748518  0.58964055  1
  Ca2+  Ca57  1  0.76423034  0.08304468  0.27395488  1
  Ca2+  Ca58  1  0.93567638  0.60221097  0.40196078  1
  Ca2+  Ca59  1  0.05667393  0.09829390  0.23801525  1
  Ca2+  Ca60  1  0.55547850  0.60207459  0.08641120  1
  Ca2+  Ca61  1  0.41909617  0.08440701  0.93440344  1
  Ca2+  Ca62  1  0.08967155  0.58301175  0.91484978  1
  Ca2+  Ca63  1  0.90750414  0.60625524  0.10325723  1
  Ca2+  Ca64  1  0.75664598  0.08429023  0.92591341  1
  Ca2+  Ca65  1  0.46917952  0.58980461  0.92000242  1
  Ca2+  Ca66  1  0.26584165  0.08664722  0.10645169  1
  Ca2+  Ca67  1  0.90577399  0.09447755  0.75381412  1
  Ca2+  Ca68  1  0.25521058  0.08519380  0.74156645  1
  Ca2+  Ca69  1  0.10215525  0.58507547  0.91442503  1
  Ca2+  Ca70  1  0.54701192  0.60300303  0.41694851  1
  Ca2+  Ca71  1  0.22890142  0.57644900  0.74642008  1
  Ca2+  Ca72  1  0.08921485  0.40447945  0.90828716  1
  Ca2+  Ca73  1  0.91511417  0.91225279  0.41238220  1
  Ca2+  Ca74  1  0.11328473  0.91883063  0.25314339  1
  Ca2+  Ca75  1  0.90231223  0.91269976  0.41170433  1
  Ca2+  Ca76  1  0.72394405  0.40555090  0.90700671  1
  Ca2+  Ca77  1  0.75384457  0.39611753  0.58780773  1
  Ca2+  Ca78  1  0.73451280  0.91958583  0.25363872  1
  Ca2+  Ca79  1  0.10430297  0.92193737  0.25651045  1
  Ca2+  Ca80  1  0.91075758  0.90853307  0.08134578  1
  Ca2+  Ca81  1  0.92383461  0.90096704  0.75789782  1
  Ca2+  Ca82  1  0.57747442  0.89881275  0.75413131  1
  Ca2+  Ca83  1  0.74334464  0.90417510  0.58027236  1
  Ca2+  Ca84  1  0.72952361  0.91984761  0.92190512  1
  Ca2+  Ca85  1  0.25188638  0.41425681  0.05424234  1
  Ca2+  Ca86  1  0.92329772  0.40566827  0.73978287  1
  Ca2+  Ca87  1  0.07179760  0.39814208  0.23558662  1
  Ca2+  Ca88  1  0.09855784  0.90273875  0.58463780  1
  Ca2+  Ca89  1  0.40328610  0.89657670  0.57860349  1
  Ca2+  Ca90  1  0.92323319  0.90862746  0.08019010  1
  Ca2+  Ca91  1  0.57555035  0.40309638  0.41259404  1
  Ca2+  Ca92  1  0.91132894  0.90258767  0.75636658  1
  Ca2+  Ca93  1  0.42349083  0.39874627  0.25613729  1
  Ca2+  Ca94  1  0.73964937  0.91674414  0.92494507  1
  Ca2+  Ca95  1  0.09166818  0.42118468  0.61080362  1
  Ca2+  Ca96  1  0.41460077  0.91636688  0.25115052  1
  Ca2+  Ca97  1  0.59765478  0.92974945  0.39399202  1
  Ca2+  Ca98  1  0.73237647  0.90742245  0.57583274  1
  Ca2+  Ca99  1  0.25257925  0.40897432  0.75590737  1
  Ca2+  Ca100  1  0.73429679  0.40410882  0.91155919  1
  Ca2+  Ca101  1  0.57298724  0.40836444  0.06956066  1
  Ca2+  Ca102  1  0.74957061  0.39796520  0.24925501  1
  Ca2+  Ca103  1  0.41303331  0.89939375  0.58116380  1
  Ca2+  Ca104  1  0.42549604  0.91608568  0.25094279  1
  Ca2+  Ca105  1  0.57979210  0.91821227  0.07742187  1
  Ca2+  Ca106  1  0.25823993  0.91663934  0.05534988  1
  Ca2+  Ca107  1  0.08297494  0.39912106  0.23815356  1
  Mn3.34+  Mn108  1  0.08168363  0.33064540  0.07880608  1
  Mn3.34+  Mn109  1  0.08335506  0.33384585  0.42241066  1
  Mn3.34+  Mn110  1  0.08474191  0.33657550  0.75046959  1
  Mn3.34+  Mn111  1  0.09133701  0.83523523  0.08297803  1
  Mn3.34+  Mn112  1  0.08755201  0.83522773  0.41772720  1
  Mn3.34+  Mn113  1  0.08798906  0.83233650  0.75158302  1
  Mn3.34+  Mn114  1  0.41341822  0.33269504  0.08422918  1
  Mn3.34+  Mn115  1  0.41476634  0.33310069  0.42221006  1
  Mn3.34+  Mn116  1  0.41977013  0.33550456  0.74699677  1
  Mn3.34+  Mn117  1  0.41928006  0.83340572  0.07991099  1
  Mn3.34+  Mn118  1  0.41505523  0.83445507  0.41203135  1
  Mn3.34+  Mn119  1  0.41376676  0.82816678  0.75707136  1
  Mn3.34+  Mn120  1  0.75057897  0.32997352  0.08498902  1
  Mn3.34+  Mn121  1  0.75018267  0.33008206  0.41802472  1
  Mn3.34+  Mn122  1  0.74742733  0.33344585  0.74690879  1
  Mn3.34+  Mn123  1  0.74548712  0.83376790  0.08615667  1
  Mn3.34+  Mn124  1  0.74695011  0.83270048  0.41338894  1
  Mn3.34+  Mn125  1  0.74956635  0.82807981  0.75318146  1
  Mn3.34+  Mn126  1  0.25072858  0.33152016  0.25034457  1
  Mn3.34+  Mn127  1  0.25543758  0.34021111  0.57571560  1
  Mn3.34+  Mn128  1  0.25171041  0.33470700  0.91487645  1
  Mn3.34+  Mn129  1  0.25355477  0.83636523  0.24491511  1
  Mn3.34+  Mn130  1  0.24879287  0.82793040  0.58555178  1
  Mn3.34+  Mn131  1  0.25808659  0.83994651  0.90883740  1
  Mn3.34+  Mn132  1  0.58307473  0.33220342  0.24750930  1
  Mn3.34+  Mn133  1  0.57977491  0.33481862  0.57889467  1
  Mn3.34+  Mn134  1  0.57362823  0.33506033  0.91433802  1
  Mn3.34+  Mn135  1  0.58427995  0.83613144  0.24630145  1
  Mn3.34+  Mn136  1  0.58063291  0.83124818  0.58121689  1
  Mn3.34+  Mn137  1  0.57433541  0.83577052  0.91646706  1
  Mn3.34+  Mn138  1  0.91286496  0.33177502  0.25122702  1
  Mn3.34+  Mn139  1  0.91958101  0.33540376  0.57393658  1
  Mn3.34+  Mn140  1  0.91448739  0.33377686  0.91946931  1
  Mn3.34+  Mn141  1  0.91863567  0.83733223  0.24863757  1
  Mn3.34+  Mn142  1  0.91675301  0.82950968  0.57998898  1
  Mn3.34+  Mn143  1  0.91651691  0.82768141  0.91534999  1
  Mn3.34+  Mn144  1  0.91390124  0.66706827  0.58152017  1
  Mn3.34+  Mn145  1  0.07992524  0.66858961  0.75420620  1
  Mn3.34+  Mn146  1  0.57682042  0.15897717  0.91587510  1
  Mn3.34+  Mn147  1  0.08966771  0.16525053  0.75390249  1
  Mn3.34+  Mn148  1  0.74594965  0.17015521  0.74787195  1
  Mn3.34+  Mn149  1  0.08870663  0.66955210  0.08814838  1
  Mn3.34+  Mn150  1  0.25496358  0.66514643  0.57498344  1
  Mn3.34+  Mn151  1  0.75275257  0.15798997  0.42417449  1
  Mn3.34+  Mn152  1  0.91354906  0.66985878  0.91568956  1
  Mn3.34+  Mn153  1  0.24342340  0.16504522  0.92120947  1
  Mn3.34+  Mn154  1  0.07542430  0.66363029  0.09078831  1
  Mn3.34+  Mn155  1  0.07807715  0.16939076  0.75377079  1
  Mn3.34+  Mn156  1  0.25346066  0.67112887  0.90933080  1
  Mn3.34+  Mn157  1  0.41170621  0.65894794  0.74551645  1
  Mn3.34+  Mn158  1  0.07287724  0.16539055  0.42149124  1
  Mn3.34+  Mn159  1  0.91641209  0.16407804  0.92814992  1
  Mn3.34+  Mn160  1  0.58741502  0.16339144  0.91747949  1
  Mn3.34+  Mn161  1  0.24749393  0.66444639  0.25255434  1
  Mn3.34+  Mn162  1  0.57581018  0.15837605  0.25142269  1
  Mn3.34+  Mn163  1  0.58652172  0.66956226  0.58048971  1
  Mn3.34+  Mn164  1  0.25398068  0.16460107  0.57179621  1
  Mn3.34+  Mn165  1  0.58594451  0.16327064  0.25146809  1
  Mn3.34+  Mn166  1  0.41727597  0.67003680  0.74265020  1
  Mn3.34+  Mn167  1  0.74812297  0.67162107  0.08700946  1
  Mn3.34+  Mn168  1  0.25586703  0.67071735  0.25187480  1
  Mn3.34+  Mn169  1  0.07934444  0.16305304  0.08171045  1
  Mn3.34+  Mn170  1  0.41813542  0.16798746  0.42080379  1
  Mn3.34+  Mn171  1  0.58565374  0.66777387  0.24495493  1
  Mn3.34+  Mn172  1  0.41708339  0.17058141  0.75038166  1
  Mn3.34+  Mn173  1  0.08360382  0.16969451  0.41930571  1
  Mn3.34+  Mn174  1  0.58514468  0.16690409  0.57571903  1
  Mn3.34+  Mn175  1  0.25402765  0.16073469  0.91944494  1
  Mn3.34+  Mn176  1  0.24932640  0.16940014  0.24907684  1
  Mn3.34+  Mn177  1  0.91114227  0.17053208  0.57735307  1
  Mn3.34+  Mn178  1  0.75390747  0.16289178  0.09000042  1
  Mn3.34+  Mn179  1  0.75276781  0.66688828  0.41859733  1
  Mn3.34+  Mn180  1  0.42048957  -0.00219591  0.06709060  1
  Mn3.34+  Mn181  1  0.56482058  0.49734579  0.59175604  1
  Mn3.34+  Mn182  1  0.41482197  -0.00484762  0.76509374  1
  Mn3.34+  Mn183  1  0.25960473  0.50177211  0.58646916  1
  Mn3.34+  Mn184  1  0.74893142  0.49974223  0.74541407  1
  Mn3.34+  Mn185  1  0.07901199  0.48868072  0.41201089  1
  Mn3.34+  Mn186  1  0.74309547  0.50446709  0.08575637  1
  Mn3.34+  Mn187  1  0.57616071  0.50472111  0.58797492  1
  Mn3.34+  Mn188  1  0.91401993  0.50302270  0.58622926  1
  Mn3.34+  Mn189  1  0.42592945  0.00069630  0.76600281  1
  Mn3.34+  Mn190  1  0.41554574  0.49610162  0.42131961  1
  Mn3.34+  Mn191  1  0.09172878  0.00267071  0.05920191  1
  Mn3.34+  Mn192  1  0.75659692  0.49816292  0.08985898  1
  Mn3.34+  Mn193  1  0.26623439  0.49576953  0.24870071  1
  Mn3.34+  Mn194  1  0.75143074  0.00471807  0.07974449  1
  Mn3.34+  Mn195  1  0.41781486  0.49548803  0.75691777  1
  Mn3.34+  Mn196  1  0.74964961  0.49462190  0.41411119  1
  Mn3.34+  Mn197  1  0.09444113  -0.00377396  0.76025134  1
  Mn3.34+  Mn198  1  0.25307676  0.50169954  0.25156582  1
  Mn3.34+  Mn199  1  0.42801222  0.00318653  0.40411091  1
  Mn3.34+  Mn200  1  0.58238730  0.00185649  0.57782571  1
  Mn3.34+  Mn201  1  0.76401020  0.49968670  0.41511078  1
  Mn3.34+  Mn202  1  0.08383177  0.50345976  0.08450244  1
  Mn3.34+  Mn203  1  0.42517206  0.49492536  0.07297157  1
  Mn3.34+  Mn204  1  0.90590833  0.50017159  0.91730427  1
  Mn3.34+  Mn205  1  0.73582875  -0.00245248  0.75058467  1
  Mn3.34+  Mn206  1  0.91534002  0.00230992  0.25840175  1
  Mn3.34+  Mn207  1  0.08313209  0.00172504  0.41953313  1
  Mn3.34+  Mn208  1  0.08917956  0.49422978  0.41309468  1
  Mn3.34+  Mn209  1  0.25134135  -0.00020635  0.57545114  1
  Mn3.34+  Mn210  1  0.91611856  0.49628478  0.24403775  1
  Mn3.34+  Mn211  1  0.57845622  0.50215878  0.25162619  1
  Mn3.34+  Mn212  1  0.92227365  0.00315567  0.58258176  1
  Mn3.34+  Mn213  1  0.91848210  0.50443003  0.91643344  1
  Mn3.34+  Mn214  1  0.93622063  0.00077138  0.92801991  1
  Mn3.34+  Mn215  1  0.90845055  0.00968238  0.58313215  1
  O2-  O216  1  0.00184870  0.18670041  0.00353489  1
  O2-  O217  1  -0.00044155  0.15774626  0.33798629  1
  O2-  O218  1  -0.00439083  0.15068811  0.66513593  1
  O2-  O219  1  0.00026432  0.64831108  -0.00546735  1
  O2-  O220  1  -0.00394784  0.67169206  0.33702170  1
  O2-  O221  1  -0.00189364  0.64754681  0.67015239  1
  O2-  O222  1  0.32938200  0.15341022  0.00718830  1
  O2-  O223  1  0.32577053  0.16287044  0.34285283  1
  O2-  O224  1  0.32933468  0.15069801  0.66980844  1
  O2-  O225  1  0.33981295  0.65221267  -0.02076181  1
  O2-  O226  1  0.33545000  0.68152255  0.32723875  1
  O2-  O227  1  0.32968189  0.64616757  0.66677955  1
  O2-  O228  1  0.66401104  0.14427640  0.00303640  1
  O2-  O229  1  0.66230546  0.15224191  0.33396505  1
  O2-  O230  1  0.65964675  0.17462194  0.66933431  1
  O2-  O231  1  0.66125213  0.65692968  0.01456244  1
  O2-  O232  1  0.66543020  0.64521614  0.34222645  1
  O2-  O233  1  0.66616929  0.66458903  0.66053998  1
  O2-  O234  1  0.16678421  0.18555865  0.00379315  1
  O2-  O235  1  0.16434778  0.14487612  0.33632599  1
  O2-  O236  1  0.17062540  0.15538164  0.66352978  1
  O2-  O237  1  0.16900416  0.64704054  0.00999440  1
  O2-  O238  1  0.17301252  0.67896193  0.33406210  1
  O2-  O239  1  0.16771785  0.64917986  0.67568212  1
  O2-  O240  1  0.49622068  0.15763344  -0.00246161  1
  O2-  O241  1  0.49433036  0.17530966  0.33311797  1
  O2-  O242  1  0.49949844  0.16156397  0.66470342  1
  O2-  O243  1  0.49803532  0.66391794  -0.00025568  1
  O2-  O244  1  0.50319826  0.66140172  0.32126289  1
  O2-  O245  1  0.50005080  0.66045538  0.66362870  1
  O2-  O246  1  0.82787730  0.15274471  -0.00041352  1
  O2-  O247  1  0.82443982  0.16216162  0.34152578  1
  O2-  O248  1  0.83745682  0.16559592  0.67029489  1
  O2-  O249  1  0.82401014  0.64991079  -0.00604899  1
  O2-  O250  1  0.83277182  0.65969320  0.34318861  1
  O2-  O251  1  0.83296684  0.66753949  0.66271920  1
  O2-  O252  1  0.00589006  0.33377918  -0.00897842  1
  O2-  O253  1  0.00509956  0.34560675  0.32955269  1
  O2-  O254  1  0.00473159  0.34196801  0.65994204  1
  O2-  O255  1  -0.01013151  0.83967910  0.00563347  1
  O2-  O256  1  0.00371139  0.85954862  0.32854031  1
  O2-  O257  1  -0.00263926  0.85158789  0.66139643  1
  O2-  O258  1  0.32953281  0.31543316  0.00151338  1
  O2-  O259  1  0.33891504  0.33130639  0.33067322  1
  O2-  O260  1  0.32979113  0.33360373  0.66583271  1
  O2-  O261  1  0.33503085  0.84056713  0.00158234  1
  O2-  O262  1  0.34040209  0.84721592  0.32403959  1
  O2-  O263  1  0.33955203  0.83143349  0.66475617  1
  O2-  O264  1  0.66442616  0.34314453  0.00199926  1
  O2-  O265  1  0.66481672  0.35015395  0.33499864  1
  O2-  O266  1  0.67013255  0.32837003  0.65880158  1
  O2-  O267  1  0.66546624  0.85266095  0.00138406  1
  O2-  O268  1  0.66462172  0.85183743  0.33387296  1
  O2-  O269  1  0.66660136  0.84458420  0.66815791  1
  O2-  O270  1  0.16824251  0.32084102  -0.00122451  1
  O2-  O271  1  0.16441694  0.35479039  0.33053570  1
  O2-  O272  1  0.17178523  0.33599582  0.66855797  1
  O2-  O273  1  0.17062541  0.84352570  0.00213301  1
  O2-  O274  1  0.16619341  0.84191579  0.32779230  1
  O2-  O275  1  0.16731806  0.84281748  0.66716618  1
  O2-  O276  1  0.49880658  0.32806983  0.00523987  1
  O2-  O277  1  0.49985240  0.33391295  0.33436857  1
  O2-  O278  1  0.50483910  0.32420714  0.66488736  1
  O2-  O279  1  0.50274475  0.85255727  0.00471126  1
  O2-  O280  1  0.50240649  0.85453169  0.33565035  1
  O2-  O281  1  0.49728197  0.84661398  0.66240417  1
  O2-  O282  1  0.82288627  0.35151730  -0.00772579  1
  O2-  O283  1  0.83165573  0.34417804  0.33368280  1
  O2-  O284  1  0.84090587  0.33331848  0.66968192  1
  O2-  O285  1  0.82589765  0.85137535  -0.00702999  1
  O2-  O286  1  0.83273984  0.85368337  0.32860162  1
  O2-  O287  1  0.82882362  0.84911242  0.66396790  1
  O2-  O288  1  0.00901102  0.17860584  0.16338721  1
  O2-  O289  1  0.00166428  0.19170797  0.50766947  1
  O2-  O290  1  -0.01026789  0.17186618  0.83164744  1
  O2-  O291  1  -0.00406397  0.68424461  0.16331279  1
  O2-  O292  1  0.00123772  0.67052620  0.51039020  1
  O2-  O293  1  0.00122793  0.68633728  0.83707874  1
  O2-  O294  1  0.32475918  0.17786063  0.16674176  1
  O2-  O295  1  0.33929259  0.19079668  0.50259243  1
  O2-  O296  1  0.33407239  0.18836443  0.84097912  1
  O2-  O297  1  0.32086960  0.67815995  0.15856374  1
  O2-  O298  1  0.32692442  0.67978049  0.49926321  1
  O2-  O299  1  0.32758596  0.68800683  0.81535463  1
  O2-  O300  1  0.66319121  0.17942375  0.16387309  1
  O2-  O301  1  0.66675174  0.18586045  0.50136757  1
  O2-  O302  1  0.66660186  0.17354125  0.83550873  1
  O2-  O303  1  0.67712714  0.68514289  0.17437625  1
  O2-  O304  1  0.67024109  0.67706021  0.50106462  1
  O2-  O305  1  0.67141513  0.68046714  0.83262004  1
  O2-  O306  1  0.16782781  0.17727094  0.16610658  1
  O2-  O307  1  0.15917414  0.18688213  0.50206317  1
  O2-  O308  1  0.17339031  0.19366395  0.83561618  1
  O2-  O309  1  0.16300250  0.68632285  0.17868083  1
  O2-  O310  1  0.16164661  0.67571198  0.51655197  1
  O2-  O311  1  0.15785488  0.68124623  0.84012226  1
  O2-  O312  1  0.50485447  0.17903134  0.16647192  1
  O2-  O313  1  0.49798889  0.18758765  0.50278776  1
  O2-  O314  1  0.50344830  0.18267281  0.82933448  1
  O2-  O315  1  0.51177931  0.67863182  0.16575215  1
  O2-  O316  1  0.51456893  0.67857409  0.49044304  1
  O2-  O317  1  0.49620945  0.68019795  0.82364276  1
  O2-  O318  1  0.82516797  0.17377939  0.16899986  1
  O2-  O319  1  0.83151002  0.19014900  0.50221447  1
  O2-  O320  1  0.83169625  0.17053809  0.82934959  1
  O2-  O321  1  0.83168393  0.68064529  0.16246514  1
  O2-  O322  1  0.83415485  0.68517759  0.50075076  1
  O2-  O323  1  0.83525674  0.68536072  0.84173171  1
  O2-  O324  1  0.00377439  0.32008214  0.16673060  1
  O2-  O325  1  -0.00205729  0.30897902  0.49609817  1
  O2-  O326  1  -0.00317218  0.32505934  0.82913717  1
  O2-  O327  1  0.00072971  0.83085060  0.16545195  1
  O2-  O328  1  -0.00930638  0.83266657  0.49165805  1
  O2-  O329  1  -0.00414511  0.81611570  0.82673547  1
  O2-  O330  1  0.33351498  0.31536383  0.16701690  1
  O2-  O331  1  0.33399231  0.30994082  0.50038540  1
  O2-  O332  1  0.32979237  0.31978185  0.83378665  1
  O2-  O333  1  0.33573882  0.82177145  0.16759000  1
  O2-  O334  1  0.33721043  0.82213830  0.50365439  1
  O2-  O335  1  0.33640855  0.80572829  0.83459958  1
  O2-  O336  1  0.66475279  0.32218182  0.16543371  1
  O2-  O337  1  0.66503825  0.31710387  0.49996738  1
  O2-  O338  1  0.66783159  0.32551319  0.83910827  1
  O2-  O339  1  0.66917113  0.82526196  0.16902961  1
  O2-  O340  1  0.67068173  0.82420025  0.50689153  1
  O2-  O341  1  0.66970490  0.82039148  0.83514430  1
  O2-  O342  1  0.15821151  0.31739797  0.16955196  1
  O2-  O343  1  0.16857984  0.31379954  0.50267219  1
  O2-  O344  1  0.16571409  0.31857152  0.83534090  1
  O2-  O345  1  0.16775640  0.81431184  0.17313250  1
  O2-  O346  1  0.16336828  0.82305777  0.50640494  1
  O2-  O347  1  0.17000389  0.82218663  0.83029204  1
  O2-  O348  1  0.49600261  0.31452950  0.16738750  1
  O2-  O349  1  0.50331345  0.31140250  0.49472982  1
  O2-  O350  1  0.49949844  0.31810129  0.83059685  1
  O2-  O351  1  0.49249110  0.82680812  0.17614458  1
  O2-  O352  1  0.49389246  0.82881720  0.50455116  1
  O2-  O353  1  0.50684475  0.81333323  0.82316624  1
  O2-  O354  1  0.82813256  0.32068454  0.17021900  1
  O2-  O355  1  0.82784705  0.31556217  0.50633105  1
  O2-  O356  1  0.82803135  0.33437351  0.83648427  1
  O2-  O357  1  0.83851995  0.82851515  0.16122951  1
  O2-  O358  1  0.82986472  0.82179051  0.50169486  1
  O2-  O359  1  0.83872005  0.80920992  0.82552036  1
  O2-  O360  1  0.10142665  0.07962378  0.10815541  1
  O2-  O361  1  0.07833224  0.08270698  0.45458983  1
  O2-  O362  1  0.10682050  0.08271236  0.78774539  1
  O2-  O363  1  0.06578226  0.58469562  0.12301711  1
  O2-  O364  1  0.07003910  0.57284941  0.44801771  1
  O2-  O365  1  0.09195886  0.58109370  0.78173938  1
  O2-  O366  1  0.41204407  0.06723876  0.11788015  1
  O2-  O367  1  0.39886233  0.07643455  0.44678746  1
  O2-  O368  1  0.41016497  0.08300292  0.78906052  1
  O2-  O369  1  0.41019404  0.56684082  0.11872361  1
  O2-  O370  1  0.43477886  0.56490224  0.47043204  1
  O2-  O371  1  0.40259293  0.57815590  0.79244001  1
  O2-  O372  1  0.73707923  0.07970467  0.11731095  1
  O2-  O373  1  0.75400973  0.08076205  0.43136110  1
  O2-  O374  1  0.75203205  0.08285436  0.76858333  1
  O2-  O375  1  0.75338866  0.58503771  0.11388943  1
  O2-  O376  1  0.75804787  0.57841857  0.45518719  1
  O2-  O377  1  0.75350496  0.57709901  0.78032909  1
  O2-  O378  1  0.25128643  0.08358073  0.23801190  1
  O2-  O379  1  0.24303880  0.07805486  0.52289099  1
  O2-  O380  1  0.26109863  0.08008977  0.87512805  1
  O2-  O381  1  0.24919229  0.58049430  0.20757261  1
  O2-  O382  1  0.23986108  0.58175586  0.55674603  1
  O2-  O383  1  0.23612279  0.58320568  0.88073677  1
  O2-  O384  1  0.58632645  0.07936627  0.22383436  1
  O2-  O385  1  0.56823402  0.08194514  0.57065114  1
  O2-  O386  1  0.57600572  0.07872113  0.87859403  1
  O2-  O387  1  0.59906022  0.58172713  0.21899975  1
  O2-  O388  1  0.59071439  0.58295459  0.54942097  1
  O2-  O389  1  0.59578921  0.57115814  0.87378311  1
  O2-  O390  1  0.91457335  0.07299611  0.22153380  1
  O2-  O391  1  0.92467943  0.08641830  0.54948775  1
  O2-  O392  1  0.90457576  0.07736865  0.88399366  1
  O2-  O393  1  0.89534364  0.57233821  0.22647601  1
  O2-  O394  1  0.90549844  0.58256006  0.55164179  1
  O2-  O395  1  0.93068327  0.58134183  0.87356955  1
  O2-  O396  1  0.10555313  0.41973738  0.10310671  1
  O2-  O397  1  0.07974230  0.41495883  0.46790104  1
  O2-  O398  1  0.08589174  0.41777523  0.76700301  1
  O2-  O399  1  0.08677274  0.92593897  0.11733446  1
  O2-  O400  1  0.07387773  0.92183623  0.45126416  1
  O2-  O401  1  0.06052718  0.91558727  0.77236473  1
  O2-  O402  1  0.41488905  0.42153027  0.11659162  1
  O2-  O403  1  0.43064967  0.41760086  0.44037892  1
  O2-  O404  1  0.40153156  0.41545056  0.77069578  1
  O2-  O405  1  0.41183556  0.92461340  0.11391613  1
  O2-  O406  1  0.42209468  0.92734191  0.45166841  1
  O2-  O407  1  0.42371044  0.91393315  0.77396048  1
  O2-  O408  1  0.73787338  0.41785088  0.11269440  1
  O2-  O409  1  0.74488937  0.41665774  0.45498799  1
  O2-  O410  1  0.75259832  0.41823356  0.76787591  1
  O2-  O411  1  0.76957361  0.92404768  0.11178050  1
  O2-  O412  1  0.76453842  0.91946677  0.44869081  1
  O2-  O413  1  0.76999126  0.91787972  0.79025805  1
  O2-  O414  1  0.24766180  0.41739782  0.20633657  1
  O2-  O415  1  0.23593578  0.42317890  0.56693593  1
  O2-  O416  1  0.23285590  0.41558852  0.90723396  1
  O2-  O417  1  0.24390219  0.91962901  0.21400548  1
  O2-  O418  1  0.26519987  0.91415468  0.57094284  1
  O2-  O419  1  0.25730596  0.91756419  0.90240719  1
  O2-  O420  1  0.56940473  0.41958157  0.21939078  1
  O2-  O421  1  0.58989552  0.42128691  0.55068543  1
  O2-  O422  1  0.58739818  0.41486388  0.91105598  1
  O2-  O423  1  0.57449268  0.91828895  0.21811218  1
  O2-  O424  1  0.59190963  0.91980124  0.54530355  1
  O2-  O425  1  0.60076552  0.92054262  0.88124951  1
  O2-  O426  1  0.93510361  0.41689011  0.21631875  1
  O2-  O427  1  0.90565101  0.42272415  0.57480554  1
  O2-  O428  1  0.92080190  0.41889443  0.88894949  1
  O2-  O429  1  0.92084832  0.92766491  0.21185787  1
  O2-  O430  1  0.90118883  0.92280766  0.55113707  1
  O2-  O431  1  0.90809353  0.91923491  0.88746242  1
  O2-  O432  1  -0.02327614  -0.00671059  0.04219951  1
  O2-  O433  1  0.00128581  -0.01612033  0.32938249  1
  O2-  O434  1  0.00138043  0.01548036  0.67339326  1
  O2-  O435  1  0.02728610  0.50139445  -0.03119475  1
  O2-  O436  1  0.00750843  0.49866136  0.31970317  1
  O2-  O437  1  0.01454710  0.51099765  0.62870664  1
  O2-  O438  1  0.34288153  0.01318989  -0.00200196  1
  O2-  O439  1  0.34083806  -0.00638455  0.33434861  1
  O2-  O440  1  0.33585073  0.01746328  0.67301692  1
  O2-  O441  1  0.33134162  0.49796089  0.01621379  1
  O2-  O442  1  0.34499675  0.49436570  0.33076440  1
  O2-  O443  1  0.31174366  0.49980942  0.70188329  1
  O2-  O444  1  0.66631149  -0.00936375  0.01052259  1
  O2-  O445  1  0.68032391  -0.00246491  0.32239134  1
  O2-  O446  1  0.67660943  -0.01637279  0.64791489  1
  O2-  O447  1  0.69545046  0.49337077  -0.02015775  1
  O2-  O448  1  0.66994535  0.49503565  0.33075836  1
  O2-  O449  1  0.67808184  0.50667809  0.65092010  1
  O2-  O450  1  0.20399179  0.00717363  0.05060394  1
  O2-  O451  1  0.16278245  0.00337317  0.33158687  1
  O2-  O452  1  0.16911476  0.01798684  0.66522075  1
  O2-  O453  1  0.17832735  0.53060576  0.01818018  1
  O2-  O454  1  0.17159505  0.48716363  0.33007717  1
  O2-  O455  1  0.16439208  0.51449117  0.65257317  1
  O2-  O456  1  0.50978152  0.00811850  0.01357660  1
  O2-  O457  1  0.49881596  -0.01621397  0.32778657  1
  O2-  O458  1  0.50343989  -0.00406207  0.67196580  1
  O2-  O459  1  0.51642907  0.50862022  0.02084449  1
  O2-  O460  1  0.51189182  0.50514215  0.35227419  1
  O2-  O461  1  0.50873016  0.51454303  0.68947441  1
  O2-  O462  1  0.81807389  -0.00632554  -0.01829076  1
  O2-  O463  1  0.83562889  -0.01507842  0.32760044  1
  O2-  O464  1  0.84625817  -0.00475178  0.68551770  1
  O2-  O465  1  0.85611060  0.50978161  0.02331363  1
  O2-  O466  1  0.83418735  0.48876279  0.32580086  1
  O2-  O467  1  0.84891916  0.50859515  0.68189208  1
  O2-  O468  1  0.24706156  0.74659780  0.60777283  1
  O2-  O469  1  0.07335689  0.75726867  0.40815437  1
  O2-  O470  1  0.90239909  0.25242264  0.91939467  1
  O2-  O471  1  0.74944306  0.24727337  0.05786523  1
  O2-  O472  1  0.58079296  0.75838319  0.94062628  1
  O2-  O473  1  0.58250222  0.75162134  0.60420937  1
  O2-  O474  1  0.92810230  0.74983323  0.60610193  1
  O2-  O475  1  0.91476471  0.75986578  0.27032743  1
  O2-  O476  1  0.07969755  0.74772272  0.05347489  1
  O2-  O477  1  0.23747931  0.24981395  0.27370241  1
  O2-  O478  1  0.74059533  0.75055811  0.39192496  1
  O2-  O479  1  0.59766572  0.24631381  0.27024863  1
  O2-  O480  1  0.75391301  0.25145982  0.74751658  1
  O2-  O481  1  0.40830422  0.24999231  0.72957839  1
  O2-  O482  1  0.59026725  0.24670213  0.93586039  1
  O2-  O483  1  0.74463530  0.25156575  0.39071380  1
  O2-  O484  1  0.91678481  0.25298361  0.26412102  1
  O2-  O485  1  0.09424305  0.25113027  0.38408132  1
  O2-  O486  1  0.07442630  0.25167168  0.72775070  1
  O2-  O487  1  0.24241173  0.74971995  0.94177535  1
  O2-  O488  1  0.42856226  0.75753877  0.39837656  1
  O2-  O489  1  0.08337019  0.74852125  0.71861882  1
  O2-  O490  1  0.58959528  0.75248849  0.27365894  1
  O2-  O491  1  0.42155826  0.75556643  0.06741930  1
  O2-  O492  1  0.75659613  0.75273626  0.05626683  1
