# generated using pymatgen
data_Ca108Mn108O277
_symmetry_space_group_name_H-M   'P 1'
_cell_length_a   16.03116394
_cell_length_b   22.31297858
_cell_length_c   16.39060238
_cell_angle_alpha   90.00208864
_cell_angle_beta   89.99325712
_cell_angle_gamma   89.99527937
_symmetry_Int_Tables_number   1
_chemical_formula_structural   Ca108Mn108O277
_chemical_formula_sum   'Ca108 Mn108 O277'
_cell_volume   5862.96786848
_cell_formula_units_Z   1
loop_
 _symmetry_equiv_pos_site_id
 _symmetry_equiv_pos_as_xyz
  1  'x, y, z'
loop_
 _atom_type_symbol
 _atom_type_oxidation_number
  Ca2+  2.0
  Mn3.34+  3.34
  O2-  -2.0
loop_
 _atom_site_type_symbol
 _atom_site_label
 _atom_site_symmetry_multiplicity
 _atom_site_fract_x
 _atom_site_fract_y
 _atom_site_fract_z
 _atom_site_occupancy
  Ca2+  Ca0  1  0.10547755  0.24922010  0.24949294  1
  Ca2+  Ca1  1  0.07448515  0.26690357  0.58591917  1
  Ca2+  Ca2  1  0.09224611  0.26758116  0.91663071  1
  Ca2+  Ca3  1  0.08724383  0.74176227  0.23252554  1
  Ca2+  Ca4  1  0.07918705  0.74770368  0.58249752  1
  Ca2+  Ca5  1  0.07168495  0.74702681  0.94193598  1
  Ca2+  Ca6  1  0.39588539  0.25211753  0.25285029  1
  Ca2+  Ca7  1  0.43813124  0.23926897  0.59931529  1
  Ca2+  Ca8  1  0.42248782  0.24898134  0.89824454  1
  Ca2+  Ca9  1  0.40757057  0.75183936  0.23829161  1
  Ca2+  Ca10  1  0.42560288  0.74965662  0.59100094  1
  Ca2+  Ca11  1  0.43197036  0.74204565  0.92747826  1
  Ca2+  Ca12  1  0.75376771  0.25840542  0.24105143  1
  Ca2+  Ca13  1  0.74791626  0.25952578  0.58396386  1
  Ca2+  Ca14  1  0.73799382  0.25946900  0.92019260  1
  Ca2+  Ca15  1  0.74815243  0.74713531  0.24247413  1
  Ca2+  Ca16  1  0.74336866  0.75116362  0.57882346  1
  Ca2+  Ca17  1  0.74232439  0.75488723  0.92148268  1
  Ca2+  Ca18  1  0.25000686  0.26268862  0.07330156  1
  Ca2+  Ca19  1  0.25679023  0.24713927  0.40205085  1
  Ca2+  Ca20  1  0.26816549  0.24886063  0.77812348  1
  Ca2+  Ca21  1  0.25303410  0.74894315  0.10315139  1
  Ca2+  Ca22  1  0.24875396  0.74906375  0.38909183  1
  Ca2+  Ca23  1  0.26750493  0.75353444  0.74719494  1
  Ca2+  Ca24  1  0.58800504  0.26037474  0.06310046  1
  Ca2+  Ca25  1  0.57136150  0.24790650  0.45298302  1
  Ca2+  Ca26  1  0.56379477  0.24453994  0.75414748  1
  Ca2+  Ca27  1  0.56752509  0.73211213  0.09008550  1
  Ca2+  Ca28  1  0.59268009  0.73754990  0.39907064  1
  Ca2+  Ca29  1  0.57156822  0.74741367  0.75466206  1
  Ca2+  Ca30  1  0.90826153  0.26081412  0.07715297  1
  Ca2+  Ca31  1  0.92357173  0.25476478  0.44629620  1
  Ca2+  Ca32  1  0.91862887  0.26788409  0.74075972  1
  Ca2+  Ca33  1  0.92669836  0.74603336  0.10318029  1
  Ca2+  Ca34  1  0.90385030  0.73656789  0.38981863  1
  Ca2+  Ca35  1  0.91327633  0.74784228  0.75097449  1
  Ca2+  Ca36  1  0.92708461  0.58551430  0.74023209  1
  Ca2+  Ca37  1  0.55222794  0.11390576  0.43408506  1
  Ca2+  Ca38  1  0.07800884  0.58162373  0.92033528  1
  Ca2+  Ca39  1  0.08488019  0.58343867  0.61365161  1
  Ca2+  Ca40  1  0.07249816  0.08632169  0.92192282  1
  Ca2+  Ca41  1  0.04380679  0.09580172  0.58088756  1
  Ca2+  Ca42  1  0.74590636  0.09682695  0.92256621  1
  Ca2+  Ca43  1  0.08655661  0.57955132  0.91513022  1
  Ca2+  Ca44  1  0.42612580  0.61586102  0.21817353  1
  Ca2+  Ca45  1  0.27420733  0.59090129  0.39745875  1
  Ca2+  Ca46  1  0.24493921  0.60717565  0.09909023  1
  Ca2+  Ca47  1  0.91428801  0.56581283  0.36731731  1
  Ca2+  Ca48  1  0.72719880  0.07628150  0.60490600  1
  Ca2+  Ca49  1  0.75625382  0.58898611  0.26095618  1
  Ca2+  Ca50  1  0.30416662  0.09689679  0.76320714  1
  Ca2+  Ca51  1  0.90526537  0.08211808  0.74636039  1
  Ca2+  Ca52  1  0.42605863  0.10673252  0.89939561  1
  Ca2+  Ca53  1  0.71532718  0.07249171  0.59983447  1
  Ca2+  Ca54  1  0.74698632  0.58625497  0.58001644  1
  Ca2+  Ca55  1  0.91678532  0.08126262  0.07088946  1
  Ca2+  Ca56  1  0.42069930  0.58147692  0.96071604  1
  Ca2+  Ca57  1  0.55448122  0.09093062  0.75071349  1
  Ca2+  Ca58  1  0.75995712  0.08609741  0.24997064  1
  Ca2+  Ca59  1  0.94640351  0.59602647  0.11514298  1
  Ca2+  Ca60  1  0.08541198  0.08442276  0.92101104  1
  Ca2+  Ca61  1  0.91970318  0.09285244  0.42010641  1
  Ca2+  Ca62  1  0.36668669  0.10798116  0.27758377  1
  Ca2+  Ca63  1  0.46268546  0.09527745  0.59343712  1
  Ca2+  Ca64  1  0.58149965  0.58957437  0.40520273  1
  Ca2+  Ca65  1  0.41605886  0.57481111  0.95952447  1
  Ca2+  Ca66  1  0.23967999  0.09642682  0.08401835  1
  Ca2+  Ca67  1  0.26219101  0.58814752  0.39286133  1
  Ca2+  Ca68  1  0.41728224  0.61840858  0.21395574  1
  Ca2+  Ca69  1  0.59444344  0.09599731  0.06676634  1
  Ca2+  Ca70  1  0.73406578  0.58651188  0.58026475  1
  Ca2+  Ca71  1  0.76644628  0.58811417  0.25998188  1
  Ca2+  Ca72  1  0.25637889  0.90170631  0.40479979  1
  Ca2+  Ca73  1  0.58921776  0.92904780  0.72759537  1
  Ca2+  Ca74  1  0.91599285  0.41200727  0.07567249  1
  Ca2+  Ca75  1  0.74591397  0.41277385  0.57642770  1
  Ca2+  Ca76  1  0.26671166  0.90204600  0.74352318  1
  Ca2+  Ca77  1  0.44111479  0.92727510  0.61872548  1
  Ca2+  Ca78  1  0.58294267  0.40838287  0.74589149  1
  Ca2+  Ca79  1  0.92651286  0.90390503  0.41991842  1
  Ca2+  Ca80  1  0.41744083  0.41695303  0.92258171  1
  Ca2+  Ca81  1  0.25287337  0.40046682  0.41841209  1
  Ca2+  Ca82  1  0.57624508  0.89715134  0.42240080  1
  Ca2+  Ca83  1  0.26367929  0.43323864  0.04753998  1
  Ca2+  Ca84  1  0.91087238  0.41092223  0.41771558  1
  Ca2+  Ca85  1  0.07751677  0.89444199  0.58721822  1
  Ca2+  Ca86  1  0.42459038  0.41241492  0.58883453  1
  Ca2+  Ca87  1  0.43344087  0.41504525  0.58457834  1
  Ca2+  Ca88  1  0.75280630  0.90028684  0.24464019  1
  Ca2+  Ca89  1  0.77909456  0.42456249  0.26225810  1
  Ca2+  Ca90  1  0.05267771  0.41223668  0.25412447  1
  Ca2+  Ca91  1  0.41400699  0.89601296  0.24834769  1
  Ca2+  Ca92  1  0.40691066  0.41715270  0.92278463  1
  Ca2+  Ca93  1  0.58482612  0.89152926  0.09182650  1
  Ca2+  Ca94  1  0.06298105  0.41544385  0.25583111  1
  Ca2+  Ca95  1  0.23607618  0.41943743  0.76142948  1
  Ca2+  Ca96  1  0.40511545  0.90140301  0.90220803  1
  Ca2+  Ca97  1  0.92990747  0.90126485  0.07602632  1
  Ca2+  Ca98  1  0.91287031  0.90346782  0.41924417  1
  Ca2+  Ca99  1  0.76889516  0.42169031  0.26392654  1
  Ca2+  Ca100  1  0.41677623  0.90147887  0.90304476  1
  Ca2+  Ca101  1  0.72747383  0.91830922  0.60893490  1
  Ca2+  Ca102  1  0.87919497  0.91212838  0.76381247  1
  Ca2+  Ca103  1  0.41942423  0.39443876  0.23757893  1
  Ca2+  Ca104  1  0.59328510  0.41231361  0.41783840  1
  Ca2+  Ca105  1  0.07367355  0.42319290  0.61080569  1
  Ca2+  Ca106  1  0.89066322  0.91209333  0.76078479  1
  Ca2+  Ca107  1  0.09047718  0.89407343  0.58615828  1
  Mn3.34+  Mn108  1  0.08361502  0.33910383  0.07927771  1
  Mn3.34+  Mn109  1  0.08612307  0.33806873  0.42420192  1
  Mn3.34+  Mn110  1  0.08159998  0.34524699  0.75599251  1
  Mn3.34+  Mn111  1  0.08702562  0.83131597  0.08334353  1
  Mn3.34+  Mn112  1  0.08593398  0.83154715  0.40941594  1
  Mn3.34+  Mn113  1  0.08501251  0.82115688  0.75944615  1
  Mn3.34+  Mn114  1  0.41916835  0.33822953  0.08303365  1
  Mn3.34+  Mn115  1  0.41751997  0.33013112  0.41907595  1
  Mn3.34+  Mn116  1  0.41271747  0.33911009  0.75216222  1
  Mn3.34+  Mn117  1  0.41309279  0.83079856  0.08243847  1
  Mn3.34+  Mn118  1  0.41619470  0.82691281  0.42105815  1
  Mn3.34+  Mn119  1  0.42138029  0.82976372  0.74879984  1
  Mn3.34+  Mn120  1  0.74509370  0.33933258  0.07987415  1
  Mn3.34+  Mn121  1  0.74816492  0.33820792  0.41689007  1
  Mn3.34+  Mn122  1  0.74961605  0.33639538  0.75402838  1
  Mn3.34+  Mn123  1  0.75114262  0.83077207  0.07979848  1
  Mn3.34+  Mn124  1  0.74665676  0.82877073  0.41676941  1
  Mn3.34+  Mn125  1  0.74051673  0.82768138  0.75412252  1
  Mn3.34+  Mn126  1  0.24821387  0.33549335  0.24309248  1
  Mn3.34+  Mn127  1  0.24908694  0.33569834  0.58595287  1
  Mn3.34+  Mn128  1  0.24712866  0.33790185  0.91685078  1
  Mn3.34+  Mn129  1  0.24341224  0.83364086  0.24318281  1
  Mn3.34+  Mn130  1  0.25616805  0.82662013  0.57691580  1
  Mn3.34+  Mn131  1  0.24106752  0.83484467  0.91905617  1
  Mn3.34+  Mn132  1  0.58350650  0.32820945  0.24685673  1
  Mn3.34+  Mn133  1  0.58579003  0.33589982  0.58554396  1
  Mn3.34+  Mn134  1  0.58480078  0.33638055  0.91335825  1
  Mn3.34+  Mn135  1  0.58394235  0.82950479  0.25080424  1
  Mn3.34+  Mn136  1  0.58225736  0.83244269  0.57833820  1
  Mn3.34+  Mn137  1  0.58705700  0.82993660  0.91662994  1
  Mn3.34+  Mn138  1  0.91722946  0.32643288  0.24870048  1
  Mn3.34+  Mn139  1  0.91371876  0.33800988  0.58880420  1
  Mn3.34+  Mn140  1  0.91397405  0.33563246  0.91332403  1
  Mn3.34+  Mn141  1  0.91958515  0.83470697  0.24296395  1
  Mn3.34+  Mn142  1  0.91252835  0.82254089  0.58197126  1
  Mn3.34+  Mn143  1  0.91832460  0.83820380  0.91737077  1
  Mn3.34+  Mn144  1  0.08735757  0.16919860  0.09114664  1
  Mn3.34+  Mn145  1  0.08114200  0.16834444  0.75061375  1
  Mn3.34+  Mn146  1  0.42567841  0.65953824  0.75246993  1
  Mn3.34+  Mn147  1  0.74651850  0.67060304  0.75659909  1
  Mn3.34+  Mn148  1  0.26025644  0.65816879  0.58482910  1
  Mn3.34+  Mn149  1  0.09303550  0.16148743  0.41171979  1
  Mn3.34+  Mn150  1  0.75444540  0.17206877  0.08245143  1
  Mn3.34+  Mn151  1  0.08322582  0.16671639  0.40971130  1
  Mn3.34+  Mn152  1  0.57785060  0.17401674  0.24850952  1
  Mn3.34+  Mn153  1  0.91673790  0.16145686  0.24275536  1
  Mn3.34+  Mn154  1  0.58552913  0.16723183  0.24698141  1
  Mn3.34+  Mn155  1  0.09109294  0.17315347  0.74734930  1
  Mn3.34+  Mn156  1  0.08098245  0.66970043  0.75370289  1
  Mn3.34+  Mn157  1  0.08232441  0.66480688  0.41868941  1
  Mn3.34+  Mn158  1  0.74157941  0.65443693  0.07859949  1
  Mn3.34+  Mn159  1  0.25063786  0.66314019  0.58696355  1
  Mn3.34+  Mn160  1  0.25082370  0.66443497  0.90593025  1
  Mn3.34+  Mn161  1  0.24211360  0.67077352  0.90799317  1
  Mn3.34+  Mn162  1  0.74465118  0.16647197  0.41996917  1
  Mn3.34+  Mn163  1  0.91891459  0.16896913  0.91687016  1
  Mn3.34+  Mn164  1  0.24992862  0.16596582  0.57882517  1
  Mn3.34+  Mn165  1  0.42286690  0.67023961  0.42450842  1
  Mn3.34+  Mn166  1  0.91212296  0.66827807  0.58120897  1
  Mn3.34+  Mn167  1  0.07259633  0.65937685  0.42111462  1
  Mn3.34+  Mn168  1  0.75110423  0.66416770  0.41986398  1
  Mn3.34+  Mn169  1  0.75454438  0.16858422  0.75122557  1
  Mn3.34+  Mn170  1  0.07779915  0.16392950  0.09458637  1
  Mn3.34+  Mn171  1  0.75494831  0.66120261  0.07814824  1
  Mn3.34+  Mn172  1  0.58458438  0.66173308  0.91110677  1
  Mn3.34+  Mn173  1  0.91134970  0.66088905  0.90803561  1
  Mn3.34+  Mn174  1  0.42019138  0.16572054  0.08201817  1
  Mn3.34+  Mn175  1  0.75782513  0.17351983  0.41804353  1
  Mn3.34+  Mn176  1  0.25927617  0.17152337  0.58161704  1
  Mn3.34+  Mn177  1  0.74200149  0.16508076  0.75727758  1
  Mn3.34+  Mn178  1  0.40974571  0.17022832  0.07983068  1
  Mn3.34+  Mn179  1  0.57932665  0.65893831  0.57961219  1
  Mn3.34+  Mn180  1  0.08298934  0.49956069  0.41875888  1
  Mn3.34+  Mn181  1  0.24289250  -0.00438567  0.92702226  1
  Mn3.34+  Mn182  1  0.08543234  -0.00178104  0.39960923  1
  Mn3.34+  Mn183  1  0.26399842  0.49730790  0.24165134  1
  Mn3.34+  Mn184  1  0.26256329  0.00447678  0.57814202  1
  Mn3.34+  Mn185  1  0.41455265  -0.00165137  0.09011465  1
  Mn3.34+  Mn186  1  0.09831751  -0.00511222  0.76517812  1
  Mn3.34+  Mn187  1  0.75186375  0.49930756  0.76098838  1
  Mn3.34+  Mn188  1  0.42668219  0.51040449  0.73852327  1
  Mn3.34+  Mn189  1  0.75473586  0.49656681  0.06051091  1
  Mn3.34+  Mn190  1  0.42312599  0.50205749  0.42290334  1
  Mn3.34+  Mn191  1  0.25124134  0.50391665  0.24005674  1
  Mn3.34+  Mn192  1  0.59331709  0.50122394  0.91990891  1
  Mn3.34+  Mn193  1  0.75260735  -0.00161851  0.08193110  1
  Mn3.34+  Mn194  1  0.08471104  -0.00231174  0.08521381  1
  Mn3.34+  Mn195  1  0.56260709  0.49681837  0.23169947  1
  Mn3.34+  Mn196  1  0.74174489  0.50463915  0.75948622  1
  Mn3.34+  Mn197  1  0.72806292  -0.00276845  0.41607222  1
  Mn3.34+  Mn198  1  0.93473052  -0.00084351  0.25688083  1
  Mn3.34+  Mn199  1  0.25333806  0.50117235  0.58986053  1
  Mn3.34+  Mn200  1  0.90717412  0.49782458  0.92480939  1
  Mn3.34+  Mn201  1  0.76422838  0.00231664  0.08012690  1
  Mn3.34+  Mn202  1  0.57263759  0.50172647  0.22852444  1
  Mn3.34+  Mn203  1  0.42292700  -0.00368620  0.42372507  1
  Mn3.34+  Mn204  1  0.91472759  0.50191776  0.58590168  1
  Mn3.34+  Mn205  1  0.59037711  -0.00390397  0.91074085  1
  Mn3.34+  Mn206  1  0.40958902  0.00275558  0.42066067  1
  Mn3.34+  Mn207  1  0.08852855  0.00041493  0.75444860  1
  Mn3.34+  Mn208  1  0.24272580  -0.00472622  0.25967723  1
  Mn3.34+  Mn209  1  0.91250859  -0.00337650  0.58532628  1
  Mn3.34+  Mn210  1  0.24817310  0.00222214  0.57319321  1
  Mn3.34+  Mn211  1  0.57726675  0.00267247  0.91030640  1
  Mn3.34+  Mn212  1  0.57301544  0.00089184  0.24659476  1
  Mn3.34+  Mn213  1  0.73933979  -0.00009146  0.41567690  1
  Mn3.34+  Mn214  1  0.40246660  0.00567218  0.08831702  1
  Mn3.34+  Mn215  1  0.08959005  0.50064486  0.07213564  1
  O2-  O216  1  -0.00100450  0.14982698  0.01205461  1
  O2-  O217  1  -0.00737456  0.16274864  0.33274576  1
  O2-  O218  1  -0.00486788  0.15533169  0.67860622  1
  O2-  O219  1  -0.00117324  0.64824385  -0.01810291  1
  O2-  O220  1  -0.00456061  0.64889911  0.34196275  1
  O2-  O221  1  -0.00027393  0.67029584  0.66450229  1
  O2-  O222  1  0.33360236  0.14022856  0.00397276  1
  O2-  O223  1  0.34244655  0.18853079  0.33832195  1
  O2-  O224  1  0.34382883  0.14794396  0.65095547  1
  O2-  O225  1  0.32846265  0.65714932  -0.00961057  1
  O2-  O226  1  0.33954539  0.66851302  0.34359377  1
  O2-  O227  1  0.33686821  0.66277520  0.67173190  1
  O2-  O228  1  0.67412858  0.16100726  0.00695830  1
  O2-  O229  1  0.66704498  0.15008667  0.33428720  1
  O2-  O230  1  0.65947092  0.14559488  0.67799712  1
  O2-  O231  1  0.66691122  0.65531578  -0.00450826  1
  O2-  O232  1  0.67279383  0.64745864  0.34070214  1
  O2-  O233  1  0.67400473  0.66920632  0.65783848  1
  O2-  O234  1  0.15433001  0.14723756  -0.00145521  1
  O2-  O235  1  0.17154376  0.15859498  0.33342583  1
  O2-  O236  1  0.16940823  0.13790716  0.66136305  1
  O2-  O237  1  0.16274704  0.66127570  -0.01046652  1
  O2-  O238  1  0.17027402  0.65046021  0.34665766  1
  O2-  O239  1  0.16402668  0.68437749  0.66654481  1
  O2-  O240  1  0.49942940  0.15298976  0.00357278  1
  O2-  O241  1  0.50130720  0.17571877  0.33326222  1
  O2-  O242  1  0.50403635  0.16603959  0.67714470  1
  O2-  O243  1  0.50178846  0.65408595  -0.00963935  1
  O2-  O244  1  0.49730568  0.66091423  0.34373868  1
  O2-  O245  1  0.50946466  0.67639228  0.66210105  1
  O2-  O246  1  0.83588210  0.15005915  0.00283692  1
  O2-  O247  1  0.83074976  0.15424631  0.33090296  1
  O2-  O248  1  0.81978173  0.14286517  0.66541716  1
  O2-  O249  1  0.83351689  0.65988790  -0.00262227  1
  O2-  O250  1  0.83232749  0.65385900  0.34250619  1
  O2-  O251  1  0.83361923  0.67159523  0.66915095  1
  O2-  O252  1  -0.00370828  0.34160523  0.00428471  1
  O2-  O253  1  -0.00322665  0.34323849  0.33777446  1
  O2-  O254  1  -0.00089100  0.34625049  0.66644010  1
  O2-  O255  1  -0.00116124  0.82720046  -0.00129164  1
  O2-  O256  1  -0.00544804  0.84892351  0.33608496  1
  O2-  O257  1  0.00422217  0.82150777  0.66399591  1
  O2-  O258  1  0.33503560  0.34923710  0.00013413  1
  O2-  O259  1  0.33671204  0.34265848  0.33006766  1
  O2-  O260  1  0.33696308  0.35989025  0.66516306  1
  O2-  O261  1  0.33621791  0.84359611  -0.00918679  1
  O2-  O262  1  0.33742749  0.83105551  0.33421255  1
  O2-  O263  1  0.33882433  0.83806307  0.66005449  1
  O2-  O264  1  0.66619255  0.33889942  -0.00414729  1
  O2-  O265  1  0.67398898  0.35290103  0.32300407  1
  O2-  O266  1  0.66956485  0.35536301  0.66055335  1
  O2-  O267  1  0.66737823  0.84381888  -0.00234155  1
  O2-  O268  1  0.66603431  0.85292824  0.33653087  1
  O2-  O269  1  0.66696996  0.82407656  0.66075498  1
  O2-  O270  1  0.17349420  0.35176896  0.00637445  1
  O2-  O271  1  0.16012811  0.35771909  0.32811646  1
  O2-  O272  1  0.16512656  0.35428685  0.66187045  1
  O2-  O273  1  0.17045190  0.81314296  0.00223075  1
  O2-  O274  1  0.17266328  0.84321294  0.33740952  1
  O2-  O275  1  0.17014116  0.82430204  0.66537795  1
  O2-  O276  1  0.49743868  0.35178255  -0.00320179  1
  O2-  O277  1  0.50613192  0.31604659  0.34046002  1
  O2-  O278  1  0.49917733  0.34906173  0.66867077  1
  O2-  O279  1  0.49751292  0.85466048  -0.00398170  1
  O2-  O280  1  0.49897608  0.83862709  0.33684137  1
  O2-  O281  1  0.50762376  0.84079020  0.66906332  1
  O2-  O282  1  0.83537018  0.34516944  0.00680210  1
  O2-  O283  1  0.83436812  0.34054433  0.33231745  1
  O2-  O284  1  0.82644271  0.34792520  0.66320547  1
  O2-  O285  1  0.83988659  0.82619219  0.00226796  1
  O2-  O286  1  0.83305234  0.85018513  0.33706871  1
  O2-  O287  1  0.83332150  0.82620136  0.67142036  1
  O2-  O288  1  0.00024943  0.19392883  0.17073268  1
  O2-  O289  1  0.00479048  0.17362380  0.49248397  1
  O2-  O290  1  0.01643086  0.18641496  0.84760906  1
  O2-  O291  1  0.00859069  0.67716425  0.16427823  1
  O2-  O292  1  -0.00407395  0.68771721  0.50084040  1
  O2-  O293  1  -0.00177015  0.69035574  0.83198395  1
  O2-  O294  1  0.33637440  0.17687549  0.16400840  1
  O2-  O295  1  0.33020123  0.19556735  0.50219195  1
  O2-  O296  1  0.34511089  0.17349002  0.83644575  1
  O2-  O297  1  0.33069142  0.67778141  0.16378418  1
  O2-  O298  1  0.33063551  0.68883141  0.49945335  1
  O2-  O299  1  0.33402269  0.69231603  0.83890137  1
  O2-  O300  1  0.66997095  0.18653140  0.17026234  1
  O2-  O301  1  0.67275739  0.17766902  0.50600006  1
  O2-  O302  1  0.67054287  0.18174461  0.83449129  1
  O2-  O303  1  0.67857257  0.66715503  0.17086127  1
  O2-  O304  1  0.66681183  0.68326408  0.50214772  1
  O2-  O305  1  0.66423056  0.68995888  0.83040772  1
  O2-  O306  1  0.17568051  0.17981365  0.15808187  1
  O2-  O307  1  0.16015816  0.18282190  0.50968195  1
  O2-  O308  1  0.17248311  0.17759571  0.82477432  1
  O2-  O309  1  0.16667209  0.67776591  0.15987082  1
  O2-  O310  1  0.16133893  0.68501485  0.50243744  1
  O2-  O311  1  0.16653463  0.69502901  0.82937865  1
  O2-  O312  1  0.50115783  0.19136105  0.16128864  1
  O2-  O313  1  0.49914807  0.17726045  0.51497993  1
  O2-  O314  1  0.49132380  0.17432966  0.82184186  1
  O2-  O315  1  0.49204085  0.69019187  0.17554318  1
  O2-  O316  1  0.50486432  0.69000283  0.50200875  1
  O2-  O317  1  0.50051104  0.67947184  0.83537710  1
  O2-  O318  1  0.83442603  0.18829480  0.17095123  1
  O2-  O319  1  0.83732923  0.18241908  0.49459567  1
  O2-  O320  1  0.84024097  0.17944888  0.82615432  1
  O2-  O321  1  0.83472620  0.67064180  0.15815703  1
  O2-  O322  1  0.82878259  0.68874013  0.50675308  1
  O2-  O323  1  0.83007714  0.69572602  0.83502292  1
  O2-  O324  1  0.00456745  0.31882234  0.17471715  1
  O2-  O325  1  -0.00077307  0.32872851  0.50058865  1
  O2-  O326  1  0.00024222  0.32015985  0.83379768  1
  O2-  O327  1  -0.00480306  0.82750461  0.15930832  1
  O2-  O328  1  0.00264614  0.82134813  0.50113451  1
  O2-  O329  1  -0.00642128  0.81354773  0.83078850  1
  O2-  O330  1  0.33290781  0.31901464  0.16324976  1
  O2-  O331  1  0.33045277  0.32216833  0.49603984  1
  O2-  O332  1  0.33675206  0.32814630  0.83824879  1
  O2-  O333  1  0.33549859  0.82281772  0.16796496  1
  O2-  O334  1  0.32869796  0.80557368  0.49264227  1
  O2-  O335  1  0.33329754  0.82325511  0.83146330  1
  O2-  O336  1  0.66488861  0.31506058  0.16562987  1
  O2-  O337  1  0.66253261  0.32871482  0.49504629  1
  O2-  O338  1  0.65816407  0.31705965  0.82214253  1
  O2-  O339  1  0.66903593  0.82745070  0.17109340  1
  O2-  O340  1  0.66252304  0.81373478  0.49637480  1
  O2-  O341  1  0.66019558  0.81164116  0.82989967  1
  O2-  O342  1  0.15760730  0.33129690  0.17188781  1
  O2-  O343  1  0.17115100  0.31864946  0.49736720  1
  O2-  O344  1  0.17238306  0.32704211  0.82721677  1
  O2-  O345  1  0.16288482  0.82488314  0.16634738  1
  O2-  O346  1  0.16016154  0.81865367  0.50651738  1
  O2-  O347  1  0.17079240  0.80938084  0.83416592  1
  O2-  O348  1  0.49444911  0.31268872  0.17067110  1
  O2-  O349  1  0.49107366  0.31873123  0.51129631  1
  O2-  O350  1  0.49512476  0.33215085  0.83270772  1
  O2-  O351  1  0.50018978  0.82245995  0.16595254  1
  O2-  O352  1  0.50058726  0.81255417  0.50007403  1
  O2-  O353  1  0.49135348  0.82053939  0.84345241  1
  O2-  O354  1  0.83345917  0.31983408  0.16990629  1
  O2-  O355  1  0.82942980  0.32593594  0.49889843  1
  O2-  O356  1  0.83014444  0.31482494  0.83390404  1
  O2-  O357  1  0.82929330  0.82155044  0.16762358  1
  O2-  O358  1  0.83903095  0.81849248  0.49140903  1
  O2-  O359  1  0.83436841  0.82328140  0.83015468  1
  O2-  O360  1  0.08320891  0.08037907  0.12850385  1
  O2-  O361  1  0.07704664  0.07780124  0.44413291  1
  O2-  O362  1  0.07223890  0.08197610  0.78160766  1
  O2-  O363  1  0.08969699  0.56802821  0.12112734  1
  O2-  O364  1  0.08061650  0.58021606  0.46788610  1
  O2-  O365  1  0.07066836  0.58587123  0.77958477  1
  O2-  O366  1  0.43317872  0.08300021  0.12751884  1
  O2-  O367  1  0.41992727  0.08007532  0.45465124  1
  O2-  O368  1  0.42786522  0.05388561  0.78742101  1
  O2-  O369  1  0.38358454  0.56496164  0.10850597  1
  O2-  O370  1  0.40326963  0.58253853  0.44722926  1
  O2-  O371  1  0.40821831  0.57840146  0.80211470  1
  O2-  O372  1  0.74342068  0.08420466  0.11699435  1
  O2-  O373  1  0.76434808  0.08187248  0.44554587  1
  O2-  O374  1  0.75153368  0.08180296  0.78505171  1
  O2-  O375  1  0.74666728  0.57342788  0.11480504  1
  O2-  O376  1  0.75546934  0.58173547  0.44713366  1
  O2-  O377  1  0.76593390  0.58584958  0.77511093  1
  O2-  O378  1  0.28152805  0.05314490  0.19205367  1
  O2-  O379  1  0.25254191  0.08425286  0.53400362  1
  O2-  O380  1  0.20403132  0.05395565  0.85204019  1
  O2-  O381  1  0.27189191  0.58500668  0.24652377  1
  O2-  O382  1  0.24220816  0.57701134  0.53365509  1
  O2-  O383  1  0.21892503  0.58385876  0.88270016  1
  O2-  O384  1  0.58824543  0.08237606  0.21112109  1
  O2-  O385  1  0.61342911  0.05639583  0.52045947  1
  O2-  O386  1  0.58945543  0.08176563  0.88695342  1
  O2-  O387  1  0.55749437  0.58334859  0.22014434  1
  O2-  O388  1  0.60279972  0.58122185  0.54344190  1
  O2-  O389  1  0.57632493  0.57789638  0.88553493  1
  O2-  O390  1  0.89914160  0.07613555  0.20922283  1
  O2-  O391  1  0.90320848  0.07254289  0.55108872  1
  O2-  O392  1  0.94003696  0.08793265  0.88206178  1
  O2-  O393  1  0.88905415  0.57106110  0.23006555  1
  O2-  O394  1  0.89314511  0.58055377  0.55601084  1
  O2-  O395  1  0.92686532  0.57232181  0.87482729  1
  O2-  O396  1  0.06624172  0.42968552  0.12007794  1
  O2-  O397  1  0.09564646  0.42024482  0.45769039  1
  O2-  O398  1  0.09126748  0.42361258  0.76280213  1
  O2-  O399  1  0.07123238  0.91808370  0.09013321  1
  O2-  O400  1  0.07182889  0.92192236  0.45546753  1
  O2-  O401  1  0.09225055  0.91175746  0.74840796  1
  O2-  O402  1  0.40895596  0.41720403  0.10715453  1
  O2-  O403  1  0.42433887  0.42026939  0.44545361  1
  O2-  O404  1  0.41306146  0.43161301  0.78632788  1
  O2-  O405  1  0.41632557  0.91878015  0.11341447  1
  O2-  O406  1  0.40402912  0.91854850  0.46201671  1
  O2-  O407  1  0.41682288  0.91256989  0.76860371  1
  O2-  O408  1  0.75862422  0.42354918  0.12306797  1
  O2-  O409  1  0.75177349  0.42015204  0.42950819  1
  O2-  O410  1  0.73458005  0.41854264  0.78228696  1
  O2-  O411  1  0.74286443  0.91811549  0.10727313  1
  O2-  O412  1  0.75446589  0.91777878  0.46172390  1
  O2-  O413  1  0.74700405  0.91297749  0.75771034  1
  O2-  O414  1  0.25903269  0.41879808  0.21277353  1
  O2-  O415  1  0.26265290  0.42418345  0.54941520  1
  O2-  O416  1  0.26662772  0.41943126  0.89592446  1
  O2-  O417  1  0.26836254  0.91725006  0.23903379  1
  O2-  O418  1  0.22739696  0.91912419  0.55211387  1
  O2-  O419  1  0.26687564  0.92223822  0.87659920  1
  O2-  O420  1  0.56521110  0.41450430  0.22898514  1
  O2-  O421  1  0.56656602  0.41901195  0.54960900  1
  O2-  O422  1  0.57864904  0.42467996  0.88100478  1
  O2-  O423  1  0.57021323  0.91965838  0.22368940  1
  O2-  O424  1  0.58417029  0.91225219  0.56092367  1
  O2-  O425  1  0.57446870  0.91773302  0.87350183  1
  O2-  O426  1  0.91626949  0.41692212  0.22192093  1
  O2-  O427  1  0.91268362  0.42363727  0.55435862  1
  O2-  O428  1  0.90968785  0.41912272  0.90324288  1
  O2-  O429  1  0.90300955  0.92085003  0.21592574  1
  O2-  O430  1  0.93848520  0.91632113  0.55931761  1
  O2-  O431  1  0.92254721  0.92129546  0.88702553  1
  O2-  O432  1  0.01026096  0.01813059  0.00776804  1
  O2-  O433  1  -0.02901174  -0.00436771  0.38029661  1
  O2-  O434  1  0.00000672  0.01215301  0.67171319  1
  O2-  O435  1  0.01680412  0.50604668  -0.01412831  1
  O2-  O436  1  -0.00365161  0.47858806  0.34465233  1
  O2-  O437  1  0.00124829  0.51223209  0.64891107  1
  O2-  O438  1  0.34566956  0.00203003  -0.01617098  1
  O2-  O439  1  0.34923224  0.00017634  0.32196366  1
  O2-  O440  1  0.32836104  -0.01511938  0.66099285  1
  O2-  O441  1  0.34452485  0.49796963  -0.03050746  1
  O2-  O442  1  0.32674389  0.49833390  0.34824260  1
  O2-  O443  1  0.34196589  0.49035097  0.66003919  1
  O2-  O444  1  0.66688273  0.01345881  -0.00049674  1
  O2-  O445  1  0.67180198  0.00083285  0.31313649  1
  O2-  O446  1  0.67065773  -0.00124488  0.66396686  1
  O2-  O447  1  0.65513411  0.49972057  0.00865448  1
  O2-  O448  1  0.67123527  0.50421495  0.29573011  1
  O2-  O449  1  0.68511511  0.50618143  0.65497560  1
  O2-  O450  1  0.17396243  0.02216552  0.00989143  1
  O2-  O451  1  0.19230070  -0.01237170  0.36348793  1
  O2-  O452  1  0.16254199  0.00157534  0.65626576  1
  O2-  O453  1  0.17637756  0.51233044  0.01222192  1
  O2-  O454  1  0.16794290  0.50474205  0.32948849  1
  O2-  O455  1  0.16167807  0.50247804  0.64390413  1
  O2-  O456  1  0.50607734  0.00083080  0.00924974  1
  O2-  O457  1  0.51235260  -0.00267669  0.35009180  1
  O2-  O458  1  0.50805402  0.00614618  0.67340015  1
  O2-  O459  1  0.49472171  0.49544466  -0.03055836  1
  O2-  O460  1  0.51153613  0.50140809  0.34240200  1
  O2-  O461  1  0.50199445  0.47983928  0.66944931  1
  O2-  O462  1  0.83712592  0.01705629  -0.00228892  1
  O2-  O463  1  0.82666244  -0.00200631  0.33477754  1
  O2-  O464  1  0.83892490  -0.00939381  0.67187088  1
  O2-  O465  1  0.86635500  0.50554893  0.03776415  1
  O2-  O466  1  0.82169321  0.50266305  0.31766258  1
  O2-  O467  1  0.84065012  0.50582631  0.67700942  1
  O2-  O468  1  0.91798122  0.25839391  0.59860799  1
  O2-  O469  1  0.75529005  0.25256707  0.05878788  1
  O2-  O470  1  0.59536566  0.25826153  0.60752290  1
  O2-  O471  1  0.40972696  0.26126076  0.73364251  1
  O2-  O472  1  0.73843304  0.74382622  0.06831048  1
  O2-  O473  1  0.91766886  0.75462365  0.25797073  1
  O2-  O474  1  0.07627448  0.74806585  0.08299466  1
  O2-  O475  1  0.24289065  0.25883770  0.26437301  1
  O2-  O476  1  0.91331026  0.25004955  0.94229719  1
  O2-  O477  1  0.24069818  0.75355025  0.25510091  1
  O2-  O478  1  0.57963026  0.74891020  0.94444265  1
  O2-  O479  1  0.24081738  0.24963193  0.62573387  1
  O2-  O480  1  0.08754814  0.25224541  0.39448176  1
  O2-  O481  1  0.08467232  0.25489970  0.72227821  1
  O2-  O482  1  0.75612464  0.24946519  0.71920405  1
  O2-  O483  1  0.41707257  0.75460335  0.06094269  1
  O2-  O484  1  0.08340262  0.74586111  0.38371459  1
  O2-  O485  1  0.74854507  0.74902397  0.38433053  1
  O2-  O486  1  0.57198920  0.25744245  0.92758717  1
  O2-  O487  1  0.73736487  0.25308438  0.38777941  1
  O2-  O488  1  0.24517417  0.25741946  0.93394482  1
  O2-  O489  1  0.41144931  0.25198986  0.04674692  1
  O2-  O490  1  0.59796581  0.75300267  0.26567999  1
  O2-  O491  1  0.42024011  0.74960659  0.73076139  1
  O2-  O492  1  0.09224829  0.24950447  0.05586565  1
