# generated using pymatgen
data_Ca108Mn108O277
_symmetry_space_group_name_H-M   'P 1'
_cell_length_a   16.02692290
_cell_length_b   22.30727119
_cell_length_c   16.38946512
_cell_angle_alpha   90.00077599
_cell_angle_beta   90.00215992
_cell_angle_gamma   89.99934297
_symmetry_Int_Tables_number   1
_chemical_formula_structural   Ca108Mn108O277
_chemical_formula_sum   'Ca108 Mn108 O277'
_cell_volume   5859.51100904
_cell_formula_units_Z   1
loop_
 _symmetry_equiv_pos_site_id
 _symmetry_equiv_pos_as_xyz
  1  'x, y, z'
loop_
 _atom_type_symbol
 _atom_type_oxidation_number
  Ca2+  2.0
  Mn3.34+  3.34
  O2-  -2.0
loop_
 _atom_site_type_symbol
 _atom_site_label
 _atom_site_symmetry_multiplicity
 _atom_site_fract_x
 _atom_site_fract_y
 _atom_site_fract_z
 _atom_site_occupancy
  Ca2+  Ca0  1  0.09237333  0.24041689  0.27248656  1
  Ca2+  Ca1  1  0.09038494  0.23990554  0.57583043  1
  Ca2+  Ca2  1  0.10557149  0.23813197  0.90153397  1
  Ca2+  Ca3  1  0.07949661  0.75458735  0.25084136  1
  Ca2+  Ca4  1  0.07875914  0.75584892  0.58334507  1
  Ca2+  Ca5  1  0.09099840  0.75926695  0.91946706  1
  Ca2+  Ca6  1  0.41146443  0.25773805  0.25647908  1
  Ca2+  Ca7  1  0.39919799  0.25203093  0.57556343  1
  Ca2+  Ca8  1  0.39821940  0.24933364  0.91880065  1
  Ca2+  Ca9  1  0.43747218  0.74714458  0.23224352  1
  Ca2+  Ca10  1  0.42226109  0.75305645  0.59353176  1
  Ca2+  Ca11  1  0.41800172  0.74227237  0.92615408  1
  Ca2+  Ca12  1  0.74289652  0.25144731  0.25469708  1
  Ca2+  Ca13  1  0.76166202  0.25184250  0.56261313  1
  Ca2+  Ca14  1  0.73965539  0.25726556  0.92335745  1
  Ca2+  Ca15  1  0.73481268  0.74471072  0.24682307  1
  Ca2+  Ca16  1  0.74797040  0.75159750  0.57334848  1
  Ca2+  Ca17  1  0.74802349  0.74202006  0.92446189  1
  Ca2+  Ca18  1  0.24880579  0.25681925  0.07964118  1
  Ca2+  Ca19  1  0.23739551  0.24411251  0.41424040  1
  Ca2+  Ca20  1  0.23080649  0.23900723  0.75276784  1
  Ca2+  Ca21  1  0.26410216  0.75175890  0.07654527  1
  Ca2+  Ca22  1  0.24120784  0.75758034  0.41928093  1
  Ca2+  Ca23  1  0.25792030  0.75487340  0.75626859  1
  Ca2+  Ca24  1  0.59043213  0.25591215  0.09372678  1
  Ca2+  Ca25  1  0.58950723  0.25336245  0.39994267  1
  Ca2+  Ca26  1  0.58461582  0.25277874  0.75592251  1
  Ca2+  Ca27  1  0.58085089  0.74234416  0.08847354  1
  Ca2+  Ca28  1  0.59926783  0.74563924  0.39963614  1
  Ca2+  Ca29  1  0.58309796  0.74507288  0.75606777  1
  Ca2+  Ca30  1  0.91171619  0.26398235  0.08551442  1
  Ca2+  Ca31  1  0.93380623  0.25262582  0.41934996  1
  Ca2+  Ca32  1  0.94380984  0.24414488  0.74235812  1
  Ca2+  Ca33  1  0.91195040  0.75330745  0.07814490  1
  Ca2+  Ca34  1  0.90465274  0.75763129  0.41998967  1
  Ca2+  Ca35  1  0.90854455  0.75576187  0.75482774  1
  Ca2+  Ca36  1  0.72744007  0.60675406  0.93267792  1
  Ca2+  Ca37  1  0.95248273  0.10391161  0.75420787  1
  Ca2+  Ca38  1  0.74975734  0.09231898  0.25871001  1
  Ca2+  Ca39  1  0.37101011  0.58937240  0.59419327  1
  Ca2+  Ca40  1  0.71419411  0.59824420  0.23744697  1
  Ca2+  Ca41  1  0.90221820  0.08918841  0.08132253  1
  Ca2+  Ca42  1  0.40066532  0.09133411  0.57308844  1
  Ca2+  Ca43  1  0.91187693  0.08520299  0.07976042  1
  Ca2+  Ca44  1  0.75445712  0.59104269  0.58148753  1
  Ca2+  Ca45  1  0.57596247  0.09161517  0.74658378  1
  Ca2+  Ca46  1  0.59264565  0.60725981  0.07650194  1
  Ca2+  Ca47  1  0.22361811  0.10254772  0.74393742  1
  Ca2+  Ca48  1  0.57651824  0.60551824  0.77097699  1
  Ca2+  Ca49  1  0.11420807  0.58693960  0.58957398  1
  Ca2+  Ca50  1  0.41086196  0.58234962  0.94753040  1
  Ca2+  Ca51  1  0.89904917  0.58645257  0.40963255  1
  Ca2+  Ca52  1  0.74381848  0.59147850  0.58178139  1
  Ca2+  Ca53  1  0.11310839  0.57448663  0.92821172  1
  Ca2+  Ca54  1  0.87900761  0.60559897  0.08318748  1
  Ca2+  Ca55  1  0.26271832  0.59447779  0.76260799  1
  Ca2+  Ca56  1  0.08982167  0.10397356  0.58202214  1
  Ca2+  Ca57  1  0.46485415  0.58708393  0.22948097  1
  Ca2+  Ca58  1  0.76115061  0.09795112  0.58062213  1
  Ca2+  Ca59  1  0.35777453  0.08666030  0.91327229  1
  Ca2+  Ca60  1  0.24670502  0.09853814  0.41339636  1
  Ca2+  Ca61  1  0.13120229  0.09082786  0.90398042  1
  Ca2+  Ca62  1  0.75579110  0.09201370  0.91964459  1
  Ca2+  Ca63  1  0.93511444  0.10930892  0.41119968  1
  Ca2+  Ca64  1  0.74288643  0.09196383  0.91959648  1
  Ca2+  Ca65  1  0.25265760  0.59003429  0.40612217  1
  Ca2+  Ca66  1  0.36920352  0.08653031  0.91829512  1
  Ca2+  Ca67  1  0.58766854  0.08923387  0.08055596  1
  Ca2+  Ca68  1  0.12584195  0.58336932  0.58756348  1
  Ca2+  Ca69  1  0.90497515  0.58180863  0.74300869  1
  Ca2+  Ca70  1  0.56513145  0.08738023  0.74968663  1
  Ca2+  Ca71  1  0.38242766  0.59303093  0.59650529  1
  Ca2+  Ca72  1  0.09794796  0.40978442  0.58564561  1
  Ca2+  Ca73  1  0.39114789  0.42321650  0.93552178  1
  Ca2+  Ca74  1  0.41175203  0.90538038  0.25830616  1
  Ca2+  Ca75  1  0.75849200  0.89868350  0.92748431  1
  Ca2+  Ca76  1  0.75485857  0.41037461  0.58009455  1
  Ca2+  Ca77  1  0.56684945  0.42066399  0.09621706  1
  Ca2+  Ca78  1  0.92063122  0.41886062  0.73810922  1
  Ca2+  Ca79  1  0.58425833  0.40918008  0.74304090  1
  Ca2+  Ca80  1  0.09766828  0.41247021  0.92721459  1
  Ca2+  Ca81  1  0.07849797  0.89758089  0.24833654  1
  Ca2+  Ca82  1  0.90949291  0.41840950  0.73664679  1
  Ca2+  Ca83  1  0.56464357  0.90265705  0.75591511  1
  Ca2+  Ca84  1  0.74330856  0.40838631  0.24951854  1
  Ca2+  Ca85  1  0.75424216  0.41251067  0.93152616  1
  Ca2+  Ca86  1  0.40876645  0.90741009  0.58396731  1
  Ca2+  Ca87  1  0.25867350  0.40101228  0.41710345  1
  Ca2+  Ca88  1  0.74939114  0.89742277  0.57532814  1
  Ca2+  Ca89  1  0.57692779  0.90343561  0.41763502  1
  Ca2+  Ca90  1  0.08677632  0.41112375  0.58471367  1
  Ca2+  Ca91  1  0.76535788  0.41255732  0.57658547  1
  Ca2+  Ca92  1  0.25944374  0.42176909  0.08146926  1
  Ca2+  Ca93  1  0.40225338  0.41249845  0.58715316  1
  Ca2+  Ca94  1  0.08027914  0.39566385  0.24200524  1
  Ca2+  Ca95  1  0.10807008  0.41561692  0.92430452  1
  Ca2+  Ca96  1  0.26380647  0.91202986  0.41048117  1
  Ca2+  Ca97  1  0.10795110  0.90841143  0.91486619  1
  Ca2+  Ca98  1  0.26312306  0.91689428  0.05697167  1
  Ca2+  Ca99  1  0.57199661  0.41028808  0.74411867  1
  Ca2+  Ca100  1  0.74570624  0.89808877  0.92662161  1
  Ca2+  Ca101  1  0.09916008  0.90049748  0.58660004  1
  Ca2+  Ca102  1  0.57774071  0.89819349  0.08273784  1
  Ca2+  Ca103  1  0.57485827  0.90438822  0.75170616  1
  Ca2+  Ca104  1  0.92757284  0.90189931  0.75441670  1
  Ca2+  Ca105  1  0.58652208  0.41952107  0.38163386  1
  Ca2+  Ca106  1  0.40168810  0.42346367  0.93499053  1
  Ca2+  Ca107  1  0.25835481  0.41527159  0.74252233  1
  Mn3.34+  Mn108  1  0.08170996  0.33408572  0.08564155  1
  Mn3.34+  Mn109  1  0.08315417  0.33113865  0.41582481  1
  Mn3.34+  Mn110  1  0.08468317  0.33238677  0.75377072  1
  Mn3.34+  Mn111  1  0.08339246  0.83222127  0.08471231  1
  Mn3.34+  Mn112  1  0.07880638  0.83563662  0.41700925  1
  Mn3.34+  Mn113  1  0.08873585  0.83526826  0.75096767  1
  Mn3.34+  Mn114  1  0.41636498  0.33783076  0.08817014  1
  Mn3.34+  Mn115  1  0.41929777  0.33380089  0.41632476  1
  Mn3.34+  Mn116  1  0.41374664  0.33100003  0.75218407  1
  Mn3.34+  Mn117  1  0.41608098  0.83252043  0.08405474  1
  Mn3.34+  Mn118  1  0.41625976  0.83278145  0.41962166  1
  Mn3.34+  Mn119  1  0.40992682  0.83183020  0.75532753  1
  Mn3.34+  Mn120  1  0.75062850  0.33547070  0.08657641  1
  Mn3.34+  Mn121  1  0.75465666  0.33453156  0.41201674  1
  Mn3.34+  Mn122  1  0.75310009  0.33124269  0.75653918  1
  Mn3.34+  Mn123  1  0.75341834  0.83326939  0.09371036  1
  Mn3.34+  Mn124  1  0.75310589  0.83734036  0.40935248  1
  Mn3.34+  Mn125  1  0.75022179  0.82789851  0.74886677  1
  Mn3.34+  Mn126  1  0.25107358  0.33444749  0.24710704  1
  Mn3.34+  Mn127  1  0.25106006  0.33415347  0.58244733  1
  Mn3.34+  Mn128  1  0.25117041  0.33025728  0.91496593  1
  Mn3.34+  Mn129  1  0.25039745  0.83814082  0.24441518  1
  Mn3.34+  Mn130  1  0.25349180  0.83344278  0.58205664  1
  Mn3.34+  Mn131  1  0.25727861  0.83490614  0.91564737  1
  Mn3.34+  Mn132  1  0.58126907  0.33628746  0.24578905  1
  Mn3.34+  Mn133  1  0.58061857  0.33383705  0.57382330  1
  Mn3.34+  Mn134  1  0.58142489  0.33387700  0.92021494  1
  Mn3.34+  Mn135  1  0.58616802  0.83332456  0.24848919  1
  Mn3.34+  Mn136  1  0.58073412  0.82979595  0.57872283  1
  Mn3.34+  Mn137  1  0.58003006  0.82644941  0.91757220  1
  Mn3.34+  Mn138  1  0.91643050  0.33703307  0.24799811  1
  Mn3.34+  Mn139  1  0.91953584  0.33523590  0.57949582  1
  Mn3.34+  Mn140  1  0.91723833  0.33517286  0.91284334  1
  Mn3.34+  Mn141  1  0.91001001  0.83733853  0.24466484  1
  Mn3.34+  Mn142  1  0.91802384  0.83017274  0.58340223  1
  Mn3.34+  Mn143  1  0.92292675  0.83164393  0.92004247  1
  Mn3.34+  Mn144  1  0.41687717  0.67080863  0.42228920  1
  Mn3.34+  Mn145  1  0.07504484  0.66894779  0.75288094  1
  Mn3.34+  Mn146  1  0.58242481  0.66523791  0.58392818  1
  Mn3.34+  Mn147  1  0.41666583  0.67017822  0.75686527  1
  Mn3.34+  Mn148  1  0.41762342  0.68077577  0.41283658  1
  Mn3.34+  Mn149  1  0.41140048  0.16919994  0.75154742  1
  Mn3.34+  Mn150  1  0.75205774  0.16487046  0.41402943  1
  Mn3.34+  Mn151  1  0.25068143  0.16930655  0.57805791  1
  Mn3.34+  Mn152  1  0.08100975  0.17061374  0.08739920  1
  Mn3.34+  Mn153  1  0.42034405  0.16660879  0.08979683  1
  Mn3.34+  Mn154  1  0.74873031  0.66776094  0.75577018  1
  Mn3.34+  Mn155  1  0.57439929  0.17325625  0.57643193  1
  Mn3.34+  Mn156  1  0.90872041  0.66452779  0.24592361  1
  Mn3.34+  Mn157  1  0.91743375  0.16703003  0.24701198  1
  Mn3.34+  Mn158  1  0.92038961  0.17108775  0.58048437  1
  Mn3.34+  Mn159  1  0.91791544  0.16956622  0.91408635  1
  Mn3.34+  Mn160  1  0.91546951  0.66098784  0.58182587  1
  Mn3.34+  Mn161  1  0.41872887  0.15422609  0.40958170  1
  Mn3.34+  Mn162  1  0.08694383  0.66899869  0.41074676  1
  Mn3.34+  Mn163  1  0.25411312  0.66482526  0.91979698  1
  Mn3.34+  Mn164  1  0.91438853  0.66533521  0.91517437  1
  Mn3.34+  Mn165  1  0.07725443  0.66320041  0.41136172  1
  Mn3.34+  Mn166  1  0.40707365  0.16038153  0.09272646  1
  Mn3.34+  Mn167  1  0.08795667  0.66482189  0.75540228  1
  Mn3.34+  Mn168  1  0.07725875  0.66573932  0.08725353  1
  Mn3.34+  Mn169  1  0.41913753  0.66230784  0.08481937  1
  Mn3.34+  Mn170  1  0.25121401  0.16589611  0.25404178  1
  Mn3.34+  Mn171  1  0.74670696  0.66728240  0.41446290  1
  Mn3.34+  Mn172  1  0.75539589  0.17431895  0.75110432  1
  Mn3.34+  Mn173  1  0.25561091  0.66021635  0.23968326  1
  Mn3.34+  Mn174  1  0.57940948  0.17052229  0.91675244  1
  Mn3.34+  Mn175  1  0.58610034  0.16551696  0.57442871  1
  Mn3.34+  Mn176  1  0.08925973  0.66012226  0.08935394  1
  Mn3.34+  Mn177  1  0.09338763  0.16352604  0.08913697  1
  Mn3.34+  Mn178  1  0.74790585  0.17095577  0.08985392  1
  Mn3.34+  Mn179  1  0.58115100  0.16676585  0.25499299  1
  Mn3.34+  Mn180  1  0.74838774  0.00237896  0.74707224  1
  Mn3.34+  Mn181  1  0.57143546  0.00002253  0.92633839  1
  Mn3.34+  Mn182  1  0.42470754  0.50352186  0.39845142  1
  Mn3.34+  Mn183  1  0.56722408  0.00316927  0.26454107  1
  Mn3.34+  Mn184  1  0.74244830  0.50124655  0.75685480  1
  Mn3.34+  Mn185  1  0.08876539  0.49950551  0.75001224  1
  Mn3.34+  Mn186  1  0.75731274  0.00050778  0.41126698  1
  Mn3.34+  Mn187  1  0.58631916  0.49919017  0.92462373  1
  Mn3.34+  Mn188  1  0.07899764  -0.00383242  0.40848344  1
  Mn3.34+  Mn189  1  0.57467517  0.50003741  0.58053568  1
  Mn3.34+  Mn190  1  0.74539924  -0.00040104  0.08400311  1
  Mn3.34+  Mn191  1  0.39312396  -0.00307196  0.74835389  1
  Mn3.34+  Mn192  1  0.07022340  0.49932541  0.40068523  1
  Mn3.34+  Mn193  1  0.74341187  0.50375290  0.39541267  1
  Mn3.34+  Mn194  1  0.42722632  0.50184214  0.41138408  1
  Mn3.34+  Mn195  1  0.26015712  0.49953400  0.25041182  1
  Mn3.34+  Mn196  1  0.25997435  0.00317243  0.25721855  1
  Mn3.34+  Mn197  1  0.91359474  0.50293942  0.92417464  1
  Mn3.34+  Mn198  1  0.91013071  0.50148038  0.24088405  1
  Mn3.34+  Mn199  1  0.57233619  -0.00134025  0.58318207  1
  Mn3.34+  Mn200  1  0.08790227  -0.00061128  0.08640092  1
  Mn3.34+  Mn201  1  0.91517648  0.00163620  0.57147860  1
  Mn3.34+  Mn202  1  0.91050721  -0.00364968  0.25404873  1
  Mn3.34+  Mn203  1  0.92647396  0.00101950  0.91534201  1
  Mn3.34+  Mn204  1  0.92921961  -0.00389485  0.57589956  1
  Mn3.34+  Mn205  1  0.75046852  0.49800035  0.08094398  1
  Mn3.34+  Mn206  1  0.07972735  0.00254354  0.41714888  1
  Mn3.34+  Mn207  1  0.09883800  0.00447202  0.08439080  1
  Mn3.34+  Mn208  1  0.41638774  0.50323262  0.75633240  1
  Mn3.34+  Mn209  1  0.25298693  0.00113679  0.58936164  1
  Mn3.34+  Mn210  1  0.41521531  -0.00098185  0.08075105  1
  Mn3.34+  Mn211  1  0.58040500  0.00043737  0.26252553  1
  Mn3.34+  Mn212  1  0.76382499  -0.00256181  0.74761230  1
  Mn3.34+  Mn213  1  0.08076850  0.49333593  0.39981173  1
  Mn3.34+  Mn214  1  0.08836076  -0.00227431  0.74188086  1
  Mn3.34+  Mn215  1  0.08491865  0.49927885  0.08048161  1
  O2-  O216  1  -0.00419682  0.15002946  0.00530024  1
  O2-  O217  1  -0.01100401  0.18056943  0.32870081  1
  O2-  O218  1  -0.00010329  0.16197880  0.65794976  1
  O2-  O219  1  -0.00247064  0.64435556  0.00427273  1
  O2-  O220  1  -0.00408438  0.66529586  0.33032437  1
  O2-  O221  1  0.00693902  0.63522990  0.65813115  1
  O2-  O222  1  0.33141314  0.15730389  0.00621752  1
  O2-  O223  1  0.33443576  0.17187634  0.33668382  1
  O2-  O224  1  0.33557262  0.15912719  0.66507685  1
  O2-  O225  1  0.33505951  0.66284668  -0.00276802  1
  O2-  O226  1  0.32494210  0.68301460  0.34305849  1
  O2-  O227  1  0.32792347  0.66116920  0.67597766  1
  O2-  O228  1  0.67096224  0.15116995  0.00165835  1
  O2-  O229  1  0.66765302  0.15603496  0.33371290  1
  O2-  O230  1  0.66352979  0.15013718  0.67150118  1
  O2-  O231  1  0.66521164  0.68322634  0.00523259  1
  O2-  O232  1  0.67050128  0.66240106  0.33763749  1
  O2-  O233  1  0.66543710  0.64728418  0.67200885  1
  O2-  O234  1  0.16409210  0.15248950  0.00516936  1
  O2-  O235  1  0.17467043  0.16002634  0.33143952  1
  O2-  O236  1  0.16934445  0.16344884  0.65508055  1
  O2-  O237  1  0.16356334  0.65193439  0.00126660  1
  O2-  O238  1  0.17085886  0.66157864  0.32966679  1
  O2-  O239  1  0.16626062  0.65959860  0.66960061  1
  O2-  O240  1  0.49082398  0.14262051  -0.00183629  1
  O2-  O241  1  0.49553118  0.18297127  0.33427253  1
  O2-  O242  1  0.49801072  0.15801464  0.66830893  1
  O2-  O243  1  0.49547704  0.66592347  0.00053897  1
  O2-  O244  1  0.49061662  0.66802687  0.32987280  1
  O2-  O245  1  0.48848707  0.64658178  0.65741410  1
  O2-  O246  1  0.83435283  0.15696976  0.00092332  1
  O2-  O247  1  0.83093830  0.16182975  0.32720351  1
  O2-  O248  1  0.83406876  0.15934968  0.66773083  1
  O2-  O249  1  0.83016003  0.66735082  -0.01142349  1
  O2-  O250  1  0.83697003  0.66231653  0.33960654  1
  O2-  O251  1  0.83156169  0.64796672  0.66587311  1
  O2-  O252  1  0.00961548  0.34715057  -0.01263582  1
  O2-  O253  1  0.00211276  0.33038565  0.33085126  1
  O2-  O254  1  0.00265783  0.35313627  0.66802288  1
  O2-  O255  1  0.01009196  0.84836643  -0.00821655  1
  O2-  O256  1  -0.00239901  0.83076593  0.32530110  1
  O2-  O257  1  0.00545631  0.84886870  0.66411038  1
  O2-  O258  1  0.33304369  0.34373348  -0.00274880  1
  O2-  O259  1  0.33323301  0.33285385  0.33720620  1
  O2-  O260  1  0.33552449  0.34510482  0.66598570  1
  O2-  O261  1  0.33221795  0.83721972  0.00607176  1
  O2-  O262  1  0.33050217  0.82875206  0.33759485  1
  O2-  O263  1  0.33597017  0.83239376  0.66332020  1
  O2-  O264  1  0.66483158  0.35200839  0.00270522  1
  O2-  O265  1  0.66763667  0.34389630  0.33344505  1
  O2-  O266  1  0.67117720  0.35414422  0.66901251  1
  O2-  O267  1  0.67134905  0.82180267  -0.00718731  1
  O2-  O268  1  0.66040956  0.84360141  0.33744891  1
  O2-  O269  1  0.66143564  0.85291216  0.66925094  1
  O2-  O270  1  0.17482005  0.35143679  0.00475010  1
  O2-  O271  1  0.16630338  0.35008481  0.33655417  1
  O2-  O272  1  0.16868633  0.35493677  0.67323232  1
  O2-  O273  1  0.16972865  0.84141138  0.00526311  1
  O2-  O274  1  0.16917061  0.84183322  0.33284948  1
  O2-  O275  1  0.16887320  0.82574868  0.66319758  1
  O2-  O276  1  0.49376757  0.35373845  -0.00759860  1
  O2-  O277  1  0.50442653  0.33183555  0.33639669  1
  O2-  O278  1  0.49973253  0.34381295  0.66751297  1
  O2-  O279  1  0.50407197  0.83350910  0.00287740  1
  O2-  O280  1  0.49578650  0.83991209  0.33316931  1
  O2-  O281  1  0.49709968  0.84592769  0.66329577  1
  O2-  O282  1  0.83336155  0.33142535  -0.00472886  1
  O2-  O283  1  0.83359513  0.32640398  0.32777489  1
  O2-  O284  1  0.83269578  0.34534714  0.66899064  1
  O2-  O285  1  0.83121454  0.82919546  0.00207209  1
  O2-  O286  1  0.83402318  0.81976267  0.32810751  1
  O2-  O287  1  0.83618326  0.84775244  0.67146285  1
  O2-  O288  1  -0.00115803  0.18575347  0.16287528  1
  O2-  O289  1  -0.00350710  0.18019604  0.50291489  1
  O2-  O290  1  -0.00270635  0.18370026  0.84067601  1
  O2-  O291  1  -0.00212891  0.68519085  0.16799582  1
  O2-  O292  1  0.00000155  0.67225835  0.49969725  1
  O2-  O293  1  -0.00157440  0.67491312  0.83373139  1
  O2-  O294  1  0.33483208  0.18958724  0.17116631  1
  O2-  O295  1  0.33699718  0.18361476  0.49600286  1
  O2-  O296  1  0.33851762  0.17690315  0.83431674  1
  O2-  O297  1  0.33579842  0.68602490  0.17065119  1
  O2-  O298  1  0.33911727  0.68459438  0.50544978  1
  O2-  O299  1  0.33198071  0.68125125  0.83358989  1
  O2-  O300  1  0.66843969  0.17509057  0.16709645  1
  O2-  O301  1  0.67557827  0.17403424  0.50435459  1
  O2-  O302  1  0.66927467  0.18507861  0.82859283  1
  O2-  O303  1  0.67006574  0.67858773  0.15613553  1
  O2-  O304  1  0.67753413  0.67291967  0.51376674  1
  O2-  O305  1  0.67125582  0.68119034  0.83301035  1
  O2-  O306  1  0.17018279  0.18174046  0.16930857  1
  O2-  O307  1  0.17485994  0.17397352  0.50002431  1
  O2-  O308  1  0.17322747  0.17045312  0.83155536  1
  O2-  O309  1  0.16728125  0.68812227  0.16740161  1
  O2-  O310  1  0.16267962  0.67583176  0.49900419  1
  O2-  O311  1  0.16947508  0.68311868  0.83502538  1
  O2-  O312  1  0.50546441  0.17890446  0.16232283  1
  O2-  O313  1  0.49480439  0.18424000  0.49337790  1
  O2-  O314  1  0.50374042  0.18535075  0.82178369  1
  O2-  O315  1  0.50073467  0.67310196  0.16086626  1
  O2-  O316  1  0.50407957  0.68498273  0.49648269  1
  O2-  O317  1  0.50165716  0.68120658  0.82770650  1
  O2-  O318  1  0.83961176  0.18473205  0.15929739  1
  O2-  O319  1  0.83622268  0.18023337  0.49485151  1
  O2-  O320  1  0.82764404  0.18972702  0.84210198  1
  O2-  O321  1  0.83467803  0.68627934  0.17048155  1
  O2-  O322  1  0.83248137  0.67806922  0.50532975  1
  O2-  O323  1  0.83861893  0.68191183  0.82645812  1
  O2-  O324  1  0.00131492  0.31497590  0.16940278  1
  O2-  O325  1  0.00851313  0.32724297  0.51088653  1
  O2-  O326  1  -0.00617556  0.32048709  0.82533655  1
  O2-  O327  1  -0.00086685  0.81506284  0.16646967  1
  O2-  O328  1  0.00077132  0.81904651  0.50405356  1
  O2-  O329  1  -0.00503957  0.82681124  0.82870686  1
  O2-  O330  1  0.33111603  0.32072017  0.16263130  1
  O2-  O331  1  0.33096997  0.32179189  0.49814560  1
  O2-  O332  1  0.33097985  0.31468513  0.83018281  1
  O2-  O333  1  0.33626714  0.81995116  0.17121113  1
  O2-  O334  1  0.33596507  0.80827459  0.50052986  1
  O2-  O335  1  0.33817631  0.81368974  0.83852296  1
  O2-  O336  1  0.67013832  0.32401091  0.16871929  1
  O2-  O337  1  0.67831101  0.33129965  0.50878748  1
  O2-  O338  1  0.66398792  0.31844696  0.82986716  1
  O2-  O339  1  0.66179729  0.82022907  0.15939448  1
  O2-  O340  1  0.66690559  0.82386717  0.50427394  1
  O2-  O341  1  0.66504963  0.81690159  0.83202753  1
  O2-  O342  1  0.16303459  0.32010289  0.16711401  1
  O2-  O343  1  0.16264873  0.32626629  0.50883171  1
  O2-  O344  1  0.15992203  0.32607068  0.84159339  1
  O2-  O345  1  0.16393062  0.81433403  0.17177298  1
  O2-  O346  1  0.16796037  0.81768219  0.50566750  1
  O2-  O347  1  0.16626689  0.82150720  0.83543673  1
  O2-  O348  1  0.50403520  0.32406192  0.16076944  1
  O2-  O349  1  0.49664434  0.30754892  0.49801095  1
  O2-  O350  1  0.50336135  0.31830427  0.82599244  1
  O2-  O351  1  0.49932707  0.82862062  0.16677083  1
  O2-  O352  1  0.50140386  0.81064124  0.49400449  1
  O2-  O353  1  0.50858102  0.82201472  0.82522456  1
  O2-  O354  1  0.83068325  0.31572566  0.17086232  1
  O2-  O355  1  0.83360028  0.32937233  0.50338041  1
  O2-  O356  1  0.83481160  0.30957850  0.83209953  1
  O2-  O357  1  0.83077367  0.80696785  0.16843865  1
  O2-  O358  1  0.83057483  0.82162998  0.50642241  1
  O2-  O359  1  0.82775233  0.82111586  0.84065429  1
  O2-  O360  1  0.06645516  0.08205497  0.12882054  1
  O2-  O361  1  0.07364905  0.07939234  0.45233198  1
  O2-  O362  1  0.08357382  0.07355100  0.77750268  1
  O2-  O363  1  0.07904531  0.57974963  0.11767570  1
  O2-  O364  1  0.09113375  0.57583464  0.45433599  1
  O2-  O365  1  0.09494069  0.58204057  0.78278158  1
  O2-  O366  1  0.42343716  0.07889587  0.11762149  1
  O2-  O367  1  0.39480256  0.07951809  0.43941984  1
  O2-  O368  1  0.43296718  0.07743470  0.79374354  1
  O2-  O369  1  0.42847840  0.58247849  0.09402679  1
  O2-  O370  1  0.40331320  0.58377943  0.45421925  1
  O2-  O371  1  0.41571022  0.58503237  0.77980584  1
  O2-  O372  1  0.76306099  0.08261240  0.11765958  1
  O2-  O373  1  0.76417284  0.07948312  0.44809497  1
  O2-  O374  1  0.74286451  0.08221241  0.78353208  1
  O2-  O375  1  0.74635015  0.57596637  0.10067829  1
  O2-  O376  1  0.75533441  0.57841558  0.44511058  1
  O2-  O377  1  0.74809968  0.58294978  0.78263548  1
  O2-  O378  1  0.25846560  0.08131507  0.23618371  1
  O2-  O379  1  0.25394744  0.08235221  0.55719111  1
  O2-  O380  1  0.25356366  0.05663348  0.85519686  1
  O2-  O381  1  0.28957914  0.57904412  0.24377764  1
  O2-  O382  1  0.24942019  0.57286505  0.53980686  1
  O2-  O383  1  0.24847497  0.58471779  0.89140560  1
  O2-  O384  1  0.58938326  0.08064066  0.21813745  1
  O2-  O385  1  0.56176272  0.08386416  0.56269068  1
  O2-  O386  1  0.59864835  0.08348669  0.87917878  1
  O2-  O387  1  0.59254155  0.56873979  0.19757919  1
  O2-  O388  1  0.59988228  0.58142021  0.55893291  1
  O2-  O389  1  0.59174960  0.57506031  0.89989164  1
  O2-  O390  1  0.90769592  0.07709535  0.21372060  1
  O2-  O391  1  0.91545673  0.08333282  0.55268573  1
  O2-  O392  1  0.89144450  0.08143584  0.87608230  1
  O2-  O393  1  0.89922774  0.58076641  0.21345013  1
  O2-  O394  1  0.89395331  0.57984070  0.55395236  1
  O2-  O395  1  0.91344396  0.58085464  0.88576602  1
  O2-  O396  1  0.08334734  0.41809986  0.10977951  1
  O2-  O397  1  0.08420706  0.41835028  0.44896396  1
  O2-  O398  1  0.07576794  0.41956376  0.79114974  1
  O2-  O399  1  0.09591861  0.91813198  0.11519440  1
  O2-  O400  1  0.09264892  0.91782919  0.44906423  1
  O2-  O401  1  0.07800970  0.92001257  0.77732687  1
  O2-  O402  1  0.41069245  0.41883545  0.09017829  1
  O2-  O403  1  0.42078118  0.42252239  0.45152416  1
  O2-  O404  1  0.42402666  0.42106151  0.78959860  1
  O2-  O405  1  0.41003489  0.91927155  0.10999746  1
  O2-  O406  1  0.40732851  0.90938185  0.44770522  1
  O2-  O407  1  0.42790100  0.91478452  0.77351342  1
  O2-  O408  1  0.75240799  0.41853597  0.11277393  1
  O2-  O409  1  0.74263527  0.42865181  0.44460004  1
  O2-  O410  1  0.75543995  0.42045101  0.78998790  1
  O2-  O411  1  0.72739733  0.91738516  0.06228916  1
  O2-  O412  1  0.74078317  0.92184447  0.44345467  1
  O2-  O413  1  0.74894173  0.91684085  0.78319135  1
  O2-  O414  1  0.23867969  0.42028610  0.22006180  1
  O2-  O415  1  0.24326945  0.41644642  0.55750674  1
  O2-  O416  1  0.25463944  0.41580577  0.88237228  1
  O2-  O417  1  0.24899514  0.92842805  0.20868306  1
  O2-  O418  1  0.25005923  0.92187418  0.55162153  1
  O2-  O419  1  0.24911016  0.91297516  0.90969233  1
  O2-  O420  1  0.59007877  0.41503865  0.23213120  1
  O2-  O421  1  0.57104814  0.41743804  0.54730638  1
  O2-  O422  1  0.59233906  0.42353215  0.87579713  1
  O2-  O423  1  0.58300846  0.92278372  0.21502383  1
  O2-  O424  1  0.57112546  0.91569564  0.55503429  1
  O2-  O425  1  0.61207211  0.92026583  0.88632282  1
  O2-  O426  1  0.92125684  0.42084577  0.22675837  1
  O2-  O427  1  0.90634763  0.41849007  0.57671592  1
  O2-  O428  1  0.90704133  0.42497766  0.87618810  1
  O2-  O429  1  0.93505647  0.92135561  0.22021873  1
  O2-  O430  1  0.91656608  0.91540124  0.56033510  1
  O2-  O431  1  0.89258677  0.91826686  0.89417632  1
  O2-  O432  1  -0.01055751  0.01525289  0.02021083  1
  O2-  O433  1  -0.00311794  0.00980232  0.32863087  1
  O2-  O434  1  -0.01740156  0.00437602  0.68234416  1
  O2-  O435  1  0.02053023  0.49534123  -0.03208437  1
  O2-  O436  1  -0.00825681  0.51661180  0.32385643  1
  O2-  O437  1  -0.00665576  0.49150712  0.68300315  1
  O2-  O438  1  0.33784517  0.00957562  0.00199001  1
  O2-  O439  1  0.33348046  -0.01843280  0.32803476  1
  O2-  O440  1  0.36542260  0.00078407  0.62725862  1
  O2-  O441  1  0.33553300  0.50003002  -0.02268485  1
  O2-  O442  1  0.31566470  0.49082917  0.35814223  1
  O2-  O443  1  0.34019686  0.50847330  0.66476587  1
  O2-  O444  1  0.67669174  0.02168401  -0.01171900  1
  O2-  O445  1  0.66511222  0.00772065  0.33901948  1
  O2-  O446  1  0.67167793  0.01124128  0.65819339  1
  O2-  O447  1  0.65408569  0.49111507  0.01332918  1
  O2-  O448  1  0.67405805  0.49087380  0.31946639  1
  O2-  O449  1  0.67768262  0.48395482  0.65157319  1
  O2-  O450  1  0.15282849  -0.00406489  -0.01598271  1
  O2-  O451  1  0.17383645  -0.00688987  0.33655197  1
  O2-  O452  1  0.14749793  0.00506161  0.64027608  1
  O2-  O453  1  0.16797692  0.48631364  0.00283800  1
  O2-  O454  1  0.16543765  0.50715160  0.32322246  1
  O2-  O455  1  0.15156754  0.49788099  0.64631519  1
  O2-  O456  1  0.52188886  -0.00168290  0.03647259  1
  O2-  O457  1  0.49819099  -0.02633772  0.34164012  1
  O2-  O458  1  0.52554698  -0.00176253  0.70650916  1
  O2-  O459  1  0.49445478  0.49142886  -0.02108595  1
  O2-  O460  1  0.51134491  0.50915653  0.32728706  1
  O2-  O461  1  0.51371215  0.48987949  0.68727602  1
  O2-  O462  1  0.83309650  0.01914018  0.00134880  1
  O2-  O463  1  0.83042376  0.01840915  0.32754041  1
  O2-  O464  1  0.82501745  0.00184864  0.64808003  1
  O2-  O465  1  0.81440380  0.50425952  -0.01866190  1
  O2-  O466  1  0.83316522  0.50839390  0.33099167  1
  O2-  O467  1  0.83339338  0.49507882  0.68360005  1
  O2-  O468  1  0.24253993  0.25238555  0.27115522  1
  O2-  O469  1  0.73878884  0.24875862  0.40532894  1
  O2-  O470  1  0.24736516  0.25332395  0.93945086  1
  O2-  O471  1  0.09007242  0.25333842  0.41082308  1
  O2-  O472  1  0.07839154  0.74585928  0.05497908  1
  O2-  O473  1  0.25139171  0.25242050  0.60753650  1
  O2-  O474  1  0.08830681  0.25642270  0.72527274  1
  O2-  O475  1  0.93364477  0.74893491  0.93508314  1
  O2-  O476  1  0.24413639  0.74892801  0.93856047  1
  O2-  O477  1  0.59484988  0.25064371  0.25984520  1
  O2-  O478  1  0.08476153  0.75300727  0.39917719  1
  O2-  O479  1  0.58368972  0.25024750  0.95047319  1
  O2-  O480  1  0.92452905  0.74579800  0.61133139  1
  O2-  O481  1  0.58586580  0.74820335  0.61426070  1
  O2-  O482  1  0.41689410  0.75121362  0.07045117  1
  O2-  O483  1  0.06661574  0.74977088  0.72703010  1
  O2-  O484  1  0.75322091  0.74808132  0.71671784  1
  O2-  O485  1  0.73918771  0.25104481  0.06150116  1
  O2-  O486  1  0.74520417  0.74981055  0.40868409  1
  O2-  O487  1  0.60212121  0.25110448  0.61131533  1
  O2-  O488  1  0.42163636  0.24887360  0.05828245  1
  O2-  O489  1  0.58486936  0.75481105  0.26170561  1
  O2-  O490  1  0.91094980  0.25365624  0.60381112  1
  O2-  O491  1  0.08701885  0.25122250  0.04948553  1
  O2-  O492  1  0.42261820  0.75033197  0.72861991  1
