# generated using pymatgen
data_Ca108Mn108O277
_symmetry_space_group_name_H-M   'P 1'
_cell_length_a   16.02017783
_cell_length_b   22.29561208
_cell_length_c   16.38334468
_cell_angle_alpha   89.99936262
_cell_angle_beta   90.00075240
_cell_angle_gamma   90.00281288
_symmetry_Int_Tables_number   1
_chemical_formula_structural   Ca108Mn108O277
_chemical_formula_sum   'Ca108 Mn108 O277'
_cell_volume   5851.79764372
_cell_formula_units_Z   1
loop_
 _symmetry_equiv_pos_site_id
 _symmetry_equiv_pos_as_xyz
  1  'x, y, z'
loop_
 _atom_type_symbol
 _atom_type_oxidation_number
  Ca2+  2.0
  Mn3.34+  3.34
  O2-  -2.0
loop_
 _atom_site_type_symbol
 _atom_site_label
 _atom_site_symmetry_multiplicity
 _atom_site_fract_x
 _atom_site_fract_y
 _atom_site_fract_z
 _atom_site_occupancy
  Ca2+  Ca0  1  0.11028732  0.25407859  0.23989720  1
  Ca2+  Ca1  1  0.10348240  0.24497372  0.59720624  1
  Ca2+  Ca2  1  0.09824445  0.25499684  0.90877013  1
  Ca2+  Ca3  1  0.09361261  0.76034194  0.25752214  1
  Ca2+  Ca4  1  0.07768305  0.74860807  0.59383405  1
  Ca2+  Ca5  1  0.09263649  0.75353629  0.90510844  1
  Ca2+  Ca6  1  0.40139683  0.22731375  0.22927307  1
  Ca2+  Ca7  1  0.38691170  0.24630668  0.59234976  1
  Ca2+  Ca8  1  0.42800672  0.22567684  0.93252501  1
  Ca2+  Ca9  1  0.42258438  0.74781146  0.26455382  1
  Ca2+  Ca10  1  0.41077328  0.74376101  0.59004872  1
  Ca2+  Ca11  1  0.41377970  0.75973386  0.90149648  1
  Ca2+  Ca12  1  0.73915295  0.25063086  0.24050951  1
  Ca2+  Ca13  1  0.76451238  0.25197515  0.57736774  1
  Ca2+  Ca14  1  0.71628004  0.23940397  0.93503929  1
  Ca2+  Ca15  1  0.73936140  0.75003217  0.24208202  1
  Ca2+  Ca16  1  0.75169081  0.75186519  0.58720707  1
  Ca2+  Ca17  1  0.74610935  0.75759399  0.92477090  1
  Ca2+  Ca18  1  0.26969080  0.24655263  0.08387508  1
  Ca2+  Ca19  1  0.25913123  0.24868170  0.41568933  1
  Ca2+  Ca20  1  0.24789845  0.24590897  0.74271235  1
  Ca2+  Ca21  1  0.25807804  0.75990270  0.08627174  1
  Ca2+  Ca22  1  0.27608182  0.74387056  0.41728563  1
  Ca2+  Ca23  1  0.26789729  0.74794415  0.75245722  1
  Ca2+  Ca24  1  0.56731334  0.24566436  0.07410967  1
  Ca2+  Ca25  1  0.59316334  0.24776162  0.40170905  1
  Ca2+  Ca26  1  0.57108933  0.25342793  0.77848499  1
  Ca2+  Ca27  1  0.59924040  0.75357422  0.09466281  1
  Ca2+  Ca28  1  0.57409417  0.73027542  0.41355950  1
  Ca2+  Ca29  1  0.57333879  0.74326417  0.74016438  1
  Ca2+  Ca30  1  0.90656809  0.26577655  0.08886251  1
  Ca2+  Ca31  1  0.90256404  0.25441934  0.42381249  1
  Ca2+  Ca32  1  0.93451581  0.25197473  0.73814266  1
  Ca2+  Ca33  1  0.88817043  0.75199716  0.08273672  1
  Ca2+  Ca34  1  0.91386792  0.76041669  0.42323870  1
  Ca2+  Ca35  1  0.91229938  0.75035590  0.74424478  1
  Ca2+  Ca36  1  0.57315624  0.10725903  0.77518011  1
  Ca2+  Ca37  1  0.73818910  0.60656022  0.57758168  1
  Ca2+  Ca38  1  0.08881717  0.08171554  0.25088120  1
  Ca2+  Ca39  1  0.57949973  0.08571163  0.39531310  1
  Ca2+  Ca40  1  0.76897641  0.08502950  0.58486127  1
  Ca2+  Ca41  1  0.26173602  0.10572952  0.42054919  1
  Ca2+  Ca42  1  0.23811151  0.58251293  0.07943180  1
  Ca2+  Ca43  1  0.38379547  0.10283131  0.58289906  1
  Ca2+  Ca44  1  0.55534085  0.09993680  0.08063520  1
  Ca2+  Ca45  1  0.89006414  0.60664819  0.08611572  1
  Ca2+  Ca46  1  0.42182527  0.59539326  0.27201545  1
  Ca2+  Ca47  1  0.38861251  0.60311127  0.90519643  1
  Ca2+  Ca48  1  0.10294364  0.06904657  0.90789637  1
  Ca2+  Ca49  1  0.74777123  0.61379703  0.24011884  1
  Ca2+  Ca50  1  0.26316594  0.61441322  0.74651980  1
  Ca2+  Ca51  1  0.24767252  0.09671352  0.74488459  1
  Ca2+  Ca52  1  0.88887430  0.60867246  0.42212401  1
  Ca2+  Ca53  1  0.88299944  0.07252834  0.08307489  1
  Ca2+  Ca54  1  0.90967512  0.07375580  0.40754969  1
  Ca2+  Ca55  1  0.25457156  0.61064130  0.74258108  1
  Ca2+  Ca56  1  0.73998780  0.08293867  0.24886584  1
  Ca2+  Ca57  1  0.76127927  0.59479230  0.92190368  1
  Ca2+  Ca58  1  0.30251849  0.09718983  0.08133644  1
  Ca2+  Ca59  1  0.27210823  0.61122547  0.43300274  1
  Ca2+  Ca60  1  0.09869915  0.59402084  0.59539485  1
  Ca2+  Ca61  1  0.10729504  0.59666300  0.91748177  1
  Ca2+  Ca62  1  0.60786156  0.59484022  0.08917894  1
  Ca2+  Ca63  1  0.39951865  0.60135868  0.90441503  1
  Ca2+  Ca64  1  0.54521630  0.10079675  0.08164657  1
  Ca2+  Ca65  1  0.90147925  0.60778285  0.42072809  1
  Ca2+  Ca66  1  0.40349519  0.61506988  0.57913979  1
  Ca2+  Ca67  1  0.09649943  0.59438170  0.91726381  1
  Ca2+  Ca68  1  0.29834155  0.09151705  0.08623923  1
  Ca2+  Ca69  1  0.75036639  0.59301141  0.92119500  1
  Ca2+  Ca70  1  0.11292651  0.07037447  0.91028077  1
  Ca2+  Ca71  1  0.09430716  0.08420045  0.60801225  1
  Ca2+  Ca72  1  0.76213173  0.91075072  0.24458454  1
  Ca2+  Ca73  1  0.25090673  0.92017645  0.05732400  1
  Ca2+  Ca74  1  0.58772245  0.90682658  0.08849099  1
  Ca2+  Ca75  1  0.73486607  0.41277780  0.58815344  1
  Ca2+  Ca76  1  0.72809038  0.40849057  0.91934595  1
  Ca2+  Ca77  1  0.58935262  0.89905801  0.41215397  1
  Ca2+  Ca78  1  0.57797561  0.40752227  0.08085517  1
  Ca2+  Ca79  1  0.58308206  0.40335774  0.41211830  1
  Ca2+  Ca80  1  0.90860591  0.91362263  0.08520840  1
  Ca2+  Ca81  1  0.08959683  0.40622376  0.92241521  1
  Ca2+  Ca82  1  0.74324142  0.39976152  0.24030577  1
  Ca2+  Ca83  1  0.93173478  0.40231396  0.41549162  1
  Ca2+  Ca84  1  0.25063993  0.40565789  0.08433471  1
  Ca2+  Ca85  1  0.58348291  0.40954233  0.74900961  1
  Ca2+  Ca86  1  0.59243631  0.89247343  0.74872471  1
  Ca2+  Ca87  1  0.08565996  0.40762293  0.58834810  1
  Ca2+  Ca88  1  0.07264326  0.91324410  0.59826234  1
  Ca2+  Ca89  1  0.09072034  0.40340727  0.24382252  1
  Ca2+  Ca90  1  0.41795393  0.89368499  0.58477197  1
  Ca2+  Ca91  1  0.24088326  0.40167770  0.41200510  1
  Ca2+  Ca92  1  0.42477320  0.90325946  0.24004689  1
  Ca2+  Ca93  1  0.05989112  0.91381911  0.24211373  1
  Ca2+  Ca94  1  0.75767671  0.91160837  0.92993614  1
  Ca2+  Ca95  1  0.41623963  0.40179755  0.58930044  1
  Ca2+  Ca96  1  0.25860197  0.90384619  0.42139676  1
  Ca2+  Ca97  1  0.41879415  0.40350360  0.91843131  1
  Ca2+  Ca98  1  0.23780718  0.90641896  0.76061484  1
  Ca2+  Ca99  1  0.74755050  0.41171896  0.58877268  1
  Ca2+  Ca100  1  0.57074718  0.40306672  0.41397160  1
  Ca2+  Ca101  1  0.74024895  0.41036173  0.92171030  1
  Ca2+  Ca102  1  0.23944409  0.40563323  0.08448733  1
  Ca2+  Ca103  1  0.91646820  0.90665887  0.75090563  1
  Ca2+  Ca104  1  0.08925058  0.91497885  0.92269219  1
  Ca2+  Ca105  1  0.92189095  0.40616516  0.74573583  1
  Ca2+  Ca106  1  0.24578811  0.90376269  0.42156789  1
  Ca2+  Ca107  1  0.08321811  0.91282421  0.59813329  1
  Mn3.34+  Mn108  1  0.07895289  0.33622735  0.08332997  1
  Mn3.34+  Mn109  1  0.08492144  0.33015446  0.41868644  1
  Mn3.34+  Mn110  1  0.08765444  0.33476700  0.75274747  1
  Mn3.34+  Mn111  1  0.07939653  0.83405841  0.08481995  1
  Mn3.34+  Mn112  1  0.07700859  0.83853230  0.41756648  1
  Mn3.34+  Mn113  1  0.08240235  0.83353875  0.75680150  1
  Mn3.34+  Mn114  1  0.41718235  0.33293866  0.08433581  1
  Mn3.34+  Mn115  1  0.41495059  0.32586186  0.41734670  1
  Mn3.34+  Mn116  1  0.41170363  0.33223416  0.75230321  1
  Mn3.34+  Mn117  1  0.41741031  0.84031582  0.08092613  1
  Mn3.34+  Mn118  1  0.42182434  0.82980081  0.41825360  1
  Mn3.34+  Mn119  1  0.41822314  0.82885578  0.75125724  1
  Mn3.34+  Mn120  1  0.74814877  0.33091048  0.08472539  1
  Mn3.34+  Mn121  1  0.75130984  0.33034047  0.41487526  1
  Mn3.34+  Mn122  1  0.75177623  0.33302797  0.75337870  1
  Mn3.34+  Mn123  1  0.74984591  0.83643537  0.08547937  1
  Mn3.34+  Mn124  1  0.75070020  0.83266008  0.41773908  1
  Mn3.34+  Mn125  1  0.75231990  0.83109347  0.75361252  1
  Mn3.34+  Mn126  1  0.25718695  0.33118497  0.25065628  1
  Mn3.34+  Mn127  1  0.24836187  0.33249735  0.58512129  1
  Mn3.34+  Mn128  1  0.25427546  0.32938453  0.91258482  1
  Mn3.34+  Mn129  1  0.25007516  0.83190678  0.24453805  1
  Mn3.34+  Mn130  1  0.24931756  0.82775120  0.58451093  1
  Mn3.34+  Mn131  1  0.25105201  0.83880763  0.91555790  1
  Mn3.34+  Mn132  1  0.57627045  0.33239938  0.24326132  1
  Mn3.34+  Mn133  1  0.58086419  0.33150821  0.58345293  1
  Mn3.34+  Mn134  1  0.57710466  0.33490638  0.91589717  1
  Mn3.34+  Mn135  1  0.58482967  0.83381644  0.24953868  1
  Mn3.34+  Mn136  1  0.58906775  0.82756425  0.57822609  1
  Mn3.34+  Mn137  1  0.58167204  0.83625704  0.91752533  1
  Mn3.34+  Mn138  1  0.91837815  0.33199746  0.25026349  1
  Mn3.34+  Mn139  1  0.92062365  0.33335178  0.58209027  1
  Mn3.34+  Mn140  1  0.91602007  0.32855581  0.91455067  1
  Mn3.34+  Mn141  1  0.91355916  0.83649479  0.24886203  1
  Mn3.34+  Mn142  1  0.90848494  0.83494952  0.58126999  1
  Mn3.34+  Mn143  1  0.91921133  0.83338440  0.91750745  1
  Mn3.34+  Mn144  1  0.07738754  0.16433212  0.42111885  1
  Mn3.34+  Mn145  1  0.25050855  0.66568222  0.25060112  1
  Mn3.34+  Mn146  1  0.74915865  0.16254448  0.42027182  1
  Mn3.34+  Mn147  1  0.91550611  0.66800420  0.58949208  1
  Mn3.34+  Mn148  1  0.91612004  0.67451017  0.91256988  1
  Mn3.34+  Mn149  1  0.75217037  0.66741227  0.74662364  1
  Mn3.34+  Mn150  1  0.75615419  0.16170326  0.75502526  1
  Mn3.34+  Mn151  1  0.58646542  0.66703967  0.25416495  1
  Mn3.34+  Mn152  1  0.57935171  0.65704063  0.57616481  1
  Mn3.34+  Mn153  1  0.58331953  0.16809608  0.57947803  1
  Mn3.34+  Mn154  1  0.25338284  0.16463214  0.90938295  1
  Mn3.34+  Mn155  1  0.09302721  0.66321661  0.41860252  1
  Mn3.34+  Mn156  1  0.08517495  0.66733668  0.09103495  1
  Mn3.34+  Mn157  1  0.57848289  0.65902494  0.90805613  1
  Mn3.34+  Mn158  1  0.57391634  0.17734260  0.58269413  1
  Mn3.34+  Mn159  1  0.08822045  0.17105313  0.41821310  1
  Mn3.34+  Mn160  1  0.92057298  0.17003819  0.91839191  1
  Mn3.34+  Mn161  1  0.91095737  0.16460435  0.91645088  1
  Mn3.34+  Mn162  1  0.90709756  0.15935799  0.24684788  1
  Mn3.34+  Mn163  1  0.08337726  0.16310765  0.75116494  1
  Mn3.34+  Mn164  1  0.74135264  0.16073257  0.08578389  1
  Mn3.34+  Mn165  1  0.91736406  0.16425547  0.24852608  1
  Mn3.34+  Mn166  1  0.42005769  0.66821030  0.08786023  1
  Mn3.34+  Mn167  1  0.07917874  0.66930990  0.75145197  1
  Mn3.34+  Mn168  1  0.41282801  0.16945750  0.75417490  1
  Mn3.34+  Mn169  1  0.91705101  0.67573768  0.24983069  1
  Mn3.34+  Mn170  1  0.58615709  0.66756070  0.91050371  1
  Mn3.34+  Mn171  1  0.09179039  0.16542626  0.08456148  1
  Mn3.34+  Mn172  1  0.74626867  0.16675246  0.75287087  1
  Mn3.34+  Mn173  1  0.08195231  0.66889918  0.41645743  1
  Mn3.34+  Mn174  1  0.41030427  0.66284764  0.08981977  1
  Mn3.34+  Mn175  1  0.91986096  0.16430537  0.58300218  1
  Mn3.34+  Mn176  1  0.58188577  0.16817572  0.24956796  1
  Mn3.34+  Mn177  1  0.08222379  0.15770146  0.08692082  1
  Mn3.34+  Mn178  1  0.07557688  0.67294282  0.09094701  1
  Mn3.34+  Mn179  1  0.41899527  0.16692448  0.41482006  1
  Mn3.34+  Mn180  1  0.92893780  0.50500530  0.24310772  1
  Mn3.34+  Mn181  1  0.57737152  0.49960918  0.24713407  1
  Mn3.34+  Mn182  1  0.74625854  0.50185170  0.41759191  1
  Mn3.34+  Mn183  1  0.24722991  0.50403133  0.25768461  1
  Mn3.34+  Mn184  1  0.92067481  0.50113714  0.58521538  1
  Mn3.34+  Mn185  1  0.41196186  0.49965668  0.42652173  1
  Mn3.34+  Mn186  1  0.56951701  -0.00430049  0.92962990  1
  Mn3.34+  Mn187  1  0.07200807  -0.00165763  0.40729315  1
  Mn3.34+  Mn188  1  0.26485189  -0.00389053  0.24982415  1
  Mn3.34+  Mn189  1  0.42267365  0.00145325  0.76299497  1
  Mn3.34+  Mn190  1  0.42116021  -0.00009690  0.42240993  1
  Mn3.34+  Mn191  1  0.57719876  0.00051478  0.25280066  1
  Mn3.34+  Mn192  1  0.92785385  0.50301908  0.91094125  1
  Mn3.34+  Mn193  1  0.42478362  0.50656087  0.42657820  1
  Mn3.34+  Mn194  1  0.24670779  0.49807121  0.58342775  1
  Mn3.34+  Mn195  1  0.58290561  0.00126501  0.92767926  1
  Mn3.34+  Mn196  1  0.91776090  0.00030058  0.92379230  1
  Mn3.34+  Mn197  1  0.08696464  0.49995605  0.41679179  1
  Mn3.34+  Mn198  1  0.25069663  0.49610918  0.91419689  1
  Mn3.34+  Mn199  1  0.41081863  -0.00325722  0.76314929  1
  Mn3.34+  Mn200  1  0.25167762  0.00049943  0.58588600  1
  Mn3.34+  Mn201  1  0.25478415  0.00170619  0.24849755  1
  Mn3.34+  Mn202  1  0.91512345  -0.00032735  0.59017357  1
  Mn3.34+  Mn203  1  0.74840264  0.49881266  0.08114050  1
  Mn3.34+  Mn204  1  0.91724695  0.49885798  0.24193432  1
  Mn3.34+  Mn205  1  0.74556853  0.50572025  0.73637273  1
  Mn3.34+  Mn206  1  0.59488464  0.00213938  0.58174590  1
  Mn3.34+  Mn207  1  0.91726694  0.49850157  0.91055263  1
  Mn3.34+  Mn208  1  0.73551609  0.50727893  0.41606526  1
  Mn3.34+  Mn209  1  0.75394449  -0.00209648  0.75098903  1
  Mn3.34+  Mn210  1  0.43134229  0.50260653  0.73714377  1
  Mn3.34+  Mn211  1  0.08487491  0.49838835  0.74627068  1
  Mn3.34+  Mn212  1  0.75214414  -0.00267223  0.40559137  1
  Mn3.34+  Mn213  1  0.42053475  0.49762381  0.73860525  1
  Mn3.34+  Mn214  1  0.58026192  -0.00282415  0.58355659  1
  Mn3.34+  Mn215  1  0.42241957  0.50187235  0.07449424  1
  O2-  O216  1  -0.00445936  0.15809545  0.00777168  1
  O2-  O217  1  0.00081094  0.15525637  0.33399547  1
  O2-  O218  1  0.00421228  0.16204038  0.66238688  1
  O2-  O219  1  -0.00343530  0.67053496  0.00390392  1
  O2-  O220  1  -0.00166884  0.66073909  0.33693826  1
  O2-  O221  1  0.00458180  0.65678644  0.66278029  1
  O2-  O222  1  0.32763769  0.16197602  -0.00821842  1
  O2-  O223  1  0.33899289  0.17444307  0.34160575  1
  O2-  O224  1  0.33182761  0.16118992  0.67433278  1
  O2-  O225  1  0.32984695  0.65451191  0.00744107  1
  O2-  O226  1  0.33031312  0.65980426  0.32610338  1
  O2-  O227  1  0.32712470  0.67069676  0.66639031  1
  O2-  O228  1  0.65814828  0.15905321  0.01579105  1
  O2-  O229  1  0.66846063  0.15266207  0.33601833  1
  O2-  O230  1  0.66195460  0.15651924  0.66333108  1
  O2-  O231  1  0.66935239  0.65448377  -0.00791908  1
  O2-  O232  1  0.66931570  0.67204632  0.32562987  1
  O2-  O233  1  0.66885136  0.66861519  0.66777017  1
  O2-  O234  1  0.16049221  0.15043988  -0.00944242  1
  O2-  O235  1  0.16256258  0.16244006  0.33405388  1
  O2-  O236  1  0.16335414  0.15918626  0.67439399  1
  O2-  O237  1  0.16152540  0.67033567  0.00009480  1
  O2-  O238  1  0.16795709  0.65470463  0.33245324  1
  O2-  O239  1  0.16250216  0.66326399  0.67327665  1
  O2-  O240  1  0.50173196  0.16743659  0.00770756  1
  O2-  O241  1  0.50797813  0.16817616  0.33936824  1
  O2-  O242  1  0.49443843  0.15881079  0.66342234  1
  O2-  O243  1  0.49824047  0.64408852  0.00067090  1
  O2-  O244  1  0.50015168  0.66498465  0.32427471  1
  O2-  O245  1  0.51118009  0.67694519  0.65501270  1
  O2-  O246  1  0.83157170  0.16235502  0.00145148  1
  O2-  O247  1  0.83600469  0.14623706  0.33934374  1
  O2-  O248  1  0.82798182  0.15389345  0.66727013  1
  O2-  O249  1  0.83331725  0.66585045  -0.00843639  1
  O2-  O250  1  0.84024571  0.67275701  0.33434683  1
  O2-  O251  1  0.83033629  0.65673374  0.66373319  1
  O2-  O252  1  0.00003583  0.32524254  -0.00432975  1
  O2-  O253  1  0.00237517  0.32978881  0.33660053  1
  O2-  O254  1  -0.00019149  0.34308605  0.66696715  1
  O2-  O255  1  0.00094512  0.81560364  0.00054351  1
  O2-  O256  1  -0.00060809  0.83145362  0.32569179  1
  O2-  O257  1  0.00125174  0.84576926  0.67112706  1
  O2-  O258  1  0.32943047  0.34345337  0.00439920  1
  O2-  O259  1  0.32804026  0.33522724  0.34172290  1
  O2-  O260  1  0.33518781  0.34260754  0.66479647  1
  O2-  O261  1  0.32837338  0.82963253  -0.00017538  1
  O2-  O262  1  0.33241813  0.84800052  0.33453396  1
  O2-  O263  1  0.33003352  0.83270229  0.66720699  1
  O2-  O264  1  0.66319801  0.34352351  -0.00022105  1
  O2-  O265  1  0.66418585  0.34609870  0.33463777  1
  O2-  O266  1  0.66792437  0.34409933  0.66610650  1
  O2-  O267  1  0.66901620  0.84908899  0.00024671  1
  O2-  O268  1  0.67048279  0.83594402  0.32849277  1
  O2-  O269  1  0.66355237  0.82582567  0.66945137  1
  O2-  O270  1  0.16621274  0.34263631  0.00135426  1
  O2-  O271  1  0.16473826  0.33579080  0.32912442  1
  O2-  O272  1  0.16134113  0.34380717  0.66165373  1
  O2-  O273  1  0.16507872  0.82403039  -0.00169645  1
  O2-  O274  1  0.16363253  0.85287425  0.33109147  1
  O2-  O275  1  0.16226369  0.84095885  0.66423639  1
  O2-  O276  1  0.49857509  0.34783028  -0.00003311  1
  O2-  O277  1  0.50457681  0.33408079  0.34040167  1
  O2-  O278  1  0.50130501  0.33948395  0.66726677  1
  O2-  O279  1  0.50577068  0.84172760  0.00503294  1
  O2-  O280  1  0.50009878  0.84574906  0.33188179  1
  O2-  O281  1  0.50188367  0.83372263  0.66418264  1
  O2-  O282  1  0.82475606  0.33572256  -0.00695202  1
  O2-  O283  1  0.83560497  0.34949706  0.33601231  1
  O2-  O284  1  0.83202131  0.35032126  0.66449167  1
  O2-  O285  1  0.83714269  0.83819411  0.00227676  1
  O2-  O286  1  0.83183711  0.81432552  0.33004295  1
  O2-  O287  1  0.83915117  0.83959401  0.67533965  1
  O2-  O288  1  0.00453303  0.18177628  0.17110124  1
  O2-  O289  1  -0.00283603  0.18955948  0.49232835  1
  O2-  O290  1  0.00106930  0.18494180  0.83750723  1
  O2-  O291  1  -0.00005776  0.69477757  0.17073296  1
  O2-  O292  1  -0.00322191  0.67565525  0.49811133  1
  O2-  O293  1  0.00780758  0.67922633  0.84452384  1
  O2-  O294  1  0.32667255  0.17447549  0.15182790  1
  O2-  O295  1  0.34068260  0.17973942  0.49401649  1
  O2-  O296  1  0.32662638  0.18079892  0.82744073  1
  O2-  O297  1  0.32923367  0.68326346  0.16883736  1
  O2-  O298  1  0.32906560  0.68487371  0.50892315  1
  O2-  O299  1  0.32523738  0.67290017  0.84107562  1
  O2-  O300  1  0.67088263  0.17423709  0.17575341  1
  O2-  O301  1  0.66599433  0.18733462  0.50272109  1
  O2-  O302  1  0.66491841  0.17954005  0.82950851  1
  O2-  O303  1  0.66004415  0.67329085  0.16568452  1
  O2-  O304  1  0.66050282  0.68867365  0.51799522  1
  O2-  O305  1  0.67283043  0.67788491  0.83293078  1
  O2-  O306  1  0.16821257  0.17495748  0.16377401  1
  O2-  O307  1  0.16817750  0.18227034  0.49537517  1
  O2-  O308  1  0.16128176  0.17488562  0.83650298  1
  O2-  O309  1  0.17004370  0.68609167  0.16443162  1
  O2-  O310  1  0.16484760  0.67857107  0.50288776  1
  O2-  O311  1  0.16265803  0.67352989  0.83234354  1
  O2-  O312  1  0.50904885  0.17699749  0.16842927  1
  O2-  O313  1  0.49950464  0.19316832  0.49814645  1
  O2-  O314  1  0.49764841  0.17919762  0.82589495  1
  O2-  O315  1  0.50099082  0.67375676  0.16522970  1
  O2-  O316  1  0.50248543  0.67887412  0.51072770  1
  O2-  O317  1  0.48766636  0.67098449  0.84242309  1
  O2-  O318  1  0.83326837  0.17769206  0.16131978  1
  O2-  O319  1  0.83053778  0.17481916  0.50364754  1
  O2-  O320  1  0.83551212  0.19140097  0.83570971  1
  O2-  O321  1  0.83640610  0.68430685  0.17342427  1
  O2-  O322  1  0.84039426  0.67925874  0.50256765  1
  O2-  O323  1  0.82788903  0.67980689  0.83844174  1
  O2-  O324  1  0.00561085  0.31954891  0.17127774  1
  O2-  O325  1  -0.00175983  0.31766921  0.49762442  1
  O2-  O326  1  -0.00146053  0.31684707  0.83150378  1
  O2-  O327  1  -0.00118523  0.81507804  0.16540888  1
  O2-  O328  1  0.00683661  0.82780238  0.50951451  1
  O2-  O329  1  -0.00063456  0.81971319  0.83503282  1
  O2-  O330  1  0.32741281  0.33271304  0.15847542  1
  O2-  O331  1  0.33545647  0.32160632  0.50180496  1
  O2-  O332  1  0.34162802  0.32224560  0.84239360  1
  O2-  O333  1  0.33825507  0.81999724  0.17060900  1
  O2-  O334  1  0.33185079  0.82227605  0.49906810  1
  O2-  O335  1  0.32818054  0.82266011  0.83226139  1
  O2-  O336  1  0.66713635  0.32636072  0.16796304  1
  O2-  O337  1  0.66632805  0.31657836  0.50065328  1
  O2-  O338  1  0.66942758  0.32519047  0.83855714  1
  O2-  O339  1  0.66691761  0.82899053  0.16741195  1
  O2-  O340  1  0.66231987  0.80973411  0.49052822  1
  O2-  O341  1  0.66958947  0.82402217  0.83680341  1
  O2-  O342  1  0.17092716  0.32897823  0.16252911  1
  O2-  O343  1  0.16960030  0.31830386  0.49546987  1
  O2-  O344  1  0.16610561  0.32783426  0.83758938  1
  O2-  O345  1  0.16386552  0.81774088  0.16316292  1
  O2-  O346  1  0.17262465  0.82298848  0.49857214  1
  O2-  O347  1  0.17172813  0.81776084  0.83164579  1
  O2-  O348  1  0.50464045  0.32547081  0.15769059  1
  O2-  O349  1  0.50409600  0.31647581  0.49671356  1
  O2-  O350  1  0.50170246  0.33171107  0.83053224  1
  O2-  O351  1  0.50175708  0.83113774  0.16553703  1
  O2-  O352  1  0.49806993  0.82017031  0.50362442  1
  O2-  O353  1  0.50616178  0.82261660  0.82801432  1
  O2-  O354  1  0.82762202  0.32520152  0.17168286  1
  O2-  O355  1  0.82978512  0.33007753  0.50378427  1
  O2-  O356  1  0.83482158  0.32239098  0.83120767  1
  O2-  O357  1  0.83120206  0.82073231  0.16999730  1
  O2-  O358  1  0.82919691  0.81502539  0.50068626  1
  O2-  O359  1  0.83578557  0.81856509  0.83885413  1
  O2-  O360  1  0.06606818  0.08079837  0.11144871  1
  O2-  O361  1  0.08010455  0.07834876  0.45170162  1
  O2-  O362  1  0.09154173  0.08006328  0.77286676  1
  O2-  O363  1  0.08651720  0.58378061  0.09460894  1
  O2-  O364  1  0.07609275  0.58123146  0.45081588  1
  O2-  O365  1  0.09005980  0.58036128  0.78202490  1
  O2-  O366  1  0.42657988  0.07309586  0.11382392  1
  O2-  O367  1  0.42497397  0.08202083  0.44698688  1
  O2-  O368  1  0.42149812  0.08388806  0.77609905  1
  O2-  O369  1  0.41583374  0.57979942  0.12175073  1
  O2-  O370  1  0.40750153  0.58564730  0.44618829  1
  O2-  O371  1  0.39911109  0.58042879  0.77390377  1
  O2-  O372  1  0.74831070  0.08081213  0.11175101  1
  O2-  O373  1  0.74673589  0.07488755  0.45083500  1
  O2-  O374  1  0.73801578  0.08048269  0.77657538  1
  O2-  O375  1  0.75421772  0.57701967  0.10995299  1
  O2-  O376  1  0.75828496  0.58694047  0.44241607  1
  O2-  O377  1  0.75363291  0.58015310  0.78479983  1
  O2-  O378  1  0.23756602  0.07819489  0.21364861  1
  O2-  O379  1  0.24791765  0.07645180  0.55291140  1
  O2-  O380  1  0.24484669  0.08251254  0.88414301  1
  O2-  O381  1  0.25722398  0.58229995  0.21661446  1
  O2-  O382  1  0.24672125  0.57414158  0.55565266  1
  O2-  O383  1  0.24671331  0.57579977  0.87882027  1
  O2-  O384  1  0.58540248  0.08212556  0.22555408  1
  O2-  O385  1  0.58522564  0.08214938  0.54405334  1
  O2-  O386  1  0.58492563  0.07675970  0.89990893  1
  O2-  O387  1  0.58078644  0.58098134  0.22664379  1
  O2-  O388  1  0.59040172  0.58330034  0.56299304  1
  O2-  O389  1  0.58605265  0.58097500  0.89245732  1
  O2-  O390  1  0.91810521  0.07980922  0.21836335  1
  O2-  O391  1  0.91369695  0.07766825  0.54880886  1
  O2-  O392  1  0.93115249  0.07955448  0.89277885  1
  O2-  O393  1  0.91331764  0.58600903  0.22144265  1
  O2-  O394  1  0.91233507  0.58169755  0.55151453  1
  O2-  O395  1  0.91285675  0.58543514  0.89700412  1
  O2-  O396  1  0.09973776  0.41921565  0.10249328  1
  O2-  O397  1  0.08059030  0.41975825  0.44787670  1
  O2-  O398  1  0.06905234  0.41918678  0.78276541  1
  O2-  O399  1  0.07458429  0.91406352  0.09863433  1
  O2-  O400  1  0.10655313  0.92622032  0.45879826  1
  O2-  O401  1  0.08685592  0.91554940  0.77265989  1
  O2-  O402  1  0.40582869  0.42231249  0.09460284  1
  O2-  O403  1  0.43593092  0.41850244  0.45120318  1
  O2-  O404  1  0.42214438  0.41834226  0.77844800  1
  O2-  O405  1  0.40636433  0.91727097  0.10426541  1
  O2-  O406  1  0.40295424  0.91849876  0.44970478  1
  O2-  O407  1  0.41241694  0.91416437  0.76184569  1
  O2-  O408  1  0.73948048  0.41698536  0.09674532  1
  O2-  O409  1  0.73873743  0.42009887  0.44662922  1
  O2-  O410  1  0.75154952  0.42644542  0.78638839  1
  O2-  O411  1  0.75897396  0.91755792  0.10845616  1
  O2-  O412  1  0.73420785  0.92060549  0.42969041  1
  O2-  O413  1  0.75436069  0.91690515  0.78093425  1
  O2-  O414  1  0.24259185  0.42260301  0.22275098  1
  O2-  O415  1  0.24799235  0.41864054  0.55030066  1
  O2-  O416  1  0.25259333  0.41540707  0.91634555  1
  O2-  O417  1  0.24992838  0.91663258  0.21529357  1
  O2-  O418  1  0.25657822  0.92016384  0.55565568  1
  O2-  O419  1  0.23395709  0.91750119  0.90181252  1
  O2-  O420  1  0.58730644  0.41793287  0.22396490  1
  O2-  O421  1  0.60440374  0.41928641  0.54071947  1
  O2-  O422  1  0.59697215  0.41972756  0.89180115  1
  O2-  O423  1  0.58750320  0.91954374  0.22901677  1
  O2-  O424  1  0.57741234  0.91730416  0.55377595  1
  O2-  O425  1  0.58636084  0.92447933  0.87924052  1
  O2-  O426  1  0.93018449  0.41741170  0.23368309  1
  O2-  O427  1  0.91809357  0.41988941  0.55169979  1
  O2-  O428  1  0.91677324  0.41676466  0.89143213  1
  O2-  O429  1  0.91628004  0.91732304  0.22336825  1
  O2-  O430  1  0.92831988  0.91883558  0.56785365  1
  O2-  O431  1  0.91667434  0.92232700  0.89035677  1
  O2-  O432  1  0.02089612  -0.00010694  -0.03126250  1
  O2-  O433  1  0.00491916  0.01332729  0.32470214  1
  O2-  O434  1  0.01476556  -0.00035091  0.63720076  1
  O2-  O435  1  0.02623035  0.50994308  -0.03312122  1
  O2-  O436  1  -0.00932491  0.49955230  0.34589727  1
  O2-  O437  1  0.00748590  0.49282373  0.65829516  1
  O2-  O438  1  0.30653180  0.00382599  0.03028114  1
  O2-  O439  1  0.32256953  -0.00355408  0.35324229  1
  O2-  O440  1  0.32773530  0.00865582  0.67634013  1
  O2-  O441  1  0.33529261  0.51747476  -0.00254413  1
  O2-  O442  1  0.33420966  0.50599487  0.33823817  1
  O2-  O443  1  0.33514117  0.50338392  0.65879708  1
  O2-  O444  1  0.67153926  -0.00924797  -0.01073422  1
  O2-  O445  1  0.66744924  0.01027920  0.33047321  1
  O2-  O446  1  0.66234118  -0.00092442  0.67511494  1
  O2-  O447  1  0.68409720  0.50713338  -0.01362674  1
  O2-  O448  1  0.66878382  0.49092639  0.32325123  1
  O2-  O449  1  0.67115061  0.48187702  0.66353283  1
  O2-  O450  1  0.17043341  0.00804982  -0.00136125  1
  O2-  O451  1  0.16445832  -0.00119221  0.32977572  1
  O2-  O452  1  0.16338538  -0.00954987  0.64917791  1
  O2-  O453  1  0.17332609  0.51107466  -0.01089770  1
  O2-  O454  1  0.16699756  0.48535516  0.33756361  1
  O2-  O455  1  0.16642679  0.50957114  0.66350683  1
  O2-  O456  1  0.50827474  0.00151410  0.01730982  1
  O2-  O457  1  0.50661372  -0.00712861  0.34603371  1
  O2-  O458  1  0.49444976  0.00014509  0.66468229  1
  O2-  O459  1  0.50028995  0.50120213  0.00403947  1
  O2-  O460  1  0.50625055  0.49487112  0.34124139  1
  O2-  O461  1  0.50329228  0.48019978  0.65602016  1
  O2-  O462  1  0.84975340  -0.00840805  0.00792557  1
  O2-  O463  1  0.82790388  0.00957144  0.33198965  1
  O2-  O464  1  0.82967699  0.00490864  0.66176264  1
  O2-  O465  1  0.83808600  0.50872255  -0.00200913  1
  O2-  O466  1  0.83221101  0.50588459  0.33223840  1
  O2-  O467  1  0.82871372  0.48613516  0.65849942  1
  O2-  O468  1  0.24667518  0.75095757  0.27509911  1
  O2-  O469  1  0.90491818  0.24512631  0.27014252  1
  O2-  O470  1  0.24741701  0.25448033  0.60419118  1
  O2-  O471  1  0.76007050  0.74925183  0.73384443  1
  O2-  O472  1  0.09028326  0.24599236  0.06882172  1
  O2-  O473  1  0.25329852  0.25344975  0.25336258  1
  O2-  O474  1  0.08342055  0.75099354  0.39999611  1
  O2-  O475  1  0.74207847  0.75618770  0.06745541  1
  O2-  O476  1  0.08812992  0.25115211  0.73513821  1
  O2-  O477  1  0.90611155  0.25138801  0.60236110  1
  O2-  O478  1  0.59411658  0.25098315  0.26512688  1
  O2-  O479  1  0.74699799  0.24945630  0.07220670  1
  O2-  O480  1  0.57693319  0.25541760  0.92909724  1
  O2-  O481  1  0.41772980  0.75169290  0.74475883  1
  O2-  O482  1  0.57587672  0.75257230  0.25351585  1
  O2-  O483  1  0.41583090  0.25509771  0.07247019  1
  O2-  O484  1  0.42111518  0.74967210  0.06331857  1
  O2-  O485  1  0.41895737  0.75259617  0.39900819  1
  O2-  O486  1  0.58534749  0.74478701  0.93738678  1
  O2-  O487  1  0.41575824  0.25170373  0.73085762  1
  O2-  O488  1  0.75093080  0.24744213  0.72135353  1
  O2-  O489  1  0.75641261  0.24728716  0.39214466  1
  O2-  O490  1  0.24258279  0.24893226  0.93628072  1
  O2-  O491  1  0.07568297  0.75072476  0.73280037  1
  O2-  O492  1  0.92554329  0.75089893  0.60345448  1
