# generated using pymatgen
data_Ca108Mn108O277
_symmetry_space_group_name_H-M   'P 1'
_cell_length_a   16.03085772
_cell_length_b   22.31033832
_cell_length_c   16.39302699
_cell_angle_alpha   90.00250287
_cell_angle_beta   90.00218745
_cell_angle_gamma   90.00709731
_symmetry_Int_Tables_number   1
_chemical_formula_structural   Ca108Mn108O277
_chemical_formula_sum   'Ca108 Mn108 O277'
_cell_volume   5863.02931283
_cell_formula_units_Z   1
loop_
 _symmetry_equiv_pos_site_id
 _symmetry_equiv_pos_as_xyz
  1  'x, y, z'
loop_
 _atom_type_symbol
 _atom_type_oxidation_number
  Ca2+  2.0
  Mn3.34+  3.34
  O2-  -2.0
loop_
 _atom_site_type_symbol
 _atom_site_label
 _atom_site_symmetry_multiplicity
 _atom_site_fract_x
 _atom_site_fract_y
 _atom_site_fract_z
 _atom_site_occupancy
  Ca2+  Ca0  1  0.11148266  0.24412519  0.26281923  1
  Ca2+  Ca1  1  0.10556775  0.24261858  0.55397404  1
  Ca2+  Ca2  1  0.07992669  0.26321754  0.92658455  1
  Ca2+  Ca3  1  0.07951763  0.75753481  0.24735947  1
  Ca2+  Ca4  1  0.09739784  0.73799984  0.59136281  1
  Ca2+  Ca5  1  0.07578413  0.75536144  0.91093970  1
  Ca2+  Ca6  1  0.40257958  0.25010456  0.25488626  1
  Ca2+  Ca7  1  0.40460172  0.25010841  0.56744772  1
  Ca2+  Ca8  1  0.41784474  0.26169889  0.92298370  1
  Ca2+  Ca9  1  0.40298829  0.74164027  0.23299906  1
  Ca2+  Ca10  1  0.39851591  0.73643924  0.59996706  1
  Ca2+  Ca11  1  0.42150025  0.74201497  0.90852913  1
  Ca2+  Ca12  1  0.74160900  0.25206428  0.23009952  1
  Ca2+  Ca13  1  0.73456052  0.24410238  0.58951510  1
  Ca2+  Ca14  1  0.75091893  0.24366919  0.92959787  1
  Ca2+  Ca15  1  0.75730718  0.77356147  0.25423823  1
  Ca2+  Ca16  1  0.75268486  0.76286875  0.58657549  1
  Ca2+  Ca17  1  0.74701260  0.75543820  0.90379224  1
  Ca2+  Ca18  1  0.25565346  0.24829494  0.10541573  1
  Ca2+  Ca19  1  0.24457058  0.23844815  0.41101176  1
  Ca2+  Ca20  1  0.25997753  0.25870836  0.72629496  1
  Ca2+  Ca21  1  0.23864499  0.74612162  0.07874963  1
  Ca2+  Ca22  1  0.24540351  0.74985716  0.42417567  1
  Ca2+  Ca23  1  0.25067098  0.72594006  0.75019691  1
  Ca2+  Ca24  1  0.59858246  0.24483683  0.08998410  1
  Ca2+  Ca25  1  0.57071229  0.25308527  0.41240948  1
  Ca2+  Ca26  1  0.58996230  0.26197409  0.74784586  1
  Ca2+  Ca27  1  0.57394802  0.75802353  0.07565055  1
  Ca2+  Ca28  1  0.58882250  0.76282476  0.41916115  1
  Ca2+  Ca29  1  0.57089148  0.73746106  0.75008691  1
  Ca2+  Ca30  1  0.89731899  0.24788261  0.08120575  1
  Ca2+  Ca31  1  0.94515714  0.25109297  0.41657065  1
  Ca2+  Ca32  1  0.89899059  0.25222526  0.75123051  1
  Ca2+  Ca33  1  0.93189379  0.75467894  0.07544444  1
  Ca2+  Ca34  1  0.91634519  0.76252851  0.42055022  1
  Ca2+  Ca35  1  0.91905300  0.74095857  0.74810372  1
  Ca2+  Ca36  1  0.44410441  0.08880233  0.93264529  1
  Ca2+  Ca37  1  0.10010292  0.60949458  0.91722389  1
  Ca2+  Ca38  1  0.75984566  0.60756356  0.61038619  1
  Ca2+  Ca39  1  0.55730923  0.59893377  0.75934343  1
  Ca2+  Ca40  1  0.74480248  0.56900075  0.25020606  1
  Ca2+  Ca41  1  0.23165410  0.60957402  0.08339556  1
  Ca2+  Ca42  1  0.95226549  0.07183244  0.42622508  1
  Ca2+  Ca43  1  0.74784390  0.60818362  0.61299162  1
  Ca2+  Ca44  1  0.96246174  0.07260883  0.42520002  1
  Ca2+  Ca45  1  0.10107222  0.09050553  0.27396189  1
  Ca2+  Ca46  1  0.38782729  0.59325538  0.61109495  1
  Ca2+  Ca47  1  0.40566404  0.10557916  0.25148495  1
  Ca2+  Ca48  1  0.57404367  0.57754659  0.04532123  1
  Ca2+  Ca49  1  0.23785507  0.10644035  0.41877619  1
  Ca2+  Ca50  1  0.10765890  0.61376290  0.91305580  1
  Ca2+  Ca51  1  0.22755016  0.60544393  0.43563361  1
  Ca2+  Ca52  1  0.74623771  0.61300160  0.88606614  1
  Ca2+  Ca53  1  0.76063747  0.08184967  0.59847663  1
  Ca2+  Ca54  1  0.75395653  0.57362478  0.24817435  1
  Ca2+  Ca55  1  0.10118759  0.61973853  0.23135464  1
  Ca2+  Ca56  1  0.56333665  0.56498118  0.39502489  1
  Ca2+  Ca57  1  0.38520910  0.60797684  0.89756161  1
  Ca2+  Ca58  1  0.56911348  0.08663689  0.40829073  1
  Ca2+  Ca59  1  0.96244357  0.59185155  0.07752192  1
  Ca2+  Ca60  1  0.09435852  0.61720837  0.23820953  1
  Ca2+  Ca61  1  0.24129643  0.61191066  0.08600863  1
  Ca2+  Ca62  1  0.38596743  0.10260261  0.56906190  1
  Ca2+  Ca63  1  0.93086981  0.59737176  0.41892060  1
  Ca2+  Ca64  1  0.09494149  0.08447109  0.27330664  1
  Ca2+  Ca65  1  0.74494743  0.08715799  0.23227657  1
  Ca2+  Ca66  1  0.92114275  0.07815179  0.72819444  1
  Ca2+  Ca67  1  0.64179282  0.09770918  0.07470832  1
  Ca2+  Ca68  1  0.43191600  0.08707171  0.93456152  1
  Ca2+  Ca69  1  0.88342158  0.06346658  0.06942534  1
  Ca2+  Ca70  1  0.24270551  0.11009361  0.10236110  1
  Ca2+  Ca71  1  0.11151995  0.10410084  0.56745367  1
  Ca2+  Ca72  1  0.42928490  0.90132236  0.91701913  1
  Ca2+  Ca73  1  0.75855638  0.39655330  0.57782823  1
  Ca2+  Ca74  1  0.42531259  0.89712299  0.25883678  1
  Ca2+  Ca75  1  0.74425572  0.41076058  0.25136653  1
  Ca2+  Ca76  1  0.61332166  0.90888039  0.08613148  1
  Ca2+  Ca77  1  0.92054234  0.40840376  0.41031212  1
  Ca2+  Ca78  1  0.23878045  0.90453993  0.40806729  1
  Ca2+  Ca79  1  0.59035529  0.90103301  0.74943217  1
  Ca2+  Ca80  1  0.60057076  0.89862075  0.75297231  1
  Ca2+  Ca81  1  0.22886941  0.41118608  0.06533884  1
  Ca2+  Ca82  1  0.94691077  0.41419930  0.07632040  1
  Ca2+  Ca83  1  0.91379676  0.91562066  0.39855048  1
  Ca2+  Ca84  1  0.59375677  0.91365034  0.40525803  1
  Ca2+  Ca85  1  0.57532837  0.41226361  0.40585322  1
  Ca2+  Ca86  1  0.44065570  0.42726362  0.27022172  1
  Ca2+  Ca87  1  0.08941638  0.40022038  0.59041681  1
  Ca2+  Ca88  1  0.57536773  0.41245909  0.07911935  1
  Ca2+  Ca89  1  0.03874943  0.91747303  0.92152867  1
  Ca2+  Ca90  1  0.40772799  0.40571649  0.58197541  1
  Ca2+  Ca91  1  0.41049341  0.90256910  0.57239500  1
  Ca2+  Ca92  1  0.93512453  0.41624757  0.07341166  1
  Ca2+  Ca93  1  0.58632561  0.41250820  0.07878426  1
  Ca2+  Ca94  1  0.24205432  0.88995183  0.08985472  1
  Ca2+  Ca95  1  0.21895450  0.41395159  0.06756516  1
  Ca2+  Ca96  1  0.74577873  0.39670329  0.57709203  1
  Ca2+  Ca97  1  0.05708831  0.92064649  0.57956555  1
  Ca2+  Ca98  1  0.41960056  0.41520127  0.92119908  1
  Ca2+  Ca99  1  0.26813065  0.41194724  0.41832009  1
  Ca2+  Ca100  1  0.42323848  0.90257489  0.57186847  1
  Ca2+  Ca101  1  0.74649193  0.40542946  0.92266621  1
  Ca2+  Ca102  1  0.23537190  0.89704027  0.75162959  1
  Ca2+  Ca103  1  0.41661319  0.90038283  0.91822544  1
  Ca2+  Ca104  1  0.10085312  0.39976155  0.58952616  1
  Ca2+  Ca105  1  0.06651402  0.91782601  0.58203302  1
  Ca2+  Ca106  1  0.06021257  0.92545490  0.26486263  1
  Ca2+  Ca107  1  0.93091378  0.39969900  0.75644054  1
  Mn3.34+  Mn108  1  0.08239876  0.32751485  0.09177399  1
  Mn3.34+  Mn109  1  0.08849895  0.33707656  0.41028955  1
  Mn3.34+  Mn110  1  0.09040795  0.33074098  0.75663266  1
  Mn3.34+  Mn111  1  0.07810375  0.84023472  0.08693881  1
  Mn3.34+  Mn112  1  0.08333346  0.83673533  0.41957445  1
  Mn3.34+  Mn113  1  0.07511714  0.83403259  0.75221855  1
  Mn3.34+  Mn114  1  0.41372820  0.33546883  0.08932216  1
  Mn3.34+  Mn115  1  0.41815222  0.33783212  0.41476728  1
  Mn3.34+  Mn116  1  0.41907281  0.33919452  0.75051553  1
  Mn3.34+  Mn117  1  0.41591867  0.82846321  0.08708376  1
  Mn3.34+  Mn118  1  0.41652529  0.82640783  0.41537942  1
  Mn3.34+  Mn119  1  0.41216980  0.82943841  0.75057915  1
  Mn3.34+  Mn120  1  0.75263540  0.33493129  0.08548839  1
  Mn3.34+  Mn121  1  0.75183967  0.33006468  0.40967450  1
  Mn3.34+  Mn122  1  0.74678886  0.33148403  0.75714693  1
  Mn3.34+  Mn123  1  0.76101587  0.84119784  0.08382537  1
  Mn3.34+  Mn124  1  0.75219603  0.84047024  0.41620370  1
  Mn3.34+  Mn125  1  0.76192044  0.83522330  0.75088579  1
  Mn3.34+  Mn126  1  0.25192886  0.33766769  0.25178925  1
  Mn3.34+  Mn127  1  0.25588719  0.33206957  0.58025287  1
  Mn3.34+  Mn128  1  0.25034589  0.33338280  0.90927529  1
  Mn3.34+  Mn129  1  0.24682377  0.82081137  0.24889715  1
  Mn3.34+  Mn130  1  0.24560833  0.83092407  0.58219238  1
  Mn3.34+  Mn131  1  0.24520560  0.82562462  0.91335829  1
  Mn3.34+  Mn132  1  0.58220292  0.33481468  0.24698765  1
  Mn3.34+  Mn133  1  0.57776830  0.32918445  0.58351528  1
  Mn3.34+  Mn134  1  0.58259530  0.34174422  0.91140629  1
  Mn3.34+  Mn135  1  0.58773701  0.83363122  0.24729205  1
  Mn3.34+  Mn136  1  0.58725857  0.83352279  0.57757080  1
  Mn3.34+  Mn137  1  0.59224399  0.83160731  0.91913002  1
  Mn3.34+  Mn138  1  0.91945980  0.33537595  0.24898527  1
  Mn3.34+  Mn139  1  0.92029843  0.32420094  0.58296097  1
  Mn3.34+  Mn140  1  0.91884497  0.33382834  0.91399809  1
  Mn3.34+  Mn141  1  0.91588560  0.83707587  0.24530042  1
  Mn3.34+  Mn142  1  0.91232043  0.83902174  0.58204184  1
  Mn3.34+  Mn143  1  0.90786676  0.83413223  0.91505546  1
  Mn3.34+  Mn144  1  0.08495155  0.66425662  0.74381123  1
  Mn3.34+  Mn145  1  0.74249393  0.16063628  0.41946355  1
  Mn3.34+  Mn146  1  0.74954478  0.67670978  0.07906565  1
  Mn3.34+  Mn147  1  0.90814729  0.16146307  0.24410206  1
  Mn3.34+  Mn148  1  0.75850068  0.66982015  0.08178544  1
  Mn3.34+  Mn149  1  0.08971959  0.16458014  0.75122269  1
  Mn3.34+  Mn150  1  0.91800518  0.16675784  0.24510402  1
  Mn3.34+  Mn151  1  0.24076577  0.16681952  0.91607631  1
  Mn3.34+  Mn152  1  0.75594631  0.16680626  0.41607505  1
  Mn3.34+  Mn153  1  0.57415023  0.65829483  0.23974474  1
  Mn3.34+  Mn154  1  0.07752712  0.16122528  0.08844721  1
  Mn3.34+  Mn155  1  0.42187631  0.17305707  0.08746947  1
  Mn3.34+  Mn156  1  0.92106585  0.16143866  0.91587258  1
  Mn3.34+  Mn157  1  0.41853858  0.66163662  0.41798708  1
  Mn3.34+  Mn158  1  0.42841659  0.17001185  0.74736967  1
  Mn3.34+  Mn159  1  0.25207168  0.17141279  0.91743167  1
  Mn3.34+  Mn160  1  0.75311174  0.66677710  0.41729408  1
  Mn3.34+  Mn161  1  0.91483212  0.66979361  0.24583250  1
  Mn3.34+  Mn162  1  0.74228867  0.66180691  0.42017988  1
  Mn3.34+  Mn163  1  0.58345231  0.16680127  0.24632967  1
  Mn3.34+  Mn164  1  0.57492872  0.67124625  0.58022753  1
  Mn3.34+  Mn165  1  0.07684228  0.17155008  0.75056637  1
  Mn3.34+  Mn166  1  0.58130907  0.16163497  0.58160925  1
  Mn3.34+  Mn167  1  0.41306123  0.66625932  0.07708538  1
  Mn3.34+  Mn168  1  0.08025492  0.67082893  0.41948938  1
  Mn3.34+  Mn169  1  0.91423294  0.16335669  0.58097164  1
  Mn3.34+  Mn170  1  0.58626645  0.66534081  0.24341658  1
  Mn3.34+  Mn171  1  0.57982803  0.66613886  0.91119409  1
  Mn3.34+  Mn172  1  0.41490654  0.16407862  0.74944326  1
  Mn3.34+  Mn173  1  0.59213524  0.16601768  0.90888054  1
  Mn3.34+  Mn174  1  0.91075236  0.15638388  0.91487334  1
  Mn3.34+  Mn175  1  0.41523557  0.16918192  0.41493366  1
  Mn3.34+  Mn176  1  0.92472065  0.67583001  0.58409178  1
  Mn3.34+  Mn177  1  0.74364104  0.16676786  0.75088631  1
  Mn3.34+  Mn178  1  0.40805017  0.65265921  0.41663660  1
  Mn3.34+  Mn179  1  0.91682896  0.66796673  0.90948531  1
  Mn3.34+  Mn180  1  0.42022310  0.00688942  0.74112470  1
  Mn3.34+  Mn181  1  0.76413388  -0.00232201  0.76480838  1
  Mn3.34+  Mn182  1  0.24511403  -0.00327400  0.57661092  1
  Mn3.34+  Mn183  1  0.58488091  0.00143191  0.24986485  1
  Mn3.34+  Mn184  1  0.08020292  0.50321356  0.41945321  1
  Mn3.34+  Mn185  1  0.24117239  0.00004393  0.91361173  1
  Mn3.34+  Mn186  1  0.59350026  -0.00049173  0.58486239  1
  Mn3.34+  Mn187  1  0.24403510  0.49864560  0.92123913  1
  Mn3.34+  Mn188  1  0.75197563  0.50027212  0.07397754  1
  Mn3.34+  Mn189  1  0.75326308  0.00227481  0.76582273  1
  Mn3.34+  Mn190  1  0.92201542  0.50332374  0.58615810  1
  Mn3.34+  Mn191  1  0.73705283  0.49589370  0.75541813  1
  Mn3.34+  Mn192  1  0.06907104  -0.00111372  0.07962623  1
  Mn3.34+  Mn193  1  0.26118917  0.50402402  0.26100973  1
  Mn3.34+  Mn194  1  0.75211804  0.00205355  0.40952563  1
  Mn3.34+  Mn195  1  0.22816745  0.00343228  0.91218786  1
  Mn3.34+  Mn196  1  0.92404683  0.50306109  0.92105963  1
  Mn3.34+  Mn197  1  0.56524369  0.50469737  0.57653073  1
  Mn3.34+  Mn198  1  0.40569539  0.00143230  0.74138802  1
  Mn3.34+  Mn199  1  0.41697664  0.00114619  0.41315439  1
  Mn3.34+  Mn200  1  0.57785300  0.50083665  0.57621546  1
  Mn3.34+  Mn201  1  0.40962834  0.50073003  0.08360668  1
  Mn3.34+  Mn202  1  0.93463523  0.50690281  0.58798106  1
  Mn3.34+  Mn203  1  0.75268194  0.50008538  0.41235135  1
  Mn3.34+  Mn204  1  0.25031522  0.49878487  0.26102454  1
  Mn3.34+  Mn205  1  0.25197295  -0.00450741  0.23805893  1
  Mn3.34+  Mn206  1  0.42603647  -0.00202768  0.08626202  1
  Mn3.34+  Mn207  1  0.08122451  -0.00233419  0.74245684  1
  Mn3.34+  Mn208  1  0.42214571  -0.00414586  0.09723642  1
  Mn3.34+  Mn209  1  0.09112581  0.50051238  0.74586828  1
  Mn3.34+  Mn210  1  0.93650681  0.50153645  0.25692861  1
  Mn3.34+  Mn211  1  0.24693028  0.50037900  0.60057880  1
  Mn3.34+  Mn212  1  0.41148306  0.49535239  0.74424674  1
  Mn3.34+  Mn213  1  0.75004911  0.50256089  0.75603265  1
  Mn3.34+  Mn214  1  0.26253703  -0.00906605  0.24064064  1
  Mn3.34+  Mn215  1  0.61849441  -0.00076801  0.92963141  1
  O2-  O216  1  0.00384806  0.16793332  -0.00274008  1
  O2-  O217  1  -0.00620975  0.15142126  0.33090232  1
  O2-  O218  1  -0.00608464  0.17603944  0.67077898  1
  O2-  O219  1  0.00473213  0.65835966  -0.00991669  1
  O2-  O220  1  -0.00138115  0.65439040  0.32710248  1
  O2-  O221  1  0.00021488  0.65806590  0.66190927  1
  O2-  O222  1  0.33615872  0.14304357  0.00062293  1
  O2-  O223  1  0.33592149  0.15989236  0.33851080  1
  O2-  O224  1  0.33513266  0.15980894  0.67222185  1
  O2-  O225  1  0.32967805  0.66405011  0.00209922  1
  O2-  O226  1  0.34088587  0.69171174  0.34068249  1
  O2-  O227  1  0.32819623  0.66596196  0.67391865  1
  O2-  O228  1  0.65994430  0.18082001  -0.00718899  1
  O2-  O229  1  0.66759745  0.14299017  0.33330761  1
  O2-  O230  1  0.67415700  0.15361203  0.65625772  1
  O2-  O231  1  0.66708051  0.66386722  0.00057589  1
  O2-  O232  1  0.66214947  0.63982653  0.33034983  1
  O2-  O233  1  0.65038032  0.65672205  0.66464018  1
  O2-  O234  1  0.16554360  0.16623103  0.00678024  1
  O2-  O235  1  0.16187144  0.15904805  0.32756598  1
  O2-  O236  1  0.15862073  0.17609939  0.66373045  1
  O2-  O237  1  0.16725218  0.67325029  0.00171210  1
  O2-  O238  1  0.15793122  0.67670539  0.33486731  1
  O2-  O239  1  0.16504918  0.66072343  0.67205391  1
  O2-  O240  1  0.49966500  0.16643142  -0.00683213  1
  O2-  O241  1  0.50072310  0.15547663  0.33093342  1
  O2-  O242  1  0.49730042  0.14004139  0.66377778  1
  O2-  O243  1  0.49321778  0.64863452  -0.00613834  1
  O2-  O244  1  0.49441699  0.64514805  0.33399032  1
  O2-  O245  1  0.49300450  0.65511260  0.65105738  1
  O2-  O246  1  0.83839428  0.15137187  0.00041145  1
  O2-  O247  1  0.83467903  0.13433025  0.33956602  1
  O2-  O248  1  0.83575001  0.15805121  0.66932906  1
  O2-  O249  1  0.83835303  0.65428744  0.00185508  1
  O2-  O250  1  0.82771042  0.63848354  0.32866598  1
  O2-  O251  1  0.83295351  0.67553036  0.65785232  1
  O2-  O252  1  -0.00026111  0.33111735  0.00449379  1
  O2-  O253  1  -0.00270640  0.34200675  0.33809649  1
  O2-  O254  1  0.00452882  0.33077694  0.66522443  1
  O2-  O255  1  0.00235039  0.83659852  0.00112655  1
  O2-  O256  1  0.00440546  0.83553383  0.33490259  1
  O2-  O257  1  -0.00204462  0.85506711  0.66502737  1
  O2-  O258  1  0.33038863  0.35763545  0.00770029  1
  O2-  O259  1  0.34120627  0.35575655  0.32501179  1
  O2-  O260  1  0.33347033  0.34460261  0.66374826  1
  O2-  O261  1  0.33288531  0.84141730  -0.00133476  1
  O2-  O262  1  0.33553975  0.82349431  0.32971728  1
  O2-  O263  1  0.33236682  0.85322440  0.66634940  1
  O2-  O264  1  0.66212509  0.34245821  0.00462339  1
  O2-  O265  1  0.66323185  0.35182446  0.33064786  1
  O2-  O266  1  0.66938152  0.34395935  0.66528360  1
  O2-  O267  1  0.67156727  0.82848695  0.00418581  1
  O2-  O268  1  0.66733813  0.84355972  0.33232489  1
  O2-  O269  1  0.66969157  0.84050639  0.66644488  1
  O2-  O270  1  0.16484415  0.32946648  0.00581810  1
  O2-  O271  1  0.17587259  0.35486117  0.33855393  1
  O2-  O272  1  0.16696533  0.33221672  0.66399218  1
  O2-  O273  1  0.16627213  0.82319328  0.00153690  1
  O2-  O274  1  0.16760678  0.82144873  0.33616726  1
  O2-  O275  1  0.15569061  0.85548636  0.65270980  1
  O2-  O276  1  0.49753380  0.34474149  -0.00119544  1
  O2-  O277  1  0.50176972  0.34337318  0.33072323  1
  O2-  O278  1  0.49718733  0.34810340  0.66134531  1
  O2-  O279  1  0.50516228  0.85647841  0.00910086  1
  O2-  O280  1  0.50545275  0.84045877  0.34188033  1
  O2-  O281  1  0.49837582  0.85346319  0.66823833  1
  O2-  O282  1  0.83804605  0.35389640  0.00676260  1
  O2-  O283  1  0.83400797  0.35313489  0.33000732  1
  O2-  O284  1  0.83900237  0.34261270  0.66777312  1
  O2-  O285  1  0.82890942  0.81620438  0.00206351  1
  O2-  O286  1  0.83661529  0.84312540  0.33679588  1
  O2-  O287  1  0.83385079  0.82374362  0.66671170  1
  O2-  O288  1  -0.00398478  0.19230144  0.16194064  1
  O2-  O289  1  -0.00639814  0.17787183  0.50552609  1
  O2-  O290  1  0.00293466  0.18622364  0.83625568  1
  O2-  O291  1  -0.00152248  0.68167665  0.17098851  1
  O2-  O292  1  -0.00887574  0.68476378  0.48759568  1
  O2-  O293  1  0.00228591  0.67409147  0.83508430  1
  O2-  O294  1  0.33928561  0.17372668  0.16234294  1
  O2-  O295  1  0.33609568  0.17648722  0.49241428  1
  O2-  O296  1  0.34416867  0.18104871  0.84113221  1
  O2-  O297  1  0.32779187  0.67921485  0.15119181  1
  O2-  O298  1  0.33304370  0.67683847  0.49515550  1
  O2-  O299  1  0.32739006  0.68895290  0.84805379  1
  O2-  O300  1  0.66559681  0.17376998  0.17166205  1
  O2-  O301  1  0.66156006  0.18656241  0.49312217  1
  O2-  O302  1  0.66491365  0.19214856  0.82892318  1
  O2-  O303  1  0.67001668  0.69473055  0.16120488  1
  O2-  O304  1  0.67143492  0.68633067  0.50959241  1
  O2-  O305  1  0.66096203  0.68720454  0.83743352  1
  O2-  O306  1  0.15841615  0.18061921  0.16162292  1
  O2-  O307  1  0.17153162  0.17388350  0.49196406  1
  O2-  O308  1  0.16901146  0.19146991  0.82616614  1
  O2-  O309  1  0.16593507  0.68493166  0.16691447  1
  O2-  O310  1  0.16150892  0.68641548  0.49088866  1
  O2-  O311  1  0.15447304  0.68249081  0.83446750  1
  O2-  O312  1  0.49894933  0.18727195  0.16930956  1
  O2-  O313  1  0.49811151  0.18014273  0.50253673  1
  O2-  O314  1  0.49965232  0.18276499  0.83410312  1
  O2-  O315  1  0.49931825  0.67994748  0.15910353  1
  O2-  O316  1  0.50049920  0.69351962  0.48870239  1
  O2-  O317  1  0.49830044  0.67116537  0.83604142  1
  O2-  O318  1  0.82577417  0.17746711  0.17109518  1
  O2-  O319  1  0.82656670  0.18857111  0.50394301  1
  O2-  O320  1  0.83447863  0.18124723  0.83187534  1
  O2-  O321  1  0.83152462  0.68918390  0.16723348  1
  O2-  O322  1  0.83430545  0.68370340  0.50145636  1
  O2-  O323  1  0.83117952  0.68446947  0.84039984  1
  O2-  O324  1  -0.00782927  0.31473977  0.15976942  1
  O2-  O325  1  0.00596386  0.32362028  0.50509302  1
  O2-  O326  1  -0.00055331  0.31229682  0.82700909  1
  O2-  O327  1  0.00071854  0.81692693  0.16803472  1
  O2-  O328  1  0.00684953  0.82201206  0.50051420  1
  O2-  O329  1  0.00254980  0.82645989  0.83917429  1
  O2-  O330  1  0.33167676  0.32346533  0.16588668  1
  O2-  O331  1  0.33187652  0.32910034  0.49276810  1
  O2-  O332  1  0.34068019  0.32367209  0.83922745  1
  O2-  O333  1  0.32568140  0.80963384  0.16208741  1
  O2-  O334  1  0.33654741  0.81660249  0.50335758  1
  O2-  O335  1  0.34130732  0.82140749  0.84286564  1
  O2-  O336  1  0.66506041  0.32517414  0.16387628  1
  O2-  O337  1  0.67259926  0.32132499  0.50351724  1
  O2-  O338  1  0.67080386  0.31661903  0.84719342  1
  O2-  O339  1  0.66970643  0.81888429  0.15900207  1
  O2-  O340  1  0.66617991  0.82333082  0.49542815  1
  O2-  O341  1  0.66210906  0.81742156  0.82015558  1
  O2-  O342  1  0.16860561  0.31821777  0.16627852  1
  O2-  O343  1  0.16438751  0.33199748  0.50375018  1
  O2-  O344  1  0.17138621  0.30608138  0.83124833  1
  O2-  O345  1  0.16509567  0.81368207  0.16380514  1
  O2-  O346  1  0.16949416  0.81912877  0.49591081  1
  O2-  O347  1  0.17281199  0.81597537  0.82332589  1
  O2-  O348  1  0.50589969  0.31915438  0.15811065  1
  O2-  O349  1  0.50011615  0.31880093  0.49821515  1
  O2-  O350  1  0.50406941  0.31560438  0.83621104  1
  O2-  O351  1  0.49379494  0.81919044  0.17353712  1
  O2-  O352  1  0.49279218  0.81902164  0.50515788  1
  O2-  O353  1  0.50105950  0.83141700  0.83109344  1
  O2-  O354  1  0.83085810  0.32820811  0.16882130  1
  O2-  O355  1  0.83428900  0.31508801  0.50597740  1
  O2-  O356  1  0.83402453  0.32270320  0.83565784  1
  O2-  O357  1  0.83880840  0.81748724  0.16040441  1
  O2-  O358  1  0.83231697  0.82105793  0.49826680  1
  O2-  O359  1  0.83603601  0.80983593  0.82953213  1
  O2-  O360  1  0.09260309  0.07241413  0.13242614  1
  O2-  O361  1  0.08782544  0.06810435  0.44676395  1
  O2-  O362  1  0.06730552  0.07950588  0.76717783  1
  O2-  O363  1  0.10099882  0.57711337  0.11531450  1
  O2-  O364  1  0.08403607  0.58452615  0.43915672  1
  O2-  O365  1  0.09130056  0.57929085  0.78345724  1
  O2-  O366  1  0.43488648  0.08364901  0.09781570  1
  O2-  O367  1  0.42346459  0.08230918  0.43779565  1
  O2-  O368  1  0.42066443  0.08045064  0.79855728  1
  O2-  O369  1  0.39806853  0.58126786  0.10245862  1
  O2-  O370  1  0.43147798  0.58015260  0.46523134  1
  O2-  O371  1  0.41649611  0.57017403  0.77624532  1
  O2-  O372  1  0.75848121  0.05981033  0.11155727  1
  O2-  O373  1  0.74876634  0.08119973  0.45939336  1
  O2-  O374  1  0.75146425  0.08484451  0.78212225  1
  O2-  O375  1  0.75234449  0.58089970  0.11124773  1
  O2-  O376  1  0.75573566  0.57956463  0.46927924  1
  O2-  O377  1  0.74047651  0.58414061  0.75322541  1
  O2-  O378  1  0.25477789  0.07822053  0.22780057  1
  O2-  O379  1  0.24781576  0.07376259  0.55021053  1
  O2-  O380  1  0.24938207  0.08307810  0.87375716  1
  O2-  O381  1  0.23257143  0.58100853  0.21938207  1
  O2-  O382  1  0.26383783  0.56786802  0.54877215  1
  O2-  O383  1  0.24084849  0.57729972  0.90366521  1
  O2-  O384  1  0.58136037  0.08102622  0.21475232  1
  O2-  O385  1  0.59021490  0.08065800  0.54496752  1
  O2-  O386  1  0.57206205  0.07823946  0.89702809  1
  O2-  O387  1  0.60499293  0.58254992  0.19997252  1
  O2-  O388  1  0.59042800  0.58488902  0.54036159  1
  O2-  O389  1  0.60255344  0.58470876  0.89513024  1
  O2-  O390  1  0.91637002  0.08347341  0.20681571  1
  O2-  O391  1  0.90636131  0.08165494  0.55390697  1
  O2-  O392  1  0.91947880  0.07949464  0.87705077  1
  O2-  O393  1  0.91087356  0.58366850  0.21129453  1
  O2-  O394  1  0.90470334  0.58750182  0.55718913  1
  O2-  O395  1  0.91016838  0.58072188  0.89275413  1
  O2-  O396  1  0.08396599  0.41203723  0.09976844  1
  O2-  O397  1  0.07177146  0.42379055  0.45670969  1
  O2-  O398  1  0.07781837  0.41746471  0.75500852  1
  O2-  O399  1  0.10462088  0.92673606  0.12586487  1
  O2-  O400  1  0.09559352  0.91998374  0.44314804  1
  O2-  O401  1  0.09717400  0.92341122  0.79207612  1
  O2-  O402  1  0.42685589  0.42067235  0.12132120  1
  O2-  O403  1  0.42688663  0.41571168  0.44718599  1
  O2-  O404  1  0.42245430  0.42012500  0.78450655  1
  O2-  O405  1  0.39391820  0.91467329  0.11622099  1
  O2-  O406  1  0.41009885  0.91888236  0.43826957  1
  O2-  O407  1  0.40642546  0.92270889  0.78689173  1
  O2-  O408  1  0.73626328  0.42196536  0.11095486  1
  O2-  O409  1  0.76232246  0.41832198  0.44833540  1
  O2-  O410  1  0.75418620  0.41689352  0.78218751  1
  O2-  O411  1  0.75482610  0.91527805  0.09821134  1
  O2-  O412  1  0.74374007  0.92271175  0.43756221  1
  O2-  O413  1  0.73551231  0.91725246  0.79005069  1
  O2-  O414  1  0.24861707  0.42567106  0.19978063  1
  O2-  O415  1  0.23977151  0.42155833  0.55692277  1
  O2-  O416  1  0.24028984  0.41673710  0.90381679  1
  O2-  O417  1  0.26114727  0.90846264  0.23056303  1
  O2-  O418  1  0.26929776  0.91831692  0.54252875  1
  O2-  O419  1  0.26636433  0.91930829  0.89216820  1
  O2-  O420  1  0.58239958  0.41746129  0.21591108  1
  O2-  O421  1  0.59802418  0.41981429  0.54937261  1
  O2-  O422  1  0.58873320  0.41998444  0.90945329  1
  O2-  O423  1  0.56954059  0.92187730  0.21730134  1
  O2-  O424  1  0.56330413  0.91828485  0.54269672  1
  O2-  O425  1  0.57029200  0.92210841  0.88252396  1
  O2-  O426  1  0.92275778  0.42220117  0.20775610  1
  O2-  O427  1  0.90336637  0.42197211  0.55468586  1
  O2-  O428  1  0.92132724  0.42246463  0.88793822  1
  O2-  O429  1  0.92631378  0.91575819  0.24489722  1
  O2-  O430  1  0.92841097  0.91833856  0.54232976  1
  O2-  O431  1  0.90462729  0.91236909  0.90269187  1
  O2-  O432  1  -0.01258370  -0.00227927  0.01057645  1
  O2-  O433  1  0.00825444  0.02198907  0.31748149  1
  O2-  O434  1  0.00995303  -0.00145185  0.65873868  1
  O2-  O435  1  -0.01222490  0.49948160  0.01558505  1
  O2-  O436  1  -0.02781999  0.50397006  0.37581690  1
  O2-  O437  1  -0.01650224  0.49573229  0.68982295  1
  O2-  O438  1  0.33029450  0.00929874  -0.00036447  1
  O2-  O439  1  0.32535920  -0.00210092  0.33892857  1
  O2-  O440  1  0.34404726  0.00095889  0.64314963  1
  O2-  O441  1  0.34245173  0.49006656  -0.01136051  1
  O2-  O442  1  0.34203139  0.48511797  0.33544681  1
  O2-  O443  1  0.35378653  0.49198757  0.64239109  1
  O2-  O444  1  0.62755546  0.00019928  0.04127467  1
  O2-  O445  1  0.65615926  0.00941445  0.34715182  1
  O2-  O446  1  0.66270029  -0.01046283  0.68568647  1
  O2-  O447  1  0.65460015  0.49606229  0.02869396  1
  O2-  O448  1  0.66792919  0.51439010  0.33075029  1
  O2-  O449  1  0.67276960  0.49916086  0.65138165  1
  O2-  O450  1  0.15838671  0.00095798  0.00307768  1
  O2-  O451  1  0.15963185  -0.00639294  0.30919177  1
  O2-  O452  1  0.16798752  -0.01905111  0.66055602  1
  O2-  O453  1  0.18318152  0.50311319  0.01595609  1
  O2-  O454  1  0.17814483  0.50408188  0.35524869  1
  O2-  O455  1  0.13625988  0.49339362  0.63353983  1
  O2-  O456  1  0.47496242  -0.00653604  -0.02672132  1
  O2-  O457  1  0.49527370  -0.00442804  0.32759010  1
  O2-  O458  1  0.50047064  -0.02031450  0.66629965  1
  O2-  O459  1  0.50409245  0.49176126  0.02658832  1
  O2-  O460  1  0.51043630  0.48694526  0.35152633  1
  O2-  O461  1  0.50991913  0.50765669  0.67738272  1
  O2-  O462  1  0.80317303  0.00199970  -0.01159307  1
  O2-  O463  1  0.86048103  0.00652481  0.38269311  1
  O2-  O464  1  0.83385013  0.01183880  0.67638755  1
  O2-  O465  1  0.83126823  0.48238731  -0.00400043  1
  O2-  O466  1  0.82004493  0.49760329  0.30467439  1
  O2-  O467  1  0.82491326  0.50095944  0.65922402  1
  O2-  O468  1  0.41526054  0.25379218  0.72468547  1
  O2-  O469  1  0.58113842  0.75274097  0.60925197  1
  O2-  O470  1  0.26868968  0.25265687  0.94850617  1
  O2-  O471  1  0.25786010  0.25415253  0.58819444  1
  O2-  O472  1  0.56600102  0.75133089  0.93813068  1
  O2-  O473  1  0.92843941  0.74837759  0.93547797  1
  O2-  O474  1  0.57580054  0.74267859  0.28014365  1
  O2-  O475  1  0.90798551  0.74795050  0.28096778  1
  O2-  O476  1  0.75559600  0.25688089  0.06886598  1
  O2-  O477  1  0.24750091  0.75558777  0.61180094  1
  O2-  O478  1  0.07072067  0.75213172  0.72729440  1
  O2-  O479  1  0.90004958  0.24592120  0.28123224  1
  O2-  O480  1  0.40407493  0.25332559  0.05966230  1
  O2-  O481  1  0.25613798  0.25968847  0.27235492  1
  O2-  O482  1  0.42236208  0.75274723  0.73365508  1
  O2-  O483  1  0.74455209  0.74956537  0.38816495  1
  O2-  O484  1  0.41906366  0.25259140  0.39365461  1
  O2-  O485  1  0.90563449  0.24504407  0.93788839  1
  O2-  O486  1  0.74422820  0.24443080  0.37665971  1
  O2-  O487  1  0.42899658  0.75029615  0.05393815  1
  O2-  O488  1  0.09140634  0.25764363  0.40068554  1
  O2-  O489  1  0.59316256  0.25021305  0.27336453  1
  O2-  O490  1  0.75118788  0.25026989  0.72550731  1
  O2-  O491  1  0.58266098  0.24616568  0.61142421  1
  O2-  O492  1  0.93090702  0.75502413  0.59894894  1
