# generated using pymatgen
data_Ca108Mn108O277
_symmetry_space_group_name_H-M   'P 1'
_cell_length_a   16.00748000
_cell_length_b   22.27813266
_cell_length_c   16.37320323
_cell_angle_alpha   90.00021470
_cell_angle_beta   89.99959680
_cell_angle_gamma   89.99959410
_symmetry_Int_Tables_number   1
_chemical_formula_structural   Ca108Mn108O277
_chemical_formula_sum   'Ca108 Mn108 O277'
_cell_volume   5838.95873625
_cell_formula_units_Z   1
loop_
 _symmetry_equiv_pos_site_id
 _symmetry_equiv_pos_as_xyz
  1  'x, y, z'
loop_
 _atom_type_symbol
 _atom_type_oxidation_number
  Ca2+  2.0
  Mn3.34+  3.34
  O2-  -2.0
loop_
 _atom_site_type_symbol
 _atom_site_label
 _atom_site_symmetry_multiplicity
 _atom_site_fract_x
 _atom_site_fract_y
 _atom_site_fract_z
 _atom_site_occupancy
  Ca2+  Ca0  1  0.07754029  0.23219959  0.27420752  1
  Ca2+  Ca1  1  0.07561348  0.24725829  0.55968941  1
  Ca2+  Ca2  1  0.07200209  0.25747976  0.90427700  1
  Ca2+  Ca3  1  0.08788357  0.75843002  0.24650156  1
  Ca2+  Ca4  1  0.09053323  0.75830275  0.56872979  1
  Ca2+  Ca5  1  0.08537358  0.75339304  0.93077326  1
  Ca2+  Ca6  1  0.40106563  0.24713305  0.24668189  1
  Ca2+  Ca7  1  0.42379492  0.24774986  0.58939770  1
  Ca2+  Ca8  1  0.42118276  0.24541660  0.91357272  1
  Ca2+  Ca9  1  0.42657040  0.75062185  0.22950412  1
  Ca2+  Ca10  1  0.40785805  0.75276503  0.58385272  1
  Ca2+  Ca11  1  0.39977461  0.74520631  0.93473235  1
  Ca2+  Ca12  1  0.76968918  0.24137522  0.26720652  1
  Ca2+  Ca13  1  0.75333415  0.25118596  0.58717208  1
  Ca2+  Ca14  1  0.75346518  0.24683239  0.89417604  1
  Ca2+  Ca15  1  0.73869126  0.75015203  0.23920711  1
  Ca2+  Ca16  1  0.75065853  0.76285066  0.57699571  1
  Ca2+  Ca17  1  0.76870800  0.74221582  0.92751103  1
  Ca2+  Ca18  1  0.26721700  0.24151879  0.10502960  1
  Ca2+  Ca19  1  0.23457607  0.24407650  0.40871938  1
  Ca2+  Ca20  1  0.25881396  0.25266698  0.74386861  1
  Ca2+  Ca21  1  0.25495082  0.75247442  0.06967493  1
  Ca2+  Ca22  1  0.24311109  0.75599868  0.42227744  1
  Ca2+  Ca23  1  0.25896249  0.75494243  0.76175424  1
  Ca2+  Ca24  1  0.57259141  0.24989979  0.08372158  1
  Ca2+  Ca25  1  0.59562631  0.25329590  0.42777546  1
  Ca2+  Ca26  1  0.59470293  0.25101424  0.74081896  1
  Ca2+  Ca27  1  0.57969304  0.75115661  0.09053219  1
  Ca2+  Ca28  1  0.59292322  0.75778997  0.40646373  1
  Ca2+  Ca29  1  0.58784728  0.75598082  0.75282252  1
  Ca2+  Ca30  1  0.90637849  0.25278004  0.09955717  1
  Ca2+  Ca31  1  0.92238241  0.25103768  0.41366285  1
  Ca2+  Ca32  1  0.89764270  0.25020516  0.73795609  1
  Ca2+  Ca33  1  0.90916394  0.74148785  0.06366135  1
  Ca2+  Ca34  1  0.91499395  0.75881797  0.42062450  1
  Ca2+  Ca35  1  0.90266348  0.74992349  0.77166640  1
  Ca2+  Ca36  1  0.74338131  0.09542745  0.90641783  1
  Ca2+  Ca37  1  0.57761336  0.10495486  0.75675254  1
  Ca2+  Ca38  1  0.25188617  0.59279585  0.75311583  1
  Ca2+  Ca39  1  0.58084989  0.58983888  0.40614214  1
  Ca2+  Ca40  1  0.60519745  0.59626968  0.08696890  1
  Ca2+  Ca41  1  0.28209625  0.10093158  0.73921800  1
  Ca2+  Ca42  1  0.91027695  0.09581741  0.10676592  1
  Ca2+  Ca43  1  0.25521580  0.59147638  0.42486078  1
  Ca2+  Ca44  1  0.92839338  0.10258138  0.41017418  1
  Ca2+  Ca45  1  0.42748528  0.09802579  0.91200284  1
  Ca2+  Ca46  1  0.89824873  0.59737241  0.76667621  1
  Ca2+  Ca47  1  0.74180784  0.58548832  0.58560011  1
  Ca2+  Ca48  1  0.58862601  0.10485688  0.75661294  1
  Ca2+  Ca49  1  0.75392601  0.10235850  0.58764565  1
  Ca2+  Ca50  1  0.88771884  0.09900742  0.74468742  1
  Ca2+  Ca51  1  0.42798740  0.59944229  0.24647862  1
  Ca2+  Ca52  1  0.90604258  0.58763387  0.06683444  1
  Ca2+  Ca53  1  0.58726107  0.10312506  0.41704192  1
  Ca2+  Ca54  1  0.07283130  0.57946349  0.23943857  1
  Ca2+  Ca55  1  0.40413171  0.10022797  0.24465946  1
  Ca2+  Ca56  1  0.39162524  0.10095013  0.24365634  1
  Ca2+  Ca57  1  0.09678057  0.58679810  0.57491833  1
  Ca2+  Ca58  1  0.75336906  0.58900108  0.23121558  1
  Ca2+  Ca59  1  0.76398209  0.59215120  0.92149635  1
  Ca2+  Ca60  1  0.22995710  0.09966168  0.41499970  1
  Ca2+  Ca61  1  0.77104432  0.59661862  0.92509562  1
  Ca2+  Ca62  1  0.06157923  0.59008829  0.93244618  1
  Ca2+  Ca63  1  0.08647043  0.09238489  0.91902064  1
  Ca2+  Ca64  1  0.24903206  0.60162056  0.06916359  1
  Ca2+  Ca65  1  0.07267580  0.59170577  0.93183202  1
  Ca2+  Ca66  1  0.59471439  0.59576230  0.08683444  1
  Ca2+  Ca67  1  0.41200551  0.10061176  0.58676560  1
  Ca2+  Ca68  1  0.07345890  0.09243620  0.91896665  1
  Ca2+  Ca69  1  0.93870269  0.10415459  0.41014031  1
  Ca2+  Ca70  1  0.90850442  0.59581447  0.76974950  1
  Ca2+  Ca71  1  0.75497757  0.58538897  0.58468669  1
  Ca2+  Ca72  1  0.75442794  0.90175932  0.25114702  1
  Ca2+  Ca73  1  0.24532492  0.40464968  0.42399938  1
  Ca2+  Ca74  1  0.73771557  0.91092745  0.91723705  1
  Ca2+  Ca75  1  0.42436976  0.90601988  0.91993068  1
  Ca2+  Ca76  1  0.74089064  0.42034781  0.92237707  1
  Ca2+  Ca77  1  0.43058903  0.40567759  0.26202701  1
  Ca2+  Ca78  1  0.76539924  0.41250613  0.25602848  1
  Ca2+  Ca79  1  0.41816586  0.40385382  0.57981135  1
  Ca2+  Ca80  1  0.91372726  0.90671944  0.42066318  1
  Ca2+  Ca81  1  0.25135051  0.90361883  0.74499428  1
  Ca2+  Ca82  1  0.40917448  0.90291431  0.24228503  1
  Ca2+  Ca83  1  0.75367525  0.41214881  0.25586660  1
  Ca2+  Ca84  1  0.39965726  0.90803739  0.58053582  1
  Ca2+  Ca85  1  0.06321696  0.41340126  0.91695113  1
  Ca2+  Ca86  1  0.41255323  0.90897170  0.57929613  1
  Ca2+  Ca87  1  0.24729408  0.90951635  0.41641513  1
  Ca2+  Ca88  1  0.23045520  0.40457511  0.08545370  1
  Ca2+  Ca89  1  0.43319717  0.40456328  0.90821955  1
  Ca2+  Ca90  1  0.24297864  0.40545850  0.08470068  1
  Ca2+  Ca91  1  0.41884966  0.40615324  0.26102732  1
  Ca2+  Ca92  1  0.75205004  0.42041379  0.92111793  1
  Ca2+  Ca93  1  0.59815491  0.41429446  0.07376358  1
  Ca2+  Ca94  1  0.07365120  0.41268148  0.25351464  1
  Ca2+  Ca95  1  0.91172351  0.90045575  0.08663837  1
  Ca2+  Ca96  1  0.58077727  0.90831602  0.07367521  1
  Ca2+  Ca97  1  0.07415444  0.41367023  0.91448014  1
  Ca2+  Ca98  1  0.90865802  0.42620639  0.07358840  1
  Ca2+  Ca99  1  0.91882137  0.42680573  0.07748043  1
  Ca2+  Ca100  1  0.08727048  0.90280829  0.25208403  1
  Ca2+  Ca101  1  0.91693987  0.40588300  0.74127399  1
  Ca2+  Ca102  1  0.58310241  0.90641211  0.75732481  1
  Ca2+  Ca103  1  0.75024168  0.90909066  0.91729830  1
  Ca2+  Ca104  1  0.06340137  0.41482362  0.25668603  1
  Ca2+  Ca105  1  0.58160889  0.40766152  0.74674517  1
  Ca2+  Ca106  1  0.08937045  0.90861221  0.57790726  1
  Ca2+  Ca107  1  0.91554340  0.90101841  0.75044906  1
  Mn3.34+  Mn108  1  0.08128164  0.32741944  0.08566783  1
  Mn3.34+  Mn109  1  0.08129741  0.33344446  0.42266595  1
  Mn3.34+  Mn110  1  0.08752843  0.33646453  0.74043286  1
  Mn3.34+  Mn111  1  0.08516406  0.83024658  0.08263824  1
  Mn3.34+  Mn112  1  0.08221971  0.83391257  0.41570042  1
  Mn3.34+  Mn113  1  0.08296017  0.82815453  0.75193142  1
  Mn3.34+  Mn114  1  0.41904537  0.33094349  0.08147351  1
  Mn3.34+  Mn115  1  0.41777297  0.32956925  0.42242319  1
  Mn3.34+  Mn116  1  0.41431708  0.33221558  0.74862688  1
  Mn3.34+  Mn117  1  0.41377354  0.83283540  0.08226293  1
  Mn3.34+  Mn118  1  0.41896593  0.83301021  0.41354615  1
  Mn3.34+  Mn119  1  0.41828205  0.83441272  0.75389098  1
  Mn3.34+  Mn120  1  0.74862074  0.33458942  0.08636278  1
  Mn3.34+  Mn121  1  0.75181328  0.33527735  0.42554651  1
  Mn3.34+  Mn122  1  0.74891496  0.33179105  0.74539450  1
  Mn3.34+  Mn123  1  0.74941623  0.82896433  0.08514803  1
  Mn3.34+  Mn124  1  0.74787497  0.83478273  0.41792096  1
  Mn3.34+  Mn125  1  0.74935629  0.83325129  0.74841991  1
  Mn3.34+  Mn126  1  0.24730453  0.32866932  0.25267640  1
  Mn3.34+  Mn127  1  0.24800624  0.33440759  0.58341959  1
  Mn3.34+  Mn128  1  0.25144623  0.32731329  0.91239466  1
  Mn3.34+  Mn129  1  0.25084278  0.83667827  0.24557434  1
  Mn3.34+  Mn130  1  0.24821280  0.83305657  0.58172788  1
  Mn3.34+  Mn131  1  0.24714341  0.82945704  0.91844217  1
  Mn3.34+  Mn132  1  0.58625456  0.32773518  0.25196506  1
  Mn3.34+  Mn133  1  0.58630888  0.33374778  0.58041890  1
  Mn3.34+  Mn134  1  0.58470880  0.33600226  0.91169110  1
  Mn3.34+  Mn135  1  0.58321387  0.83344384  0.24997805  1
  Mn3.34+  Mn136  1  0.58553787  0.83249202  0.57943779  1
  Mn3.34+  Mn137  1  0.58254917  0.83451328  0.91580664  1
  Mn3.34+  Mn138  1  0.91781448  0.33056465  0.25109432  1
  Mn3.34+  Mn139  1  0.91720473  0.33427547  0.57863387  1
  Mn3.34+  Mn140  1  0.91368851  0.33356476  0.91277245  1
  Mn3.34+  Mn141  1  0.91608516  0.83391470  0.24822426  1
  Mn3.34+  Mn142  1  0.91574534  0.83623584  0.58444300  1
  Mn3.34+  Mn143  1  0.92114487  0.83087807  0.91743358  1
  Mn3.34+  Mn144  1  0.58255258  0.17084779  0.25188580  1
  Mn3.34+  Mn145  1  0.41926564  0.16560361  0.08228915  1
  Mn3.34+  Mn146  1  0.91126396  0.66835472  0.57919731  1
  Mn3.34+  Mn147  1  0.91335574  0.65994065  0.24943851  1
  Mn3.34+  Mn148  1  0.75061633  0.16670345  0.41633775  1
  Mn3.34+  Mn149  1  0.74848090  0.66593138  0.41258600  1
  Mn3.34+  Mn150  1  0.41905432  0.66703707  0.41837394  1
  Mn3.34+  Mn151  1  0.40863550  0.66490618  0.75309848  1
  Mn3.34+  Mn152  1  0.08038972  0.17614114  0.08726850  1
  Mn3.34+  Mn153  1  0.25561160  0.17195086  0.91637368  1
  Mn3.34+  Mn154  1  0.91408430  0.16758340  0.57983376  1
  Mn3.34+  Mn155  1  0.74923167  0.16737237  0.08836703  1
  Mn3.34+  Mn156  1  0.92101896  0.66662386  0.25015172  1
  Mn3.34+  Mn157  1  0.58910762  0.66773738  0.91409611  1
  Mn3.34+  Mn158  1  0.25270365  0.15987218  0.57666993  1
  Mn3.34+  Mn159  1  0.25428738  0.66714947  0.57730295  1
  Mn3.34+  Mn160  1  0.58534953  0.66655503  0.58569442  1
  Mn3.34+  Mn161  1  0.08476494  0.66433939  0.41688730  1
  Mn3.34+  Mn162  1  0.25795365  0.66418698  0.24776231  1
  Mn3.34+  Mn163  1  0.57695057  0.65958105  0.91324488  1
  Mn3.34+  Mn164  1  0.08139158  0.66410412  0.08287026  1
  Mn3.34+  Mn165  1  0.92295270  0.66226969  0.57889232  1
  Mn3.34+  Mn166  1  0.91168914  0.16784903  0.91375193  1
  Mn3.34+  Mn167  1  0.09317958  0.16959630  0.08875447  1
  Mn3.34+  Mn168  1  0.08964427  0.16559321  0.74229667  1
  Mn3.34+  Mn169  1  0.57533157  0.66102482  0.58496620  1
  Mn3.34+  Mn170  1  0.09271321  0.67128342  0.75139916  1
  Mn3.34+  Mn171  1  0.58366732  0.16944206  0.58299317  1
  Mn3.34+  Mn172  1  0.24426214  0.67075231  0.24817036  1
  Mn3.34+  Mn173  1  0.08343313  0.67726442  0.75093844  1
  Mn3.34+  Mn174  1  0.73888085  0.16255640  0.08845953  1
  Mn3.34+  Mn175  1  0.41564937  0.16924892  0.41964993  1
  Mn3.34+  Mn176  1  0.58496843  0.66780622  0.24840742  1
  Mn3.34+  Mn177  1  0.58253607  0.16163938  0.91852423  1
  Mn3.34+  Mn178  1  0.41835744  0.65960355  0.75241942  1
  Mn3.34+  Mn179  1  0.07875904  0.17056694  0.74228702  1
  Mn3.34+  Mn180  1  0.25706744  0.00042906  0.91348978  1
  Mn3.34+  Mn181  1  0.57978875  0.49519943  0.58490106  1
  Mn3.34+  Mn182  1  0.25180432  0.50005920  0.25172828  1
  Mn3.34+  Mn183  1  0.59515333  -0.00336282  0.57638792  1
  Mn3.34+  Mn184  1  0.74571196  0.49849853  0.74119550  1
  Mn3.34+  Mn185  1  0.08436129  0.00284232  0.40922778  1
  Mn3.34+  Mn186  1  0.91183474  0.00087807  0.58563859  1
  Mn3.34+  Mn187  1  0.25325094  0.49956734  0.59198175  1
  Mn3.34+  Mn188  1  0.09236067  0.00099225  0.74519832  1
  Mn3.34+  Mn189  1  0.24694584  -0.00521790  0.91526050  1
  Mn3.34+  Mn190  1  0.91580702  -0.00067807  0.91631657  1
  Mn3.34+  Mn191  1  0.42681708  0.50018395  0.08140987  1
  Mn3.34+  Mn192  1  0.08153084  -0.00367194  0.74619042  1
  Mn3.34+  Mn193  1  0.76276635  0.49848411  0.40355206  1
  Mn3.34+  Mn194  1  0.58557482  0.49996450  0.25591527  1
  Mn3.34+  Mn195  1  0.41879251  0.49834491  0.74216562  1
  Mn3.34+  Mn196  1  0.41322060  0.00093995  0.74493271  1
  Mn3.34+  Mn197  1  0.41773162  0.50024845  0.41617741  1
  Mn3.34+  Mn198  1  0.59343936  0.00528675  0.24754348  1
  Mn3.34+  Mn199  1  0.25621578  0.49808873  0.90734780  1
  Mn3.34+  Mn200  1  0.91379602  0.00288058  0.25999263  1
  Mn3.34+  Mn201  1  0.74950842  -0.00129144  0.41607167  1
  Mn3.34+  Mn202  1  0.24525810  0.50244306  0.90746045  1
  Mn3.34+  Mn203  1  0.42743095  0.00083449  0.07036929  1
  Mn3.34+  Mn204  1  0.74347843  -0.00107202  0.07363308  1
  Mn3.34+  Mn205  1  0.75137228  0.00168195  0.74773549  1
  Mn3.34+  Mn206  1  0.41504351  0.00217454  0.41288474  1
  Mn3.34+  Mn207  1  0.41413304  0.50527135  0.08930878  1
  Mn3.34+  Mn208  1  0.58024220  -0.00117428  0.24898787  1
  Mn3.34+  Mn209  1  0.92122243  0.49452815  0.58304398  1
  Mn3.34+  Mn210  1  0.07422401  0.49921499  0.40582065  1
  Mn3.34+  Mn211  1  0.08626903  0.49915163  0.74015431  1
  Mn3.34+  Mn212  1  0.08999360  0.00051944  0.09056800  1
  Mn3.34+  Mn213  1  0.24713318  0.00190649  0.25317076  1
  Mn3.34+  Mn214  1  0.58417402  0.00155627  0.57527876  1
  Mn3.34+  Mn215  1  0.07904156  -0.00396118  0.08964292  1
  O2-  O216  1  0.00661658  0.16202227  -0.00246551  1
  O2-  O217  1  -0.00074486  0.16820131  0.33850048  1
  O2-  O218  1  -0.00677546  0.15927862  0.66731810  1
  O2-  O219  1  0.00030967  0.66053634  0.00376165  1
  O2-  O220  1  0.00241097  0.66971603  0.32889790  1
  O2-  O221  1  0.00063744  0.66334159  0.67121609  1
  O2-  O222  1  0.33672387  0.17163252  -0.00191005  1
  O2-  O223  1  0.33844304  0.16676080  0.33720423  1
  O2-  O224  1  0.32979694  0.17725244  0.65912333  1
  O2-  O225  1  0.32530598  0.67375552  0.00611742  1
  O2-  O226  1  0.33525524  0.66673675  0.33474735  1
  O2-  O227  1  0.32929644  0.66341775  0.66722427  1
  O2-  O228  1  0.66821078  0.17103730  -0.00083107  1
  O2-  O229  1  0.66093289  0.17259127  0.33811375  1
  O2-  O230  1  0.65977665  0.15860187  0.66573708  1
  O2-  O231  1  0.66466864  0.66315311  -0.00080660  1
  O2-  O232  1  0.66625520  0.65837639  0.33393480  1
  O2-  O233  1  0.67390149  0.66394078  0.65865201  1
  O2-  O234  1  0.16228913  0.17217775  -0.00508958  1
  O2-  O235  1  0.16590584  0.16872932  0.34035382  1
  O2-  O236  1  0.17522890  0.16958386  0.66509816  1
  O2-  O237  1  0.15741500  0.65811769  0.00095903  1
  O2-  O238  1  0.16926064  0.65845131  0.33327559  1
  O2-  O239  1  0.16619889  0.66486757  0.66356063  1
  O2-  O240  1  0.50016685  0.17450367  -0.00252494  1
  O2-  O241  1  0.49529562  0.17246633  0.33121636  1
  O2-  O242  1  0.50393812  0.16249603  0.66590111  1
  O2-  O243  1  0.50899641  0.66096062  0.00309837  1
  O2-  O244  1  0.50090005  0.66776596  0.33500602  1
  O2-  O245  1  0.49749860  0.66629115  0.67242427  1
  O2-  O246  1  0.83422892  0.15853736  0.00228733  1
  O2-  O247  1  0.83570495  0.16343136  0.34532670  1
  O2-  O248  1  0.83399761  0.16442651  0.66125847  1
  O2-  O249  1  0.82996832  0.65590626  -0.00398259  1
  O2-  O250  1  0.83331179  0.67003354  0.33040325  1
  O2-  O251  1  0.83413752  0.65945410  0.66511923  1
  O2-  O252  1  0.00087489  0.33907903  -0.00122437  1
  O2-  O253  1  0.00551219  0.33983795  0.32611552  1
  O2-  O254  1  -0.00511459  0.33359141  0.67304990  1
  O2-  O255  1  -0.00571692  0.83434561  0.00636693  1
  O2-  O256  1  -0.00134957  0.83135773  0.33253802  1
  O2-  O257  1  0.00263673  0.82904765  0.66660618  1
  O2-  O258  1  0.32762659  0.33802019  0.00401650  1
  O2-  O259  1  0.33705854  0.33841975  0.33014773  1
  O2-  O260  1  0.33636957  0.31788852  0.66257458  1
  O2-  O261  1  0.33899937  0.83665566  -0.00602257  1
  O2-  O262  1  0.33140427  0.83206571  0.33615719  1
  O2-  O263  1  0.33570554  0.83937542  0.66443001  1
  O2-  O264  1  0.66867935  0.33629952  -0.00258031  1
  O2-  O265  1  0.67286126  0.33149476  0.32676232  1
  O2-  O266  1  0.65983762  0.33644342  0.67288755  1
  O2-  O267  1  0.66908588  0.84192601  -0.00253030  1
  O2-  O268  1  0.67135386  0.83291386  0.32717892  1
  O2-  O269  1  0.66275500  0.82570993  0.67204127  1
  O2-  O270  1  0.16520983  0.33109105  0.00069211  1
  O2-  O271  1  0.16432151  0.34298453  0.32937691  1
  O2-  O272  1  0.16935176  0.31731514  0.66380047  1
  O2-  O273  1  0.16562953  0.82803137  0.00038918  1
  O2-  O274  1  0.16673645  0.83833370  0.33363349  1
  O2-  O275  1  0.16689333  0.83189292  0.66607510  1
  O2-  O276  1  0.50327905  0.33190963  -0.00364427  1
  O2-  O277  1  0.49391489  0.32414544  0.32894235  1
  O2-  O278  1  0.49815272  0.32997341  0.66837705  1
  O2-  O279  1  0.50237188  0.83956090  0.00004247  1
  O2-  O280  1  0.49664588  0.82522242  0.32883296  1
  O2-  O281  1  0.49561226  0.84142522  0.66437683  1
  O2-  O282  1  0.83473199  0.34641613  0.00227276  1
  O2-  O283  1  0.82897990  0.33914488  0.32439877  1
  O2-  O284  1  0.83672142  0.33474661  0.67254986  1
  O2-  O285  1  0.82929642  0.84203193  -0.00279454  1
  O2-  O286  1  0.83555682  0.82939583  0.33226225  1
  O2-  O287  1  0.83630480  0.82488366  0.67288969  1
  O2-  O288  1  -0.00367763  0.17893604  0.15740222  1
  O2-  O289  1  -0.01007602  0.17273960  0.49764342  1
  O2-  O290  1  0.00634916  0.16807634  0.83867229  1
  O2-  O291  1  0.00006317  0.67716038  0.16894449  1
  O2-  O292  1  0.00408137  0.67073817  0.50218981  1
  O2-  O293  1  0.00093757  0.67170927  0.83151636  1
  O2-  O294  1  0.34304996  0.17077589  0.16584428  1
  O2-  O295  1  0.33579919  0.18118596  0.50190440  1
  O2-  O296  1  0.33008845  0.18022067  0.83566018  1
  O2-  O297  1  0.33341527  0.67012291  0.16609040  1
  O2-  O298  1  0.33399115  0.68166060  0.49268064  1
  O2-  O299  1  0.32998422  0.67290444  0.82948354  1
  O2-  O300  1  0.66121853  0.18512024  0.16984158  1
  O2-  O301  1  0.66623798  0.17045185  0.50093152  1
  O2-  O302  1  0.66120684  0.17432112  0.84054110  1
  O2-  O303  1  0.66407926  0.66667222  0.16985844  1
  O2-  O304  1  0.66658480  0.66724554  0.49831931  1
  O2-  O305  1  0.66873718  0.67532269  0.83703747  1
  O2-  O306  1  0.16731898  0.18403525  0.16551405  1
  O2-  O307  1  0.17820834  0.18109549  0.50551342  1
  O2-  O308  1  0.16184075  0.17340239  0.83822224  1
  O2-  O309  1  0.16364544  0.66883485  0.16635707  1
  O2-  O310  1  0.16895014  0.67100406  0.50038738  1
  O2-  O311  1  0.16574556  0.67508543  0.83517022  1
  O2-  O312  1  0.49664322  0.17911418  0.17232010  1
  O2-  O313  1  0.50125625  0.17661050  0.49812951  1
  O2-  O314  1  0.50675821  0.17789063  0.83676383  1
  O2-  O315  1  0.50772795  0.66715727  0.16876656  1
  O2-  O316  1  0.50301956  0.67573001  0.49873032  1
  O2-  O317  1  0.50243362  0.67370151  0.83169066  1
  O2-  O318  1  0.83178993  0.17259299  0.16312580  1
  O2-  O319  1  0.83063750  0.16918701  0.50020843  1
  O2-  O320  1  0.83454876  0.16896086  0.83701347  1
  O2-  O321  1  0.83485056  0.67500051  0.17100348  1
  O2-  O322  1  0.82496436  0.66812563  0.49891500  1
  O2-  O323  1  0.83233595  0.66654021  0.82946403  1
  O2-  O324  1  -0.00132308  0.32978916  0.16359693  1
  O2-  O325  1  -0.00100423  0.32335388  0.49955662  1
  O2-  O326  1  0.00158340  0.33407421  0.83831927  1
  O2-  O327  1  -0.00034581  0.82327884  0.17029111  1
  O2-  O328  1  0.00157113  0.83010943  0.49962541  1
  O2-  O329  1  -0.00444822  0.82047174  0.82847460  1
  O2-  O330  1  0.33278456  0.33638839  0.16763487  1
  O2-  O331  1  0.33279944  0.31765583  0.49865806  1
  O2-  O332  1  0.33769670  0.31323437  0.83596518  1
  O2-  O333  1  0.33801101  0.82789220  0.17144138  1
  O2-  O334  1  0.33484035  0.82409991  0.49994704  1
  O2-  O335  1  0.33323193  0.82989042  0.82978175  1
  O2-  O336  1  0.66545830  0.32816534  0.16579465  1
  O2-  O337  1  0.66724502  0.32377896  0.50127216  1
  O2-  O338  1  0.66885719  0.32539496  0.83670716  1
  O2-  O339  1  0.66585808  0.83110224  0.16516023  1
  O2-  O340  1  0.66551122  0.82239631  0.49874461  1
  O2-  O341  1  0.66901213  0.82463037  0.83416563  1
  O2-  O342  1  0.17100530  0.32895139  0.16254896  1
  O2-  O343  1  0.17218974  0.32335218  0.49548101  1
  O2-  O344  1  0.16011516  0.32665116  0.84155193  1
  O2-  O345  1  0.16201476  0.82790354  0.17255891  1
  O2-  O346  1  0.16747186  0.83171487  0.49959294  1
  O2-  O347  1  0.16938048  0.81832231  0.82793421  1
  O2-  O348  1  0.49690986  0.32900003  0.17212751  1
  O2-  O349  1  0.49712790  0.31985873  0.50367534  1
  O2-  O350  1  0.50134599  0.31833164  0.83293191  1
  O2-  O351  1  0.50125647  0.82986108  0.16561418  1
  O2-  O352  1  0.49128988  0.82394178  0.50435766  1
  O2-  O353  1  0.50344818  0.83059576  0.83095603  1
  O2-  O354  1  0.83484324  0.33345796  0.16489605  1
  O2-  O355  1  0.83420108  0.32150809  0.50044535  1
  O2-  O356  1  0.82887062  0.33414485  0.83698017  1
  O2-  O357  1  0.83269029  0.82482893  0.16699401  1
  O2-  O358  1  0.83733867  0.82709364  0.49630266  1
  O2-  O359  1  0.82913414  0.82631284  0.83482167  1
  O2-  O360  1  0.08115224  0.08353601  0.09425222  1
  O2-  O361  1  0.07629604  0.07801079  0.43504967  1
  O2-  O362  1  0.08383093  0.08140698  0.77919606  1
  O2-  O363  1  0.08029679  0.58211155  0.09727356  1
  O2-  O364  1  0.09188038  0.57832873  0.43690860  1
  O2-  O365  1  0.08214926  0.58064107  0.77531451  1
  O2-  O366  1  0.42058416  0.08042680  0.10651505  1
  O2-  O367  1  0.42064651  0.08146797  0.43860083  1
  O2-  O368  1  0.42397046  0.07950156  0.77324640  1
  O2-  O369  1  0.42269815  0.58379375  0.10276625  1
  O2-  O370  1  0.41870263  0.58130767  0.42856581  1
  O2-  O371  1  0.40652958  0.57791819  0.77124267  1
  O2-  O372  1  0.75506578  0.07963468  0.09803686  1
  O2-  O373  1  0.74566808  0.07963862  0.44227841  1
  O2-  O374  1  0.74027181  0.07967804  0.77212027  1
  O2-  O375  1  0.73139272  0.57347380  0.09923743  1
  O2-  O376  1  0.74442727  0.57511045  0.44759697  1
  O2-  O377  1  0.76126244  0.57445963  0.77698640  1
  O2-  O378  1  0.26305350  0.07881812  0.23674705  1
  O2-  O379  1  0.26560675  0.08332930  0.56575589  1
  O2-  O380  1  0.23573040  0.08257033  0.89395270  1
  O2-  O381  1  0.24917917  0.58104599  0.23021145  1
  O2-  O382  1  0.24501970  0.58119354  0.56089874  1
  O2-  O383  1  0.23721956  0.58317786  0.89711794  1
  O2-  O384  1  0.57165794  0.08473797  0.23787280  1
  O2-  O385  1  0.58175801  0.08367013  0.55982198  1
  O2-  O386  1  0.58193629  0.08059602  0.89131236  1
  O2-  O387  1  0.58157781  0.58119762  0.23361352  1
  O2-  O388  1  0.59427800  0.57748697  0.55445521  1
  O2-  O389  1  0.59950608  0.58066854  0.90982863  1
  O2-  O390  1  0.92006531  0.07755419  0.23658259  1
  O2-  O391  1  0.90737070  0.08106577  0.55737439  1
  O2-  O392  1  0.93105179  0.08196339  0.89633649  1
  O2-  O393  1  0.91900089  0.57909195  0.22278842  1
  O2-  O394  1  0.90910325  0.57799356  0.56191706  1
  O2-  O395  1  0.92727223  0.57204322  0.89244358  1
  O2-  O396  1  0.09528609  0.42252347  0.11327163  1
  O2-  O397  1  0.09296007  0.41939789  0.42046763  1
  O2-  O398  1  0.07647807  0.42042882  0.77531265  1
  O2-  O399  1  0.07590060  0.91437252  0.10409292  1
  O2-  O400  1  0.08454192  0.92125002  0.43629926  1
  O2-  O401  1  0.08144317  0.91453500  0.75935875  1
  O2-  O402  1  0.41634162  0.41831798  0.09725833  1
  O2-  O403  1  0.40953479  0.41812141  0.43016114  1
  O2-  O404  1  0.42738469  0.41976216  0.77401013  1
  O2-  O405  1  0.42622912  0.92138283  0.10254164  1
  O2-  O406  1  0.40709322  0.92212950  0.44425230  1
  O2-  O407  1  0.41877720  0.91960061  0.76785185  1
  O2-  O408  1  0.75358249  0.41813369  0.10711564  1
  O2-  O409  1  0.74832827  0.41847702  0.41306970  1
  O2-  O410  1  0.74646990  0.42025131  0.77651877  1
  O2-  O411  1  0.75301343  0.91926396  0.10304436  1
  O2-  O412  1  0.76262295  0.91734630  0.42180980  1
  O2-  O413  1  0.74957559  0.92176670  0.77933200  1
  O2-  O414  1  0.25160344  0.41896577  0.22566102  1
  O2-  O415  1  0.26554793  0.42161516  0.56004501  1
  O2-  O416  1  0.24966802  0.41575964  0.90937120  1
  O2-  O417  1  0.24963884  0.91916685  0.23928717  1
  O2-  O418  1  0.26135205  0.91611927  0.56457460  1
  O2-  O419  1  0.25538634  0.91389440  0.89462775  1
  O2-  O420  1  0.57497129  0.41991052  0.22895943  1
  O2-  O421  1  0.56830839  0.41516770  0.57674778  1
  O2-  O422  1  0.59267644  0.41892096  0.89638842  1
  O2-  O423  1  0.58540460  0.91830214  0.23223499  1
  O2-  O424  1  0.57328045  0.91517700  0.57197401  1
  O2-  O425  1  0.59457499  0.91641174  0.89651620  1
  O2-  O426  1  0.92148259  0.42178845  0.21776214  1
  O2-  O427  1  0.91683057  0.41647649  0.58432473  1
  O2-  O428  1  0.92115426  0.41661208  0.90174224  1
  O2-  O429  1  0.91431207  0.92346712  0.22631706  1
  O2-  O430  1  0.92742551  0.91922104  0.56902181  1
  O2-  O431  1  0.90024492  0.91802986  0.89498297  1
  O2-  O432  1  0.00355027  0.00788904  -0.00287591  1
  O2-  O433  1  -0.00589707  -0.00337091  0.34310227  1
  O2-  O434  1  -0.00180385  0.00165333  0.66615696  1
  O2-  O435  1  0.00674347  0.48965273  -0.00879200  1
  O2-  O436  1  0.01332923  0.49767363  0.31365694  1
  O2-  O437  1  -0.00844972  0.51001717  0.67579473  1
  O2-  O438  1  0.33933241  0.00310070  -0.00482861  1
  O2-  O439  1  0.33668472  0.00036985  0.32900461  1
  O2-  O440  1  0.34047754  -0.00125575  0.66699987  1
  O2-  O441  1  0.33283290  0.50234228  0.00105442  1
  O2-  O442  1  0.33502441  0.49586371  0.33128418  1
  O2-  O443  1  0.33122240  0.50279945  0.67130384  1
  O2-  O444  1  0.67615759  -0.00975161  -0.00939238  1
  O2-  O445  1  0.66763453  0.00217562  0.33419953  1
  O2-  O446  1  0.66128903  0.00443278  0.67302574  1
  O2-  O447  1  0.67835328  0.49893379  -0.00861204  1
  O2-  O448  1  0.67021296  0.50554237  0.33023762  1
  O2-  O449  1  0.67359424  0.50986451  0.65378660  1
  O2-  O450  1  0.16153827  0.00799592  -0.00476054  1
  O2-  O451  1  0.17229471  -0.00166263  0.34184577  1
  O2-  O452  1  0.17522906  -0.00273435  0.67032614  1
  O2-  O453  1  0.17073613  0.49534292  -0.00251807  1
  O2-  O454  1  0.16693157  0.49985060  0.33067361  1
  O2-  O455  1  0.16548460  0.51491923  0.66260498  1
  O2-  O456  1  0.50025630  -0.00417684  -0.00480335  1
  O2-  O457  1  0.49683814  0.00272634  0.32783402  1
  O2-  O458  1  0.50049301  0.00143828  0.66385691  1
  O2-  O459  1  0.50829703  0.49492830  0.00761240  1
  O2-  O460  1  0.48984587  0.49883918  0.31996810  1
  O2-  O461  1  0.50212500  0.49525667  0.66897026  1
  O2-  O462  1  0.83441804  -0.00044928  0.00027046  1
  O2-  O463  1  0.83867160  0.00106768  0.34336233  1
  O2-  O464  1  0.83712804  0.00726615  0.67529419  1
  O2-  O465  1  0.83245786  0.49111742  -0.00305078  1
  O2-  O466  1  0.82110920  0.49751708  0.31206100  1
  O2-  O467  1  0.83262877  0.51240701  0.66525073  1
  O2-  O468  1  0.75051760  0.25269806  0.74576410  1
  O2-  O469  1  0.74812725  0.74951857  0.41444023  1
  O2-  O470  1  0.25060887  0.75006828  0.58963462  1
  O2-  O471  1  0.08437025  0.74855157  0.07826426  1
  O2-  O472  1  0.41714542  0.75321008  0.07865825  1
  O2-  O473  1  0.08295395  0.25421276  0.41014061  1
  O2-  O474  1  0.74775240  0.75175440  0.07471201  1
  O2-  O475  1  0.91641908  0.25006258  0.59326018  1
  O2-  O476  1  0.08739921  0.74942948  0.41452275  1
  O2-  O477  1  0.75110330  0.25055482  0.41083717  1
  O2-  O478  1  0.91400057  0.75259401  0.92442383  1
  O2-  O479  1  0.57789305  0.75013800  0.59175951  1
  O2-  O480  1  0.07929626  0.25270623  0.75515833  1
  O2-  O481  1  0.57886493  0.74942525  0.92331216  1
  O2-  O482  1  0.25325145  0.25110122  0.25615226  1
  O2-  O483  1  0.41467852  0.25014393  0.08172690  1
  O2-  O484  1  0.91946090  0.75089494  0.58294778  1
  O2-  O485  1  0.25413083  0.75111862  0.92328754  1
  O2-  O486  1  0.41892743  0.74960195  0.74063105  1
  O2-  O487  1  0.58748068  0.25034989  0.59132910  1
  O2-  O488  1  0.91760763  0.25053097  0.92449438  1
  O2-  O489  1  0.75638640  0.25118788  0.07444847  1
  O2-  O490  1  0.24704512  0.75286563  0.25669931  1
  O2-  O491  1  0.58744787  0.75022352  0.25140362  1
  O2-  O492  1  0.91518900  0.25240913  0.25555274  1
