# generated using pymatgen
data_Ca108Mn108O277
_symmetry_space_group_name_H-M   'P 1'
_cell_length_a   16.02488155
_cell_length_b   22.30406467
_cell_length_c   16.38659781
_cell_angle_alpha   89.99725979
_cell_angle_beta   90.00465164
_cell_angle_gamma   90.00151290
_symmetry_Int_Tables_number   1
_chemical_formula_structural   Ca108Mn108O277
_chemical_formula_sum   'Ca108 Mn108 O277'
_cell_volume   5856.89766949
_cell_formula_units_Z   1
loop_
 _symmetry_equiv_pos_site_id
 _symmetry_equiv_pos_as_xyz
  1  'x, y, z'
loop_
 _atom_type_symbol
 _atom_type_oxidation_number
  Ca2+  2.0
  Mn3.34+  3.34
  O2-  -2.0
loop_
 _atom_site_type_symbol
 _atom_site_label
 _atom_site_symmetry_multiplicity
 _atom_site_fract_x
 _atom_site_fract_y
 _atom_site_fract_z
 _atom_site_occupancy
  Ca2+  Ca0  1  0.08505058  0.24377696  0.24993222  1
  Ca2+  Ca1  1  0.09226741  0.25300128  0.58026815  1
  Ca2+  Ca2  1  0.07353633  0.25135676  0.91647647  1
  Ca2+  Ca3  1  0.07737849  0.76620248  0.24805754  1
  Ca2+  Ca4  1  0.07893903  0.74767131  0.60105026  1
  Ca2+  Ca5  1  0.08136614  0.74224851  0.90569323  1
  Ca2+  Ca6  1  0.41731591  0.25099174  0.25192548  1
  Ca2+  Ca7  1  0.42720337  0.25717114  0.59166831  1
  Ca2+  Ca8  1  0.43389867  0.25613172  0.90886251  1
  Ca2+  Ca9  1  0.42856751  0.74424452  0.26541062  1
  Ca2+  Ca10  1  0.43522634  0.74610210  0.55675194  1
  Ca2+  Ca11  1  0.40541332  0.75357608  0.93106114  1
  Ca2+  Ca12  1  0.74474130  0.24778942  0.26088644  1
  Ca2+  Ca13  1  0.73260815  0.24518801  0.59799908  1
  Ca2+  Ca14  1  0.73900932  0.24874779  0.88993760  1
  Ca2+  Ca15  1  0.72737964  0.75147625  0.26510845  1
  Ca2+  Ca16  1  0.73018784  0.74000253  0.57546972  1
  Ca2+  Ca17  1  0.76565845  0.76253021  0.91287149  1
  Ca2+  Ca18  1  0.23849509  0.25956742  0.08989726  1
  Ca2+  Ca19  1  0.24235856  0.24566969  0.41251551  1
  Ca2+  Ca20  1  0.25368240  0.25974467  0.74535596  1
  Ca2+  Ca21  1  0.25472656  0.75065623  0.08624713  1
  Ca2+  Ca22  1  0.27578721  0.75035281  0.41375353  1
  Ca2+  Ca23  1  0.22950056  0.74264441  0.75415080  1
  Ca2+  Ca24  1  0.57498398  0.25374652  0.06837685  1
  Ca2+  Ca25  1  0.58432884  0.23472905  0.43567621  1
  Ca2+  Ca26  1  0.58814291  0.23553019  0.74889589  1
  Ca2+  Ca27  1  0.56105245  0.74121735  0.11533494  1
  Ca2+  Ca28  1  0.57294269  0.73875366  0.41296629  1
  Ca2+  Ca29  1  0.58064387  0.75150801  0.72550878  1
  Ca2+  Ca30  1  0.93457036  0.25428770  0.07885215  1
  Ca2+  Ca31  1  0.92623069  0.25051578  0.40911347  1
  Ca2+  Ca32  1  0.90409479  0.25261394  0.75515498  1
  Ca2+  Ca33  1  0.93484347  0.75190849  0.08169334  1
  Ca2+  Ca34  1  0.90670991  0.75838794  0.41617883  1
  Ca2+  Ca35  1  0.93598415  0.74380071  0.75159196  1
  Ca2+  Ca36  1  0.75159430  0.59550600  0.91317643  1
  Ca2+  Ca37  1  0.55917313  0.59582866  0.72052946  1
  Ca2+  Ca38  1  0.41994395  0.60784665  0.57321064  1
  Ca2+  Ca39  1  0.72297702  0.60236809  0.26294849  1
  Ca2+  Ca40  1  0.26325842  0.09059258  0.73404682  1
  Ca2+  Ca41  1  0.43682899  0.60389382  0.25755201  1
  Ca2+  Ca42  1  0.44651719  0.10953887  0.91012845  1
  Ca2+  Ca43  1  0.93091710  0.07599386  0.06980342  1
  Ca2+  Ca44  1  0.93618360  0.08237813  0.06760746  1
  Ca2+  Ca45  1  0.93094919  0.58968869  0.07337678  1
  Ca2+  Ca46  1  0.10321460  0.59576100  0.23828208  1
  Ca2+  Ca47  1  0.89317123  0.59232641  0.42409244  1
  Ca2+  Ca48  1  0.07227111  0.07492297  0.27317742  1
  Ca2+  Ca49  1  0.91185362  0.07889009  0.39252468  1
  Ca2+  Ca50  1  0.94665777  0.58363608  0.74380873  1
  Ca2+  Ca51  1  0.22822686  0.57718238  0.74123227  1
  Ca2+  Ca52  1  0.25643916  0.09807682  0.09904219  1
  Ca2+  Ca53  1  0.57129145  0.60749798  0.42808633  1
  Ca2+  Ca54  1  0.57713435  0.10017766  0.08009547  1
  Ca2+  Ca55  1  0.28862122  0.60151956  0.42076076  1
  Ca2+  Ca56  1  0.56473984  0.10091369  0.08217632  1
  Ca2+  Ca57  1  0.08376541  0.58716133  0.61366082  1
  Ca2+  Ca58  1  0.76462589  0.59570027  0.91289021  1
  Ca2+  Ca59  1  0.25045296  0.09054433  0.73420524  1
  Ca2+  Ca60  1  0.74130830  0.10642503  0.89216332  1
  Ca2+  Ca61  1  0.09183400  0.59475286  0.24066206  1
  Ca2+  Ca62  1  0.44977224  0.10412822  0.57585646  1
  Ca2+  Ca63  1  0.07910662  0.58043821  0.61312814  1
  Ca2+  Ca64  1  0.23808938  0.57715409  0.74439927  1
  Ca2+  Ca65  1  0.23653591  0.08710459  0.41569460  1
  Ca2+  Ca66  1  0.87825503  0.09571571  0.76224486  1
  Ca2+  Ca67  1  0.75841581  0.07766968  0.27930196  1
  Ca2+  Ca68  1  0.71260393  0.09485082  0.60780137  1
  Ca2+  Ca69  1  0.43934318  0.10289790  0.57621184  1
  Ca2+  Ca70  1  0.08300974  0.58652483  0.89884383  1
  Ca2+  Ca71  1  0.57035669  0.59989921  0.71844020  1
  Ca2+  Ca72  1  0.09680196  0.39986134  0.24403389  1
  Ca2+  Ca73  1  0.27189204  0.40267205  0.41923946  1
  Ca2+  Ca74  1  0.91404583  0.91245187  0.08257860  1
  Ca2+  Ca75  1  0.26871616  0.42153972  0.74281864  1
  Ca2+  Ca76  1  0.76113871  0.39980876  0.58314607  1
  Ca2+  Ca77  1  0.77225276  0.92402901  0.26885534  1
  Ca2+  Ca78  1  0.94120765  0.92720248  0.39467640  1
  Ca2+  Ca79  1  0.58178358  0.38775049  0.41814176  1
  Ca2+  Ca80  1  0.25764009  0.90091107  0.74243211  1
  Ca2+  Ca81  1  0.56737744  0.39747002  0.07368214  1
  Ca2+  Ca82  1  0.57617311  0.89784238  0.08613365  1
  Ca2+  Ca83  1  0.26793831  0.90437903  0.74075265  1
  Ca2+  Ca84  1  0.92172577  0.40048599  0.07642237  1
  Ca2+  Ca85  1  0.41756868  0.90373187  0.58151701  1
  Ca2+  Ca86  1  0.92642861  0.91224640  0.08472307  1
  Ca2+  Ca87  1  0.58879332  0.89869728  0.08592328  1
  Ca2+  Ca88  1  0.40362247  0.41191091  0.92619080  1
  Ca2+  Ca89  1  0.07100744  0.42535808  0.60986247  1
  Ca2+  Ca90  1  0.06403957  0.91182770  0.92416258  1
  Ca2+  Ca91  1  0.59596251  0.91105287  0.42171828  1
  Ca2+  Ca92  1  0.25995392  0.40431033  0.41612551  1
  Ca2+  Ca93  1  0.74786398  0.90597872  0.58706938  1
  Ca2+  Ca94  1  0.42119948  0.89782972  0.91954952  1
  Ca2+  Ca95  1  0.58454745  0.91174380  0.42200577  1
  Ca2+  Ca96  1  0.08348687  0.40959179  0.90597282  1
  Ca2+  Ca97  1  0.90723820  0.39987733  0.42425477  1
  Ca2+  Ca98  1  0.09440649  0.41049033  0.90681535  1
  Ca2+  Ca99  1  0.74775236  0.39218183  0.24823923  1
  Ca2+  Ca100  1  0.88356305  0.91622162  0.76240121  1
  Ca2+  Ca101  1  0.76397593  0.92744271  0.27316175  1
  Ca2+  Ca102  1  0.07185510  0.91339954  0.93093723  1
  Ca2+  Ca103  1  0.08187678  0.42543938  0.60981477  1
  Ca2+  Ca104  1  0.23054202  0.91321024  0.40558705  1
  Ca2+  Ca105  1  0.08235668  0.89767702  0.57441483  1
  Ca2+  Ca106  1  0.25834062  0.42093181  0.74395336  1
  Ca2+  Ca107  1  0.60600130  0.91122218  0.73604605  1
  Mn3.34+  Mn108  1  0.08859175  0.33734141  0.08381822  1
  Mn3.34+  Mn109  1  0.08167340  0.33058020  0.41744430  1
  Mn3.34+  Mn110  1  0.08185529  0.33318227  0.75092752  1
  Mn3.34+  Mn111  1  0.09324248  0.83133601  0.08805917  1
  Mn3.34+  Mn112  1  0.08214413  0.83468326  0.41515015  1
  Mn3.34+  Mn113  1  0.08045923  0.83212341  0.75172465  1
  Mn3.34+  Mn114  1  0.40974066  0.34026590  0.08748494  1
  Mn3.34+  Mn115  1  0.42195211  0.32700041  0.41959396  1
  Mn3.34+  Mn116  1  0.42463063  0.34100821  0.75167016  1
  Mn3.34+  Mn117  1  0.40651336  0.83147060  0.09319690  1
  Mn3.34+  Mn118  1  0.41476950  0.83764505  0.41334405  1
  Mn3.34+  Mn119  1  0.42203623  0.82705668  0.75327014  1
  Mn3.34+  Mn120  1  0.75015419  0.32955167  0.08113925  1
  Mn3.34+  Mn121  1  0.74976788  0.33076084  0.42090943  1
  Mn3.34+  Mn122  1  0.74894474  0.33081422  0.74837371  1
  Mn3.34+  Mn123  1  0.75038494  0.82758555  0.08779737  1
  Mn3.34+  Mn124  1  0.75332457  0.83583478  0.42357049  1
  Mn3.34+  Mn125  1  0.75099653  0.83063451  0.74998840  1
  Mn3.34+  Mn126  1  0.25580958  0.33182424  0.24697337  1
  Mn3.34+  Mn127  1  0.25261863  0.33478067  0.58071511  1
  Mn3.34+  Mn128  1  0.25320346  0.33636525  0.91710800  1
  Mn3.34+  Mn129  1  0.25172031  0.84111356  0.24804352  1
  Mn3.34+  Mn130  1  0.25081460  0.82883783  0.57570661  1
  Mn3.34+  Mn131  1  0.24998708  0.83188824  0.91844131  1
  Mn3.34+  Mn132  1  0.57949470  0.32625068  0.24598490  1
  Mn3.34+  Mn133  1  0.58312993  0.32852937  0.58913669  1
  Mn3.34+  Mn134  1  0.58822265  0.32944976  0.90954813  1
  Mn3.34+  Mn135  1  0.57973155  0.83647586  0.25259573  1
  Mn3.34+  Mn136  1  0.58289036  0.83106683  0.58173336  1
  Mn3.34+  Mn137  1  0.58892849  0.82605917  0.90936912  1
  Mn3.34+  Mn138  1  0.91750803  0.32807837  0.24805139  1
  Mn3.34+  Mn139  1  0.91891670  0.33469828  0.58456098  1
  Mn3.34+  Mn140  1  0.91120457  0.33099215  0.91356933  1
  Mn3.34+  Mn141  1  0.91826395  0.83265093  0.25044800  1
  Mn3.34+  Mn142  1  0.91416061  0.83037181  0.58204930  1
  Mn3.34+  Mn143  1  0.91325882  0.83477010  0.91371324  1
  Mn3.34+  Mn144  1  0.74961079  0.17680710  0.08474455  1
  Mn3.34+  Mn145  1  0.75838354  0.17074873  0.08700118  1
  Mn3.34+  Mn146  1  0.58025999  0.67567521  0.91706666  1
  Mn3.34+  Mn147  1  0.07982728  0.16979773  0.74668213  1
  Mn3.34+  Mn148  1  0.08627145  0.66728900  0.08097945  1
  Mn3.34+  Mn149  1  0.92129478  0.16405178  0.91108625  1
  Mn3.34+  Mn150  1  0.25587073  0.66581014  0.24407299  1
  Mn3.34+  Mn151  1  0.57792923  0.16653222  0.25824692  1
  Mn3.34+  Mn152  1  0.90652700  0.65915604  0.58382768  1
  Mn3.34+  Mn153  1  0.08296237  0.16016976  0.41720754  1
  Mn3.34+  Mn154  1  0.92294333  0.16399345  0.57734312  1
  Mn3.34+  Mn155  1  0.25083214  0.65819100  0.92161993  1
  Mn3.34+  Mn156  1  0.07736992  0.66833387  0.42446929  1
  Mn3.34+  Mn157  1  0.24885150  0.16717245  0.25188224  1
  Mn3.34+  Mn158  1  0.23974412  0.16474903  0.91689620  1
  Mn3.34+  Mn159  1  0.41104748  0.17048341  0.09128494  1
  Mn3.34+  Mn160  1  0.08757394  0.67402993  0.42197575  1
  Mn3.34+  Mn161  1  0.75481047  0.67229233  0.74900666  1
  Mn3.34+  Mn162  1  0.57094593  0.67006708  0.91530738  1
  Mn3.34+  Mn163  1  0.92341735  0.66832600  0.91077281  1
  Mn3.34+  Mn164  1  0.41424776  0.65763980  0.09378079  1
  Mn3.34+  Mn165  1  0.25071291  0.66515541  0.58232363  1
  Mn3.34+  Mn166  1  0.75313108  0.67607113  0.08411715  1
  Mn3.34+  Mn167  1  0.08564920  0.16585732  0.08769954  1
  Mn3.34+  Mn168  1  0.41331273  0.16288964  0.41235440  1
  Mn3.34+  Mn169  1  0.74288068  0.67658123  0.09047314  1
  Mn3.34+  Mn170  1  0.42155736  0.17154969  0.75117113  1
  Mn3.34+  Mn171  1  0.74942537  0.15651693  0.42291753  1
  Mn3.34+  Mn172  1  0.91332604  0.16966839  0.57848074  1
  Mn3.34+  Mn173  1  0.24872468  0.16990731  0.57598689  1
  Mn3.34+  Mn174  1  0.41033752  0.66863686  0.75247809  1
  Mn3.34+  Mn175  1  0.91531029  0.66880397  0.25081848  1
  Mn3.34+  Mn176  1  0.91749382  0.16557826  0.24684859  1
  Mn3.34+  Mn177  1  0.74444039  0.66871991  0.42182323  1
  Mn3.34+  Mn178  1  0.26166720  0.65389949  0.92019818  1
  Mn3.34+  Mn179  1  0.25249016  0.17157239  0.91864595  1
  Mn3.34+  Mn180  1  0.91573590  0.49863575  0.91427971  1
  Mn3.34+  Mn181  1  0.26284057  -0.00005443  0.92473514  1
  Mn3.34+  Mn182  1  0.09379539  0.50563254  0.41557009  1
  Mn3.34+  Mn183  1  0.75079092  0.49899102  0.74842061  1
  Mn3.34+  Mn184  1  0.91496635  0.49600023  0.24985880  1
  Mn3.34+  Mn185  1  0.57860785  0.49120512  0.58504160  1
  Mn3.34+  Mn186  1  0.41829723  0.49692838  0.41483895  1
  Mn3.34+  Mn187  1  0.41567268  -0.00019037  0.39838399  1
  Mn3.34+  Mn188  1  0.07851222  0.50074006  0.41718255  1
  Mn3.34+  Mn189  1  0.42856662  0.00107357  0.75040808  1
  Mn3.34+  Mn190  1  0.26941851  0.49876868  0.24963188  1
  Mn3.34+  Mn191  1  0.57739254  0.49671075  0.91268789  1
  Mn3.34+  Mn192  1  0.58111450  -0.00306658  0.90621098  1
  Mn3.34+  Mn193  1  0.24674973  0.00033558  0.26379226  1
  Mn3.34+  Mn194  1  0.73694745  0.49962479  0.08461913  1
  Mn3.34+  Mn195  1  0.09960163  -0.00354676  0.09561044  1
  Mn3.34+  Mn196  1  0.76457297  0.49350597  0.74478946  1
  Mn3.34+  Mn197  1  0.56505209  0.50326785  0.91124759  1
  Mn3.34+  Mn198  1  0.25220817  0.00061288  0.58157242  1
  Mn3.34+  Mn199  1  0.24878116  0.00564111  0.92318755  1
  Mn3.34+  Mn200  1  0.91507588  0.00601142  0.58228634  1
  Mn3.34+  Mn201  1  0.56763907  0.49509080  0.58334941  1
  Mn3.34+  Mn202  1  0.57308437  0.00480790  0.25898599  1
  Mn3.34+  Mn203  1  0.90063899  0.50217238  0.25052652  1
  Mn3.34+  Mn204  1  0.06557192  0.00351938  0.75362100  1
  Mn3.34+  Mn205  1  0.90440610  0.00102026  0.58358433  1
  Mn3.34+  Mn206  1  0.58372309  0.49949173  0.23992128  1
  Mn3.34+  Mn207  1  0.74139514  0.50071962  0.41740127  1
  Mn3.34+  Mn208  1  0.08076192  0.00788022  0.75213525  1
  Mn3.34+  Mn209  1  0.75169239  0.50525890  0.08529024  1
  Mn3.34+  Mn210  1  0.74407889  0.00088107  0.08930177  1
  Mn3.34+  Mn211  1  0.41346788  -0.00143747  0.09493147  1
  Mn3.34+  Mn212  1  0.57033593  0.49314504  0.24024352  1
  Mn3.34+  Mn213  1  0.58406138  0.00033719  0.59613411  1
  Mn3.34+  Mn214  1  0.59298871  0.00164619  0.90700332  1
  Mn3.34+  Mn215  1  0.09705669  0.50088728  0.06181739  1
  O2-  O216  1  0.00081996  0.15269947  0.00632160  1
  O2-  O217  1  -0.00361867  0.15213603  0.33200052  1
  O2-  O218  1  -0.00960268  0.14458866  0.67067029  1
  O2-  O219  1  0.00073257  0.65200207  -0.00552179  1
  O2-  O220  1  0.00392292  0.63738774  0.33499417  1
  O2-  O221  1  -0.00574494  0.66243970  0.65919827  1
  O2-  O222  1  0.33630691  0.15259224  -0.00331929  1
  O2-  O223  1  0.32547482  0.16890287  0.33752796  1
  O2-  O224  1  0.33901461  0.15327980  0.65967950  1
  O2-  O225  1  0.33563631  0.66207909  0.00283629  1
  O2-  O226  1  0.33245769  0.66999646  0.32534084  1
  O2-  O227  1  0.32286531  0.67220844  0.67582111  1
  O2-  O228  1  0.66977491  0.16053097  0.00474652  1
  O2-  O229  1  0.67290004  0.16131459  0.33548542  1
  O2-  O230  1  0.66412666  0.16961631  0.67690939  1
  O2-  O231  1  0.66863559  0.65638636  -0.00249857  1
  O2-  O232  1  0.66514367  0.66462792  0.34259408  1
  O2-  O233  1  0.66157156  0.66786620  0.68356529  1
  O2-  O234  1  0.17259156  0.14817388  0.00690431  1
  O2-  O235  1  0.16335389  0.15211051  0.33037152  1
  O2-  O236  1  0.17225120  0.15511215  0.66674743  1
  O2-  O237  1  0.16326339  0.64581409  -0.00483318  1
  O2-  O238  1  0.17014997  0.65301262  0.33844779  1
  O2-  O239  1  0.16754619  0.65737240  0.66373246  1
  O2-  O240  1  0.49610241  0.16936798  0.01250169  1
  O2-  O241  1  0.49392820  0.18157121  0.33618075  1
  O2-  O242  1  0.49760148  0.16205130  0.67243940  1
  O2-  O243  1  0.49883410  0.66669855  0.00513006  1
  O2-  O244  1  0.50050968  0.66529234  0.34064979  1
  O2-  O245  1  0.48699458  0.67214580  0.66775865  1
  O2-  O246  1  0.83974777  0.16015888  0.00671790  1
  O2-  O247  1  0.83173679  0.16265223  0.32908372  1
  O2-  O248  1  0.82864655  0.15226800  0.65021357  1
  O2-  O249  1  0.83237477  0.65563119  -0.00006058  1
  O2-  O250  1  0.83054073  0.65500346  0.32838859  1
  O2-  O251  1  0.83351788  0.69288332  0.66783506  1
  O2-  O252  1  0.00799071  0.34394394  -0.00172446  1
  O2-  O253  1  -0.00041058  0.35210777  0.33226829  1
  O2-  O254  1  0.00614136  0.34655188  0.66422818  1
  O2-  O255  1  -0.00538485  0.84731135  0.00334911  1
  O2-  O256  1  0.00003724  0.84872246  0.33183449  1
  O2-  O257  1  -0.00101198  0.83362259  0.66710013  1
  O2-  O258  1  0.33521579  0.32943832  0.00055289  1
  O2-  O259  1  0.33315855  0.32778810  0.33998759  1
  O2-  O260  1  0.32805243  0.34747247  0.66876754  1
  O2-  O261  1  0.33561392  0.84014110  -0.00272875  1
  O2-  O262  1  0.32692744  0.83596188  0.33944342  1
  O2-  O263  1  0.33423065  0.83119730  0.66686137  1
  O2-  O264  1  0.66163851  0.32984797  0.00594270  1
  O2-  O265  1  0.66915914  0.33864815  0.33274202  1
  O2-  O266  1  0.67483428  0.34181092  0.65715383  1
  O2-  O267  1  0.66701022  0.82006877  0.00106800  1
  O2-  O268  1  0.67309343  0.85384491  0.32826624  1
  O2-  O269  1  0.66948983  0.83375462  0.66346784  1
  O2-  O270  1  0.16503426  0.35129536  -0.00487517  1
  O2-  O271  1  0.17008080  0.34763870  0.34225405  1
  O2-  O272  1  0.16920779  0.35169281  0.66698674  1
  O2-  O273  1  0.15798591  0.84784924  -0.01046469  1
  O2-  O274  1  0.17058028  0.83146066  0.33562184  1
  O2-  O275  1  0.16959492  0.84116131  0.66668945  1
  O2-  O276  1  0.49276225  0.32876752  0.00255691  1
  O2-  O277  1  0.50072944  0.32795293  0.33400077  1
  O2-  O278  1  0.49839436  0.33928067  0.66491815  1
  O2-  O279  1  0.50906518  0.83977156  -0.00484916  1
  O2-  O280  1  0.50607695  0.85496237  0.33966607  1
  O2-  O281  1  0.50594071  0.84391933  0.67138928  1
  O2-  O282  1  0.84121975  0.33085980  0.00756732  1
  O2-  O283  1  0.83164413  0.33035650  0.33378464  1
  O2-  O284  1  0.83476073  0.33721929  0.66228605  1
  O2-  O285  1  0.83558154  0.83808852  0.00712386  1
  O2-  O286  1  0.83710799  0.85027158  0.34007477  1
  O2-  O287  1  0.83226821  0.83000788  0.66795824  1
  O2-  O288  1  -0.00282536  0.17899261  0.16142057  1
  O2-  O289  1  0.00285551  0.18298396  0.50049936  1
  O2-  O290  1  0.00004471  0.18217249  0.82857835  1
  O2-  O291  1  0.00468943  0.67331694  0.17067101  1
  O2-  O292  1  -0.00417440  0.69317712  0.50204180  1
  O2-  O293  1  -0.00005488  0.67053561  0.83411306  1
  O2-  O294  1  0.32448552  0.18489094  0.16311833  1
  O2-  O295  1  0.33348063  0.18331175  0.50088439  1
  O2-  O296  1  0.32695892  0.17952175  0.83003547  1
  O2-  O297  1  0.32879438  0.68686974  0.16479469  1
  O2-  O298  1  0.33156567  0.68097931  0.50901852  1
  O2-  O299  1  0.33611000  0.68792758  0.83800218  1
  O2-  O300  1  0.66213102  0.18265256  0.15887573  1
  O2-  O301  1  0.68205929  0.17759600  0.50091703  1
  O2-  O302  1  0.67272619  0.17322145  0.81983948  1
  O2-  O303  1  0.67037261  0.68771007  0.17000990  1
  O2-  O304  1  0.66459212  0.67722589  0.49428158  1
  O2-  O305  1  0.67751802  0.68067292  0.84585224  1
  O2-  O306  1  0.16741299  0.17640444  0.16621860  1
  O2-  O307  1  0.16869025  0.17923309  0.49512963  1
  O2-  O308  1  0.17015607  0.18183679  0.82732123  1
  O2-  O309  1  0.15942030  0.68273433  0.17726614  1
  O2-  O310  1  0.16846202  0.69291729  0.50773768  1
  O2-  O311  1  0.17498333  0.66626221  0.83541898  1
  O2-  O312  1  0.50255600  0.18348372  0.16443370  1
  O2-  O313  1  0.48682991  0.17974156  0.49772375  1
  O2-  O314  1  0.49190229  0.18157695  0.83324303  1
  O2-  O315  1  0.48516350  0.67533839  0.17484208  1
  O2-  O316  1  0.49828728  0.67394596  0.49468151  1
  O2-  O317  1  0.50451288  0.68841203  0.82113543  1
  O2-  O318  1  0.83280174  0.19293428  0.16775239  1
  O2-  O319  1  0.84015751  0.19017366  0.48849445  1
  O2-  O320  1  0.83690847  0.17762956  0.83999149  1
  O2-  O321  1  0.84090885  0.68997444  0.15787568  1
  O2-  O322  1  0.83540482  0.68046960  0.49796549  1
  O2-  O323  1  0.83074686  0.68179442  0.83930891  1
  O2-  O324  1  -0.00148397  0.32728265  0.16318935  1
  O2-  O325  1  0.00083615  0.31852374  0.49802414  1
  O2-  O326  1  0.00641350  0.32574441  0.83756936  1
  O2-  O327  1  -0.00517912  0.82409522  0.16037358  1
  O2-  O328  1  0.00088168  0.81771814  0.50491263  1
  O2-  O329  1  0.01120286  0.82509315  0.84614916  1
  O2-  O330  1  0.33503840  0.31324588  0.16549675  1
  O2-  O331  1  0.33005025  0.31685185  0.49560222  1
  O2-  O332  1  0.33095914  0.32043741  0.83528232  1
  O2-  O333  1  0.33423220  0.81251933  0.17679714  1
  O2-  O334  1  0.33898257  0.81808212  0.50310947  1
  O2-  O335  1  0.32937262  0.81588855  0.82727370  1
  O2-  O336  1  0.66951084  0.31688671  0.16510491  1
  O2-  O337  1  0.66718352  0.31428679  0.49670417  1
  O2-  O338  1  0.66298411  0.32113174  0.82558358  1
  O2-  O339  1  0.65952249  0.81947005  0.16210541  1
  O2-  O340  1  0.66007896  0.82616256  0.49353428  1
  O2-  O341  1  0.66697190  0.80332997  0.82502573  1
  O2-  O342  1  0.16245901  0.32423940  0.17244149  1
  O2-  O343  1  0.16851428  0.32056627  0.49629009  1
  O2-  O344  1  0.16457003  0.32537169  0.83431289  1
  O2-  O345  1  0.17273403  0.81296126  0.16707212  1
  O2-  O346  1  0.16438826  0.81408760  0.50262613  1
  O2-  O347  1  0.17301761  0.83610496  0.82615610  1
  O2-  O348  1  0.49894122  0.31564319  0.15893974  1
  O2-  O349  1  0.50519441  0.31495985  0.49695833  1
  O2-  O350  1  0.49447250  0.33027750  0.83951506  1
  O2-  O351  1  0.50285724  0.82670521  0.16349587  1
  O2-  O352  1  0.50152184  0.83664752  0.49971698  1
  O2-  O353  1  0.49684246  0.80683363  0.83947462  1
  O2-  O354  1  0.83075970  0.31312796  0.16853348  1
  O2-  O355  1  0.83742968  0.32075542  0.49851014  1
  O2-  O356  1  0.83200934  0.31867593  0.83542471  1
  O2-  O357  1  0.83004531  0.81286331  0.16994550  1
  O2-  O358  1  0.82561168  0.81544454  0.50874127  1
  O2-  O359  1  0.84088285  0.81699437  0.82412002  1
  O2-  O360  1  0.07889084  0.07912761  0.11979456  1
  O2-  O361  1  0.08330067  0.08160702  0.43154233  1
  O2-  O362  1  0.09919166  0.08616498  0.77758892  1
  O2-  O363  1  0.07920485  0.57781510  0.11085342  1
  O2-  O364  1  0.09363404  0.58472857  0.46486911  1
  O2-  O365  1  0.09051154  0.57325611  0.76067692  1
  O2-  O366  1  0.43081291  0.08031922  0.11303292  1
  O2-  O367  1  0.40602861  0.07600652  0.44695695  1
  O2-  O368  1  0.39905634  0.08413823  0.77849962  1
  O2-  O369  1  0.40876510  0.58236124  0.12091902  1
  O2-  O370  1  0.42263481  0.57339227  0.44715604  1
  O2-  O371  1  0.42773366  0.59189145  0.76864452  1
  O2-  O372  1  0.74540820  0.08303215  0.11471901  1
  O2-  O373  1  0.76451605  0.08117644  0.44045304  1
  O2-  O374  1  0.74191248  0.07607937  0.76602677  1
  O2-  O375  1  0.75076790  0.58472566  0.12274321  1
  O2-  O376  1  0.74956300  0.58250761  0.43659362  1
  O2-  O377  1  0.74705162  0.58012496  0.78170212  1
  O2-  O378  1  0.25216913  0.07932239  0.22919302  1
  O2-  O379  1  0.26274387  0.08386547  0.56040776  1
  O2-  O380  1  0.25393895  0.08171841  0.87213664  1
  O2-  O381  1  0.23673732  0.57981092  0.22138235  1
  O2-  O382  1  0.24398127  0.58594257  0.55869740  1
  O2-  O383  1  0.25651285  0.57500493  0.88070872  1
  O2-  O384  1  0.58910728  0.08461309  0.21420275  1
  O2-  O385  1  0.57931641  0.07530855  0.55673994  1
  O2-  O386  1  0.58913937  0.08401598  0.91522924  1
  O2-  O387  1  0.58425745  0.57929996  0.22437576  1
  O2-  O388  1  0.56819034  0.57965785  0.56991767  1
  O2-  O389  1  0.59324346  0.58166549  0.86927608  1
  O2-  O390  1  0.90583888  0.08648983  0.20888227  1
  O2-  O391  1  0.91331657  0.08242750  0.53324941  1
  O2-  O392  1  0.90345469  0.08219233  0.90513942  1
  O2-  O393  1  0.91288581  0.58013253  0.21033897  1
  O2-  O394  1  0.94386490  0.58555918  0.54814817  1
  O2-  O395  1  0.89892998  0.58092561  0.87933002  1
  O2-  O396  1  0.07281863  0.42588056  0.11023449  1
  O2-  O397  1  0.08131281  0.41904552  0.44610045  1
  O2-  O398  1  0.09496980  0.41899344  0.76883063  1
  O2-  O399  1  0.07326287  0.91409130  0.10026395  1
  O2-  O400  1  0.08803108  0.91395381  0.44289445  1
  O2-  O401  1  0.07425446  0.92101843  0.78071897  1
  O2-  O402  1  0.42529496  0.41634881  0.09278377  1
  O2-  O403  1  0.40980847  0.41605882  0.43832863  1
  O2-  O404  1  0.40066120  0.41832143  0.78270558  1
  O2-  O405  1  0.43711025  0.91656951  0.09178885  1
  O2-  O406  1  0.41425002  0.92366593  0.44658848  1
  O2-  O407  1  0.40728167  0.91670916  0.78127230  1
  O2-  O408  1  0.75496702  0.41893541  0.10857049  1
  O2-  O409  1  0.74891372  0.42032855  0.44668031  1
  O2-  O410  1  0.75475464  0.41452010  0.76341723  1
  O2-  O411  1  0.73907003  0.91937874  0.11902940  1
  O2-  O412  1  0.73600960  0.91944016  0.44491194  1
  O2-  O413  1  0.74407009  0.90928878  0.76716665  1
  O2-  O414  1  0.24952053  0.41504649  0.24656946  1
  O2-  O415  1  0.23749473  0.41736456  0.54828729  1
  O2-  O416  1  0.24894759  0.41776793  0.88517040  1
  O2-  O417  1  0.25174857  0.92628685  0.22759673  1
  O2-  O418  1  0.25262628  0.91746318  0.56096265  1
  O2-  O419  1  0.26577936  0.92356573  0.87621419  1
  O2-  O420  1  0.58844598  0.41319552  0.21702976  1
  O2-  O421  1  0.59348084  0.41292768  0.55078543  1
  O2-  O422  1  0.58058532  0.41567718  0.91681952  1
  O2-  O423  1  0.58755105  0.92310197  0.21461771  1
  O2-  O424  1  0.58689876  0.92048354  0.56006297  1
  O2-  O425  1  0.57846340  0.91650089  0.87589984  1
  O2-  O426  1  0.89786730  0.41511715  0.22271341  1
  O2-  O427  1  0.92711279  0.41474769  0.55726358  1
  O2-  O428  1  0.93579719  0.41716653  0.91127095  1
  O2-  O429  1  0.89680034  0.91585762  0.21502066  1
  O2-  O430  1  0.91039381  0.91987176  0.54871306  1
  O2-  O431  1  0.92834733  0.92005843  0.89415791  1
  O2-  O432  1  -0.00159102  -0.00602278  0.02659284  1
  O2-  O433  1  -0.01179234  0.00836581  0.33745015  1
  O2-  O434  1  0.00891092  -0.00754904  0.65233770  1
  O2-  O435  1  -0.00933001  0.51214473  0.00346935  1
  O2-  O436  1  -0.00311303  0.51532382  0.33343020  1
  O2-  O437  1  0.01109065  0.50579110  0.63547114  1
  O2-  O438  1  0.32547206  0.01341378  0.01846139  1
  O2-  O439  1  0.30581429  -0.00058960  0.36339659  1
  O2-  O440  1  0.31520835  -0.00406309  0.69515094  1
  O2-  O441  1  0.34967452  0.49871403  -0.00487562  1
  O2-  O442  1  0.30486783  0.50013172  0.37276538  1
  O2-  O443  1  0.31344315  0.50633983  0.70981730  1
  O2-  O444  1  0.65822114  -0.00960993  0.00947851  1
  O2-  O445  1  0.68311974  -0.00408813  0.30504760  1
  O2-  O446  1  0.67688858  -0.00999869  0.65053433  1
  O2-  O447  1  0.66589407  0.52003861  -0.00823510  1
  O2-  O448  1  0.67613435  0.49571475  0.31495157  1
  O2-  O449  1  0.67026490  0.50550016  0.66096723  1
  O2-  O450  1  0.15595685  -0.01229479  -0.01251915  1
  O2-  O451  1  0.15837019  0.00278894  0.32365423  1
  O2-  O452  1  0.17001101  -0.00326446  0.67659058  1
  O2-  O453  1  0.14302075  0.49586776  -0.04090135  1
  O2-  O454  1  0.14673636  0.50454035  0.30995311  1
  O2-  O455  1  0.16512472  0.50205184  0.65899548  1
  O2-  O456  1  0.49968759  0.00567790  -0.00059204  1
  O2-  O457  1  0.52772448  -0.00639526  0.37054859  1
  O2-  O458  1  0.47517652  -0.00066483  0.63455566  1
  O2-  O459  1  0.48499755  0.49733501  -0.00947312  1
  O2-  O460  1  0.49866394  0.50500700  0.33050017  1
  O2-  O461  1  0.50069899  0.51108815  0.67381331  1
  O2-  O462  1  0.85277543  -0.00164297  0.05150732  1
  O2-  O463  1  0.84250739  -0.00312006  0.33151795  1
  O2-  O464  1  0.84848504  0.00149327  0.68416062  1
  O2-  O465  1  0.82471940  0.51661208  -0.00779069  1
  O2-  O466  1  0.84378818  0.49632669  0.35426643  1
  O2-  O467  1  0.85200810  0.51705830  0.68420073  1
  O2-  O468  1  0.24394489  0.25166894  0.60746494  1
  O2-  O469  1  0.59733527  0.24824820  0.26984702  1
  O2-  O470  1  0.08751529  0.25157978  0.72275627  1
  O2-  O471  1  0.08219853  0.74976897  0.05384008  1
  O2-  O472  1  0.75430385  0.75359391  0.39735554  1
  O2-  O473  1  0.92893980  0.24944214  0.93705368  1
  O2-  O474  1  0.93487174  0.24902633  0.27198219  1
  O2-  O475  1  0.23897733  0.74264927  0.93938126  1
  O2-  O476  1  0.75321136  0.25145458  0.73708417  1
  O2-  O477  1  0.57830899  0.75848152  0.27279304  1
  O2-  O478  1  0.41625621  0.75223401  0.06667114  1
  O2-  O479  1  0.58365560  0.25038365  0.60315042  1
  O2-  O480  1  0.23494046  0.25225989  0.94181065  1
  O2-  O481  1  0.23442250  0.24962567  0.26980072  1
  O2-  O482  1  0.92960286  0.24966258  0.61275447  1
  O2-  O483  1  0.08739411  0.75279204  0.74538351  1
  O2-  O484  1  0.57869473  0.75300463  0.58875874  1
  O2-  O485  1  0.08187937  0.25016742  0.39077752  1
  O2-  O486  1  0.06777839  0.75111045  0.38281814  1
  O2-  O487  1  0.92867107  0.75125588  0.27806112  1
  O2-  O488  1  0.08862404  0.24917250  0.06090071  1
  O2-  O489  1  0.40634123  0.25291068  0.73160990  1
  O2-  O490  1  0.42670809  0.75872866  0.40486590  1
  O2-  O491  1  0.58572335  0.25119612  0.92133881  1
  O2-  O492  1  0.92187736  0.74982901  0.93824699  1
