# generated using pymatgen
data_Ca108Mn108O277
_symmetry_space_group_name_H-M   'P 1'
_cell_length_a   16.02854704
_cell_length_b   22.30713813
_cell_length_c   16.38956132
_cell_angle_alpha   90.00613594
_cell_angle_beta   90.00129825
_cell_angle_gamma   90.00445622
_symmetry_Int_Tables_number   1
_chemical_formula_structural   Ca108Mn108O277
_chemical_formula_sum   'Ca108 Mn108 O277'
_cell_volume   5860.10419746
_cell_formula_units_Z   1
loop_
 _symmetry_equiv_pos_site_id
 _symmetry_equiv_pos_as_xyz
  1  'x, y, z'
loop_
 _atom_type_symbol
 _atom_type_oxidation_number
  Ca2+  2.0
  Mn3.34+  3.34
  O2-  -2.0
loop_
 _atom_site_type_symbol
 _atom_site_label
 _atom_site_symmetry_multiplicity
 _atom_site_fract_x
 _atom_site_fract_y
 _atom_site_fract_z
 _atom_site_occupancy
  Ca2+  Ca0  1  0.10139143  0.25112872  0.24967416  1
  Ca2+  Ca1  1  0.10057836  0.26056320  0.57688645  1
  Ca2+  Ca2  1  0.06128712  0.23510005  0.92494051  1
  Ca2+  Ca3  1  0.08770302  0.73981295  0.25691146  1
  Ca2+  Ca4  1  0.10002628  0.74423662  0.57201724  1
  Ca2+  Ca5  1  0.08704204  0.74346798  0.91829185  1
  Ca2+  Ca6  1  0.40506614  0.24500977  0.24929995  1
  Ca2+  Ca7  1  0.39637316  0.24478687  0.56197515  1
  Ca2+  Ca8  1  0.41562282  0.23367245  0.93533652  1
  Ca2+  Ca9  1  0.42249427  0.74715576  0.25925072  1
  Ca2+  Ca10  1  0.41220777  0.74617412  0.58914743  1
  Ca2+  Ca11  1  0.42206477  0.75757895  0.91148377  1
  Ca2+  Ca12  1  0.74705411  0.25377209  0.25007034  1
  Ca2+  Ca13  1  0.75417172  0.26777960  0.58007180  1
  Ca2+  Ca14  1  0.75990670  0.24238067  0.92998141  1
  Ca2+  Ca15  1  0.73765009  0.74994567  0.25236555  1
  Ca2+  Ca16  1  0.74631672  0.75160517  0.57973645  1
  Ca2+  Ca17  1  0.74162371  0.75783335  0.91759823  1
  Ca2+  Ca18  1  0.26544917  0.24691713  0.08801919  1
  Ca2+  Ca19  1  0.25888024  0.24536380  0.41954418  1
  Ca2+  Ca20  1  0.25388248  0.25246551  0.73317885  1
  Ca2+  Ca21  1  0.26336641  0.75497710  0.08042558  1
  Ca2+  Ca22  1  0.27544352  0.73630648  0.42032003  1
  Ca2+  Ca23  1  0.27826535  0.74570670  0.74509655  1
  Ca2+  Ca24  1  0.56898171  0.23877958  0.07713742  1
  Ca2+  Ca25  1  0.56417616  0.24654573  0.40839268  1
  Ca2+  Ca26  1  0.57721215  0.25676218  0.76518771  1
  Ca2+  Ca27  1  0.57226339  0.76786759  0.08311170  1
  Ca2+  Ca28  1  0.56769238  0.74798589  0.41590247  1
  Ca2+  Ca29  1  0.56033170  0.75020820  0.74787945  1
  Ca2+  Ca30  1  0.91035047  0.25036232  0.06520917  1
  Ca2+  Ca31  1  0.91548641  0.26877124  0.41657616  1
  Ca2+  Ca32  1  0.91839872  0.26243123  0.75997664  1
  Ca2+  Ca33  1  0.91037833  0.75438774  0.08307756  1
  Ca2+  Ca34  1  0.92148817  0.74735586  0.41672727  1
  Ca2+  Ca35  1  0.91651234  0.75353136  0.74980458  1
  Ca2+  Ca36  1  0.73264401  0.57705896  0.25855129  1
  Ca2+  Ca37  1  0.91595946  0.58649400  0.08108153  1
  Ca2+  Ca38  1  0.75038533  0.59408716  0.59510350  1
  Ca2+  Ca39  1  0.89644075  0.08914530  0.76607220  1
  Ca2+  Ca40  1  0.41678903  0.60480820  0.58608091  1
  Ca2+  Ca41  1  0.26706716  0.10751006  0.41034405  1
  Ca2+  Ca42  1  0.40610357  0.11254614  0.26186091  1
  Ca2+  Ca43  1  0.25342072  0.60133669  0.74781914  1
  Ca2+  Ca44  1  0.27110424  0.59361103  0.41254897  1
  Ca2+  Ca45  1  0.24849965  0.59497701  0.08293319  1
  Ca2+  Ca46  1  0.91223096  0.59352947  0.75051443  1
  Ca2+  Ca47  1  0.60083800  0.06795283  0.75085156  1
  Ca2+  Ca48  1  0.92500858  0.59457239  0.74992249  1
  Ca2+  Ca49  1  0.73571657  0.07151694  0.58907431  1
  Ca2+  Ca50  1  0.90198008  0.09372084  0.42168197  1
  Ca2+  Ca51  1  0.91459675  0.09314777  0.42126996  1
  Ca2+  Ca52  1  0.40683536  0.58730418  0.25066730  1
  Ca2+  Ca53  1  0.91688082  0.58547860  0.40543589  1
  Ca2+  Ca54  1  0.74367519  0.57903371  0.25751353  1
  Ca2+  Ca55  1  0.27588588  0.10604749  0.08725068  1
  Ca2+  Ca56  1  0.08910633  0.59285646  0.59199679  1
  Ca2+  Ca57  1  0.40379754  0.59750084  0.91156257  1
  Ca2+  Ca58  1  0.90785608  0.08769208  0.76551537  1
  Ca2+  Ca59  1  0.41726764  0.58724396  0.24926867  1
  Ca2+  Ca60  1  0.12305358  0.10758660  0.24739782  1
  Ca2+  Ca61  1  0.57726446  0.59710706  0.73561338  1
  Ca2+  Ca62  1  0.41549006  0.59679324  0.91132371  1
  Ca2+  Ca63  1  0.90395713  0.58454287  0.40657877  1
  Ca2+  Ca64  1  0.73117855  0.10126772  0.24377483  1
  Ca2+  Ca65  1  0.56206216  0.59419752  0.41532968  1
  Ca2+  Ca66  1  0.56918110  0.58867957  0.41618253  1
  Ca2+  Ca67  1  0.90508450  0.09437041  0.03672935  1
  Ca2+  Ca68  1  0.28581371  0.10516128  0.09124910  1
  Ca2+  Ca69  1  0.74551586  0.07446070  0.59240142  1
  Ca2+  Ca70  1  0.10369187  0.11175716  0.57074761  1
  Ca2+  Ca71  1  0.26110785  0.08883523  0.76710297  1
  Ca2+  Ca72  1  0.09509281  0.89657226  0.24784647  1
  Ca2+  Ca73  1  0.60127777  0.40791224  0.75159817  1
  Ca2+  Ca74  1  0.72890708  0.91927027  0.60853609  1
  Ca2+  Ca75  1  0.89533059  0.90933248  0.74539008  1
  Ca2+  Ca76  1  0.07915039  0.40133061  0.25792250  1
  Ca2+  Ca77  1  0.08815378  0.89812704  0.58624050  1
  Ca2+  Ca78  1  0.41743674  0.90164847  0.25226347  1
  Ca2+  Ca79  1  0.25681664  0.41093156  0.08846456  1
  Ca2+  Ca80  1  0.91121459  0.90914568  0.41647739  1
  Ca2+  Ca81  1  0.76152302  0.40889285  0.25171522  1
  Ca2+  Ca82  1  0.25194079  0.40161271  0.41659797  1
  Ca2+  Ca83  1  0.28132801  0.90855698  0.40834052  1
  Ca2+  Ca84  1  0.54477826  0.92261544  0.43081798  1
  Ca2+  Ca85  1  0.89927492  0.90687605  0.41970122  1
  Ca2+  Ca86  1  0.74057347  0.40721972  0.92076017  1
  Ca2+  Ca87  1  0.23992702  0.40697468  0.74029892  1
  Ca2+  Ca88  1  0.07211472  0.40325902  0.90991077  1
  Ca2+  Ca89  1  0.08353086  0.40319501  0.91094918  1
  Ca2+  Ca90  1  0.27153718  0.90504581  0.40660931  1
  Ca2+  Ca91  1  0.59082197  0.41037374  0.74916901  1
  Ca2+  Ca92  1  0.75092205  0.40874830  0.25177128  1
  Ca2+  Ca93  1  0.75350964  0.90528300  0.24462392  1
  Ca2+  Ca94  1  0.91065514  0.90719755  0.07890527  1
  Ca2+  Ca95  1  0.91265900  0.41051296  0.73638705  1
  Ca2+  Ca96  1  0.39859051  0.91274820  0.91890442  1
  Ca2+  Ca97  1  0.07525691  0.89789568  0.58638854  1
  Ca2+  Ca98  1  0.43612467  0.41027611  0.91753123  1
  Ca2+  Ca99  1  0.09366481  0.89867871  0.92415986  1
  Ca2+  Ca100  1  0.10474227  0.90290942  0.92128621  1
  Ca2+  Ca101  1  0.42677262  0.40560139  0.91830506  1
  Ca2+  Ca102  1  0.58368285  0.91135408  0.73997087  1
  Ca2+  Ca103  1  0.74078515  0.90546865  0.24368861  1
  Ca2+  Ca104  1  0.73715814  0.91091827  0.90640416  1
  Ca2+  Ca105  1  0.42250139  0.40692177  0.25772865  1
  Ca2+  Ca106  1  0.58342579  0.40160586  0.41351027  1
  Ca2+  Ca107  1  0.26643160  0.41514341  0.09088008  1
  Mn3.34+  Mn108  1  0.08111334  0.33155422  0.08885827  1
  Mn3.34+  Mn109  1  0.08004264  0.33176851  0.41822586  1
  Mn3.34+  Mn110  1  0.08263551  0.33591332  0.74318907  1
  Mn3.34+  Mn111  1  0.08660257  0.82640036  0.08802627  1
  Mn3.34+  Mn112  1  0.08549979  0.82932579  0.41627535  1
  Mn3.34+  Mn113  1  0.08741838  0.82141447  0.75453502  1
  Mn3.34+  Mn114  1  0.42429747  0.33323750  0.09002724  1
  Mn3.34+  Mn115  1  0.41669940  0.33097662  0.41798051  1
  Mn3.34+  Mn116  1  0.41520218  0.33262971  0.74445296  1
  Mn3.34+  Mn117  1  0.41556161  0.83769053  0.08342600  1
  Mn3.34+  Mn118  1  0.42152981  0.82694798  0.42122959  1
  Mn3.34+  Mn119  1  0.41651539  0.83507240  0.74794642  1
  Mn3.34+  Mn120  1  0.74763837  0.33558602  0.08342207  1
  Mn3.34+  Mn121  1  0.75005815  0.33319844  0.41946481  1
  Mn3.34+  Mn122  1  0.75317726  0.33516006  0.74729756  1
  Mn3.34+  Mn123  1  0.74335875  0.83591734  0.07894148  1
  Mn3.34+  Mn124  1  0.74076633  0.83093061  0.42471090  1
  Mn3.34+  Mn125  1  0.74475141  0.83101562  0.75223055  1
  Mn3.34+  Mn126  1  0.25031246  0.33990561  0.24872150  1
  Mn3.34+  Mn127  1  0.25127922  0.33555966  0.57920502  1
  Mn3.34+  Mn128  1  0.24979372  0.33111686  0.91333114  1
  Mn3.34+  Mn129  1  0.25416831  0.82754297  0.24459176  1
  Mn3.34+  Mn130  1  0.25750224  0.83231449  0.58568025  1
  Mn3.34+  Mn131  1  0.25478956  0.83457494  0.90904087  1
  Mn3.34+  Mn132  1  0.58443377  0.34089537  0.24583321  1
  Mn3.34+  Mn133  1  0.58085271  0.33408303  0.57927160  1
  Mn3.34+  Mn134  1  0.58598165  0.33134652  0.92067731  1
  Mn3.34+  Mn135  1  0.58046778  0.83215112  0.25146403  1
  Mn3.34+  Mn136  1  0.57847346  0.83838423  0.58169800  1
  Mn3.34+  Mn137  1  0.57817865  0.84091044  0.91520852  1
  Mn3.34+  Mn138  1  0.91768251  0.33974473  0.24787738  1
  Mn3.34+  Mn139  1  0.91944953  0.33537814  0.58164369  1
  Mn3.34+  Mn140  1  0.91166565  0.33607220  0.91826695  1
  Mn3.34+  Mn141  1  0.91644691  0.82945282  0.24574004  1
  Mn3.34+  Mn142  1  0.91294005  0.82494379  0.58501596  1
  Mn3.34+  Mn143  1  0.91638479  0.83005263  0.91234917  1
  Mn3.34+  Mn144  1  0.24508753  0.66955598  0.91787164  1
  Mn3.34+  Mn145  1  0.74769057  0.16958417  0.75401792  1
  Mn3.34+  Mn146  1  0.08721279  0.16908097  0.08223440  1
  Mn3.34+  Mn147  1  0.58108701  0.66285480  0.24674337  1
  Mn3.34+  Mn148  1  0.74351124  0.16813936  0.08117921  1
  Mn3.34+  Mn149  1  0.08755468  0.67244754  0.75412864  1
  Mn3.34+  Mn150  1  0.74316654  0.65988373  0.08488654  1
  Mn3.34+  Mn151  1  0.42447756  0.16399145  0.75332885  1
  Mn3.34+  Mn152  1  0.58782738  0.66849771  0.58078453  1
  Mn3.34+  Mn153  1  0.08736974  0.17425568  0.41539878  1
  Mn3.34+  Mn154  1  0.07958999  0.16811436  0.75134340  1
  Mn3.34+  Mn155  1  0.24740795  0.65964385  0.24372071  1
  Mn3.34+  Mn156  1  0.41165661  0.15697673  0.75343695  1
  Mn3.34+  Mn157  1  0.57005156  0.15906712  0.57696474  1
  Mn3.34+  Mn158  1  0.08676636  0.66558486  0.41529050  1
  Mn3.34+  Mn159  1  0.91927262  0.66048301  0.24158274  1
  Mn3.34+  Mn160  1  0.91410958  0.16493044  0.24104284  1
  Mn3.34+  Mn161  1  0.57919277  0.15832611  0.92577793  1
  Mn3.34+  Mn162  1  0.59174394  0.65836299  0.91407278  1
  Mn3.34+  Mn163  1  0.91655768  0.16930609  0.58182124  1
  Mn3.34+  Mn164  1  0.75393466  0.66522797  0.08330120  1
  Mn3.34+  Mn165  1  0.75016804  0.66996740  0.42108809  1
  Mn3.34+  Mn166  1  0.41734961  0.66843839  0.08685758  1
  Mn3.34+  Mn167  1  0.08187450  0.67547489  0.08706570  1
  Mn3.34+  Mn168  1  0.92134243  0.66866543  0.91617132  1
  Mn3.34+  Mn169  1  0.57811715  0.16931772  0.24351455  1
  Mn3.34+  Mn170  1  0.73743532  0.16450524  0.75596287  1
  Mn3.34+  Mn171  1  0.74394697  0.17124980  0.41608804  1
  Mn3.34+  Mn172  1  0.91934645  0.66906529  0.57946541  1
  Mn3.34+  Mn173  1  0.57945635  0.16468720  0.57957722  1
  Mn3.34+  Mn174  1  0.24840751  0.16341558  0.91861029  1
  Mn3.34+  Mn175  1  0.92556248  0.17000064  0.24538740  1
  Mn3.34+  Mn176  1  0.09026784  0.16431022  0.75453434  1
  Mn3.34+  Mn177  1  0.75222465  0.67570195  0.75294194  1
  Mn3.34+  Mn178  1  0.58213190  0.66368284  0.91694497  1
  Mn3.34+  Mn179  1  0.25197505  0.66379938  0.57968110  1
  Mn3.34+  Mn180  1  0.24167252  0.49969220  0.58477745  1
  Mn3.34+  Mn181  1  0.92021825  -0.00105289  0.59264876  1
  Mn3.34+  Mn182  1  0.56221305  -0.00102409  0.23717646  1
  Mn3.34+  Mn183  1  0.08673476  0.00477896  0.41439932  1
  Mn3.34+  Mn184  1  0.57469929  0.00360994  0.23874137  1
  Mn3.34+  Mn185  1  0.40783578  0.49974336  0.74015021  1
  Mn3.34+  Mn186  1  0.10366440  -0.00723388  0.76005530  1
  Mn3.34+  Mn187  1  0.41725915  0.49680910  0.40767895  1
  Mn3.34+  Mn188  1  0.41809669  0.50526575  0.74213147  1
  Mn3.34+  Mn189  1  0.41016801  -0.00285632  0.06896976  1
  Mn3.34+  Mn190  1  0.10057283  -0.00131944  0.07829404  1
  Mn3.34+  Mn191  1  0.42168883  -0.00412132  0.74360174  1
  Mn3.34+  Mn192  1  0.59389630  0.49677422  0.58687091  1
  Mn3.34+  Mn193  1  0.91486112  0.00141392  0.24947558  1
  Mn3.34+  Mn194  1  0.06969281  0.49850055  0.09637822  1
  Mn3.34+  Mn195  1  0.74878818  0.49875258  0.42763905  1
  Mn3.34+  Mn196  1  0.72957831  -0.00329666  0.41339432  1
  Mn3.34+  Mn197  1  0.44076971  0.50114220  0.07073642  1
  Mn3.34+  Mn198  1  0.08828604  0.00538152  0.07753495  1
  Mn3.34+  Mn199  1  0.09301600  -0.00295663  0.76055111  1
  Mn3.34+  Mn200  1  0.73597022  0.49855193  0.06112383  1
  Mn3.34+  Mn201  1  0.10040265  -0.00215438  0.41198132  1
  Mn3.34+  Mn202  1  0.08977191  0.50224216  0.40919711  1
  Mn3.34+  Mn203  1  0.08051451  0.49633011  0.40867976  1
  Mn3.34+  Mn204  1  0.27434887  0.00104944  0.58826927  1
  Mn3.34+  Mn205  1  0.07967658  0.50379544  0.09689554  1
  Mn3.34+  Mn206  1  0.58010201  0.00060892  0.93180959  1
  Mn3.34+  Mn207  1  0.91055735  -0.00864608  0.92347101  1
  Mn3.34+  Mn208  1  0.91595214  0.49797227  0.58461170  1
  Mn3.34+  Mn209  1  0.24620158  0.50035246  0.92165188  1
  Mn3.34+  Mn210  1  0.74061937  0.00499695  0.07079135  1
  Mn3.34+  Mn211  1  0.26073152  -0.00136364  0.25517768  1
  Mn3.34+  Mn212  1  0.26272885  0.00803652  0.58626651  1
  Mn3.34+  Mn213  1  0.90925287  0.50087375  0.92481453  1
  Mn3.34+  Mn214  1  0.08449705  0.50603094  0.74945233  1
  Mn3.34+  Mn215  1  0.75278521  0.50641062  0.75668299  1
  O2-  O216  1  -0.00133955  0.16513539  0.01220113  1
  O2-  O217  1  -0.00166277  0.14397363  0.33266887  1
  O2-  O218  1  -0.00317139  0.13966908  0.67186350  1
  O2-  O219  1  -0.00170445  0.69160429  0.00374711  1
  O2-  O220  1  -0.00801196  0.66052211  0.33727913  1
  O2-  O221  1  -0.00089399  0.67084007  0.66909803  1
  O2-  O222  1  0.33242639  0.16271157  -0.00593364  1
  O2-  O223  1  0.32621993  0.17777019  0.32956534  1
  O2-  O224  1  0.33319475  0.15374985  0.67524976  1
  O2-  O225  1  0.33025184  0.65535406  0.00515591  1
  O2-  O226  1  0.33362991  0.65865267  0.32036937  1
  O2-  O227  1  0.32609339  0.65847632  0.66310376  1
  O2-  O228  1  0.66538715  0.16918110  -0.00069651  1
  O2-  O229  1  0.66840729  0.17240228  0.32861116  1
  O2-  O230  1  0.66567876  0.14519906  0.66350579  1
  O2-  O231  1  0.67315541  0.64854375  -0.00761568  1
  O2-  O232  1  0.66409802  0.64915264  0.34028771  1
  O2-  O233  1  0.67386121  0.67402320  0.66396515  1
  O2-  O234  1  0.17246523  0.14899799  0.00665983  1
  O2-  O235  1  0.16766769  0.17238407  0.33706145  1
  O2-  O236  1  0.17112477  0.15440007  0.67692929  1
  O2-  O237  1  0.16929088  0.68457036  0.00610985  1
  O2-  O238  1  0.17569966  0.66860558  0.33396302  1
  O2-  O239  1  0.16184653  0.66175962  0.66471103  1
  O2-  O240  1  0.50169271  0.16076262  -0.00170886  1
  O2-  O241  1  0.50516490  0.18026199  0.32112467  1
  O2-  O242  1  0.50937715  0.14111505  0.67836891  1
  O2-  O243  1  0.49755697  0.64588826  0.00162992  1
  O2-  O244  1  0.49780734  0.64982946  0.32617851  1
  O2-  O245  1  0.50755332  0.66677581  0.65951842  1
  O2-  O246  1  0.82660632  0.16811174  0.00667117  1
  O2-  O247  1  0.83183092  0.14449113  0.33025425  1
  O2-  O248  1  0.82572918  0.14450738  0.66397737  1
  O2-  O249  1  0.84293539  0.66256021  0.00479544  1
  O2-  O250  1  0.82940340  0.65351137  0.33063667  1
  O2-  O251  1  0.83853549  0.67178787  0.66718593  1
  O2-  O252  1  0.00407357  0.34647519  -0.00236085  1
  O2-  O253  1  -0.00294790  0.34597357  0.33505666  1
  O2-  O254  1  -0.00660919  0.34173774  0.67396534  1
  O2-  O255  1  0.00404456  0.83805384  -0.00351259  1
  O2-  O256  1  -0.00442359  0.84592995  0.33593078  1
  O2-  O257  1  -0.00240212  0.83257410  0.67145180  1
  O2-  O258  1  0.33609089  0.35503031  0.00040051  1
  O2-  O259  1  0.33427369  0.34024602  0.32824066  1
  O2-  O260  1  0.32648810  0.34346276  0.67241477  1
  O2-  O261  1  0.33028050  0.83144994  -0.00585284  1
  O2-  O262  1  0.33802338  0.83271696  0.33070025  1
  O2-  O263  1  0.33629882  0.83656237  0.66461273  1
  O2-  O264  1  0.67133909  0.33940996  -0.00533920  1
  O2-  O265  1  0.66535455  0.32521993  0.32858260  1
  O2-  O266  1  0.66556843  0.34469939  0.66619679  1
  O2-  O267  1  0.66950042  0.84506443  -0.00913142  1
  O2-  O268  1  0.66739327  0.85330010  0.33437637  1
  O2-  O269  1  0.66597993  0.82611911  0.66434999  1
  O2-  O270  1  0.16940855  0.35843681  0.00454516  1
  O2-  O271  1  0.16596704  0.33310220  0.32772588  1
  O2-  O272  1  0.16673815  0.34041576  0.66546647  1
  O2-  O273  1  0.16411723  0.82636136  -0.00621856  1
  O2-  O274  1  0.17551117  0.84098733  0.33726081  1
  O2-  O275  1  0.16074451  0.83816787  0.66362850  1
  O2-  O276  1  0.50069376  0.34720302  0.00108068  1
  O2-  O277  1  0.50355066  0.33723726  0.33350070  1
  O2-  O278  1  0.50912131  0.34906115  0.67398623  1
  O2-  O279  1  0.49352667  0.84780998  -0.00403435  1
  O2-  O280  1  0.50424458  0.84611889  0.33909501  1
  O2-  O281  1  0.50676726  0.83761910  0.67105145  1
  O2-  O282  1  0.83025936  0.34739824  -0.00196670  1
  O2-  O283  1  0.82814642  0.34304101  0.32991273  1
  O2-  O284  1  0.83589749  0.33855028  0.67015559  1
  O2-  O285  1  0.83763007  0.83694330  -0.00155999  1
  O2-  O286  1  0.83264003  0.84486132  0.33291996  1
  O2-  O287  1  0.82953528  0.82038214  0.66772666  1
  O2-  O288  1  0.01599504  0.18465793  0.17541025  1
  O2-  O289  1  -0.00213134  0.17082074  0.49462014  1
  O2-  O290  1  -0.00678185  0.17095411  0.82335905  1
  O2-  O291  1  -0.00169865  0.69169049  0.16847588  1
  O2-  O292  1  0.00176492  0.68324030  0.50227316  1
  O2-  O293  1  -0.00119284  0.68834293  0.82955618  1
  O2-  O294  1  0.33357745  0.17587862  0.16830853  1
  O2-  O295  1  0.33365525  0.17346788  0.48843721  1
  O2-  O296  1  0.32857779  0.18234463  0.82942100  1
  O2-  O297  1  0.33151812  0.68670215  0.16593052  1
  O2-  O298  1  0.33417644  0.66941759  0.50491586  1
  O2-  O299  1  0.33477072  0.68410994  0.85334597  1
  O2-  O300  1  0.66691396  0.18749716  0.17072101  1
  O2-  O301  1  0.67251193  0.18123970  0.50954207  1
  O2-  O302  1  0.65653051  0.17961195  0.83277500  1
  O2-  O303  1  0.67757135  0.67348654  0.18114762  1
  O2-  O304  1  0.67149908  0.68310756  0.50013972  1
  O2-  O305  1  0.66381239  0.68839326  0.82618226  1
  O2-  O306  1  0.17505539  0.17748154  0.15723494  1
  O2-  O307  1  0.16011479  0.18620168  0.49582847  1
  O2-  O308  1  0.16513334  0.18648482  0.83720929  1
  O2-  O309  1  0.16870572  0.68482985  0.16521054  1
  O2-  O310  1  0.16778201  0.67549873  0.49616184  1
  O2-  O311  1  0.17491378  0.68867936  0.82677547  1
  O2-  O312  1  0.50085298  0.18601427  0.17406487  1
  O2-  O313  1  0.49578543  0.17778149  0.49868733  1
  O2-  O314  1  0.49755575  0.17789644  0.83520198  1
  O2-  O315  1  0.49349171  0.67596041  0.17415723  1
  O2-  O316  1  0.51198004  0.67146204  0.49715447  1
  O2-  O317  1  0.49706318  0.67677016  0.84131249  1
  O2-  O318  1  0.82802331  0.18050767  0.16978303  1
  O2-  O319  1  0.83763958  0.17440475  0.49180761  1
  O2-  O320  1  0.83993514  0.17876015  0.82079191  1
  O2-  O321  1  0.83412302  0.69167484  0.16841655  1
  O2-  O322  1  0.83806278  0.68747627  0.49843519  1
  O2-  O323  1  0.83636394  0.69216635  0.83255138  1
  O2-  O324  1  0.00606662  0.31936634  0.17499406  1
  O2-  O325  1  0.00463840  0.31912770  0.50601993  1
  O2-  O326  1  0.00425136  0.32867920  0.83558711  1
  O2-  O327  1  0.00016099  0.81287285  0.16835311  1
  O2-  O328  1  0.00316502  0.81756109  0.50871369  1
  O2-  O329  1  0.00239899  0.80800021  0.83697551  1
  O2-  O330  1  0.32966817  0.32410824  0.16451658  1
  O2-  O331  1  0.33004161  0.32785025  0.49426998  1
  O2-  O332  1  0.33773749  0.32788671  0.83840438  1
  O2-  O333  1  0.33800311  0.81431834  0.16968135  1
  O2-  O334  1  0.32325862  0.82306634  0.48714120  1
  O2-  O335  1  0.33665376  0.81981883  0.83423920  1
  O2-  O336  1  0.66959154  0.32343012  0.17180532  1
  O2-  O337  1  0.66175909  0.31742186  0.49400691  1
  O2-  O338  1  0.66206937  0.32991150  0.82713869  1
  O2-  O339  1  0.66873158  0.82131932  0.17517902  1
  O2-  O340  1  0.65857273  0.81089520  0.50404258  1
  O2-  O341  1  0.66464872  0.81785258  0.83071116  1
  O2-  O342  1  0.17340250  0.31687746  0.16449010  1
  O2-  O343  1  0.17271786  0.32030972  0.48873801  1
  O2-  O344  1  0.16126108  0.32561291  0.83578423  1
  O2-  O345  1  0.16505833  0.80874918  0.17368740  1
  O2-  O346  1  0.16174556  0.83063585  0.50758196  1
  O2-  O347  1  0.16744471  0.80937547  0.83784454  1
  O2-  O348  1  0.49661049  0.32003725  0.17693928  1
  O2-  O349  1  0.50096384  0.32007004  0.49739324  1
  O2-  O350  1  0.49956958  0.33005809  0.83218302  1
  O2-  O351  1  0.49509232  0.82236546  0.17701935  1
  O2-  O352  1  0.49683103  0.81513512  0.50684815  1
  O2-  O353  1  0.50053788  0.82289016  0.83309552  1
  O2-  O354  1  0.82653660  0.32606941  0.17374421  1
  O2-  O355  1  0.83490743  0.32754088  0.50081538  1
  O2-  O356  1  0.83248118  0.32969923  0.83241486  1
  O2-  O357  1  0.82704920  0.81866497  0.16964647  1
  O2-  O358  1  0.84124142  0.81714801  0.49347564  1
  O2-  O359  1  0.83157521  0.81619052  0.83147793  1
  O2-  O360  1  0.08282907  0.08167808  0.11804847  1
  O2-  O361  1  0.08824462  0.08559753  0.43721319  1
  O2-  O362  1  0.09612686  0.07908151  0.78370439  1
  O2-  O363  1  0.06692690  0.58709253  0.10417358  1
  O2-  O364  1  0.06943771  0.58037712  0.45171971  1
  O2-  O365  1  0.06553817  0.58592345  0.77600935  1
  O2-  O366  1  0.40739698  0.05871304  0.13713443  1
  O2-  O367  1  0.40340068  0.08461632  0.40940553  1
  O2-  O368  1  0.41238768  0.07650203  0.78442766  1
  O2-  O369  1  0.40657592  0.58173398  0.11326179  1
  O2-  O370  1  0.42639741  0.56731852  0.46021139  1
  O2-  O371  1  0.40611705  0.58402557  0.77823021  1
  O2-  O372  1  0.75442915  0.08302420  0.10987075  1
  O2-  O373  1  0.76495916  0.07753403  0.45365569  1
  O2-  O374  1  0.75287719  0.08222532  0.77818348  1
  O2-  O375  1  0.74916267  0.57468422  0.11704744  1
  O2-  O376  1  0.77250823  0.58120403  0.45982101  1
  O2-  O377  1  0.77116917  0.58843496  0.76916210  1
  O2-  O378  1  0.25340430  0.07459105  0.21925170  1
  O2-  O379  1  0.23170985  0.07550378  0.53670403  1
  O2-  O380  1  0.24978295  0.08519149  0.89757101  1
  O2-  O381  1  0.26892529  0.58143364  0.21500667  1
  O2-  O382  1  0.23477889  0.57884346  0.54881260  1
  O2-  O383  1  0.26472749  0.58166529  0.88814660  1
  O2-  O384  1  0.58543659  0.08742858  0.22444691  1
  O2-  O385  1  0.59648289  0.08038606  0.55273294  1
  O2-  O386  1  0.58260420  0.07736930  0.89034756  1
  O2-  O387  1  0.59308408  0.58195357  0.22840181  1
  O2-  O388  1  0.60750843  0.57738000  0.55035784  1
  O2-  O389  1  0.57284378  0.58144899  0.87286487  1
  O2-  O390  1  0.91920922  0.08388763  0.21488095  1
  O2-  O391  1  0.91740054  0.08006653  0.55265470  1
  O2-  O392  1  0.91062816  0.07067771  0.89584543  1
  O2-  O393  1  0.88527912  0.58148149  0.21304620  1
  O2-  O394  1  0.91850514  0.57808806  0.54438932  1
  O2-  O395  1  0.91768306  0.58124531  0.88304766  1
  O2-  O396  1  0.09117067  0.41742703  0.12360728  1
  O2-  O397  1  0.09784932  0.41555392  0.42692523  1
  O2-  O398  1  0.08724875  0.42301495  0.77360263  1
  O2-  O399  1  0.07737644  0.91903623  0.11843827  1
  O2-  O400  1  0.07488957  0.91818961  0.44816753  1
  O2-  O401  1  0.08155465  0.91119243  0.78714159  1
  O2-  O402  1  0.40800608  0.42195068  0.12106531  1
  O2-  O403  1  0.41774024  0.41831038  0.42088223  1
  O2-  O404  1  0.41830421  0.42157740  0.77982659  1
  O2-  O405  1  0.41095011  0.92618704  0.11796402  1
  O2-  O406  1  0.40919998  0.91259931  0.43731549  1
  O2-  O407  1  0.42435056  0.91913679  0.78170828  1
  O2-  O408  1  0.74339436  0.42549754  0.11377157  1
  O2-  O409  1  0.72793904  0.41830783  0.40498065  1
  O2-  O410  1  0.74063017  0.42375412  0.77764078  1
  O2-  O411  1  0.75348419  0.92304374  0.11213283  1
  O2-  O412  1  0.76512727  0.91659145  0.46087335  1
  O2-  O413  1  0.75467620  0.91367582  0.76258877  1
  O2-  O414  1  0.24348908  0.42285564  0.22364554  1
  O2-  O415  1  0.24531381  0.42100281  0.55646275  1
  O2-  O416  1  0.23650481  0.41924532  0.88144280  1
  O2-  O417  1  0.25730849  0.91621392  0.24865355  1
  O2-  O418  1  0.24142050  0.92422598  0.54332399  1
  O2-  O419  1  0.23776792  0.91252816  0.88631425  1
  O2-  O420  1  0.60798373  0.42046164  0.25222840  1
  O2-  O421  1  0.58518785  0.41753258  0.55452998  1
  O2-  O422  1  0.57304127  0.41913203  0.88392819  1
  O2-  O423  1  0.59471670  0.91593696  0.21483786  1
  O2-  O424  1  0.59440220  0.91641999  0.56072363  1
  O2-  O425  1  0.59070623  0.92486157  0.87844557  1
  O2-  O426  1  0.90197249  0.41841289  0.23121026  1
  O2-  O427  1  0.91752260  0.41869181  0.58174406  1
  O2-  O428  1  0.93140469  0.42322342  0.88057152  1
  O2-  O429  1  0.89637664  0.91932159  0.21758122  1
  O2-  O430  1  0.93986319  0.91756993  0.55091482  1
  O2-  O431  1  0.93169471  0.91683985  0.87801067  1
  O2-  O432  1  -0.00151843  -0.01450516  0.00238077  1
  O2-  O433  1  -0.01045868  -0.00918964  0.34978474  1
  O2-  O434  1  -0.00582765  -0.00812630  0.69305878  1
  O2-  O435  1  0.00700257  0.49261207  -0.00449658  1
  O2-  O436  1  -0.01687832  0.51022416  0.35200245  1
  O2-  O437  1  -0.00678480  0.51671627  0.67345544  1
  O2-  O438  1  0.31683290  0.00664068  0.02473039  1
  O2-  O439  1  0.30486800  0.00113663  0.36103174  1
  O2-  O440  1  0.31547067  0.00331346  0.69597021  1
  O2-  O441  1  0.32290650  0.48966980  0.01839932  1
  O2-  O442  1  0.34594517  0.51623963  0.33001289  1
  O2-  O443  1  0.33647462  0.51454049  0.65060276  1
  O2-  O444  1  0.68671776  -0.00683330  -0.02874311  1
  O2-  O445  1  0.68416610  -0.00398650  0.29787578  1
  O2-  O446  1  0.67897295  0.00326894  0.65283564  1
  O2-  O447  1  0.67283340  0.48949751  -0.01949492  1
  O2-  O448  1  0.65966625  0.52785622  0.36283494  1
  O2-  O449  1  0.65113754  0.50546273  0.69605021  1
  O2-  O450  1  0.15431335  -0.01893066  -0.01784265  1
  O2-  O451  1  0.14542309  0.00089824  0.30414016  1
  O2-  O452  1  0.15391881  -0.00821978  0.64829803  1
  O2-  O453  1  0.17049547  0.49428042  0.02102885  1
  O2-  O454  1  0.19577794  0.50600701  0.37102129  1
  O2-  O455  1  0.17850764  0.51520865  0.68306613  1
  O2-  O456  1  0.47599174  -0.01233325  -0.01805101  1
  O2-  O457  1  0.49658765  -0.01458081  0.32979618  1
  O2-  O458  1  0.52389225  -0.00310287  0.70632721  1
  O2-  O459  1  0.45919121  0.50591611  -0.05474016  1
  O2-  O460  1  0.50050371  0.51397533  0.33750741  1
  O2-  O461  1  0.50017031  0.51502342  0.65976004  1
  O2-  O462  1  0.84564668  -0.00666422  0.02007350  1
  O2-  O463  1  0.84237439  -0.00773469  0.35562615  1
  O2-  O464  1  0.83949550  0.01738829  0.67354437  1
  O2-  O465  1  0.83829747  0.50995025  0.01589973  1
  O2-  O466  1  0.81893099  0.51563480  0.33361201  1
  O2-  O467  1  0.83386372  0.51552286  0.66863979  1
  O2-  O468  1  0.58268418  0.74578011  0.94447560  1
  O2-  O469  1  0.41904306  0.75453868  0.73374260  1
  O2-  O470  1  0.07739683  0.25046086  0.72309158  1
  O2-  O471  1  0.91183597  0.24884821  0.27681816  1
  O2-  O472  1  0.91505367  0.25691181  0.92670706  1
  O2-  O473  1  0.42345138  0.24556497  0.72352294  1
  O2-  O474  1  0.91140734  0.24857211  0.61097529  1
  O2-  O475  1  0.73542801  0.74810545  0.05945683  1
  O2-  O476  1  0.24871765  0.74760273  0.59389123  1
  O2-  O477  1  0.76853692  0.25100863  0.39930712  1
  O2-  O478  1  0.41613039  0.25657835  0.06649604  1
  O2-  O479  1  0.57580157  0.25086775  0.92740741  1
  O2-  O480  1  0.42820972  0.74771582  0.05698847  1
  O2-  O481  1  0.73875637  0.24855873  0.72310609  1
  O2-  O482  1  0.06154252  0.25146701  0.38966188  1
  O2-  O483  1  0.58467496  0.74899088  0.27483978  1
  O2-  O484  1  0.08801835  0.25249331  0.05729698  1
  O2-  O485  1  0.24902602  0.25302258  0.94519361  1
  O2-  O486  1  0.74935820  0.75037303  0.38806967  1
  O2-  O487  1  0.42113023  0.74906266  0.39965367  1
  O2-  O488  1  0.57690660  0.24438539  0.61287703  1
  O2-  O489  1  0.41110280  0.25329602  0.40721534  1
  O2-  O490  1  0.07827734  0.74945734  0.39661244  1
  O2-  O491  1  0.75735489  0.25393176  0.06749761  1
  O2-  O492  1  0.25342264  0.25508959  0.59617881  1
